MODEL 1
REMARK VINA RESULT:     -11.6      0.000      0.000
REMARK SMILES O=C(OCCOCCOC(=O)c1ccc(-n2cc(CSc3nc4ccccc4c(=O)n3-c3ccc(Br)cc3)nn2)cc1)c1ccc(-c2c3nc(c(-c4c(F)cccc4F)c4ccc([nH]4)c(-c4c(F)cccc4F)c4nc(c(-c5c(F)cccc5F)c5ccc2[nH]5)C=C4)C=C3)cc1
REMARK SMILES IDX 7 1 6 2 5 3 4 4 3 5 2 6 1 7 43 8 44 9 96 10 45 11 95 12
REMARK SMILES IDX 46 13 47 14 48 15 89 16 49 17 94 18 88 19 90 20 50 21 93 22
REMARK SMILES IDX 87 23 86 24 51 26 77 27 60 28 76 29 61 30 64 31 75 32 91 33
REMARK SMILES IDX 62 34 63 35 74 37 92 38 65 39 52 40 53 41 58 42 54 43 55 44
REMARK SMILES IDX 57 45 59 46 56 47 78 48 79 49 84 50 80 51 81 52 83 53 85 54
REMARK SMILES IDX 82 55 66 56 67 57 72 58 68 59 69 60 71 61 73 62 70 63 8 64
REMARK SMILES IDX 9 65 10 66 11 67 12 68 13 69 42 70 14 71 41 72 15 73 16 74
REMARK SMILES IDX 17 75 40 76 18 77 39 78 19 79 20 80 21 81 22 82 31 83 23 84
REMARK SMILES IDX 29 85 24 86 28 87 30 88 25 89 27 90 26 91 32 92 33 93 38 94
REMARK SMILES IDX 34 95 37 96 35 97 36 98
REMARK H PARENT 90 25 64 36
REMARK Flexibility Score: inf
ROOT
ATOM      1  C   UNL A   1      35.265  21.444  26.070  1.00  0.00     0.202 C 
ENDROOT
BRANCH   1   2
ATOM      2  O   UNL A   1      36.173  21.210  24.979  1.00  0.00    -0.374 OA
BRANCH   2   3
ATOM      3  C   UNL A   1      37.527  21.602  25.186  1.00  0.00     0.202 C 
BRANCH   3   4
ATOM      4  C   UNL A   1      38.598  20.510  25.231  1.00  0.00     0.261 C 
BRANCH   4   5
ATOM      5  O   UNL A   1      39.573  20.694  26.275  1.00  0.00    -0.460 OA
BRANCH   5   6
ATOM      6  C   UNL A   1      40.874  20.352  26.136  1.00  0.00     0.338 C 
ATOM      7  O   UNL A   1      41.203  19.215  25.816  1.00  0.00    -0.246 OA
BRANCH   6   8
ATOM      8  C   UNL A   1      41.860  21.462  26.083  1.00  0.00     0.060 A 
ATOM      9  C   UNL A   1      43.246  21.284  26.084  1.00  0.00     0.016 A 
ATOM     10  C   UNL A   1      41.336  22.757  26.166  1.00  0.00     0.016 A 
ATOM     11  C   UNL A   1      44.075  22.304  26.481  1.00  0.00     0.010 A 
ATOM     12  C   UNL A   1      42.174  23.811  26.479  1.00  0.00     0.010 A 
ATOM     13  C   UNL A   1      43.509  23.533  26.777  1.00  0.00    -0.014 A 
BRANCH  13  14
ATOM     14  C   UNL A   1      44.348  24.472  27.500  1.00  0.00     0.031 A 
ATOM     15  C   UNL A   1      44.226  24.462  28.984  1.00  0.00     0.074 A 
ATOM     16  C   UNL A   1      45.216  25.228  26.800  1.00  0.00     0.049 A 
ATOM     17  N   UNL A   1      44.112  25.457  29.805  1.00  0.00    -0.248 NA
ATOM     18  C   UNL A   1      44.145  23.139  29.631  1.00  0.00     0.031 C 
ATOM     19  C   UNL A   1      45.534  25.140  25.366  1.00  0.00     0.029 A 
ATOM     20  N   UNL A   1      46.115  26.137  27.250  1.00  0.00    -0.354 N 
ATOM     21  C   UNL A   1      44.130  24.898  31.080  1.00  0.00     0.074 A 
ATOM     22  C   UNL A   1      44.035  23.470  30.916  1.00  0.00     0.031 C 
ATOM     23  C   UNL A   1      46.727  25.725  25.145  1.00  0.00     0.029 A 
ATOM     24  C   UNL A   1      47.177  26.330  26.383  1.00  0.00     0.049 A 
ATOM     25  H   UNL A   1      46.022  26.612  28.107  1.00  0.00     0.167 HD
ATOM     26  C   UNL A   1      44.438  25.612  32.195  1.00  0.00     0.037 A 
ATOM     27  C   UNL A   1      48.394  26.817  26.713  1.00  0.00     0.037 A 
ATOM     28  C   UNL A   1      44.206  27.017  32.037  1.00  0.00     0.049 A 
ATOM     29  C   UNL A   1      48.260  27.520  28.015  1.00  0.00     0.074 A 
ATOM     30  C   UNL A   1      43.089  27.793  31.799  1.00  0.00     0.029 A 
ATOM     31  N   UNL A   1      45.280  27.843  31.821  1.00  0.00    -0.354 N 
ATOM     32  N   UNL A   1      47.574  28.616  28.187  1.00  0.00    -0.248 NA
ATOM     33  C   UNL A   1      48.526  26.757  29.226  1.00  0.00     0.031 C 
ATOM     34  C   UNL A   1      43.551  28.870  30.989  1.00  0.00     0.029 A 
ATOM     35  C   UNL A   1      44.922  28.688  30.801  1.00  0.00     0.049 A 
ATOM     36  H   UNL A   1      46.138  27.831  32.302  1.00  0.00     0.167 HD
ATOM     37  C   UNL A   1      46.991  28.485  29.442  1.00  0.00     0.074 A 
ATOM     38  C   UNL A   1      47.685  27.364  30.068  1.00  0.00     0.031 C 
ATOM     39  C   UNL A   1      45.816  29.109  29.751  1.00  0.00     0.037 A 
BRANCH  26  40
ATOM     40  C   UNL A   1      45.258  25.035  33.315  1.00  0.00     0.057 A 
ATOM     41  C   UNL A   1      44.676  24.778  34.565  1.00  0.00     0.134 A 
ATOM     42  C   UNL A   1      46.668  24.978  33.276  1.00  0.00     0.134 A 
ATOM     43  F   UNL A   1      43.347  24.847  34.732  1.00  0.00    -0.206 F 
ATOM     44  C   UNL A   1      45.448  24.508  35.702  1.00  0.00     0.040 A 
ATOM     45  C   UNL A   1      47.444  24.661  34.392  1.00  0.00     0.040 A 
ATOM     46  F   UNL A   1      47.362  25.320  32.182  1.00  0.00    -0.206 F 
ATOM     47  C   UNL A   1      46.836  24.448  35.618  1.00  0.00     0.006 A 
ENDBRANCH  26  40
BRANCH  27  48
ATOM     48  C   UNL A   1      49.684  26.353  26.156  1.00  0.00     0.057 A 
ATOM     49  C   UNL A   1      50.345  27.069  25.155  1.00  0.00     0.134 A 
ATOM     50  C   UNL A   1      50.409  25.295  26.741  1.00  0.00     0.134 A 
ATOM     51  F   UNL A   1      49.761  28.132  24.582  1.00  0.00    -0.206 F 
ATOM     52  C   UNL A   1      51.645  26.744  24.746  1.00  0.00     0.040 A 
ATOM     53  C   UNL A   1      51.698  24.948  26.332  1.00  0.00     0.040 A 
ATOM     54  F   UNL A   1      49.921  24.609  27.785  1.00  0.00    -0.206 F 
ATOM     55  C   UNL A   1      52.325  25.679  25.334  1.00  0.00     0.006 A 
ENDBRANCH  27  48
BRANCH  39  56
ATOM     56  C   UNL A   1      45.267  30.093  28.756  1.00  0.00     0.057 A 
ATOM     57  C   UNL A   1      44.360  29.731  27.749  1.00  0.00     0.134 A 
ATOM     58  C   UNL A   1      45.516  31.457  28.919  1.00  0.00     0.134 A 
ATOM     59  F   UNL A   1      43.966  28.461  27.601  1.00  0.00    -0.206 F 
ATOM     60  C   UNL A   1      43.766  30.677  26.908  1.00  0.00     0.040 A 
ATOM     61  C   UNL A   1      44.904  32.418  28.107  1.00  0.00     0.040 A 
ATOM     62  F   UNL A   1      46.314  31.886  29.910  1.00  0.00    -0.206 F 
ATOM     63  C   UNL A   1      44.035  32.027  27.090  1.00  0.00     0.006 A 
ENDBRANCH  39  56
ENDBRANCH  13  14
ENDBRANCH   6   8
ENDBRANCH   5   6
ENDBRANCH   4   5
ENDBRANCH   3   4
ENDBRANCH   2   3
ENDBRANCH   1   2
BRANCH   1  64
ATOM     64  C   UNL A   1      33.766  21.184  25.841  1.00  0.00     0.261 C 
BRANCH  64  65
ATOM     65  O   UNL A   1      33.203  22.123  24.901  1.00  0.00    -0.460 OA
BRANCH  65  66
ATOM     66  C   UNL A   1      32.045  22.719  25.302  1.00  0.00     0.338 C 
ATOM     67  O   UNL A   1      31.022  22.175  25.621  1.00  0.00    -0.246 OA
BRANCH  66  68
ATOM     68  C   UNL A   1      32.327  24.152  25.596  1.00  0.00     0.060 A 
ATOM     69  C   UNL A   1      31.232  24.924  26.015  1.00  0.00     0.018 A 
ATOM     70  C   UNL A   1      33.604  24.719  25.520  1.00  0.00     0.018 A 
ATOM     71  C   UNL A   1      31.399  26.264  26.341  1.00  0.00     0.029 A 
ATOM     72  C   UNL A   1      33.777  26.075  25.833  1.00  0.00     0.029 A 
ATOM     73  C   UNL A   1      32.669  26.836  26.240  1.00  0.00     0.066 A 
BRANCH  73  74
ATOM     74  N   UNL A   1      32.735  28.238  26.223  1.00  0.00    -0.220 N 
ATOM     75  C   UNL A   1      33.792  28.934  26.754  1.00  0.00     0.141 A 
ATOM     76  N   UNL A   1      31.703  29.067  26.005  1.00  0.00    -0.062 NA
ATOM     77  C   UNL A   1      33.365  30.229  26.887  1.00  0.00     0.093 A 
ATOM     78  N   UNL A   1      32.100  30.296  26.331  1.00  0.00    -0.134 NA
BRANCH  77  79
ATOM     79  C   UNL A   1      33.823  31.343  27.755  1.00  0.00     0.138 C 
BRANCH  79  80
ATOM     80  S   UNL A   1      35.467  32.031  27.850  1.00  0.00    -0.081 SA
BRANCH  80  81
ATOM     81  C   UNL A   1      36.583  31.127  28.826  1.00  0.00     0.176 A 
ATOM     82  N   UNL A   1      37.428  30.469  28.087  1.00  0.00    -0.223 NA
ATOM     83  N   UNL A   1      36.642  31.088  30.214  1.00  0.00    -0.255 N 
ATOM     84  C   UNL A   1      38.360  29.633  28.706  1.00  0.00     0.079 A 
ATOM     85  C   UNL A   1      37.045  29.842  30.720  1.00  0.00     0.266 A 
ATOM     86  C   UNL A   1      39.480  29.168  28.018  1.00  0.00     0.029 A 
ATOM     87  C   UNL A   1      38.130  29.175  29.992  1.00  0.00     0.066 A 
ATOM     88  O   UNL A   1      36.543  29.247  31.673  1.00  0.00    -0.268 OA
ATOM     89  C   UNL A   1      40.319  28.213  28.604  1.00  0.00     0.002 A 
ATOM     90  C   UNL A   1      38.924  28.183  30.573  1.00  0.00     0.016 A 
ATOM     91  C   UNL A   1      40.023  27.698  29.868  1.00  0.00     0.001 A 
BRANCH  83  92
ATOM     92  C   UNL A   1      36.237  32.118  31.162  1.00  0.00     0.051 A 
ATOM     93  C   UNL A   1      34.873  32.262  31.508  1.00  0.00     0.028 A 
ATOM     94  C   UNL A   1      37.110  33.034  31.759  1.00  0.00     0.028 A 
ATOM     95  C   UNL A   1      34.388  33.376  32.200  1.00  0.00     0.018 A 
ATOM     96  C   UNL A   1      36.633  34.177  32.423  1.00  0.00     0.018 A 
ATOM     97  C   UNL A   1      35.270  34.362  32.604  1.00  0.00     0.018 A 
ATOM     98  Br  UNL A   1      34.617  35.947  33.391  1.00  0.00    -0.051 Br
ENDBRANCH  83  92
ENDBRANCH  80  81
ENDBRANCH  79  80
ENDBRANCH  77  79
ENDBRANCH  73  74
ENDBRANCH  66  68
ENDBRANCH  65  66
ENDBRANCH  64  65
ENDBRANCH   1  64
TORSDOF 19
ENDMDL
MODEL 2
REMARK VINA RESULT:     -11.5      1.435      2.874
REMARK SMILES O=C(OCCOCCOC(=O)c1ccc(-n2cc(CSc3nc4ccccc4c(=O)n3-c3ccc(Br)cc3)nn2)cc1)c1ccc(-c2c3nc(c(-c4c(F)cccc4F)c4ccc([nH]4)c(-c4c(F)cccc4F)c4nc(c(-c5c(F)cccc5F)c5ccc2[nH]5)C=C4)C=C3)cc1
REMARK SMILES IDX 7 1 6 2 5 3 4 4 3 5 2 6 1 7 43 8 44 9 96 10 45 11 95 12
REMARK SMILES IDX 46 13 47 14 48 15 89 16 49 17 94 18 88 19 90 20 50 21 93 22
REMARK SMILES IDX 87 23 86 24 51 26 77 27 60 28 76 29 61 30 64 31 75 32 91 33
REMARK SMILES IDX 62 34 63 35 74 37 92 38 65 39 52 40 53 41 58 42 54 43 55 44
REMARK SMILES IDX 57 45 59 46 56 47 78 48 79 49 84 50 80 51 81 52 83 53 85 54
REMARK SMILES IDX 82 55 66 56 67 57 72 58 68 59 69 60 71 61 73 62 70 63 8 64
REMARK SMILES IDX 9 65 10 66 11 67 12 68 13 69 42 70 14 71 41 72 15 73 16 74
REMARK SMILES IDX 17 75 40 76 18 77 39 78 19 79 20 80 21 81 22 82 31 83 23 84
REMARK SMILES IDX 29 85 24 86 28 87 30 88 25 89 27 90 26 91 32 92 33 93 38 94
REMARK SMILES IDX 34 95 37 96 35 97 36 98
REMARK H PARENT 90 25 64 36
REMARK Flexibility Score: inf
ROOT
ATOM      1  C   UNL A   1      35.011  20.380  25.120  1.00  0.00     0.202 C 
ENDROOT
BRANCH   1   2
ATOM      2  O   UNL A   1      35.979  21.327  24.635  1.00  0.00    -0.374 OA
BRANCH   2   3
ATOM      3  C   UNL A   1      37.078  21.610  25.498  1.00  0.00     0.202 C 
BRANCH   3   4
ATOM      4  C   UNL A   1      38.342  20.758  25.361  1.00  0.00     0.261 C 
BRANCH   4   5
ATOM      5  O   UNL A   1      39.386  21.115  26.288  1.00  0.00    -0.460 OA
BRANCH   5   6
ATOM      6  C   UNL A   1      40.662  20.686  26.158  1.00  0.00     0.338 C 
ATOM      7  O   UNL A   1      40.916  19.530  25.839  1.00  0.00    -0.246 OA
BRANCH   6   8
ATOM      8  C   UNL A   1      41.722  21.728  26.116  1.00  0.00     0.060 A 
ATOM      9  C   UNL A   1      43.089  21.463  26.223  1.00  0.00     0.016 A 
ATOM     10  C   UNL A   1      41.281  23.056  26.094  1.00  0.00     0.016 A 
ATOM     11  C   UNL A   1      43.956  22.449  26.624  1.00  0.00     0.010 A 
ATOM     12  C   UNL A   1      42.164  24.070  26.410  1.00  0.00     0.010 A 
ATOM     13  C   UNL A   1      43.455  23.726  26.814  1.00  0.00    -0.014 A 
BRANCH  13  14
ATOM     14  C   UNL A   1      44.305  24.650  27.544  1.00  0.00     0.031 A 
ATOM     15  C   UNL A   1      44.174  24.640  29.027  1.00  0.00     0.074 A 
ATOM     16  C   UNL A   1      45.189  25.394  26.850  1.00  0.00     0.049 A 
ATOM     17  N   UNL A   1      44.071  25.636  29.849  1.00  0.00    -0.248 NA
ATOM     18  C   UNL A   1      44.066  23.319  29.672  1.00  0.00     0.031 C 
ATOM     19  C   UNL A   1      45.515  25.302  25.419  1.00  0.00     0.029 A 
ATOM     20  N   UNL A   1      46.100  26.286  27.308  1.00  0.00    -0.354 N 
ATOM     21  C   UNL A   1      44.072  25.075  31.124  1.00  0.00     0.074 A 
ATOM     22  C   UNL A   1      43.954  23.649  30.957  1.00  0.00     0.031 C 
ATOM     23  C   UNL A   1      46.719  25.868  25.205  1.00  0.00     0.029 A 
ATOM     24  C   UNL A   1      47.171  26.463  26.448  1.00  0.00     0.049 A 
ATOM     25  H   UNL A   1      46.010  26.762  28.165  1.00  0.00     0.167 HD
ATOM     26  C   UNL A   1      44.385  25.782  32.241  1.00  0.00     0.037 A 
ATOM     27  C   UNL A   1      48.394  26.930  26.786  1.00  0.00     0.037 A 
ATOM     28  C   UNL A   1      44.176  27.191  32.084  1.00  0.00     0.049 A 
ATOM     29  C   UNL A   1      48.263  27.633  28.088  1.00  0.00     0.074 A 
ATOM     30  C   UNL A   1      43.074  27.986  31.841  1.00  0.00     0.029 A 
ATOM     31  N   UNL A   1      45.265  27.999  31.876  1.00  0.00    -0.354 N 
ATOM     32  N   UNL A   1      47.594  28.740  28.257  1.00  0.00    -0.248 NA
ATOM     33  C   UNL A   1      48.509  26.864  29.299  1.00  0.00     0.031 C 
ATOM     34  C   UNL A   1      43.558  29.057  31.035  1.00  0.00     0.029 A 
ATOM     35  C   UNL A   1      44.927  28.852  30.855  1.00  0.00     0.049 A 
ATOM     36  H   UNL A   1      46.120  27.973  32.362  1.00  0.00     0.167 HD
ATOM     37  C   UNL A   1      47.002  28.616  29.508  1.00  0.00     0.074 A 
ATOM     38  C   UNL A   1      47.673  27.484  30.137  1.00  0.00     0.031 C 
ATOM     39  C   UNL A   1      45.835  29.260  29.811  1.00  0.00     0.037 A 
BRANCH  26  40
ATOM     40  C   UNL A   1      45.188  25.191  33.365  1.00  0.00     0.057 A 
ATOM     41  C   UNL A   1      46.557  24.933  33.205  1.00  0.00     0.134 A 
ATOM     42  C   UNL A   1      44.591  24.619  34.510  1.00  0.00     0.134 A 
ATOM     43  F   UNL A   1      47.221  25.387  32.131  1.00  0.00    -0.206 F 
ATOM     44  C   UNL A   1      47.275  24.139  34.108  1.00  0.00     0.040 A 
ATOM     45  C   UNL A   1      45.308  23.869  35.443  1.00  0.00     0.040 A 
ATOM     46  F   UNL A   1      43.270  24.680  34.726  1.00  0.00    -0.206 F 
ATOM     47  C   UNL A   1      46.652  23.605  35.232  1.00  0.00     0.006 A 
ENDBRANCH  26  40
BRANCH  27  48
ATOM     48  C   UNL A   1      49.679  26.446  26.236  1.00  0.00     0.057 A 
ATOM     49  C   UNL A   1      50.432  27.222  25.351  1.00  0.00     0.134 A 
ATOM     50  C   UNL A   1      50.309  25.284  26.729  1.00  0.00     0.134 A 
ATOM     51  F   UNL A   1      49.942  28.376  24.876  1.00  0.00    -0.206 F 
ATOM     52  C   UNL A   1      51.729  26.858  24.964  1.00  0.00     0.040 A 
ATOM     53  C   UNL A   1      51.593  24.900  26.339  1.00  0.00     0.040 A 
ATOM     54  F   UNL A   1      49.728  24.522  27.668  1.00  0.00    -0.206 F 
ATOM     55  C   UNL A   1      52.312  25.693  25.457  1.00  0.00     0.006 A 
ENDBRANCH  27  48
BRANCH  39  56
ATOM     56  C   UNL A   1      45.308  30.254  28.814  1.00  0.00     0.057 A 
ATOM     57  C   UNL A   1      44.474  29.892  27.747  1.00  0.00     0.134 A 
ATOM     58  C   UNL A   1      45.498  31.620  29.030  1.00  0.00     0.134 A 
ATOM     59  F   UNL A   1      44.135  28.614  27.540  1.00  0.00    -0.206 F 
ATOM     60  C   UNL A   1      43.896  30.841  26.900  1.00  0.00     0.040 A 
ATOM     61  C   UNL A   1      44.900  32.584  28.212  1.00  0.00     0.040 A 
ATOM     62  F   UNL A   1      46.222  32.046  30.078  1.00  0.00    -0.206 F 
ATOM     63  C   UNL A   1      44.104  32.195  27.135  1.00  0.00     0.006 A 
ENDBRANCH  39  56
ENDBRANCH  13  14
ENDBRANCH   6   8
ENDBRANCH   5   6
ENDBRANCH   4   5
ENDBRANCH   3   4
ENDBRANCH   2   3
ENDBRANCH   1   2
BRANCH   1  64
ATOM     64  C   UNL A   1      33.558  20.506  24.634  1.00  0.00     0.261 C 
BRANCH  64  65
ATOM     65  O   UNL A   1      33.229  21.870  24.298  1.00  0.00    -0.460 OA
BRANCH  65  66
ATOM     66  C   UNL A   1      32.267  22.443  25.077  1.00  0.00     0.338 C 
ATOM     67  O   UNL A   1      31.396  21.880  25.683  1.00  0.00    -0.246 OA
BRANCH  66  68
ATOM     68  C   UNL A   1      32.644  23.862  25.329  1.00  0.00     0.060 A 
ATOM     69  C   UNL A   1      31.665  24.662  25.939  1.00  0.00     0.018 A 
ATOM     70  C   UNL A   1      33.906  24.389  25.036  1.00  0.00     0.018 A 
ATOM     71  C   UNL A   1      31.932  25.991  26.242  1.00  0.00     0.029 A 
ATOM     72  C   UNL A   1      34.177  25.735  25.325  1.00  0.00     0.029 A 
ATOM     73  C   UNL A   1      33.183  26.524  25.925  1.00  0.00     0.066 A 
BRANCH  73  74
ATOM     74  N   UNL A   1      33.292  27.924  25.908  1.00  0.00    -0.220 N 
ATOM     75  C   UNL A   1      34.109  28.611  26.771  1.00  0.00     0.141 A 
ATOM     76  N   UNL A   1      32.430  28.768  25.321  1.00  0.00    -0.062 NA
ATOM     77  C   UNL A   1      33.701  29.918  26.719  1.00  0.00     0.093 A 
ATOM     78  N   UNL A   1      32.721  29.997  25.746  1.00  0.00    -0.134 NA
BRANCH  77  79
ATOM     79  C   UNL A   1      33.851  31.044  27.674  1.00  0.00     0.138 C 
BRANCH  79  80
ATOM     80  S   UNL A   1      35.318  32.015  27.976  1.00  0.00    -0.081 SA
BRANCH  80  81
ATOM     81  C   UNL A   1      35.861  32.026  29.626  1.00  0.00     0.176 A 
ATOM     82  N   UNL A   1      35.034  32.681  30.389  1.00  0.00    -0.223 NA
ATOM     83  N   UNL A   1      36.999  31.414  30.137  1.00  0.00    -0.255 N 
ATOM     84  C   UNL A   1      35.347  32.846  31.739  1.00  0.00     0.079 A 
ATOM     85  C   UNL A   1      37.586  32.127  31.194  1.00  0.00     0.266 A 
ATOM     86  C   UNL A   1      34.377  33.237  32.661  1.00  0.00     0.029 A 
ATOM     87  C   UNL A   1      36.658  32.717  32.165  1.00  0.00     0.066 A 
ATOM     88  O   UNL A   1      38.789  32.341  31.348  1.00  0.00    -0.268 OA
ATOM     89  C   UNL A   1      34.741  33.545  33.977  1.00  0.00     0.002 A 
ATOM     90  C   UNL A   1      37.050  33.071  33.458  1.00  0.00     0.016 A 
ATOM     91  C   UNL A   1      36.082  33.492  34.367  1.00  0.00     0.001 A 
BRANCH  83  92
ATOM     92  C   UNL A   1      37.683  30.227  29.642  1.00  0.00     0.051 A 
ATOM     93  C   UNL A   1      37.758  29.068  30.449  1.00  0.00     0.028 A 
ATOM     94  C   UNL A   1      38.325  30.141  28.402  1.00  0.00     0.028 A 
ATOM     95  C   UNL A   1      38.608  27.998  30.148  1.00  0.00     0.018 A 
ATOM     96  C   UNL A   1      39.210  29.091  28.105  1.00  0.00     0.018 A 
ATOM     97  C   UNL A   1      39.378  28.044  29.000  1.00  0.00     0.018 A 
ATOM     98  Br  UNL A   1      40.649  26.692  28.661  1.00  0.00    -0.051 Br
ENDBRANCH  83  92
ENDBRANCH  80  81
ENDBRANCH  79  80
ENDBRANCH  77  79
ENDBRANCH  73  74
ENDBRANCH  66  68
ENDBRANCH  65  66
ENDBRANCH  64  65
ENDBRANCH   1  64
TORSDOF 19
ENDMDL
MODEL 3
REMARK VINA RESULT:     -11.5      3.629      9.742
REMARK SMILES O=C(OCCOCCOC(=O)c1ccc(-n2cc(CSc3nc4ccccc4c(=O)n3-c3ccc(Br)cc3)nn2)cc1)c1ccc(-c2c3nc(c(-c4c(F)cccc4F)c4ccc([nH]4)c(-c4c(F)cccc4F)c4nc(c(-c5c(F)cccc5F)c5ccc2[nH]5)C=C4)C=C3)cc1
REMARK SMILES IDX 7 1 6 2 5 3 4 4 3 5 2 6 1 7 43 8 44 9 96 10 45 11 95 12
REMARK SMILES IDX 46 13 47 14 48 15 89 16 49 17 94 18 88 19 90 20 50 21 93 22
REMARK SMILES IDX 87 23 86 24 51 26 77 27 60 28 76 29 61 30 64 31 75 32 91 33
REMARK SMILES IDX 62 34 63 35 74 37 92 38 65 39 52 40 53 41 58 42 54 43 55 44
REMARK SMILES IDX 57 45 59 46 56 47 78 48 79 49 84 50 80 51 81 52 83 53 85 54
REMARK SMILES IDX 82 55 66 56 67 57 72 58 68 59 69 60 71 61 73 62 70 63 8 64
REMARK SMILES IDX 9 65 10 66 11 67 12 68 13 69 42 70 14 71 41 72 15 73 16 74
REMARK SMILES IDX 17 75 40 76 18 77 39 78 19 79 20 80 21 81 22 82 31 83 23 84
REMARK SMILES IDX 29 85 24 86 28 87 30 88 25 89 27 90 26 91 32 92 33 93 38 94
REMARK SMILES IDX 34 95 37 96 35 97 36 98
REMARK H PARENT 90 25 64 36
REMARK Flexibility Score: inf
ROOT
ATOM      1  C   UNL A   1      35.909  31.625  30.677  1.00  0.00     0.202 C 
ENDROOT
BRANCH   1   2
ATOM      2  O   UNL A   1      35.259  32.909  30.679  1.00  0.00    -0.374 OA
BRANCH   2   3
ATOM      3  C   UNL A   1      34.793  33.382  31.940  1.00  0.00     0.202 C 
BRANCH   3   4
ATOM      4  C   UNL A   1      35.348  32.726  33.206  1.00  0.00     0.261 C 
BRANCH   4   5
ATOM      5  O   UNL A   1      36.319  33.532  33.901  1.00  0.00    -0.460 OA
BRANCH   5   6
ATOM      6  C   UNL A   1      37.366  33.005  34.576  1.00  0.00     0.338 C 
ATOM      7  O   UNL A   1      37.219  32.496  35.682  1.00  0.00    -0.246 OA
BRANCH   6   8
ATOM      8  C   UNL A   1      38.622  32.790  33.810  1.00  0.00     0.060 A 
ATOM      9  C   UNL A   1      38.694  32.737  32.417  1.00  0.00     0.016 A 
ATOM     10  C   UNL A   1      39.763  32.501  34.567  1.00  0.00     0.016 A 
ATOM     11  C   UNL A   1      39.748  32.107  31.801  1.00  0.00     0.010 A 
ATOM     12  C   UNL A   1      40.867  31.947  33.947  1.00  0.00     0.010 A 
ATOM     13  C   UNL A   1      40.777  31.624  32.593  1.00  0.00    -0.014 A 
BRANCH  13  14
ATOM     14  C   UNL A   1      41.691  30.689  31.961  1.00  0.00     0.031 A 
ATOM     15  C   UNL A   1      42.587  31.246  30.911  1.00  0.00     0.074 A 
ATOM     16  C   UNL A   1      41.717  29.418  32.406  1.00  0.00     0.049 A 
ATOM     17  N   UNL A   1      42.863  30.778  29.735  1.00  0.00    -0.248 NA
ATOM     18  C   UNL A   1      43.201  32.557  31.193  1.00  0.00     0.031 C 
ATOM     19  C   UNL A   1      41.015  28.857  33.571  1.00  0.00     0.029 A 
ATOM     20  N   UNL A   1      42.500  28.387  32.004  1.00  0.00    -0.354 N 
ATOM     21  C   UNL A   1      43.825  31.635  29.205  1.00  0.00     0.074 A 
ATOM     22  C   UNL A   1      43.911  32.770  30.087  1.00  0.00     0.031 C 
ATOM     23  C   UNL A   1      41.627  27.716  33.944  1.00  0.00     0.029 A 
ATOM     24  C   UNL A   1      42.662  27.413  32.975  1.00  0.00     0.049 A 
ATOM     25  H   UNL A   1      42.912  28.336  31.112  1.00  0.00     0.167 HD
ATOM     26  C   UNL A   1      44.654  31.276  28.190  1.00  0.00     0.037 A 
ATOM     27  C   UNL A   1      43.674  26.519  33.044  1.00  0.00     0.037 A 
ATOM     28  C   UNL A   1      44.121  30.218  27.383  1.00  0.00     0.049 A 
ATOM     29  C   UNL A   1      44.308  26.453  31.703  1.00  0.00     0.074 A 
ATOM     30  C   UNL A   1      43.008  30.082  26.577  1.00  0.00     0.029 A 
ATOM     31  N   UNL A   1      44.604  28.947  27.559  1.00  0.00    -0.354 N 
ATOM     32  N   UNL A   1      43.721  25.979  30.638  1.00  0.00    -0.248 NA
ATOM     33  C   UNL A   1      45.444  27.327  31.448  1.00  0.00     0.031 C 
ATOM     34  C   UNL A   1      42.608  28.723  26.722  1.00  0.00     0.029 A 
ATOM     35  C   UNL A   1      43.513  28.116  27.595  1.00  0.00     0.049 A 
ATOM     36  H   UNL A   1      45.548  28.682  27.643  1.00  0.00     0.167 HD
ATOM     37  C   UNL A   1      44.153  26.790  29.596  1.00  0.00     0.074 A 
ATOM     38  C   UNL A   1      45.279  27.542  30.140  1.00  0.00     0.031 C 
ATOM     39  C   UNL A   1      43.389  26.984  28.480  1.00  0.00     0.037 A 
BRANCH  26  40
ATOM     40  C   UNL A   1      46.097  31.692  28.149  1.00  0.00     0.057 A 
ATOM     41  C   UNL A   1      46.615  32.365  27.032  1.00  0.00     0.134 A 
ATOM     42  C   UNL A   1      47.056  31.210  29.066  1.00  0.00     0.134 A 
ATOM     43  F   UNL A   1      45.801  32.828  26.071  1.00  0.00    -0.206 F 
ATOM     44  C   UNL A   1      47.992  32.523  26.831  1.00  0.00     0.040 A 
ATOM     45  C   UNL A   1      48.427  31.405  28.902  1.00  0.00     0.040 A 
ATOM     46  F   UNL A   1      46.714  30.446  30.113  1.00  0.00    -0.206 F 
ATOM     47  C   UNL A   1      48.903  32.044  27.767  1.00  0.00     0.006 A 
ENDBRANCH  26  40
BRANCH  27  48
ATOM     48  C   UNL A   1      44.327  26.058  34.289  1.00  0.00     0.057 A 
ATOM     49  C   UNL A   1      44.972  26.951  35.148  1.00  0.00     0.134 A 
ATOM     50  C   UNL A   1      44.157  24.746  34.776  1.00  0.00     0.134 A 
ATOM     51  F   UNL A   1      45.125  28.237  34.798  1.00  0.00    -0.206 F 
ATOM     52  C   UNL A   1      45.435  26.561  36.411  1.00  0.00     0.040 A 
ATOM     53  C   UNL A   1      44.629  24.339  36.025  1.00  0.00     0.040 A 
ATOM     54  F   UNL A   1      43.456  23.832  34.087  1.00  0.00    -0.206 F 
ATOM     55  C   UNL A   1      45.266  25.251  36.853  1.00  0.00     0.006 A 
ENDBRANCH  27  48
BRANCH  39  56
ATOM     56  C   UNL A   1      42.149  26.148  28.330  1.00  0.00     0.057 A 
ATOM     57  C   UNL A   1      40.889  26.566  28.784  1.00  0.00     0.134 A 
ATOM     58  C   UNL A   1      42.187  24.982  27.562  1.00  0.00     0.134 A 
ATOM     59  F   UNL A   1      40.739  27.734  29.419  1.00  0.00    -0.206 F 
ATOM     60  C   UNL A   1      39.727  25.832  28.531  1.00  0.00     0.040 A 
ATOM     61  C   UNL A   1      41.028  24.254  27.273  1.00  0.00     0.040 A 
ATOM     62  F   UNL A   1      43.345  24.559  27.030  1.00  0.00    -0.206 F 
ATOM     63  C   UNL A   1      39.794  24.673  27.768  1.00  0.00     0.006 A 
ENDBRANCH  39  56
ENDBRANCH  13  14
ENDBRANCH   6   8
ENDBRANCH   5   6
ENDBRANCH   4   5
ENDBRANCH   3   4
ENDBRANCH   2   3
ENDBRANCH   1   2
BRANCH   1  64
ATOM     64  C   UNL A   1      36.806  31.262  29.481  1.00  0.00     0.261 C 
BRANCH  64  65
ATOM     65  O   UNL A   1      36.075  30.534  28.473  1.00  0.00    -0.460 OA
BRANCH  65  66
ATOM     66  C   UNL A   1      35.128  31.256  27.809  1.00  0.00     0.338 C 
ATOM     67  O   UNL A   1      35.234  32.377  27.390  1.00  0.00    -0.246 OA
BRANCH  66  68
ATOM     68  C   UNL A   1      34.035  30.334  27.392  1.00  0.00     0.060 A 
ATOM     69  C   UNL A   1      34.394  28.989  27.214  1.00  0.00     0.018 A 
ATOM     70  C   UNL A   1      32.705  30.738  27.229  1.00  0.00     0.018 A 
ATOM     71  C   UNL A   1      33.439  28.047  26.854  1.00  0.00     0.029 A 
ATOM     72  C   UNL A   1      31.738  29.795  26.851  1.00  0.00     0.029 A 
ATOM     73  C   UNL A   1      32.117  28.456  26.666  1.00  0.00     0.066 A 
BRANCH  73  74
ATOM     74  N   UNL A   1      31.273  27.577  25.967  1.00  0.00    -0.220 N 
ATOM     75  C   UNL A   1      31.029  26.295  26.390  1.00  0.00     0.141 A 
ATOM     76  N   UNL A   1      30.871  27.726  24.696  1.00  0.00    -0.062 NA
ATOM     77  C   UNL A   1      30.482  25.639  25.318  1.00  0.00     0.093 A 
ATOM     78  N   UNL A   1      30.315  26.576  24.315  1.00  0.00    -0.134 NA
BRANCH  77  79
ATOM     79  C   UNL A   1      30.401  24.199  24.971  1.00  0.00     0.138 C 
BRANCH  79  80
ATOM     80  S   UNL A   1      30.904  22.815  25.980  1.00  0.00    -0.081 SA
BRANCH  80  81
ATOM     81  C   UNL A   1      32.157  21.827  25.293  1.00  0.00     0.176 A 
ATOM     82  N   UNL A   1      31.838  20.566  25.338  1.00  0.00    -0.223 NA
ATOM     83  N   UNL A   1      33.350  22.260  24.728  1.00  0.00    -0.255 N 
ATOM     84  C   UNL A   1      32.761  19.620  24.887  1.00  0.00     0.079 A 
ATOM     85  C   UNL A   1      34.419  21.374  24.937  1.00  0.00     0.266 A 
ATOM     86  C   UNL A   1      32.371  18.311  24.603  1.00  0.00     0.029 A 
ATOM     87  C   UNL A   1      34.104  19.947  24.808  1.00  0.00     0.066 A 
ATOM     88  O   UNL A   1      35.565  21.681  25.264  1.00  0.00    -0.268 OA
ATOM     89  C   UNL A   1      33.334  17.341  24.300  1.00  0.00     0.002 A 
ATOM     90  C   UNL A   1      35.084  18.982  24.560  1.00  0.00     0.016 A 
ATOM     91  C   UNL A   1      34.691  17.670  24.310  1.00  0.00     0.001 A 
BRANCH  83  92
ATOM     92  C   UNL A   1      33.627  23.531  24.072  1.00  0.00     0.051 A 
ATOM     93  C   UNL A   1      34.111  24.625  24.827  1.00  0.00     0.028 A 
ATOM     94  C   UNL A   1      33.418  23.784  22.711  1.00  0.00     0.028 A 
ATOM     95  C   UNL A   1      34.152  25.928  24.320  1.00  0.00     0.018 A 
ATOM     96  C   UNL A   1      33.419  25.092  22.199  1.00  0.00     0.018 A 
ATOM     97  C   UNL A   1      33.747  26.163  23.019  1.00  0.00     0.018 A 
ATOM     98  Br  UNL A   1      33.639  27.931  22.370  1.00  0.00    -0.051 Br
ENDBRANCH  83  92
ENDBRANCH  80  81
ENDBRANCH  79  80
ENDBRANCH  77  79
ENDBRANCH  73  74
ENDBRANCH  66  68
ENDBRANCH  65  66
ENDBRANCH  64  65
ENDBRANCH   1  64
TORSDOF 19
ENDMDL
