MODEL 1
REMARK VINA RESULT:     -12.6      0.000      0.000
REMARK SMILES CC1CC[NH+]([C@H](c2ccc(F)cc2)c2ccc([C@@H](C)C(=O)OCCOCCOC(=O)c3ccc(-c4c5nc(c(-c6c(F)cccc6F)c6ccc([nH]6)c(-c6c(F)cccc6F)c6nc(c(-c7c(F)cccc7F)c7ccc4[nH]7)C=C6)C=C5)cc3)cc2-c2ccc(C(F)(F)F)cc2)CC1
REMARK SMILES IDX 24 1 23 2 22 3 20 4 21 5 18 6 19 7 17 8 14 9 15 10 86 11
REMARK SMILES IDX 16 12 85 13 6 14 5 15 1 16 2 17 3 18 98 19 4 20 97 21 7 23
REMARK SMILES IDX 8 24 13 25 9 26 12 27 10 28 11 29 87 30 88 31 96 32 89 33
REMARK SMILES IDX 95 34 90 35 91 36 92 37 93 38 94 39 25 40 26 41 27 42 28 43
REMARK SMILES IDX 29 44 30 45 31 46 32 47 84 48 33 49 83 50 34 51 35 52 36 53
REMARK SMILES IDX 77 54 37 55 82 56 76 57 78 58 38 59 81 60 75 61 74 62 39 64
REMARK SMILES IDX 65 65 48 66 64 67 49 68 52 69 63 70 79 71 50 72 51 73 62 75
REMARK SMILES IDX 80 76 53 77 40 78 41 79 46 80 42 81 43 82 45 83 47 84 44 85
REMARK SMILES IDX 66 86 67 87 72 88 68 89 69 90 71 91 73 92 70 93 54 94 55 95
REMARK SMILES IDX 60 96 56 97 57 98 59 99 61 100 58 101
REMARK H PARENT 5 22 78 63 52 74
REMARK Flexibility Score: inf
ROOT
ATOM      1  C   UNL A   1      42.901  19.791  26.154  1.00  0.00     0.202 C 
ENDROOT
BRANCH   1   2
ATOM      2  C   UNL A   1      41.371  19.804  26.131  1.00  0.00     0.261 C 
BRANCH   2   3
ATOM      3  O   UNL A   1      40.884  21.063  25.628  1.00  0.00    -0.463 OA
BRANCH   3   4
ATOM      4  C   UNL A   1      40.235  21.861  26.515  1.00  0.00     0.313 C 
ATOM      5  O   UNL A   1      40.392  21.814  27.732  1.00  0.00    -0.252 OA
BRANCH   4   6
ATOM      6  C   UNL A   1      39.231  22.805  25.865  1.00  0.00     0.126 C 
ATOM      7  C   UNL A   1      39.091  24.057  26.726  1.00  0.00     0.025 C 
BRANCH   6   8
ATOM      8  C   UNL A   1      37.874  22.231  25.466  1.00  0.00    -0.033 A 
ATOM      9  C   UNL A   1      35.230  21.275  24.832  1.00  0.00     0.022 A 
ATOM     10  C   UNL A   1      36.217  20.450  25.412  1.00  0.00     0.011 A 
ATOM     11  C   UNL A   1      35.613  22.612  24.521  1.00  0.00    -0.009 A 
ATOM     12  C   UNL A   1      37.496  20.919  25.744  1.00  0.00     0.005 A 
ATOM     13  C   UNL A   1      36.924  23.053  24.840  1.00  0.00     0.013 A 
BRANCH   9  14
ATOM     14  C   UNL A   1      33.774  20.771  24.578  1.00  0.00     0.247 C 
BRANCH  14  15
ATOM     15  N   UNL A   1      32.634  21.455  25.273  1.00  0.00    -0.325 N 
ATOM     16  C   UNL A   1      30.280  24.908  26.657  1.00  0.00     0.008 C 
ATOM     17  C   UNL A   1      31.284  23.939  26.042  1.00  0.00    -0.003 C 
ATOM     18  C   UNL A   1      30.634  23.005  25.021  1.00  0.00     0.065 C 
ATOM     19  C   UNL A   1      31.921  23.054  27.106  1.00  0.00     0.065 C 
ATOM     20  C   UNL A   1      31.675  22.089  24.364  1.00  0.00     0.263 C 
ATOM     21  C   UNL A   1      33.001  22.171  26.491  1.00  0.00     0.263 C 
ATOM     22  H   UNL A   1      32.064  20.709  25.673  1.00  0.00     0.348 HD
ENDBRANCH  14  15
BRANCH  14  23
ATOM     23  C   UNL A   1      33.633  19.239  24.662  1.00  0.00     0.014 A 
ATOM     24  C   UNL A   1      34.379  18.379  23.835  1.00  0.00     0.013 A 
ATOM     25  C   UNL A   1      32.753  18.669  25.602  1.00  0.00     0.013 A 
ATOM     26  C   UNL A   1      34.241  16.994  23.937  1.00  0.00     0.040 A 
ATOM     27  C   UNL A   1      32.602  17.284  25.689  1.00  0.00     0.040 A 
ATOM     28  C   UNL A   1      33.349  16.459  24.857  1.00  0.00     0.123 A 
ATOM     29  F   UNL A   1      33.211  15.130  24.948  1.00  0.00    -0.207 F 
ENDBRANCH  14  23
ENDBRANCH   9  14
BRANCH  11  30
ATOM     30  C   UNL A   1      34.720  23.584  23.862  1.00  0.00    -0.018 A 
ATOM     31  C   UNL A   1      34.156  23.288  22.610  1.00  0.00     0.009 A 
ATOM     32  C   UNL A   1      34.412  24.819  24.450  1.00  0.00     0.009 A 
ATOM     33  C   UNL A   1      33.275  24.176  21.987  1.00  0.00     0.014 A 
ATOM     34  C   UNL A   1      33.522  25.706  23.834  1.00  0.00     0.014 A 
ATOM     35  C   UNL A   1      32.933  25.387  22.603  1.00  0.00     0.056 A 
BRANCH  35  36
ATOM     36  C   UNL A   1      31.957  26.325  21.935  1.00  0.00     0.416 C 
ATOM     37  F   UNL A   1      31.680  25.958  20.652  1.00  0.00    -0.166 F 
ATOM     38  F   UNL A   1      30.757  26.380  22.575  1.00  0.00    -0.166 F 
ATOM     39  F   UNL A   1      32.400  27.611  21.868  1.00  0.00    -0.166 F 
ENDBRANCH  35  36
ENDBRANCH  11  30
ENDBRANCH   6   8
ENDBRANCH   4   6
ENDBRANCH   3   4
ENDBRANCH   2   3
ENDBRANCH   1   2
BRANCH   1  40
ATOM     40  O   UNL A   1      43.535  20.342  24.999  1.00  0.00    -0.374 OA
BRANCH  40  41
ATOM     41  C   UNL A   1      44.365  21.484  25.206  1.00  0.00     0.202 C 
BRANCH  41  42
ATOM     42  C   UNL A   1      44.166  22.639  24.221  1.00  0.00     0.261 C 
BRANCH  42  43
ATOM     43  O   UNL A   1      43.436  23.735  24.803  1.00  0.00    -0.460 OA
BRANCH  43  44
ATOM     44  C   UNL A   1      44.195  24.782  25.205  1.00  0.00     0.338 C 
ATOM     45  O   UNL A   1      45.273  25.136  24.747  1.00  0.00    -0.246 OA
BRANCH  44  46
ATOM     46  C   UNL A   1      43.469  25.568  26.222  1.00  0.00     0.060 A 
ATOM     47  C   UNL A   1      43.651  26.954  26.250  1.00  0.00     0.016 A 
ATOM     48  C   UNL A   1      42.667  24.948  27.179  1.00  0.00     0.016 A 
ATOM     49  C   UNL A   1      43.072  27.713  27.268  1.00  0.00     0.010 A 
ATOM     50  C   UNL A   1      42.075  25.708  28.190  1.00  0.00     0.010 A 
ATOM     51  C   UNL A   1      42.310  27.089  28.265  1.00  0.00    -0.014 A 
BRANCH  51  52
ATOM     52  C   UNL A   1      41.879  27.848  29.464  1.00  0.00     0.031 A 
ATOM     53  C   UNL A   1      40.649  28.711  29.384  1.00  0.00     0.074 A 
ATOM     54  C   UNL A   1      42.570  27.767  30.614  1.00  0.00     0.049 A 
ATOM     55  N   UNL A   1      40.100  29.460  30.305  1.00  0.00    -0.248 NA
ATOM     56  C   UNL A   1      39.949  28.742  28.089  1.00  0.00     0.031 C 
ATOM     57  C   UNL A   1      43.775  26.968  30.819  1.00  0.00     0.029 A 
ATOM     58  N   UNL A   1      42.353  28.371  31.827  1.00  0.00    -0.354 N 
ATOM     59  C   UNL A   1      38.996  30.049  29.704  1.00  0.00     0.074 A 
ATOM     60  C   UNL A   1      38.976  29.609  28.327  1.00  0.00     0.031 C 
ATOM     61  C   UNL A   1      44.190  27.125  32.087  1.00  0.00     0.029 A 
ATOM     62  C   UNL A   1      43.294  28.054  32.774  1.00  0.00     0.049 A 
ATOM     63  H   UNL A   1      41.595  28.975  32.001  1.00  0.00     0.167 HD
ATOM     64  C   UNL A   1      38.068  30.868  30.254  1.00  0.00     0.037 A 
ATOM     65  C   UNL A   1      43.422  28.469  34.049  1.00  0.00     0.037 A 
ATOM     66  C   UNL A   1      38.078  31.295  31.629  1.00  0.00     0.049 A 
ATOM     67  C   UNL A   1      42.404  29.410  34.633  1.00  0.00     0.074 A 
ATOM     68  C   UNL A   1      37.155  32.084  32.290  1.00  0.00     0.029 A 
ATOM     69  N   UNL A   1      39.063  30.971  32.549  1.00  0.00    -0.354 N 
ATOM     70  N   UNL A   1      41.339  29.926  34.066  1.00  0.00    -0.248 NA
ATOM     71  C   UNL A   1      42.601  29.826  36.029  1.00  0.00     0.031 C 
ATOM     72  C   UNL A   1      37.606  32.280  33.599  1.00  0.00     0.029 A 
ATOM     73  C   UNL A   1      38.785  31.570  33.766  1.00  0.00     0.049 A 
ATOM     74  H   UNL A   1      39.845  30.402  32.364  1.00  0.00     0.167 HD
ATOM     75  C   UNL A   1      40.730  30.709  35.040  1.00  0.00     0.074 A 
ATOM     76  C   UNL A   1      41.539  30.594  36.236  1.00  0.00     0.031 C 
ATOM     77  C   UNL A   1      39.600  31.452  34.949  1.00  0.00     0.037 A 
BRANCH  64  78
ATOM     78  C   UNL A   1      36.963  31.361  29.369  1.00  0.00     0.057 A 
ATOM     79  C   UNL A   1      35.894  30.524  29.026  1.00  0.00     0.134 A 
ATOM     80  C   UNL A   1      36.978  32.649  28.815  1.00  0.00     0.134 A 
ATOM     81  F   UNL A   1      35.822  29.277  29.516  1.00  0.00    -0.206 F 
ATOM     82  C   UNL A   1      34.885  30.945  28.159  1.00  0.00     0.040 A 
ATOM     83  C   UNL A   1      35.961  33.091  27.968  1.00  0.00     0.040 A 
ATOM     84  F   UNL A   1      37.967  33.504  29.115  1.00  0.00    -0.206 F 
ATOM     85  C   UNL A   1      34.915  32.236  27.631  1.00  0.00     0.006 A 
ENDBRANCH  64  78
BRANCH  65  86
ATOM     86  C   UNL A   1      44.555  27.967  34.866  1.00  0.00     0.057 A 
ATOM     87  C   UNL A   1      45.742  28.700  34.990  1.00  0.00     0.134 A 
ATOM     88  C   UNL A   1      44.490  26.725  35.503  1.00  0.00     0.134 A 
ATOM     89  F   UNL A   1      45.865  29.896  34.398  1.00  0.00    -0.206 F 
ATOM     90  C   UNL A   1      46.834  28.201  35.702  1.00  0.00     0.040 A 
ATOM     91  C   UNL A   1      45.568  26.223  36.234  1.00  0.00     0.040 A 
ATOM     92  F   UNL A   1      43.372  25.988  35.435  1.00  0.00    -0.206 F 
ATOM     93  C   UNL A   1      46.749  26.959  36.327  1.00  0.00     0.006 A 
ENDBRANCH  65  86
BRANCH  77  94
ATOM     94  C   UNL A   1      39.152  32.197  36.172  1.00  0.00     0.057 A 
ATOM     95  C   UNL A   1      38.216  31.633  37.049  1.00  0.00     0.134 A 
ATOM     96  C   UNL A   1      39.579  33.504  36.434  1.00  0.00     0.134 A 
ATOM     97  F   UNL A   1      37.758  30.388  36.847  1.00  0.00    -0.206 F 
ATOM     98  C   UNL A   1      37.707  32.349  38.132  1.00  0.00     0.040 A 
ATOM     99  C   UNL A   1      39.094  34.222  37.529  1.00  0.00     0.040 A 
ATOM    100  F   UNL A   1      40.480  34.097  35.637  1.00  0.00    -0.206 F 
ATOM    101  C   UNL A   1      38.147  33.648  38.375  1.00  0.00     0.006 A 
ENDBRANCH  77  94
ENDBRANCH  51  52
ENDBRANCH  44  46
ENDBRANCH  43  44
ENDBRANCH  42  43
ENDBRANCH  41  42
ENDBRANCH  40  41
ENDBRANCH   1  40
TORSDOF 20
ENDMDL
MODEL 2
REMARK VINA RESULT:     -12.5      0.324      5.656
REMARK SMILES CC1CC[NH+]([C@H](c2ccc(F)cc2)c2ccc([C@@H](C)C(=O)OCCOCCOC(=O)c3ccc(-c4c5nc(c(-c6c(F)cccc6F)c6ccc([nH]6)c(-c6c(F)cccc6F)c6nc(c(-c7c(F)cccc7F)c7ccc4[nH]7)C=C6)C=C5)cc3)cc2-c2ccc(C(F)(F)F)cc2)CC1
REMARK SMILES IDX 24 1 23 2 22 3 20 4 21 5 18 6 19 7 17 8 14 9 15 10 86 11
REMARK SMILES IDX 16 12 85 13 6 14 5 15 1 16 2 17 3 18 98 19 4 20 97 21 7 23
REMARK SMILES IDX 8 24 13 25 9 26 12 27 10 28 11 29 87 30 88 31 96 32 89 33
REMARK SMILES IDX 95 34 90 35 91 36 92 37 93 38 94 39 25 40 26 41 27 42 28 43
REMARK SMILES IDX 29 44 30 45 31 46 32 47 84 48 33 49 83 50 34 51 35 52 36 53
REMARK SMILES IDX 77 54 37 55 82 56 76 57 78 58 38 59 81 60 75 61 74 62 39 64
REMARK SMILES IDX 65 65 48 66 64 67 49 68 52 69 63 70 79 71 50 72 51 73 62 75
REMARK SMILES IDX 80 76 53 77 40 78 41 79 46 80 42 81 43 82 45 83 47 84 44 85
REMARK SMILES IDX 66 86 67 87 72 88 68 89 69 90 71 91 73 92 70 93 54 94 55 95
REMARK SMILES IDX 60 96 56 97 57 98 59 99 61 100 58 101
REMARK H PARENT 5 22 78 63 52 74
REMARK Flexibility Score: inf
ROOT
ATOM      1  C   UNL A   1      42.720  20.026  26.460  1.00  0.00     0.202 C 
ENDROOT
BRANCH   1   2
ATOM      2  C   UNL A   1      41.215  20.015  26.178  1.00  0.00     0.261 C 
BRANCH   2   3
ATOM      3  O   UNL A   1      40.791  21.285  25.647  1.00  0.00    -0.463 OA
BRANCH   3   4
ATOM      4  C   UNL A   1      40.223  22.151  26.525  1.00  0.00     0.313 C 
ATOM      5  O   UNL A   1      40.484  22.192  27.724  1.00  0.00    -0.252 OA
BRANCH   4   6
ATOM      6  C   UNL A   1      39.169  23.053  25.895  1.00  0.00     0.126 C 
ATOM      7  C   UNL A   1      38.976  24.287  26.773  1.00  0.00     0.025 C 
BRANCH   6   8
ATOM      8  C   UNL A   1      37.837  22.419  25.502  1.00  0.00    -0.033 A 
ATOM      9  C   UNL A   1      35.235  21.347  24.877  1.00  0.00     0.022 A 
ATOM     10  C   UNL A   1      36.256  20.570  25.465  1.00  0.00     0.011 A 
ATOM     11  C   UNL A   1      35.563  22.695  24.553  1.00  0.00    -0.009 A 
ATOM     12  C   UNL A   1      37.514  21.095  25.792  1.00  0.00     0.005 A 
ATOM     13  C   UNL A   1      36.854  23.194  24.867  1.00  0.00     0.013 A 
BRANCH   9  14
ATOM     14  C   UNL A   1      33.802  20.781  24.627  1.00  0.00     0.247 C 
BRANCH  14  15
ATOM     15  N   UNL A   1      32.629  21.452  25.278  1.00  0.00    -0.325 N 
ATOM     16  C   UNL A   1      30.202  24.881  26.594  1.00  0.00     0.008 C 
ATOM     17  C   UNL A   1      31.236  23.923  26.014  1.00  0.00    -0.003 C 
ATOM     18  C   UNL A   1      30.637  23.000  24.953  1.00  0.00     0.065 C 
ATOM     19  C   UNL A   1      31.827  23.026  27.095  1.00  0.00     0.065 C 
ATOM     20  C   UNL A   1      31.710  22.095  24.333  1.00  0.00     0.263 C 
ATOM     21  C   UNL A   1      32.938  22.154  26.520  1.00  0.00     0.263 C 
ATOM     22  H   UNL A   1      32.043  20.700  25.642  1.00  0.00     0.348 HD
ENDBRANCH  14  15
BRANCH  14  23
ATOM     23  C   UNL A   1      33.714  19.249  24.777  1.00  0.00     0.014 A 
ATOM     24  C   UNL A   1      32.704  18.635  25.540  1.00  0.00     0.013 A 
ATOM     25  C   UNL A   1      34.652  18.428  24.121  1.00  0.00     0.013 A 
ATOM     26  C   UNL A   1      32.639  17.246  25.654  1.00  0.00     0.040 A 
ATOM     27  C   UNL A   1      34.598  17.039  24.253  1.00  0.00     0.040 A 
ATOM     28  C   UNL A   1      33.591  16.461  25.016  1.00  0.00     0.123 A 
ATOM     29  F   UNL A   1      33.534  15.128  25.132  1.00  0.00    -0.207 F 
ENDBRANCH  14  23
ENDBRANCH   9  14
BRANCH  11  30
ATOM     30  C   UNL A   1      34.630  23.624  23.884  1.00  0.00    -0.018 A 
ATOM     31  C   UNL A   1      34.294  24.845  24.491  1.00  0.00     0.009 A 
ATOM     32  C   UNL A   1      34.055  23.322  22.641  1.00  0.00     0.009 A 
ATOM     33  C   UNL A   1      33.447  25.757  23.855  1.00  0.00     0.014 A 
ATOM     34  C   UNL A   1      33.214  24.237  21.998  1.00  0.00     0.014 A 
ATOM     35  C   UNL A   1      32.914  25.471  22.592  1.00  0.00     0.056 A 
BRANCH  35  36
ATOM     36  C   UNL A   1      32.023  26.476  21.903  1.00  0.00     0.416 C 
ATOM     37  F   UNL A   1      32.625  27.690  21.758  1.00  0.00    -0.166 F 
ATOM     38  F   UNL A   1      31.661  26.087  20.649  1.00  0.00    -0.166 F 
ATOM     39  F   UNL A   1      30.858  26.714  22.567  1.00  0.00    -0.166 F 
ENDBRANCH  35  36
ENDBRANCH  11  30
ENDBRANCH   6   8
ENDBRANCH   4   6
ENDBRANCH   3   4
ENDBRANCH   2   3
ENDBRANCH   1   2
BRANCH   1  40
ATOM     40  O   UNL A   1      43.549  20.332  25.339  1.00  0.00    -0.374 OA
BRANCH  40  41
ATOM     41  C   UNL A   1      44.300  21.543  25.409  1.00  0.00     0.202 C 
BRANCH  41  42
ATOM     42  C   UNL A   1      44.195  22.464  24.190  1.00  0.00     0.261 C 
BRANCH  42  43
ATOM     43  O   UNL A   1      43.544  23.710  24.500  1.00  0.00    -0.460 OA
BRANCH  43  44
ATOM     44  C   UNL A   1      44.343  24.653  25.056  1.00  0.00     0.338 C 
ATOM     45  O   UNL A   1      45.500  24.913  24.757  1.00  0.00    -0.246 OA
BRANCH  44  46
ATOM     46  C   UNL A   1      43.572  25.460  26.021  1.00  0.00     0.060 A 
ATOM     47  C   UNL A   1      43.794  26.840  26.066  1.00  0.00     0.016 A 
ATOM     48  C   UNL A   1      42.685  24.865  26.917  1.00  0.00     0.016 A 
ATOM     49  C   UNL A   1      43.168  27.616  27.042  1.00  0.00     0.010 A 
ATOM     50  C   UNL A   1      42.045  25.642  27.885  1.00  0.00     0.010 A 
ATOM     51  C   UNL A   1      42.318  27.015  27.981  1.00  0.00    -0.014 A 
BRANCH  51  52
ATOM     52  C   UNL A   1      41.826  27.787  29.148  1.00  0.00     0.031 A 
ATOM     53  C   UNL A   1      42.555  27.678  30.459  1.00  0.00     0.074 A 
ATOM     54  C   UNL A   1      40.747  28.580  29.042  1.00  0.00     0.049 A 
ATOM     55  N   UNL A   1      42.295  28.258  31.603  1.00  0.00    -0.248 NA
ATOM     56  C   UNL A   1      43.728  26.789  30.490  1.00  0.00     0.031 C 
ATOM     57  C   UNL A   1      39.956  28.771  27.829  1.00  0.00     0.029 A 
ATOM     58  N   UNL A   1      40.130  29.374  29.976  1.00  0.00    -0.354 N 
ATOM     59  C   UNL A   1      43.267  27.806  32.485  1.00  0.00     0.074 A 
ATOM     60  C   UNL A   1      44.096  26.868  31.760  1.00  0.00     0.031 C 
ATOM     61  C   UNL A   1      38.959  29.633  28.090  1.00  0.00     0.029 A 
ATOM     62  C   UNL A   1      39.029  30.036  29.494  1.00  0.00     0.049 A 
ATOM     63  H   UNL A   1      40.448  29.460  30.905  1.00  0.00     0.167 HD
ATOM     64  C   UNL A   1      43.466  28.155  33.779  1.00  0.00     0.037 A 
ATOM     65  C   UNL A   1      38.171  30.868  30.115  1.00  0.00     0.037 A 
ATOM     66  C   UNL A   1      42.651  29.099  34.497  1.00  0.00     0.049 A 
ATOM     67  C   UNL A   1      38.384  31.214  31.564  1.00  0.00     0.074 A 
ATOM     68  C   UNL A   1      42.804  29.553  35.794  1.00  0.00     0.029 A 
ATOM     69  N   UNL A   1      41.529  29.728  33.979  1.00  0.00    -0.354 N 
ATOM     70  N   UNL A   1      39.333  30.813  32.375  1.00  0.00    -0.248 NA
ATOM     71  C   UNL A   1      37.412  32.127  32.182  1.00  0.00     0.031 C 
ATOM     72  C   UNL A   1      41.745  30.421  36.080  1.00  0.00     0.029 A 
ATOM     73  C   UNL A   1      40.962  30.546  34.942  1.00  0.00     0.049 A 
ATOM     74  H   UNL A   1      41.186  29.611  33.064  1.00  0.00     0.167 HD
ATOM     75  C   UNL A   1      39.085  31.439  33.591  1.00  0.00     0.074 A 
ATOM     76  C   UNL A   1      37.901  32.252  33.410  1.00  0.00     0.031 C 
ATOM     77  C   UNL A   1      39.780  31.348  34.752  1.00  0.00     0.037 A 
BRANCH  64  78
ATOM     78  C   UNL A   1      44.609  27.511  34.505  1.00  0.00     0.057 A 
ATOM     79  C   UNL A   1      44.422  26.320  35.218  1.00  0.00     0.134 A 
ATOM     80  C   UNL A   1      45.883  28.092  34.540  1.00  0.00     0.134 A 
ATOM     81  F   UNL A   1      43.226  25.713  35.231  1.00  0.00    -0.206 F 
ATOM     82  C   UNL A   1      45.460  25.734  35.945  1.00  0.00     0.040 A 
ATOM     83  C   UNL A   1      46.935  27.503  35.242  1.00  0.00     0.040 A 
ATOM     84  F   UNL A   1      46.130  29.226  33.867  1.00  0.00    -0.206 F 
ATOM     85  C   UNL A   1      46.723  26.325  35.955  1.00  0.00     0.006 A 
ENDBRANCH  64  78
BRANCH  65  86
ATOM     86  C   UNL A   1      37.042  31.451  29.348  1.00  0.00     0.057 A 
ATOM     87  C   UNL A   1      35.887  30.707  29.076  1.00  0.00     0.134 A 
ATOM     88  C   UNL A   1      37.112  32.749  28.834  1.00  0.00     0.134 A 
ATOM     89  F   UNL A   1      35.763  29.454  29.539  1.00  0.00    -0.206 F 
ATOM     90  C   UNL A   1      34.851  31.227  28.300  1.00  0.00     0.040 A 
ATOM     91  C   UNL A   1      36.075  33.289  28.072  1.00  0.00     0.040 A 
ATOM     92  F   UNL A   1      38.185  33.514  29.079  1.00  0.00    -0.206 F 
ATOM     93  C   UNL A   1      34.944  32.523  27.795  1.00  0.00     0.006 A 
ENDBRANCH  65  86
BRANCH  77  94
ATOM     94  C   UNL A   1      39.296  32.152  35.922  1.00  0.00     0.057 A 
ATOM     95  C   UNL A   1      38.319  31.638  36.786  1.00  0.00     0.134 A 
ATOM     96  C   UNL A   1      39.730  33.464  36.143  1.00  0.00     0.134 A 
ATOM     97  F   UNL A   1      37.853  30.391  36.622  1.00  0.00    -0.206 F 
ATOM     98  C   UNL A   1      37.779  32.408  37.816  1.00  0.00     0.040 A 
ATOM     99  C   UNL A   1      39.213  34.236  37.185  1.00  0.00     0.040 A 
ATOM    100  F   UNL A   1      40.669  34.011  35.356  1.00  0.00    -0.206 F 
ATOM    101  C   UNL A   1      38.227  33.712  38.018  1.00  0.00     0.006 A 
ENDBRANCH  77  94
ENDBRANCH  51  52
ENDBRANCH  44  46
ENDBRANCH  43  44
ENDBRANCH  42  43
ENDBRANCH  41  42
ENDBRANCH  40  41
ENDBRANCH   1  40
TORSDOF 20
ENDMDL
MODEL 3
REMARK VINA RESULT:     -12.4      4.960     10.398
REMARK SMILES CC1CC[NH+]([C@H](c2ccc(F)cc2)c2ccc([C@@H](C)C(=O)OCCOCCOC(=O)c3ccc(-c4c5nc(c(-c6c(F)cccc6F)c6ccc([nH]6)c(-c6c(F)cccc6F)c6nc(c(-c7c(F)cccc7F)c7ccc4[nH]7)C=C6)C=C5)cc3)cc2-c2ccc(C(F)(F)F)cc2)CC1
REMARK SMILES IDX 24 1 23 2 22 3 20 4 21 5 18 6 19 7 17 8 14 9 15 10 86 11
REMARK SMILES IDX 16 12 85 13 6 14 5 15 1 16 2 17 3 18 98 19 4 20 97 21 7 23
REMARK SMILES IDX 8 24 13 25 9 26 12 27 10 28 11 29 87 30 88 31 96 32 89 33
REMARK SMILES IDX 95 34 90 35 91 36 92 37 93 38 94 39 25 40 26 41 27 42 28 43
REMARK SMILES IDX 29 44 30 45 31 46 32 47 84 48 33 49 83 50 34 51 35 52 36 53
REMARK SMILES IDX 77 54 37 55 82 56 76 57 78 58 38 59 81 60 75 61 74 62 39 64
REMARK SMILES IDX 65 65 48 66 64 67 49 68 52 69 63 70 79 71 50 72 51 73 62 75
REMARK SMILES IDX 80 76 53 77 40 78 41 79 46 80 42 81 43 82 45 83 47 84 44 85
REMARK SMILES IDX 66 86 67 87 72 88 68 89 69 90 71 91 73 92 70 93 54 94 55 95
REMARK SMILES IDX 60 96 56 97 57 98 59 99 61 100 58 101
REMARK H PARENT 5 22 78 63 52 74
REMARK Flexibility Score: inf
ROOT
ATOM      1  C   UNL A   1      33.147  35.129  29.186  1.00  0.00     0.202 C 
ENDROOT
BRANCH   1   2
ATOM      2  C   UNL A   1      34.067  34.394  28.208  1.00  0.00     0.261 C 
BRANCH   2   3
ATOM      3  O   UNL A   1      33.661  33.019  28.068  1.00  0.00    -0.463 OA
BRANCH   3   4
ATOM      4  C   UNL A   1      34.650  32.111  27.862  1.00  0.00     0.313 C 
ATOM      5  O   UNL A   1      35.745  32.380  27.376  1.00  0.00    -0.252 OA
BRANCH   4   6
ATOM      6  C   UNL A   1      34.260  30.688  28.242  1.00  0.00     0.126 C 
ATOM      7  C   UNL A   1      35.520  29.901  28.593  1.00  0.00     0.025 C 
BRANCH   6   8
ATOM      8  C   UNL A   1      33.357  29.921  27.280  1.00  0.00    -0.033 A 
ATOM      9  C   UNL A   1      31.809  28.421  25.366  1.00  0.00     0.022 A 
ATOM     10  C   UNL A   1      31.633  29.806  25.567  1.00  0.00     0.011 A 
ATOM     11  C   UNL A   1      32.766  27.770  26.197  1.00  0.00    -0.009 A 
ATOM     12  C   UNL A   1      32.401  30.543  26.479  1.00  0.00     0.005 A 
ATOM     13  C   UNL A   1      33.509  28.533  27.135  1.00  0.00     0.013 A 
BRANCH   9  14
ATOM     14  C   UNL A   1      31.029  27.637  24.263  1.00  0.00     0.247 C 
BRANCH  14  15
ATOM     15  N   UNL A   1      31.776  26.679  23.383  1.00  0.00    -0.325 N 
ATOM     16  C   UNL A   1      32.849  24.742  19.578  1.00  0.00     0.008 C 
ATOM     17  C   UNL A   1      32.278  25.590  20.710  1.00  0.00    -0.003 C 
ATOM     18  C   UNL A   1      33.353  26.424  21.404  1.00  0.00     0.065 C 
ATOM     19  C   UNL A   1      31.635  24.719  21.782  1.00  0.00     0.065 C 
ATOM     20  C   UNL A   1      32.746  27.322  22.491  1.00  0.00     0.263 C 
ATOM     21  C   UNL A   1      30.971  25.586  22.848  1.00  0.00     0.263 C 
ATOM     22  H   UNL A   1      32.395  26.156  24.002  1.00  0.00     0.348 HD
ENDBRANCH  14  15
BRANCH  14  23
ATOM     23  C   UNL A   1      30.084  28.528  23.432  1.00  0.00     0.014 A 
ATOM     24  C   UNL A   1      30.574  29.505  22.546  1.00  0.00     0.013 A 
ATOM     25  C   UNL A   1      28.690  28.356  23.537  1.00  0.00     0.013 A 
ATOM     26  C   UNL A   1      29.699  30.293  21.797  1.00  0.00     0.040 A 
ATOM     27  C   UNL A   1      27.816  29.159  22.802  1.00  0.00     0.040 A 
ATOM     28  C   UNL A   1      28.329  30.118  21.938  1.00  0.00     0.123 A 
ATOM     29  F   UNL A   1      27.489  30.880  21.225  1.00  0.00    -0.207 F 
ENDBRANCH  14  23
ENDBRANCH   9  14
BRANCH  11  30
ATOM     30  C   UNL A   1      33.030  26.318  26.155  1.00  0.00    -0.018 A 
ATOM     31  C   UNL A   1      32.082  25.414  26.663  1.00  0.00     0.009 A 
ATOM     32  C   UNL A   1      34.217  25.800  25.618  1.00  0.00     0.009 A 
ATOM     33  C   UNL A   1      32.293  24.034  26.595  1.00  0.00     0.014 A 
ATOM     34  C   UNL A   1      34.426  24.418  25.539  1.00  0.00     0.014 A 
ATOM     35  C   UNL A   1      33.459  23.521  26.014  1.00  0.00     0.056 A 
BRANCH  35  36
ATOM     36  C   UNL A   1      33.662  22.028  25.919  1.00  0.00     0.416 C 
ATOM     37  F   UNL A   1      34.394  21.672  24.826  1.00  0.00    -0.166 F 
ATOM     38  F   UNL A   1      34.323  21.518  26.994  1.00  0.00    -0.166 F 
ATOM     39  F   UNL A   1      32.498  21.326  25.833  1.00  0.00    -0.166 F 
ENDBRANCH  35  36
ENDBRANCH  11  30
ENDBRANCH   6   8
ENDBRANCH   4   6
ENDBRANCH   3   4
ENDBRANCH   2   3
ENDBRANCH   1   2
BRANCH   1  40
ATOM     40  O   UNL A   1      33.183  34.656  30.532  1.00  0.00    -0.374 OA
BRANCH  40  41
ATOM     41  C   UNL A   1      34.473  34.405  31.090  1.00  0.00     0.202 C 
BRANCH  41  42
ATOM     42  C   UNL A   1      34.485  33.829  32.509  1.00  0.00     0.261 C 
BRANCH  42  43
ATOM     43  O   UNL A   1      34.983  32.479  32.547  1.00  0.00    -0.460 OA
BRANCH  43  44
ATOM     44  C   UNL A   1      36.161  32.320  33.197  1.00  0.00     0.338 C 
ATOM     45  O   UNL A   1      36.410  32.607  34.359  1.00  0.00    -0.246 OA
BRANCH  44  46
ATOM     46  C   UNL A   1      37.117  31.598  32.335  1.00  0.00     0.060 A 
ATOM     47  C   UNL A   1      37.977  30.667  32.925  1.00  0.00     0.016 A 
ATOM     48  C   UNL A   1      37.215  31.875  30.972  1.00  0.00     0.016 A 
ATOM     49  C   UNL A   1      38.969  30.051  32.162  1.00  0.00     0.010 A 
ATOM     50  C   UNL A   1      38.198  31.249  30.202  1.00  0.00     0.010 A 
ATOM     51  C   UNL A   1      39.108  30.367  30.802  1.00  0.00    -0.014 A 
BRANCH  51  52
ATOM     52  C   UNL A   1      40.288  29.891  30.040  1.00  0.00     0.031 A 
ATOM     53  C   UNL A   1      41.437  30.832  29.803  1.00  0.00     0.074 A 
ATOM     54  C   UNL A   1      40.340  28.633  29.569  1.00  0.00     0.049 A 
ATOM     55  N   UNL A   1      42.559  30.626  29.160  1.00  0.00    -0.248 NA
ATOM     56  C   UNL A   1      41.302  32.190  30.354  1.00  0.00     0.031 C 
ATOM     57  C   UNL A   1      39.294  27.626  29.733  1.00  0.00     0.029 A 
ATOM     58  N   UNL A   1      41.319  27.990  28.853  1.00  0.00    -0.354 N 
ATOM     59  C   UNL A   1      43.258  31.824  29.230  1.00  0.00     0.074 A 
ATOM     60  C   UNL A   1      42.419  32.766  29.935  1.00  0.00     0.031 C 
ATOM     61  C   UNL A   1      39.689  26.489  29.139  1.00  0.00     0.029 A 
ATOM     62  C   UNL A   1      41.004  26.694  28.534  1.00  0.00     0.049 A 
ATOM     63  H   UNL A   1      42.167  28.420  28.593  1.00  0.00     0.167 HD
ATOM     64  C   UNL A   1      44.498  32.109  28.764  1.00  0.00     0.037 A 
ATOM     65  C   UNL A   1      41.695  25.777  27.829  1.00  0.00     0.037 A 
ATOM     66  C   UNL A   1      45.340  31.167  28.076  1.00  0.00     0.049 A 
ATOM     67  C   UNL A   1      43.055  26.124  27.286  1.00  0.00     0.074 A 
ATOM     68  C   UNL A   1      46.630  31.349  27.610  1.00  0.00     0.029 A 
ATOM     69  N   UNL A   1      44.973  29.871  27.749  1.00  0.00    -0.354 N 
ATOM     70  N   UNL A   1      43.724  27.247  27.395  1.00  0.00    -0.248 NA
ATOM     71  C   UNL A   1      43.756  25.079  26.525  1.00  0.00     0.031 C 
ATOM     72  C   UNL A   1      47.027  30.177  26.959  1.00  0.00     0.029 A 
ATOM     73  C   UNL A   1      46.003  29.249  27.063  1.00  0.00     0.049 A 
ATOM     74  H   UNL A   1      44.110  29.454  27.972  1.00  0.00     0.167 HD
ATOM     75  C   UNL A   1      44.929  27.038  26.736  1.00  0.00     0.074 A 
ATOM     76  C   UNL A   1      44.904  25.679  26.237  1.00  0.00     0.031 C 
ATOM     77  C   UNL A   1      45.965  27.897  26.566  1.00  0.00     0.037 A 
BRANCH  64  78
ATOM     78  C   UNL A   1      45.020  33.497  28.983  1.00  0.00     0.057 A 
ATOM     79  C   UNL A   1      45.742  33.815  30.140  1.00  0.00     0.134 A 
ATOM     80  C   UNL A   1      44.769  34.532  28.073  1.00  0.00     0.134 A 
ATOM     81  F   UNL A   1      46.013  32.873  31.055  1.00  0.00    -0.206 F 
ATOM     82  C   UNL A   1      46.189  35.114  30.387  1.00  0.00     0.040 A 
ATOM     83  C   UNL A   1      45.233  35.830  28.296  1.00  0.00     0.040 A 
ATOM     84  F   UNL A   1      44.094  34.290  26.938  1.00  0.00    -0.206 F 
ATOM     85  C   UNL A   1      45.938  36.125  29.460  1.00  0.00     0.006 A 
ENDBRANCH  64  78
BRANCH  65  86
ATOM     86  C   UNL A   1      41.111  24.429  27.622  1.00  0.00     0.057 A 
ATOM     87  C   UNL A   1      41.565  23.320  28.347  1.00  0.00     0.134 A 
ATOM     88  C   UNL A   1      40.115  24.213  26.665  1.00  0.00     0.134 A 
ATOM     89  F   UNL A   1      42.521  23.463  29.276  1.00  0.00    -0.206 F 
ATOM     90  C   UNL A   1      41.065  22.039  28.109  1.00  0.00     0.040 A 
ATOM     91  C   UNL A   1      39.593  22.940  26.429  1.00  0.00     0.040 A 
ATOM     92  F   UNL A   1      39.628  25.241  25.954  1.00  0.00    -0.206 F 
ATOM     93  C   UNL A   1      40.075  21.847  27.147  1.00  0.00     0.006 A 
ENDBRANCH  65  86
BRANCH  77  94
ATOM     94  C   UNL A   1      47.168  27.403  25.819  1.00  0.00     0.057 A 
ATOM     95  C   UNL A   1      48.243  26.819  26.502  1.00  0.00     0.134 A 
ATOM     96  C   UNL A   1      47.300  27.583  24.436  1.00  0.00     0.134 A 
ATOM     97  F   UNL A   1      48.184  26.629  27.829  1.00  0.00    -0.206 F 
ATOM     98  C   UNL A   1      49.414  26.450  25.839  1.00  0.00     0.040 A 
ATOM     99  C   UNL A   1      48.458  27.196  23.760  1.00  0.00     0.040 A 
ATOM    100  F   UNL A   1      46.303  28.128  23.724  1.00  0.00    -0.206 F 
ATOM    101  C   UNL A   1      49.524  26.638  24.463  1.00  0.00     0.006 A 
ENDBRANCH  77  94
ENDBRANCH  51  52
ENDBRANCH  44  46
ENDBRANCH  43  44
ENDBRANCH  42  43
ENDBRANCH  41  42
ENDBRANCH  40  41
ENDBRANCH   1  40
TORSDOF 20
ENDMDL
