MODEL 1
REMARK VINA RESULT:     -11.8      0.000      0.000
REMARK SMILES Cn1ccc(-c2n[nH]c(=O)n2-c2ccc(C(=O)OCCOCCOC(=O)c3ccc(-c4c5nc(c(-c6c(F)cccc6F)c6ccc([nH]6)c(-c6c(F)cccc6F)c6nc(c(-c7c(F)cccc7F)c7ccc4[nH]7)C=C6)C=C5)cc3)cc2)n1
REMARK SMILES IDX 21 1 20 2 19 3 18 4 16 5 17 6 15 7 12 8 13 9 82 10 14 11
REMARK SMILES IDX 81 12 11 13 6 14 7 15 8 16 9 17 10 19 5 20 1 21 2 22 3 23
REMARK SMILES IDX 83 24 4 25 22 26 23 27 24 28 25 29 26 30 27 31 28 32 80 33
REMARK SMILES IDX 29 34 79 35 30 36 31 37 32 38 73 39 33 40 78 41 72 42 74 43
REMARK SMILES IDX 34 44 77 45 71 46 70 47 35 49 61 50 44 51 60 52 45 53 48 54
REMARK SMILES IDX 59 55 75 56 46 57 47 58 58 60 76 61 49 62 36 63 37 64 42 65
REMARK SMILES IDX 38 66 39 67 41 68 43 69 40 70 62 71 63 72 68 73 64 74 65 75
REMARK SMILES IDX 67 76 69 77 66 78 50 79 51 80 56 81 52 82 53 83 55 84 57 85
REMARK SMILES IDX 54 86
REMARK H PARENT 8 18 74 48 48 59
REMARK Flexibility Score: inf
ROOT
ATOM      1  O   UNL A   1      32.634  34.456  28.060  1.00  0.00    -0.374 OA
ENDROOT
BRANCH   1   2
ATOM      2  C   UNL A   1      32.744  33.192  27.405  1.00  0.00     0.202 C 
BRANCH   2   3
ATOM      3  C   UNL A   1      33.709  32.156  27.984  1.00  0.00     0.261 C 
BRANCH   3   4
ATOM      4  O   UNL A   1      33.229  30.811  27.835  1.00  0.00    -0.460 OA
BRANCH   4   5
ATOM      5  C   UNL A   1      34.141  29.951  27.317  1.00  0.00     0.338 C 
ATOM      6  O   UNL A   1      35.353  30.073  27.320  1.00  0.00    -0.246 OA
BRANCH   5   7
ATOM      7  C   UNL A   1      33.474  28.714  26.867  1.00  0.00     0.060 A 
ATOM      8  C   UNL A   1      32.176  26.548  25.679  1.00  0.00     0.052 A 
ATOM      9  C   UNL A   1      33.518  26.797  25.381  1.00  0.00     0.028 A 
ATOM     10  C   UNL A   1      31.535  27.311  26.671  1.00  0.00     0.028 A 
ATOM     11  C   UNL A   1      34.153  27.902  25.948  1.00  0.00     0.018 A 
ATOM     12  C   UNL A   1      32.185  28.386  27.280  1.00  0.00     0.018 A 
BRANCH   8  13
ATOM     13  N   UNL A   1      31.455  25.602  24.936  1.00  0.00    -0.242 N 
ATOM     14  C   UNL A   1      30.549  25.824  23.939  1.00  0.00     0.189 A 
ATOM     15  N   UNL A   1      29.954  24.753  23.486  1.00  0.00    -0.150 NA
ATOM     16  N   UNL A   1      30.556  23.737  24.182  1.00  0.00    -0.226 N 
ATOM     17  C   UNL A   1      31.519  24.235  25.062  1.00  0.00     0.348 A 
ATOM     18  H   UNL A   1      30.337  22.783  24.076  1.00  0.00     0.195 HD
ATOM     19  O   UNL A   1      32.212  23.553  25.799  1.00  0.00    -0.246 OA
BRANCH  14  20
ATOM     20  C   UNL A   1      30.330  27.130  23.340  1.00  0.00     0.130 A 
ATOM     21  C   UNL A   1      28.174  29.784  22.585  1.00  0.00     0.173 C 
ATOM     22  N   UNL A   1      29.289  28.877  22.716  1.00  0.00    -0.275 N 
ATOM     23  C   UNL A   1      30.578  29.092  22.328  1.00  0.00     0.109 A 
ATOM     24  N   UNL A   1      29.103  27.683  23.300  1.00  0.00    -0.170 NA
ATOM     25  C   UNL A   1      31.288  27.994  22.753  1.00  0.00     0.054 A 
ENDBRANCH  14  20
ENDBRANCH   8  13
ENDBRANCH   5   7
ENDBRANCH   4   5
ENDBRANCH   3   4
ENDBRANCH   2   3
ENDBRANCH   1   2
BRANCH   1  26
ATOM     26  C   UNL A   1      33.502  34.773  29.140  1.00  0.00     0.202 C 
BRANCH  26  27
ATOM     27  C   UNL A   1      33.045  35.798  30.165  1.00  0.00     0.261 C 
BRANCH  27  28
ATOM     28  O   UNL A   1      32.355  35.215  31.258  1.00  0.00    -0.460 OA
BRANCH  28  29
ATOM     29  C   UNL A   1      32.766  35.685  32.458  1.00  0.00     0.338 C 
ATOM     30  O   UNL A   1      32.340  36.654  33.059  1.00  0.00    -0.246 OA
BRANCH  29  31
ATOM     31  C   UNL A   1      33.966  34.950  32.859  1.00  0.00     0.060 A 
ATOM     32  C   UNL A   1      35.146  35.694  32.917  1.00  0.00     0.016 A 
ATOM     33  C   UNL A   1      33.964  33.547  32.849  1.00  0.00     0.016 A 
ATOM     34  C   UNL A   1      36.337  35.031  32.746  1.00  0.00     0.010 A 
ATOM     35  C   UNL A   1      35.153  32.889  32.656  1.00  0.00     0.010 A 
ATOM     36  C   UNL A   1      36.312  33.648  32.529  1.00  0.00    -0.014 A 
BRANCH  36  37
ATOM     37  C   UNL A   1      37.576  32.987  32.309  1.00  0.00     0.031 A 
ATOM     38  C   UNL A   1      38.428  33.009  33.519  1.00  0.00     0.074 A 
ATOM     39  C   UNL A   1      37.871  32.349  31.161  1.00  0.00     0.049 A 
ATOM     40  N   UNL A   1      39.545  33.630  33.684  1.00  0.00    -0.248 NA
ATOM     41  C   UNL A   1      37.866  32.436  34.755  1.00  0.00     0.031 C 
ATOM     42  C   UNL A   1      36.985  32.046  30.036  1.00  0.00     0.029 A 
ATOM     43  N   UNL A   1      39.035  31.747  30.803  1.00  0.00    -0.354 N 
ATOM     44  C   UNL A   1      39.936  33.342  34.988  1.00  0.00     0.074 A 
ATOM     45  C   UNL A   1      38.784  32.797  35.650  1.00  0.00     0.031 C 
ATOM     46  C   UNL A   1      37.579  31.130  29.236  1.00  0.00     0.029 A 
ATOM     47  C   UNL A   1      38.926  30.880  29.722  1.00  0.00     0.049 A 
ATOM     48  H   UNL A   1      39.886  31.911  31.270  1.00  0.00     0.167 HD
ATOM     49  C   UNL A   1      41.253  33.306  35.320  1.00  0.00     0.037 A 
ATOM     50  C   UNL A   1      39.864  29.979  29.333  1.00  0.00     0.037 A 
ATOM     51  C   UNL A   1      42.039  34.063  34.375  1.00  0.00     0.049 A 
ATOM     52  C   UNL A   1      41.150  30.377  29.963  1.00  0.00     0.074 A 
ATOM     53  C   UNL A   1      42.050  35.379  33.955  1.00  0.00     0.029 A 
ATOM     54  N   UNL A   1      42.740  33.362  33.423  1.00  0.00    -0.354 N 
ATOM     55  N   UNL A   1      41.834  31.431  29.619  1.00  0.00    -0.248 NA
ATOM     56  C   UNL A   1      41.445  29.848  31.286  1.00  0.00     0.031 C 
ATOM     57  C   UNL A   1      42.339  35.324  32.561  1.00  0.00     0.029 A 
ATOM     58  C   UNL A   1      42.554  33.989  32.218  1.00  0.00     0.049 A 
ATOM     59  H   UNL A   1      43.280  32.555  33.578  1.00  0.00     0.167 HD
ATOM     60  C   UNL A   1      42.301  31.954  30.815  1.00  0.00     0.074 A 
ATOM     61  C   UNL A   1      42.105  30.889  31.798  1.00  0.00     0.031 C 
ATOM     62  C   UNL A   1      42.524  33.293  30.955  1.00  0.00     0.037 A 
BRANCH  49  63
ATOM     63  C   UNL A   1      41.849  32.246  36.219  1.00  0.00     0.057 A 
ATOM     64  C   UNL A   1      42.676  32.653  37.282  1.00  0.00     0.134 A 
ATOM     65  C   UNL A   1      41.902  30.866  35.923  1.00  0.00     0.134 A 
ATOM     66  F   UNL A   1      42.719  33.937  37.667  1.00  0.00    -0.206 F 
ATOM     67  C   UNL A   1      43.559  31.778  37.924  1.00  0.00     0.040 A 
ATOM     68  C   UNL A   1      42.744  29.975  36.593  1.00  0.00     0.040 A 
ATOM     69  F   UNL A   1      41.225  30.306  34.916  1.00  0.00    -0.206 F 
ATOM     70  C   UNL A   1      43.605  30.436  37.572  1.00  0.00     0.006 A 
ENDBRANCH  49  63
BRANCH  50  71
ATOM     71  C   UNL A   1      39.692  28.637  28.726  1.00  0.00     0.057 A 
ATOM     72  C   UNL A   1      40.265  28.338  27.479  1.00  0.00     0.134 A 
ATOM     73  C   UNL A   1      39.232  27.538  29.471  1.00  0.00     0.134 A 
ATOM     74  F   UNL A   1      40.764  29.313  26.706  1.00  0.00    -0.206 F 
ATOM     75  C   UNL A   1      40.413  27.021  27.022  1.00  0.00     0.040 A 
ATOM     76  C   UNL A   1      39.366  26.220  29.020  1.00  0.00     0.040 A 
ATOM     77  F   UNL A   1      38.723  27.696  30.701  1.00  0.00    -0.206 F 
ATOM     78  C   UNL A   1      39.977  25.956  27.801  1.00  0.00     0.006 A 
ENDBRANCH  50  71
BRANCH  62  79
ATOM     79  C   UNL A   1      42.515  34.135  29.706  1.00  0.00     0.057 A 
ATOM     80  C   UNL A   1      41.395  34.832  29.226  1.00  0.00     0.134 A 
ATOM     81  C   UNL A   1      43.724  34.344  29.033  1.00  0.00     0.134 A 
ATOM     82  F   UNL A   1      40.218  34.781  29.863  1.00  0.00    -0.206 F 
ATOM     83  C   UNL A   1      41.466  35.650  28.093  1.00  0.00     0.040 A 
ATOM     84  C   UNL A   1      43.816  35.188  27.925  1.00  0.00     0.040 A 
ATOM     85  F   UNL A   1      44.850  33.756  29.468  1.00  0.00    -0.206 F 
ATOM     86  C   UNL A   1      42.682  35.834  27.443  1.00  0.00     0.006 A 
ENDBRANCH  62  79
ENDBRANCH  36  37
ENDBRANCH  29  31
ENDBRANCH  28  29
ENDBRANCH  27  28
ENDBRANCH  26  27
ENDBRANCH   1  26
TORSDOF 16
ENDMDL
MODEL 2
REMARK VINA RESULT:     -11.7      4.867     10.228
REMARK SMILES Cn1ccc(-c2n[nH]c(=O)n2-c2ccc(C(=O)OCCOCCOC(=O)c3ccc(-c4c5nc(c(-c6c(F)cccc6F)c6ccc([nH]6)c(-c6c(F)cccc6F)c6nc(c(-c7c(F)cccc7F)c7ccc4[nH]7)C=C6)C=C5)cc3)cc2)n1
REMARK SMILES IDX 21 1 20 2 19 3 18 4 16 5 17 6 15 7 12 8 13 9 82 10 14 11
REMARK SMILES IDX 81 12 11 13 6 14 7 15 8 16 9 17 10 19 5 20 1 21 2 22 3 23
REMARK SMILES IDX 83 24 4 25 22 26 23 27 24 28 25 29 26 30 27 31 28 32 80 33
REMARK SMILES IDX 29 34 79 35 30 36 31 37 32 38 73 39 33 40 78 41 72 42 74 43
REMARK SMILES IDX 34 44 77 45 71 46 70 47 35 49 61 50 44 51 60 52 45 53 48 54
REMARK SMILES IDX 59 55 75 56 46 57 47 58 58 60 76 61 49 62 36 63 37 64 42 65
REMARK SMILES IDX 38 66 39 67 41 68 43 69 40 70 62 71 63 72 68 73 64 74 65 75
REMARK SMILES IDX 67 76 69 77 66 78 50 79 51 80 56 81 52 82 53 83 55 84 57 85
REMARK SMILES IDX 54 86
REMARK H PARENT 8 18 74 48 48 59
REMARK Flexibility Score: inf
ROOT
ATOM      1  O   UNL A   1      41.799  20.518  27.655  1.00  0.00    -0.374 OA
ENDROOT
BRANCH   1   2
ATOM      2  C   UNL A   1      40.766  21.503  27.626  1.00  0.00     0.202 C 
BRANCH   2   3
ATOM      3  C   UNL A   1      40.410  22.144  26.284  1.00  0.00     0.261 C 
BRANCH   3   4
ATOM      4  O   UNL A   1      39.035  22.552  26.215  1.00  0.00    -0.460 OA
BRANCH   4   5
ATOM      5  C   UNL A   1      38.248  21.732  25.477  1.00  0.00     0.338 C 
ATOM      6  O   UNL A   1      38.392  20.535  25.302  1.00  0.00    -0.246 OA
BRANCH   5   7
ATOM      7  C   UNL A   1      37.049  22.458  25.014  1.00  0.00     0.060 A 
ATOM      8  C   UNL A   1      34.583  23.537  24.279  1.00  0.00     0.052 A 
ATOM      9  C   UNL A   1      34.985  23.581  25.616  1.00  0.00     0.028 A 
ATOM     10  C   UNL A   1      35.481  23.070  23.302  1.00  0.00     0.028 A 
ATOM     11  C   UNL A   1      36.202  23.007  25.986  1.00  0.00     0.018 A 
ATOM     12  C   UNL A   1      36.722  22.544  23.662  1.00  0.00     0.018 A 
BRANCH   8  13
ATOM     13  N   UNL A   1      33.269  23.879  23.929  1.00  0.00    -0.242 N 
ATOM     14  C   UNL A   1      32.223  23.044  23.657  1.00  0.00     0.189 A 
ATOM     15  N   UNL A   1      31.131  23.639  23.261  1.00  0.00    -0.150 NA
ATOM     16  N   UNL A   1      31.447  24.970  23.340  1.00  0.00    -0.226 N 
ATOM     17  C   UNL A   1      32.758  25.147  23.789  1.00  0.00     0.348 A 
ATOM     18  H   UNL A   1      30.833  25.704  23.110  1.00  0.00     0.195 HD
ATOM     19  O   UNL A   1      33.299  26.227  23.959  1.00  0.00    -0.246 OA
BRANCH  14  20
ATOM     20  C   UNL A   1      32.270  21.610  23.890  1.00  0.00     0.130 A 
ATOM     21  C   UNL A   1      32.372  18.346  22.625  1.00  0.00     0.173 C 
ATOM     22  N   UNL A   1      32.314  19.529  23.450  1.00  0.00    -0.275 N 
ATOM     23  C   UNL A   1      32.376  19.590  24.810  1.00  0.00     0.109 A 
ATOM     24  N   UNL A   1      32.215  20.735  22.868  1.00  0.00    -0.170 NA
ATOM     25  C   UNL A   1      32.389  20.929  25.127  1.00  0.00     0.054 A 
ENDBRANCH  14  20
ENDBRANCH   8  13
ENDBRANCH   5   7
ENDBRANCH   4   5
ENDBRANCH   3   4
ENDBRANCH   2   3
ENDBRANCH   1   2
BRANCH   1  26
ATOM     26  C   UNL A   1      41.784  19.449  26.717  1.00  0.00     0.202 C 
BRANCH  26  27
ATOM     27  C   UNL A   1      42.772  19.481  25.561  1.00  0.00     0.261 C 
BRANCH  27  28
ATOM     28  O   UNL A   1      43.936  20.237  25.852  1.00  0.00    -0.460 OA
BRANCH  28  29
ATOM     29  C   UNL A   1      44.454  20.854  24.765  1.00  0.00     0.338 C 
ATOM     30  O   UNL A   1      44.926  20.333  23.772  1.00  0.00    -0.246 OA
BRANCH  29  31
ATOM     31  C   UNL A   1      44.543  22.289  25.044  1.00  0.00     0.060 A 
ATOM     32  C   UNL A   1      45.366  22.652  26.111  1.00  0.00     0.016 A 
ATOM     33  C   UNL A   1      43.606  23.170  24.486  1.00  0.00     0.016 A 
ATOM     34  C   UNL A   1      45.097  23.832  26.763  1.00  0.00     0.010 A 
ATOM     35  C   UNL A   1      43.324  24.338  25.151  1.00  0.00     0.010 A 
ATOM     36  C   UNL A   1      44.020  24.611  26.323  1.00  0.00    -0.014 A 
BRANCH  36  37
ATOM     37  C   UNL A   1      43.735  25.823  27.055  1.00  0.00     0.031 A 
ATOM     38  C   UNL A   1      44.743  26.874  26.794  1.00  0.00     0.074 A 
ATOM     39  C   UNL A   1      42.624  25.978  27.797  1.00  0.00     0.049 A 
ATOM     40  N   UNL A   1      45.596  27.372  27.623  1.00  0.00    -0.248 NA
ATOM     41  C   UNL A   1      44.960  27.273  25.391  1.00  0.00     0.031 C 
ATOM     42  C   UNL A   1      41.456  25.099  27.878  1.00  0.00     0.029 A 
ATOM     43  N   UNL A   1      42.267  27.031  28.578  1.00  0.00    -0.354 N 
ATOM     44  C   UNL A   1      46.316  28.311  26.891  1.00  0.00     0.074 A 
ATOM     45  C   UNL A   1      46.033  28.056  25.507  1.00  0.00     0.031 C 
ATOM     46  C   UNL A   1      40.441  25.762  28.480  1.00  0.00     0.029 A 
ATOM     47  C   UNL A   1      40.924  27.056  28.932  1.00  0.00     0.049 A 
ATOM     48  H   UNL A   1      42.908  27.720  28.869  1.00  0.00     0.167 HD
ATOM     49  C   UNL A   1      46.849  29.400  27.505  1.00  0.00     0.037 A 
ATOM     50  C   UNL A   1      40.270  28.112  29.483  1.00  0.00     0.037 A 
ATOM     51  C   UNL A   1      47.009  29.162  28.919  1.00  0.00     0.049 A 
ATOM     52  C   UNL A   1      41.300  29.035  30.028  1.00  0.00     0.074 A 
ATOM     53  C   UNL A   1      47.704  28.238  29.675  1.00  0.00     0.029 A 
ATOM     54  N   UNL A   1      46.083  29.718  29.768  1.00  0.00    -0.354 N 
ATOM     55  N   UNL A   1      42.030  28.775  31.075  1.00  0.00    -0.248 NA
ATOM     56  C   UNL A   1      41.831  30.055  29.135  1.00  0.00     0.031 C 
ATOM     57  C   UNL A   1      46.858  27.953  30.787  1.00  0.00     0.029 A 
ATOM     58  C   UNL A   1      45.727  28.763  30.685  1.00  0.00     0.049 A 
ATOM     59  H   UNL A   1      45.737  30.638  29.727  1.00  0.00     0.167 HD
ATOM     60  C   UNL A   1      43.291  29.252  30.751  1.00  0.00     0.074 A 
ATOM     61  C   UNL A   1      43.087  30.107  29.584  1.00  0.00     0.031 C 
ATOM     62  C   UNL A   1      44.413  28.676  31.275  1.00  0.00     0.037 A 
BRANCH  49  63
ATOM     63  C   UNL A   1      46.805  30.788  26.905  1.00  0.00     0.057 A 
ATOM     64  C   UNL A   1      47.980  31.561  26.915  1.00  0.00     0.134 A 
ATOM     65  C   UNL A   1      45.626  31.506  26.604  1.00  0.00     0.134 A 
ATOM     66  F   UNL A   1      49.169  31.003  27.184  1.00  0.00    -0.206 F 
ATOM     67  C   UNL A   1      47.967  32.950  26.742  1.00  0.00     0.040 A 
ATOM     68  C   UNL A   1      45.610  32.885  26.382  1.00  0.00     0.040 A 
ATOM     69  F   UNL A   1      44.411  30.950  26.599  1.00  0.00    -0.206 F 
ATOM     70  C   UNL A   1      46.777  33.618  26.488  1.00  0.00     0.006 A 
ENDBRANCH  49  63
BRANCH  50  71
ATOM     71  C   UNL A   1      38.865  28.550  29.308  1.00  0.00     0.057 A 
ATOM     72  C   UNL A   1      37.990  28.601  30.406  1.00  0.00     0.134 A 
ATOM     73  C   UNL A   1      38.431  29.208  28.145  1.00  0.00     0.134 A 
ATOM     74  F   UNL A   1      38.326  28.032  31.573  1.00  0.00    -0.206 F 
ATOM     75  C   UNL A   1      36.778  29.304  30.364  1.00  0.00     0.040 A 
ATOM     76  C   UNL A   1      37.219  29.905  28.088  1.00  0.00     0.040 A 
ATOM     77  F   UNL A   1      39.207  29.279  27.055  1.00  0.00    -0.206 F 
ATOM     78  C   UNL A   1      36.397  29.973  29.207  1.00  0.00     0.006 A 
ENDBRANCH  50  71
BRANCH  62  79
ATOM     79  C   UNL A   1      44.233  27.706  32.411  1.00  0.00     0.057 A 
ATOM     80  C   UNL A   1      44.091  26.318  32.256  1.00  0.00     0.134 A 
ATOM     81  C   UNL A   1      44.329  28.186  33.722  1.00  0.00     0.134 A 
ATOM     82  F   UNL A   1      44.094  25.749  31.042  1.00  0.00    -0.206 F 
ATOM     83  C   UNL A   1      43.990  25.459  33.356  1.00  0.00     0.040 A 
ATOM     84  C   UNL A   1      44.270  27.335  34.827  1.00  0.00     0.040 A 
ATOM     85  F   UNL A   1      44.523  29.495  33.949  1.00  0.00    -0.206 F 
ATOM     86  C   UNL A   1      44.086  25.968  34.647  1.00  0.00     0.006 A 
ENDBRANCH  62  79
ENDBRANCH  36  37
ENDBRANCH  29  31
ENDBRANCH  28  29
ENDBRANCH  27  28
ENDBRANCH  26  27
ENDBRANCH   1  26
TORSDOF 16
ENDMDL
MODEL 3
REMARK VINA RESULT:     -11.7      1.391      2.334
REMARK SMILES Cn1ccc(-c2n[nH]c(=O)n2-c2ccc(C(=O)OCCOCCOC(=O)c3ccc(-c4c5nc(c(-c6c(F)cccc6F)c6ccc([nH]6)c(-c6c(F)cccc6F)c6nc(c(-c7c(F)cccc7F)c7ccc4[nH]7)C=C6)C=C5)cc3)cc2)n1
REMARK SMILES IDX 21 1 20 2 19 3 18 4 16 5 17 6 15 7 12 8 13 9 82 10 14 11
REMARK SMILES IDX 81 12 11 13 6 14 7 15 8 16 9 17 10 19 5 20 1 21 2 22 3 23
REMARK SMILES IDX 83 24 4 25 22 26 23 27 24 28 25 29 26 30 27 31 28 32 80 33
REMARK SMILES IDX 29 34 79 35 30 36 31 37 32 38 73 39 33 40 78 41 72 42 74 43
REMARK SMILES IDX 34 44 77 45 71 46 70 47 35 49 61 50 44 51 60 52 45 53 48 54
REMARK SMILES IDX 59 55 75 56 46 57 47 58 58 60 76 61 49 62 36 63 37 64 42 65
REMARK SMILES IDX 38 66 39 67 41 68 43 69 40 70 62 71 63 72 68 73 64 74 65 75
REMARK SMILES IDX 67 76 69 77 66 78 50 79 51 80 56 81 52 82 53 83 55 84 57 85
REMARK SMILES IDX 54 86
REMARK H PARENT 8 18 74 48 48 59
REMARK Flexibility Score: inf
ROOT
ATOM      1  O   UNL A   1      33.232  34.060  28.587  1.00  0.00    -0.374 OA
ENDROOT
BRANCH   1   2
ATOM      2  C   UNL A   1      34.131  33.158  27.941  1.00  0.00     0.202 C 
BRANCH   2   3
ATOM      3  C   UNL A   1      34.021  31.667  28.265  1.00  0.00     0.261 C 
BRANCH   3   4
ATOM      4  O   UNL A   1      33.946  30.850  27.086  1.00  0.00    -0.460 OA
BRANCH   4   5
ATOM      5  C   UNL A   1      32.684  30.524  26.717  1.00  0.00     0.338 C 
ATOM      6  O   UNL A   1      31.687  31.219  26.810  1.00  0.00    -0.246 OA
BRANCH   5   7
ATOM      7  C   UNL A   1      32.680  29.230  26.008  1.00  0.00     0.060 A 
ATOM      8  C   UNL A   1      32.625  26.987  24.349  1.00  0.00     0.052 A 
ATOM      9  C   UNL A   1      33.771  27.784  24.395  1.00  0.00     0.028 A 
ATOM     10  C   UNL A   1      31.565  27.249  25.235  1.00  0.00     0.028 A 
ATOM     11  C   UNL A   1      33.781  28.925  25.197  1.00  0.00     0.018 A 
ATOM     12  C   UNL A   1      31.593  28.360  26.079  1.00  0.00     0.018 A 
BRANCH   8  13
ATOM     13  N   UNL A   1      32.502  25.989  23.371  1.00  0.00    -0.242 N 
ATOM     14  C   UNL A   1      33.092  24.758  23.341  1.00  0.00     0.189 A 
ATOM     15  N   UNL A   1      32.875  24.068  22.255  1.00  0.00    -0.150 NA
ATOM     16  N   UNL A   1      32.021  24.865  21.538  1.00  0.00    -0.226 N 
ATOM     17  C   UNL A   1      31.744  26.048  22.226  1.00  0.00     0.348 A 
ATOM     18  H   UNL A   1      31.654  24.636  20.654  1.00  0.00     0.195 HD
ATOM     19  O   UNL A   1      31.009  26.935  21.824  1.00  0.00    -0.246 OA
BRANCH  14  20
ATOM     20  C   UNL A   1      33.820  24.199  24.469  1.00  0.00     0.130 A 
ATOM     21  C   UNL A   1      33.843  22.272  27.393  1.00  0.00     0.173 C 
ATOM     22  N   UNL A   1      34.163  23.122  26.271  1.00  0.00    -0.275 N 
ATOM     23  C   UNL A   1      35.391  23.596  25.919  1.00  0.00     0.109 A 
ATOM     24  N   UNL A   1      33.187  23.500  25.430  1.00  0.00    -0.170 NA
ATOM     25  C   UNL A   1      35.211  24.267  24.732  1.00  0.00     0.054 A 
ENDBRANCH  14  20
ENDBRANCH   8  13
ENDBRANCH   5   7
ENDBRANCH   4   5
ENDBRANCH   3   4
ENDBRANCH   2   3
ENDBRANCH   1   2
BRANCH   1  26
ATOM     26  C   UNL A   1      33.689  35.342  28.999  1.00  0.00     0.202 C 
BRANCH  26  27
ATOM     27  C   UNL A   1      32.943  36.057  30.114  1.00  0.00     0.261 C 
BRANCH  27  28
ATOM     28  O   UNL A   1      32.500  35.177  31.133  1.00  0.00    -0.460 OA
BRANCH  28  29
ATOM     29  C   UNL A   1      32.889  35.560  32.372  1.00  0.00     0.338 C 
ATOM     30  O   UNL A   1      32.468  36.497  33.024  1.00  0.00    -0.246 OA
BRANCH  29  31
ATOM     31  C   UNL A   1      34.063  34.774  32.753  1.00  0.00     0.060 A 
ATOM     32  C   UNL A   1      35.248  35.492  32.929  1.00  0.00     0.016 A 
ATOM     33  C   UNL A   1      34.047  33.378  32.614  1.00  0.00     0.016 A 
ATOM     34  C   UNL A   1      36.438  34.831  32.748  1.00  0.00     0.010 A 
ATOM     35  C   UNL A   1      35.237  32.723  32.411  1.00  0.00     0.010 A 
ATOM     36  C   UNL A   1      36.408  33.474  32.403  1.00  0.00    -0.014 A 
BRANCH  36  37
ATOM     37  C   UNL A   1      37.673  32.818  32.177  1.00  0.00     0.031 A 
ATOM     38  C   UNL A   1      38.514  32.806  33.395  1.00  0.00     0.074 A 
ATOM     39  C   UNL A   1      37.979  32.212  31.015  1.00  0.00     0.049 A 
ATOM     40  N   UNL A   1      39.630  33.421  33.588  1.00  0.00    -0.248 NA
ATOM     41  C   UNL A   1      37.940  32.200  34.609  1.00  0.00     0.031 C 
ATOM     42  C   UNL A   1      37.102  31.941  29.874  1.00  0.00     0.029 A 
ATOM     43  N   UNL A   1      39.145  31.619  30.650  1.00  0.00    -0.354 N 
ATOM     44  C   UNL A   1      40.009  33.097  34.887  1.00  0.00     0.074 A 
ATOM     45  C   UNL A   1      38.851  32.535  35.523  1.00  0.00     0.031 C 
ATOM     46  C   UNL A   1      37.703  31.047  29.054  1.00  0.00     0.029 A 
ATOM     47  C   UNL A   1      39.045  30.783  29.545  1.00  0.00     0.049 A 
ATOM     48  H   UNL A   1      39.992  31.769  31.130  1.00  0.00     0.167 HD
ATOM     49  C   UNL A   1      41.323  33.050  35.229  1.00  0.00     0.037 A 
ATOM     50  C   UNL A   1      39.986  29.891  29.140  1.00  0.00     0.037 A 
ATOM     51  C   UNL A   1      42.118  33.832  34.313  1.00  0.00     0.049 A 
ATOM     52  C   UNL A   1      41.267  30.270  29.792  1.00  0.00     0.074 A 
ATOM     53  C   UNL A   1      42.134  35.159  33.930  1.00  0.00     0.029 A 
ATOM     54  N   UNL A   1      42.827  33.157  33.348  1.00  0.00    -0.354 N 
ATOM     55  N   UNL A   1      41.954  31.333  29.483  1.00  0.00    -0.248 NA
ATOM     56  C   UNL A   1      41.549  29.705  31.103  1.00  0.00     0.031 C 
ATOM     57  C   UNL A   1      42.436  35.143  32.537  1.00  0.00     0.029 A 
ATOM     58  C   UNL A   1      42.652  33.817  32.159  1.00  0.00     0.049 A 
ATOM     59  H   UNL A   1      43.365  32.345  33.486  1.00  0.00     0.167 HD
ATOM     60  C   UNL A   1      42.410  31.822  30.698  1.00  0.00     0.074 A 
ATOM     61  C   UNL A   1      42.205  30.731  31.649  1.00  0.00     0.031 C 
ATOM     62  C   UNL A   1      42.634  33.157  30.877  1.00  0.00     0.037 A 
BRANCH  49  63
ATOM     63  C   UNL A   1      41.910  31.964  36.104  1.00  0.00     0.057 A 
ATOM     64  C   UNL A   1      42.742  32.340  37.174  1.00  0.00     0.134 A 
ATOM     65  C   UNL A   1      41.949  30.591  35.778  1.00  0.00     0.134 A 
ATOM     66  F   UNL A   1      42.797  33.615  37.588  1.00  0.00    -0.206 F 
ATOM     67  C   UNL A   1      43.617  31.443  37.796  1.00  0.00     0.040 A 
ATOM     68  C   UNL A   1      42.783  29.678  36.426  1.00  0.00     0.040 A 
ATOM     69  F   UNL A   1      41.265  30.060  34.759  1.00  0.00    -0.206 F 
ATOM     70  C   UNL A   1      43.649  30.109  37.414  1.00  0.00     0.006 A 
ENDBRANCH  49  63
BRANCH  50  71
ATOM     71  C   UNL A   1      39.819  28.568  28.494  1.00  0.00     0.057 A 
ATOM     72  C   UNL A   1      40.413  28.298  27.251  1.00  0.00     0.134 A 
ATOM     73  C   UNL A   1      39.338  27.451  29.201  1.00  0.00     0.134 A 
ATOM     74  F   UNL A   1      40.932  29.290  26.513  1.00  0.00    -0.206 F 
ATOM     75  C   UNL A   1      40.564  26.993  26.761  1.00  0.00     0.040 A 
ATOM     76  C   UNL A   1      39.475  26.145  28.718  1.00  0.00     0.040 A 
ATOM     77  F   UNL A   1      38.807  27.579  30.425  1.00  0.00    -0.206 F 
ATOM     78  C   UNL A   1      40.107  25.910  27.504  1.00  0.00     0.006 A 
ENDBRANCH  50  71
BRANCH  62  79
ATOM     79  C   UNL A   1      42.637  34.033  29.653  1.00  0.00     0.057 A 
ATOM     80  C   UNL A   1      41.533  34.775  29.204  1.00  0.00     0.134 A 
ATOM     81  C   UNL A   1      43.844  34.226  28.972  1.00  0.00     0.134 A 
ATOM     82  F   UNL A   1      40.361  34.740  29.852  1.00  0.00    -0.206 F 
ATOM     83  C   UNL A   1      41.616  35.622  28.093  1.00  0.00     0.040 A 
ATOM     84  C   UNL A   1      43.951  35.098  27.887  1.00  0.00     0.040 A 
ATOM     85  F   UNL A   1      44.957  33.593  29.379  1.00  0.00    -0.206 F 
ATOM     86  C   UNL A   1      42.831  35.789  27.435  1.00  0.00     0.006 A 
ENDBRANCH  62  79
ENDBRANCH  36  37
ENDBRANCH  29  31
ENDBRANCH  28  29
ENDBRANCH  27  28
ENDBRANCH  26  27
ENDBRANCH   1  26
TORSDOF 16
ENDMDL
