MODEL 1
REMARK VINA RESULT:     -11.7      0.000      0.000
REMARK SMILES Cc1cccc(CNC(=O)N[C@@H](CC2=c3ccccc3=NC2)C(=O)OCCOCCOC(=O)c2ccc(-c3c4nc(c(-c5c(F)cccc5F)c5ccc([nH]5)c(-c5c(F)cccc5F)c5nc(c(-c6c(F)cccc6F)c6ccc3[nH]6)C=C5)C=C4)cc2)c1
REMARK SMILES IDX 27 1 26 2 25 3 23 4 24 5 12 6 11 7 8 8 9 9 10 11 7 13 6 14
REMARK SMILES IDX 1 15 2 16 3 17 88 18 4 19 5 20 13 21 14 22 15 23 22 24 16 25
REMARK SMILES IDX 20 26 21 27 17 28 19 29 18 30 28 31 29 32 30 33 31 34 32 35
REMARK SMILES IDX 33 36 34 37 35 38 87 39 36 40 86 41 37 42 38 43 39 44 80 45
REMARK SMILES IDX 40 46 85 47 79 48 81 49 41 50 84 51 78 52 77 53 42 55 68 56
REMARK SMILES IDX 51 57 67 58 52 59 55 60 66 61 82 62 53 63 54 64 65 66 83 67
REMARK SMILES IDX 56 68 43 69 44 70 49 71 45 72 46 73 48 74 50 75 47 76 69 77
REMARK SMILES IDX 70 78 75 79 71 80 72 81 74 82 76 83 73 84 57 85 58 86 63 87
REMARK SMILES IDX 59 88 60 89 62 90 64 91 61 92
REMARK H PARENT 8 10 11 12 81 54 55 65
REMARK Flexibility Score: inf
ROOT
ATOM      1  C   UNL A   1      33.867  29.717  26.685  1.00  0.00     0.202 C 
ENDROOT
BRANCH   1   2
ATOM      2  C   UNL A   1      33.829  28.218  26.892  1.00  0.00     0.261 C 
BRANCH   2   3
ATOM      3  O   UNL A   1      32.881  27.600  26.031  1.00  0.00    -0.462 OA
BRANCH   3   4
ATOM      4  C   UNL A   1      31.953  26.887  26.698  1.00  0.00     0.329 C 
ATOM      5  O   UNL A   1      31.149  27.386  27.475  1.00  0.00    -0.250 OA
BRANCH   4   6
ATOM      6  C   UNL A   1      31.905  25.443  26.177  1.00  0.00     0.198 C 
BRANCH   6   7
ATOM      7  N   UNL A   1      30.752  24.689  26.670  1.00  0.00    -0.324 N 
ATOM      8  N   UNL A   1      31.298  22.421  26.959  1.00  0.00    -0.334 N 
ATOM      9  C   UNL A   1      30.470  23.452  27.049  1.00  0.00     0.315 C 
ATOM     10  H   UNL A   1      30.888  21.570  27.234  1.00  0.00     0.165 HD
ATOM     11  O   UNL A   1      29.343  23.259  27.513  1.00  0.00    -0.249 OA
ATOM     12  H   UNL A   1      29.959  25.268  26.742  1.00  0.00     0.166 HD
BRANCH   8  13
ATOM     13  C   UNL A   1      32.669  22.284  26.546  1.00  0.00     0.153 C 
BRANCH  13  14
ATOM     14  C   UNL A   1      32.853  21.347  25.382  1.00  0.00    -0.028 A 
ATOM     15  C   UNL A   1      34.885  18.211  24.691  1.00  0.00     0.044 C 
ATOM     16  C   UNL A   1      33.868  19.298  24.546  1.00  0.00    -0.051 A 
ATOM     17  C   UNL A   1      33.062  19.365  23.407  1.00  0.00     0.003 A 
ATOM     18  C   UNL A   1      33.735  20.273  25.539  1.00  0.00     0.009 A 
ATOM     19  C   UNL A   1      32.194  20.436  23.227  1.00  0.00     0.001 A 
ATOM     20  C   UNL A   1      32.116  21.435  24.196  1.00  0.00     0.005 A 
ENDBRANCH  13  14
ENDBRANCH   8  13
ENDBRANCH   6   7
BRANCH   6  21
ATOM     21  C   UNL A   1      31.966  25.369  24.639  1.00  0.00     0.070 C 
BRANCH  21  22
ATOM     22  C   UNL A   1      33.174  24.848  23.898  1.00  0.00    -0.037 C 
ATOM     23  C   UNL A   1      34.424  24.518  24.234  1.00  0.00     0.001 A 
ATOM     24  C   UNL A   1      32.922  24.512  22.447  1.00  0.00     0.174 C 
ATOM     25  C   UNL A   1      35.317  24.604  25.352  1.00  0.00     0.010 A 
ATOM     26  C   UNL A   1      34.784  23.661  23.093  1.00  0.00     0.065 A 
ATOM     27  N   UNL A   1      34.052  23.676  22.026  1.00  0.00    -0.280 NA
ATOM     28  C   UNL A   1      36.291  23.696  25.498  1.00  0.00     0.001 A 
ATOM     29  C   UNL A   1      35.858  22.691  23.329  1.00  0.00     0.028 A 
ATOM     30  C   UNL A   1      36.454  22.650  24.528  1.00  0.00     0.002 A 
ENDBRANCH  21  22
ENDBRANCH   6  21
ENDBRANCH   4   6
ENDBRANCH   3   4
ENDBRANCH   2   3
ENDBRANCH   1   2
BRANCH   1  31
ATOM     31  O   UNL A   1      32.574  30.250  26.483  1.00  0.00    -0.374 OA
BRANCH  31  32
ATOM     32  C   UNL A   1      32.419  31.516  27.118  1.00  0.00     0.202 C 
BRANCH  32  33
ATOM     33  C   UNL A   1      33.632  32.022  27.920  1.00  0.00     0.261 C 
BRANCH  33  34
ATOM     34  O   UNL A   1      33.658  33.468  27.962  1.00  0.00    -0.460 OA
BRANCH  34  35
ATOM     35  C   UNL A   1      33.754  34.058  29.192  1.00  0.00     0.338 C 
ATOM     36  O   UNL A   1      32.839  34.565  29.793  1.00  0.00    -0.246 OA
BRANCH  35  37
ATOM     37  C   UNL A   1      35.167  34.062  29.671  1.00  0.00     0.060 A 
ATOM     38  C   UNL A   1      36.223  34.235  28.764  1.00  0.00     0.016 A 
ATOM     39  C   UNL A   1      35.438  33.656  30.967  1.00  0.00     0.016 A 
ATOM     40  C   UNL A   1      37.508  33.789  29.097  1.00  0.00     0.010 A 
ATOM     41  C   UNL A   1      36.667  33.085  31.231  1.00  0.00     0.010 A 
ATOM     42  C   UNL A   1      37.698  33.086  30.281  1.00  0.00    -0.014 A 
BRANCH  42  43
ATOM     43  C   UNL A   1      38.812  32.150  30.526  1.00  0.00     0.031 A 
ATOM     44  C   UNL A   1      38.690  30.751  30.022  1.00  0.00     0.074 A 
ATOM     45  C   UNL A   1      40.017  32.662  30.905  1.00  0.00     0.049 A 
ATOM     46  N   UNL A   1      39.640  29.891  30.061  1.00  0.00    -0.248 NA
ATOM     47  C   UNL A   1      37.472  30.183  29.436  1.00  0.00     0.031 C 
ATOM     48  C   UNL A   1      41.356  32.129  30.601  1.00  0.00     0.029 A 
ATOM     49  N   UNL A   1      40.310  33.894  31.522  1.00  0.00    -0.354 N 
ATOM     50  C   UNL A   1      39.270  28.768  29.353  1.00  0.00     0.074 A 
ATOM     51  C   UNL A   1      37.885  28.975  29.037  1.00  0.00     0.031 C 
ATOM     52  C   UNL A   1      42.296  32.898  31.184  1.00  0.00     0.029 A 
ATOM     53  C   UNL A   1      41.611  33.849  32.053  1.00  0.00     0.049 A 
ATOM     54  H   UNL A   1      39.700  34.665  31.571  1.00  0.00     0.167 HD
ATOM     55  C   UNL A   1      40.233  27.843  29.078  1.00  0.00     0.037 A 
ATOM     56  C   UNL A   1      41.810  33.925  33.408  1.00  0.00     0.037 A 
ATOM     57  C   UNL A   1      41.448  28.176  29.840  1.00  0.00     0.049 A 
ATOM     58  C   UNL A   1      42.230  32.548  33.884  1.00  0.00     0.074 A 
ATOM     59  C   UNL A   1      42.682  28.697  29.499  1.00  0.00     0.029 A 
ATOM     60  N   UNL A   1      41.349  28.299  31.230  1.00  0.00    -0.354 N 
ATOM     61  N   UNL A   1      41.832  31.443  33.298  1.00  0.00    -0.248 NA
ATOM     62  C   UNL A   1      43.251  32.309  34.899  1.00  0.00     0.031 C 
ATOM     63  C   UNL A   1      43.275  29.222  30.692  1.00  0.00     0.029 A 
ATOM     64  C   UNL A   1      42.426  28.980  31.766  1.00  0.00     0.049 A 
ATOM     65  H   UNL A   1      40.602  27.942  31.763  1.00  0.00     0.167 HD
ATOM     66  C   UNL A   1      42.598  30.403  33.737  1.00  0.00     0.074 A 
ATOM     67  C   UNL A   1      43.427  30.980  34.784  1.00  0.00     0.031 C 
ATOM     68  C   UNL A   1      42.558  29.141  33.215  1.00  0.00     0.037 A 
BRANCH  55  69
ATOM     69  C   UNL A   1      40.148  26.711  28.061  1.00  0.00     0.057 A 
ATOM     70  C   UNL A   1      39.409  25.547  28.357  1.00  0.00     0.134 A 
ATOM     71  C   UNL A   1      40.825  26.647  26.824  1.00  0.00     0.134 A 
ATOM     72  F   UNL A   1      38.719  25.430  29.500  1.00  0.00    -0.206 F 
ATOM     73  C   UNL A   1      39.349  24.429  27.503  1.00  0.00     0.040 A 
ATOM     74  C   UNL A   1      40.743  25.553  25.944  1.00  0.00     0.040 A 
ATOM     75  F   UNL A   1      41.647  27.609  26.402  1.00  0.00    -0.206 F 
ATOM     76  C   UNL A   1      40.009  24.431  26.286  1.00  0.00     0.006 A 
ENDBRANCH  55  69
BRANCH  56  77
ATOM     77  C   UNL A   1      40.979  34.959  34.132  1.00  0.00     0.057 A 
ATOM     78  C   UNL A   1      39.800  34.573  34.797  1.00  0.00     0.134 A 
ATOM     79  C   UNL A   1      41.586  36.118  34.631  1.00  0.00     0.134 A 
ATOM     80  F   UNL A   1      39.083  33.530  34.349  1.00  0.00    -0.206 F 
ATOM     81  C   UNL A   1      39.410  35.135  36.034  1.00  0.00     0.040 A 
ATOM     82  C   UNL A   1      41.231  36.669  35.877  1.00  0.00     0.040 A 
ATOM     83  F   UNL A   1      42.645  36.640  33.999  1.00  0.00    -0.206 F 
ATOM     84  C   UNL A   1      40.178  36.140  36.613  1.00  0.00     0.006 A 
ENDBRANCH  56  77
BRANCH  68  85
ATOM     85  C   UNL A   1      42.652  27.923  34.101  1.00  0.00     0.057 A 
ATOM     86  C   UNL A   1      41.818  27.714  35.214  1.00  0.00     0.134 A 
ATOM     87  C   UNL A   1      43.445  26.813  33.736  1.00  0.00     0.134 A 
ATOM     88  F   UNL A   1      40.917  28.623  35.609  1.00  0.00    -0.206 F 
ATOM     89  C   UNL A   1      41.824  26.525  35.946  1.00  0.00     0.040 A 
ATOM     90  C   UNL A   1      43.399  25.594  34.415  1.00  0.00     0.040 A 
ATOM     91  F   UNL A   1      44.271  26.839  32.681  1.00  0.00    -0.206 F 
ATOM     92  C   UNL A   1      42.604  25.454  35.539  1.00  0.00     0.006 A 
ENDBRANCH  68  85
ENDBRANCH  42  43
ENDBRANCH  35  37
ENDBRANCH  34  35
ENDBRANCH  33  34
ENDBRANCH  32  33
ENDBRANCH  31  32
ENDBRANCH   1  31
TORSDOF 19
ENDMDL
MODEL 2
REMARK VINA RESULT:     -11.3      2.004      3.082
REMARK SMILES Cc1cccc(CNC(=O)N[C@@H](CC2=c3ccccc3=NC2)C(=O)OCCOCCOC(=O)c2ccc(-c3c4nc(c(-c5c(F)cccc5F)c5ccc([nH]5)c(-c5c(F)cccc5F)c5nc(c(-c6c(F)cccc6F)c6ccc3[nH]6)C=C5)C=C4)cc2)c1
REMARK SMILES IDX 27 1 26 2 25 3 23 4 24 5 12 6 11 7 8 8 9 9 10 11 7 13 6 14
REMARK SMILES IDX 1 15 2 16 3 17 88 18 4 19 5 20 13 21 14 22 15 23 22 24 16 25
REMARK SMILES IDX 20 26 21 27 17 28 19 29 18 30 28 31 29 32 30 33 31 34 32 35
REMARK SMILES IDX 33 36 34 37 35 38 87 39 36 40 86 41 37 42 38 43 39 44 80 45
REMARK SMILES IDX 40 46 85 47 79 48 81 49 41 50 84 51 78 52 77 53 42 55 68 56
REMARK SMILES IDX 51 57 67 58 52 59 55 60 66 61 82 62 53 63 54 64 65 66 83 67
REMARK SMILES IDX 56 68 43 69 44 70 49 71 45 72 46 73 48 74 50 75 47 76 69 77
REMARK SMILES IDX 70 78 75 79 71 80 72 81 74 82 76 83 73 84 57 85 58 86 63 87
REMARK SMILES IDX 59 88 60 89 62 90 64 91 61 92
REMARK H PARENT 8 10 11 12 81 54 55 65
REMARK Flexibility Score: inf
ROOT
ATOM      1  C   UNL A   1      33.842  29.352  26.815  1.00  0.00     0.202 C 
ENDROOT
BRANCH   1   2
ATOM      2  C   UNL A   1      32.458  29.104  26.254  1.00  0.00     0.261 C 
BRANCH   2   3
ATOM      3  O   UNL A   1      32.325  27.770  25.778  1.00  0.00    -0.462 OA
BRANCH   3   4
ATOM      4  C   UNL A   1      31.756  26.946  26.679  1.00  0.00     0.329 C 
ATOM      5  O   UNL A   1      31.170  27.343  27.679  1.00  0.00    -0.250 OA
BRANCH   4   6
ATOM      6  C   UNL A   1      31.749  25.501  26.161  1.00  0.00     0.198 C 
BRANCH   6   7
ATOM      7  N   UNL A   1      30.624  24.713  26.663  1.00  0.00    -0.324 N 
ATOM      8  N   UNL A   1      31.240  22.462  26.945  1.00  0.00    -0.334 N 
ATOM      9  C   UNL A   1      30.382  23.466  27.043  1.00  0.00     0.315 C 
ATOM     10  H   UNL A   1      30.858  21.598  27.222  1.00  0.00     0.165 HD
ATOM     11  O   UNL A   1      29.266  23.240  27.516  1.00  0.00    -0.249 OA
ATOM     12  H   UNL A   1      29.814  25.267  26.742  1.00  0.00     0.166 HD
BRANCH   8  13
ATOM     13  C   UNL A   1      32.611  22.366  26.520  1.00  0.00     0.153 C 
BRANCH  13  14
ATOM     14  C   UNL A   1      32.816  21.421  25.366  1.00  0.00    -0.028 A 
ATOM     15  C   UNL A   1      34.935  18.337  24.700  1.00  0.00     0.044 C 
ATOM     16  C   UNL A   1      33.887  19.393  24.548  1.00  0.00    -0.051 A 
ATOM     17  C   UNL A   1      33.073  19.423  23.412  1.00  0.00     0.003 A 
ATOM     18  C   UNL A   1      33.730  20.375  25.531  1.00  0.00     0.009 A 
ATOM     19  C   UNL A   1      32.173  20.467  23.225  1.00  0.00     0.001 A 
ATOM     20  C   UNL A   1      32.071  21.474  24.183  1.00  0.00     0.005 A 
ENDBRANCH  13  14
ENDBRANCH   8  13
ENDBRANCH   6   7
BRANCH   6  21
ATOM     21  C   UNL A   1      31.803  25.425  24.623  1.00  0.00     0.070 C 
BRANCH  21  22
ATOM     22  C   UNL A   1      33.017  24.926  23.876  1.00  0.00    -0.037 C 
ATOM     23  C   UNL A   1      34.273  24.615  24.206  1.00  0.00     0.001 A 
ATOM     24  C   UNL A   1      32.766  24.592  22.425  1.00  0.00     0.174 C 
ATOM     25  C   UNL A   1      35.169  24.712  25.322  1.00  0.00     0.010 A 
ATOM     26  C   UNL A   1      34.644  23.768  23.062  1.00  0.00     0.065 A 
ATOM     27  N   UNL A   1      33.907  23.775  21.997  1.00  0.00    -0.280 NA
ATOM     28  C   UNL A   1      36.158  23.818  25.462  1.00  0.00     0.001 A 
ATOM     29  C   UNL A   1      35.734  22.815  23.290  1.00  0.00     0.028 A 
ATOM     30  C   UNL A   1      36.334  22.779  24.487  1.00  0.00     0.002 A 
ENDBRANCH  21  22
ENDBRANCH   6  21
ENDBRANCH   4   6
ENDBRANCH   3   4
ENDBRANCH   2   3
ENDBRANCH   1   2
BRANCH   1  31
ATOM     31  O   UNL A   1      34.193  30.719  26.757  1.00  0.00    -0.374 OA
BRANCH  31  32
ATOM     32  C   UNL A   1      33.422  31.501  27.665  1.00  0.00     0.202 C 
BRANCH  32  33
ATOM     33  C   UNL A   1      33.983  32.895  28.003  1.00  0.00     0.261 C 
BRANCH  33  34
ATOM     34  O   UNL A   1      35.339  32.801  28.498  1.00  0.00    -0.460 OA
BRANCH  34  35
ATOM     35  C   UNL A   1      35.533  32.125  29.671  1.00  0.00     0.338 C 
ATOM     36  O   UNL A   1      35.149  32.489  30.754  1.00  0.00    -0.246 OA
BRANCH  35  37
ATOM     37  C   UNL A   1      36.356  30.901  29.449  1.00  0.00     0.060 A 
ATOM     38  C   UNL A   1      36.324  29.846  30.373  1.00  0.00     0.016 A 
ATOM     39  C   UNL A   1      37.326  30.914  28.460  1.00  0.00     0.016 A 
ATOM     40  C   UNL A   1      37.389  28.939  30.433  1.00  0.00     0.010 A 
ATOM     41  C   UNL A   1      38.438  30.113  28.622  1.00  0.00     0.010 A 
ATOM     42  C   UNL A   1      38.514  29.159  29.647  1.00  0.00    -0.014 A 
BRANCH  42  43
ATOM     43  C   UNL A   1      39.858  28.628  29.948  1.00  0.00     0.031 A 
ATOM     44  C   UNL A   1      40.289  27.365  29.282  1.00  0.00     0.074 A 
ATOM     45  C   UNL A   1      40.760  29.452  30.553  1.00  0.00     0.049 A 
ATOM     46  N   UNL A   1      41.474  26.881  29.366  1.00  0.00    -0.248 NA
ATOM     47  C   UNL A   1      39.416  26.517  28.467  1.00  0.00     0.031 C 
ATOM     48  C   UNL A   1      42.224  29.456  30.391  1.00  0.00     0.029 A 
ATOM     49  N   UNL A   1      40.535  30.601  31.337  1.00  0.00    -0.354 N 
ATOM     50  C   UNL A   1      41.597  25.822  28.492  1.00  0.00     0.074 A 
ATOM     51  C   UNL A   1      40.267  25.595  28.002  1.00  0.00     0.031 C 
ATOM     52  C   UNL A   1      42.767  30.398  31.186  1.00  0.00     0.029 A 
ATOM     53  C   UNL A   1      41.707  30.917  32.045  1.00  0.00     0.049 A 
ATOM     54  H   UNL A   1      39.689  31.104  31.381  1.00  0.00     0.167 HD
ATOM     55  C   UNL A   1      42.847  25.330  28.262  1.00  0.00     0.037 A 
ATOM     56  C   UNL A   1      41.732  30.847  33.414  1.00  0.00     0.037 A 
ATOM     57  C   UNL A   1      43.784  25.932  29.225  1.00  0.00     0.049 A 
ATOM     58  C   UNL A   1      42.563  29.637  33.793  1.00  0.00     0.074 A 
ATOM     59  C   UNL A   1      44.781  26.885  29.126  1.00  0.00     0.029 A 
ATOM     60  N   UNL A   1      43.511  25.799  30.590  1.00  0.00    -0.354 N 
ATOM     61  N   UNL A   1      42.643  28.566  33.038  1.00  0.00    -0.248 NA
ATOM     62  C   UNL A   1      43.497  29.604  34.914  1.00  0.00     0.031 C 
ATOM     63  C   UNL A   1      45.029  27.390  30.444  1.00  0.00     0.029 A 
ATOM     64  C   UNL A   1      44.218  26.714  31.349  1.00  0.00     0.049 A 
ATOM     65  H   UNL A   1      42.890  25.135  30.966  1.00  0.00     0.167 HD
ATOM     66  C   UNL A   1      43.680  27.791  33.468  1.00  0.00     0.074 A 
ATOM     67  C   UNL A   1      44.142  28.446  34.682  1.00  0.00     0.031 C 
ATOM     68  C   UNL A   1      44.141  26.686  32.811  1.00  0.00     0.037 A 
BRANCH  55  69
ATOM     69  C   UNL A   1      43.269  24.406  27.126  1.00  0.00     0.057 A 
ATOM     70  C   UNL A   1      43.038  23.017  27.218  1.00  0.00     0.134 A 
ATOM     71  C   UNL A   1      43.979  24.780  25.964  1.00  0.00     0.134 A 
ATOM     72  F   UNL A   1      42.393  22.486  28.267  1.00  0.00    -0.206 F 
ATOM     73  C   UNL A   1      43.469  22.093  26.248  1.00  0.00     0.040 A 
ATOM     74  C   UNL A   1      44.382  23.872  24.968  1.00  0.00     0.040 A 
ATOM     75  F   UNL A   1      44.374  26.034  25.734  1.00  0.00    -0.206 F 
ATOM     76  C   UNL A   1      44.136  22.519  25.111  1.00  0.00     0.006 A 
ENDBRANCH  55  69
BRANCH  56  77
ATOM     77  C   UNL A   1      40.521  31.415  34.118  1.00  0.00     0.057 A 
ATOM     78  C   UNL A   1      40.388  32.808  34.272  1.00  0.00     0.134 A 
ATOM     79  C   UNL A   1      39.317  30.703  34.121  1.00  0.00     0.134 A 
ATOM     80  F   UNL A   1      41.480  33.583  34.375  1.00  0.00    -0.206 F 
ATOM     81  C   UNL A   1      39.142  33.466  34.158  1.00  0.00     0.040 A 
ATOM     82  C   UNL A   1      38.071  31.342  33.974  1.00  0.00     0.040 A 
ATOM     83  F   UNL A   1      39.334  29.364  34.101  1.00  0.00    -0.206 F 
ATOM     84  C   UNL A   1      37.985  32.728  33.931  1.00  0.00     0.006 A 
ENDBRANCH  56  77
BRANCH  68  85
ATOM     85  C   UNL A   1      44.573  25.450  33.563  1.00  0.00     0.057 A 
ATOM     86  C   UNL A   1      43.706  24.707  34.383  1.00  0.00     0.134 A 
ATOM     87  C   UNL A   1      45.823  24.843  33.315  1.00  0.00     0.134 A 
ATOM     88  F   UNL A   1      42.441  25.085  34.611  1.00  0.00    -0.206 F 
ATOM     89  C   UNL A   1      44.078  23.494  34.967  1.00  0.00     0.040 A 
ATOM     90  C   UNL A   1      46.174  23.594  33.830  1.00  0.00     0.040 A 
ATOM     91  F   UNL A   1      46.750  25.408  32.529  1.00  0.00    -0.206 F 
ATOM     92  C   UNL A   1      45.310  22.925  34.679  1.00  0.00     0.006 A 
ENDBRANCH  68  85
ENDBRANCH  42  43
ENDBRANCH  35  37
ENDBRANCH  34  35
ENDBRANCH  33  34
ENDBRANCH  32  33
ENDBRANCH  31  32
ENDBRANCH   1  31
TORSDOF 19
ENDMDL
MODEL 3
REMARK VINA RESULT:     -11.3      2.515      3.796
REMARK SMILES Cc1cccc(CNC(=O)N[C@@H](CC2=c3ccccc3=NC2)C(=O)OCCOCCOC(=O)c2ccc(-c3c4nc(c(-c5c(F)cccc5F)c5ccc([nH]5)c(-c5c(F)cccc5F)c5nc(c(-c6c(F)cccc6F)c6ccc3[nH]6)C=C5)C=C4)cc2)c1
REMARK SMILES IDX 27 1 26 2 25 3 23 4 24 5 12 6 11 7 8 8 9 9 10 11 7 13 6 14
REMARK SMILES IDX 1 15 2 16 3 17 88 18 4 19 5 20 13 21 14 22 15 23 22 24 16 25
REMARK SMILES IDX 20 26 21 27 17 28 19 29 18 30 28 31 29 32 30 33 31 34 32 35
REMARK SMILES IDX 33 36 34 37 35 38 87 39 36 40 86 41 37 42 38 43 39 44 80 45
REMARK SMILES IDX 40 46 85 47 79 48 81 49 41 50 84 51 78 52 77 53 42 55 68 56
REMARK SMILES IDX 51 57 67 58 52 59 55 60 66 61 82 62 53 63 54 64 65 66 83 67
REMARK SMILES IDX 56 68 43 69 44 70 49 71 45 72 46 73 48 74 50 75 47 76 69 77
REMARK SMILES IDX 70 78 75 79 71 80 72 81 74 82 76 83 73 84 57 85 58 86 63 87
REMARK SMILES IDX 59 88 60 89 62 90 64 91 61 92
REMARK H PARENT 8 10 11 12 81 54 55 65
REMARK Flexibility Score: inf
ROOT
ATOM      1  C   UNL A   1      32.259  29.851  25.977  1.00  0.00     0.202 C 
ENDROOT
BRANCH   1   2
ATOM      2  C   UNL A   1      31.313  29.169  25.012  1.00  0.00     0.261 C 
BRANCH   2   3
ATOM      3  O   UNL A   1      31.559  29.576  23.672  1.00  0.00    -0.462 OA
BRANCH   3   4
ATOM      4  C   UNL A   1      30.746  28.973  22.783  1.00  0.00     0.329 C 
ATOM      5  O   UNL A   1      30.326  29.524  21.773  1.00  0.00    -0.250 OA
BRANCH   4   6
ATOM      6  C   UNL A   1      30.621  27.475  23.094  1.00  0.00     0.198 C 
BRANCH   6   7
ATOM      7  N   UNL A   1      29.239  27.037  23.283  1.00  0.00    -0.324 N 
ATOM      8  N   UNL A   1      29.001  25.868  25.308  1.00  0.00    -0.334 N 
ATOM      9  C   UNL A   1      28.517  26.412  24.201  1.00  0.00     0.315 C 
ATOM     10  H   UNL A   1      28.319  25.394  25.837  1.00  0.00     0.165 HD
ATOM     11  O   UNL A   1      27.304  26.332  23.991  1.00  0.00    -0.249 OA
ATOM     12  H   UNL A   1      28.685  27.275  22.504  1.00  0.00     0.166 HD
BRANCH   8  13
ATOM     13  C   UNL A   1      30.310  25.824  25.901  1.00  0.00     0.153 C 
BRANCH  13  14
ATOM     14  C   UNL A   1      30.992  24.491  25.749  1.00  0.00    -0.028 A 
ATOM     15  C   UNL A   1      33.089  22.223  27.964  1.00  0.00     0.044 C 
ATOM     16  C   UNL A   1      32.258  22.707  26.818  1.00  0.00    -0.051 A 
ATOM     17  C   UNL A   1      32.056  21.895  25.699  1.00  0.00     0.003 A 
ATOM     18  C   UNL A   1      31.698  23.988  26.847  1.00  0.00     0.009 A 
ATOM     19  C   UNL A   1      31.373  22.388  24.592  1.00  0.00     0.001 A 
ATOM     20  C   UNL A   1      30.874  23.689  24.609  1.00  0.00     0.005 A 
ENDBRANCH  13  14
ENDBRANCH   8  13
ENDBRANCH   6   7
BRANCH   6  21
ATOM     21  C   UNL A   1      31.315  26.593  22.037  1.00  0.00     0.070 C 
BRANCH  21  22
ATOM     22  C   UNL A   1      32.594  25.841  22.319  1.00  0.00    -0.037 C 
ATOM     23  C   UNL A   1      33.503  25.849  23.298  1.00  0.00     0.001 A 
ATOM     24  C   UNL A   1      32.903  24.739  21.335  1.00  0.00     0.174 C 
ATOM     25  C   UNL A   1      33.854  26.608  24.462  1.00  0.00     0.010 A 
ATOM     26  C   UNL A   1      34.127  24.533  23.086  1.00  0.00     0.065 A 
ATOM     27  N   UNL A   1      33.919  23.898  21.978  1.00  0.00    -0.280 NA
ATOM     28  C   UNL A   1      34.483  26.010  25.483  1.00  0.00     0.001 A 
ATOM     29  C   UNL A   1      34.796  23.941  24.249  1.00  0.00     0.028 A 
ATOM     30  C   UNL A   1      34.824  24.618  25.405  1.00  0.00     0.002 A 
ENDBRANCH  21  22
ENDBRANCH   6  21
ENDBRANCH   4   6
ENDBRANCH   3   4
ENDBRANCH   2   3
ENDBRANCH   1   2
BRANCH   1  31
ATOM     31  O   UNL A   1      31.754  31.096  26.415  1.00  0.00    -0.374 OA
BRANCH  31  32
ATOM     32  C   UNL A   1      32.670  31.764  27.277  1.00  0.00     0.202 C 
BRANCH  32  33
ATOM     33  C   UNL A   1      34.071  31.136  27.391  1.00  0.00     0.261 C 
BRANCH  33  34
ATOM     34  O   UNL A   1      35.040  32.112  27.841  1.00  0.00    -0.460 OA
BRANCH  34  35
ATOM     35  C   UNL A   1      35.658  31.877  29.038  1.00  0.00     0.338 C 
ATOM     36  O   UNL A   1      35.625  32.612  29.994  1.00  0.00    -0.246 OA
BRANCH  35  37
ATOM     37  C   UNL A   1      36.451  30.614  28.988  1.00  0.00     0.060 A 
ATOM     38  C   UNL A   1      36.507  29.766  30.104  1.00  0.00     0.016 A 
ATOM     39  C   UNL A   1      37.318  30.407  27.927  1.00  0.00     0.016 A 
ATOM     40  C   UNL A   1      37.570  28.865  30.241  1.00  0.00     0.010 A 
ATOM     41  C   UNL A   1      38.438  29.628  28.139  1.00  0.00     0.010 A 
ATOM     42  C   UNL A   1      38.612  28.897  29.322  1.00  0.00    -0.014 A 
BRANCH  42  43
ATOM     43  C   UNL A   1      39.977  28.406  29.592  1.00  0.00     0.031 A 
ATOM     44  C   UNL A   1      40.407  27.121  28.967  1.00  0.00     0.074 A 
ATOM     45  C   UNL A   1      40.886  29.274  30.120  1.00  0.00     0.049 A 
ATOM     46  N   UNL A   1      41.604  26.663  29.024  1.00  0.00    -0.248 NA
ATOM     47  C   UNL A   1      39.519  26.219  28.228  1.00  0.00     0.031 C 
ATOM     48  C   UNL A   1      42.341  29.297  29.899  1.00  0.00     0.029 A 
ATOM     49  N   UNL A   1      40.669  30.453  30.859  1.00  0.00    -0.354 N 
ATOM     50  C   UNL A   1      41.713  25.567  28.197  1.00  0.00     0.074 A 
ATOM     51  C   UNL A   1      40.369  25.293  27.772  1.00  0.00     0.031 C 
ATOM     52  C   UNL A   1      42.897  30.285  30.626  1.00  0.00     0.029 A 
ATOM     53  C   UNL A   1      41.862  30.823  31.503  1.00  0.00     0.049 A 
ATOM     54  H   UNL A   1      39.815  30.942  30.914  1.00  0.00     0.167 HD
ATOM     55  C   UNL A   1      42.962  25.088  27.938  1.00  0.00     0.037 A 
ATOM     56  C   UNL A   1      41.943  30.818  32.871  1.00  0.00     0.037 A 
ATOM     57  C   UNL A   1      43.925  25.751  28.833  1.00  0.00     0.049 A 
ATOM     58  C   UNL A   1      42.814  29.643  33.271  1.00  0.00     0.074 A 
ATOM     59  C   UNL A   1      44.898  26.717  28.650  1.00  0.00     0.029 A 
ATOM     60  N   UNL A   1      43.710  25.678  30.213  1.00  0.00    -0.354 N 
ATOM     61  N   UNL A   1      42.885  28.540  32.564  1.00  0.00    -0.248 NA
ATOM     62  C   UNL A   1      43.792  29.680  34.354  1.00  0.00     0.031 C 
ATOM     63  C   UNL A   1      45.188  27.287  29.931  1.00  0.00     0.029 A 
ATOM     64  C   UNL A   1      44.428  26.640  30.900  1.00  0.00     0.049 A 
ATOM     65  H   UNL A   1      43.118  25.020  30.645  1.00  0.00     0.167 HD
ATOM     66  C   UNL A   1      43.953  27.805  32.986  1.00  0.00     0.074 A 
ATOM     67  C   UNL A   1      44.451  28.525  34.148  1.00  0.00     0.031 C 
ATOM     68  C   UNL A   1      44.411  26.679  32.363  1.00  0.00     0.037 A 
BRANCH  55  69
ATOM     69  C   UNL A   1      43.358  24.119  26.830  1.00  0.00     0.057 A 
ATOM     70  C   UNL A   1      43.306  22.727  27.052  1.00  0.00     0.134 A 
ATOM     71  C   UNL A   1      43.877  24.466  25.563  1.00  0.00     0.134 A 
ATOM     72  F   UNL A   1      42.855  22.223  28.210  1.00  0.00    -0.206 F 
ATOM     73  C   UNL A   1      43.729  21.774  26.106  1.00  0.00     0.040 A 
ATOM     74  C   UNL A   1      44.268  23.524  24.594  1.00  0.00     0.040 A 
ATOM     75  F   UNL A   1      44.091  25.730  25.194  1.00  0.00    -0.206 F 
ATOM     76  C   UNL A   1      44.204  22.169  24.867  1.00  0.00     0.006 A 
ENDBRANCH  55  69
BRANCH  56  77
ATOM     77  C   UNL A   1      40.751  31.397  33.598  1.00  0.00     0.057 A 
ATOM     78  C   UNL A   1      39.782  30.540  34.153  1.00  0.00     0.134 A 
ATOM     79  C   UNL A   1      40.847  32.653  34.208  1.00  0.00     0.134 A 
ATOM     80  F   UNL A   1      39.538  29.345  33.592  1.00  0.00    -0.206 F 
ATOM     81  C   UNL A   1      39.156  30.808  35.391  1.00  0.00     0.040 A 
ATOM     82  C   UNL A   1      40.257  32.923  35.456  1.00  0.00     0.040 A 
ATOM     83  F   UNL A   1      41.651  33.588  33.685  1.00  0.00    -0.206 F 
ATOM     84  C   UNL A   1      39.456  31.977  36.083  1.00  0.00     0.006 A 
ENDBRANCH  56  77
BRANCH  68  85
ATOM     85  C   UNL A   1      44.897  25.488  33.153  1.00  0.00     0.057 A 
ATOM     86  C   UNL A   1      46.226  25.033  33.119  1.00  0.00     0.134 A 
ATOM     87  C   UNL A   1      44.088  24.889  34.143  1.00  0.00     0.134 A 
ATOM     88  F   UNL A   1      47.150  25.589  32.323  1.00  0.00    -0.206 F 
ATOM     89  C   UNL A   1      46.695  24.015  33.954  1.00  0.00     0.040 A 
ATOM     90  C   UNL A   1      44.569  23.928  35.034  1.00  0.00     0.040 A 
ATOM     91  F   UNL A   1      42.806  25.234  34.326  1.00  0.00    -0.206 F 
ATOM     92  C   UNL A   1      45.870  23.470  34.926  1.00  0.00     0.006 A 
ENDBRANCH  68  85
ENDBRANCH  42  43
ENDBRANCH  35  37
ENDBRANCH  34  35
ENDBRANCH  33  34
ENDBRANCH  32  33
ENDBRANCH  31  32
ENDBRANCH   1  31
TORSDOF 19
ENDMDL
