MODEL 1
REMARK VINA RESULT:     -10.2      0.000      0.000
REMARK SMILES CC(C)N(CCCC(=O)OCCOCCOC(=O)c1ccc(-c2c3nc(c(-c4c(F)cccc4F)c4ccc([nH]4)c(-c4c(F)cccc4F)c4nc(c(-c5c(F)cccc5F)c5ccc2[nH]5)C=C4)C=C3)cc1)C(=O)Cc1c(F)cccc1F
REMARK SMILES IDX 11 1 10 2 8 3 9 4 7 5 6 6 5 7 4 8 2 9 1 10 3 11 73 12 74 13
REMARK SMILES IDX 75 14 76 15 77 16 82 17 78 18 79 19 81 20 83 21 80 22 12 23
REMARK SMILES IDX 13 24 14 25 15 26 16 27 17 28 18 29 19 30 20 31 72 32 21 33
REMARK SMILES IDX 71 34 22 35 23 36 24 37 65 38 25 39 70 40 64 41 66 42 26 43
REMARK SMILES IDX 69 44 63 45 62 46 27 48 53 49 36 50 52 51 37 52 40 53 51 54
REMARK SMILES IDX 67 55 38 56 39 57 50 59 68 60 41 61 28 62 29 63 34 64 30 65
REMARK SMILES IDX 31 66 33 67 35 68 32 69 54 70 55 71 60 72 56 73 57 74 59 75
REMARK SMILES IDX 61 76 58 77 42 78 43 79 48 80 44 81 45 82 47 83 49 84 46 85
REMARK H PARENT 66 47 40 58
REMARK Flexibility Score: inf
ROOT
ATOM      1  C   UNL A   1      39.100  21.858  26.038  1.00  0.00     0.261 C 
ENDROOT
BRANCH   1   2
ATOM      2  O   UNL A   1      38.215  21.520  24.962  1.00  0.00    -0.463 OA
BRANCH   2   3
ATOM      3  C   UNL A   1      36.902  21.383  25.291  1.00  0.00     0.305 C 
ATOM      4  O   UNL A   1      36.264  20.341  25.216  1.00  0.00    -0.252 OA
BRANCH   3   5
ATOM      5  C   UNL A   1      36.263  22.685  25.740  1.00  0.00     0.124 C 
BRANCH   5   6
ATOM      6  C   UNL A   1      35.587  23.538  24.664  1.00  0.00     0.033 C 
BRANCH   6   7
ATOM      7  C   UNL A   1      34.987  22.771  23.475  1.00  0.00     0.120 C 
BRANCH   7   8
ATOM      8  N   UNL A   1      33.609  23.135  23.125  1.00  0.00    -0.340 N 
BRANCH   8   9
ATOM      9  C   UNL A   1      32.569  22.148  23.499  1.00  0.00     0.078 C 
ATOM     10  C   UNL A   1      32.052  21.357  22.292  1.00  0.00     0.031 C 
ATOM     11  C   UNL A   1      33.000  21.231  24.643  1.00  0.00     0.031 C 
ENDBRANCH   8   9
BRANCH   8  12
ATOM     12  C   UNL A   1      33.212  24.402  22.679  1.00  0.00     0.227 C 
ATOM     13  O   UNL A   1      33.594  24.869  21.601  1.00  0.00    -0.275 OA
BRANCH  12  14
ATOM     14  C   UNL A   1      32.348  25.278  23.567  1.00  0.00     0.142 C 
BRANCH  14  15
ATOM     15  C   UNL A   1      32.948  26.502  24.211  1.00  0.00     0.033 A 
ATOM     16  C   UNL A   1      33.329  26.403  25.558  1.00  0.00     0.129 A 
ATOM     17  C   UNL A   1      33.079  27.752  23.608  1.00  0.00     0.129 A 
ATOM     18  F   UNL A   1      33.195  25.232  26.196  1.00  0.00    -0.207 F 
ATOM     19  C   UNL A   1      33.787  27.501  26.287  1.00  0.00     0.040 A 
ATOM     20  C   UNL A   1      33.526  28.862  24.330  1.00  0.00     0.040 A 
ATOM     21  F   UNL A   1      32.728  27.940  22.331  1.00  0.00    -0.207 F 
ATOM     22  C   UNL A   1      33.876  28.744  25.672  1.00  0.00     0.006 A 
ENDBRANCH  14  15
ENDBRANCH  12  14
ENDBRANCH   8  12
ENDBRANCH   7   8
ENDBRANCH   6   7
ENDBRANCH   5   6
ENDBRANCH   3   5
ENDBRANCH   2   3
ENDBRANCH   1   2
BRANCH   1  23
ATOM     23  C   UNL A   1      40.067  20.753  26.460  1.00  0.00     0.202 C 
BRANCH  23  24
ATOM     24  O   UNL A   1      41.376  21.128  26.855  1.00  0.00    -0.374 OA
BRANCH  24  25
ATOM     25  C   UNL A   1      42.469  20.598  26.116  1.00  0.00     0.202 C 
BRANCH  25  26
ATOM     26  C   UNL A   1      43.423  21.573  25.405  1.00  0.00     0.261 C 
BRANCH  26  27
ATOM     27  O   UNL A   1      42.828  22.754  24.829  1.00  0.00    -0.460 OA
BRANCH  27  28
ATOM     28  C   UNL A   1      43.564  23.887  24.993  1.00  0.00     0.338 C 
ATOM     29  O   UNL A   1      44.640  24.141  24.480  1.00  0.00    -0.246 OA
BRANCH  28  30
ATOM     30  C   UNL A   1      42.875  24.875  25.850  1.00  0.00     0.060 A 
ATOM     31  C   UNL A   1      43.403  26.171  25.925  1.00  0.00     0.016 A 
ATOM     32  C   UNL A   1      41.854  24.483  26.719  1.00  0.00     0.016 A 
ATOM     33  C   UNL A   1      42.934  27.065  26.894  1.00  0.00     0.010 A 
ATOM     34  C   UNL A   1      41.394  25.376  27.696  1.00  0.00     0.010 A 
ATOM     35  C   UNL A   1      41.952  26.662  27.810  1.00  0.00    -0.014 A 
BRANCH  35  36
ATOM     36  C   UNL A   1      41.577  27.548  28.944  1.00  0.00     0.031 A 
ATOM     37  C   UNL A   1      42.360  27.502  30.226  1.00  0.00     0.074 A 
ATOM     38  C   UNL A   1      40.547  28.406  28.832  1.00  0.00     0.049 A 
ATOM     39  N   UNL A   1      42.159  28.154  31.343  1.00  0.00    -0.248 NA
ATOM     40  C   UNL A   1      43.514  26.591  30.258  1.00  0.00     0.031 C 
ATOM     41  C   UNL A   1      39.707  28.549  27.650  1.00  0.00     0.029 A 
ATOM     42  N   UNL A   1      40.027  29.309  29.725  1.00  0.00    -0.354 N 
ATOM     43  C   UNL A   1      43.156  27.733  32.213  1.00  0.00     0.074 A 
ATOM     44  C   UNL A   1      43.950  26.754  31.499  1.00  0.00     0.031 C 
ATOM     45  C   UNL A   1      38.789  29.502  27.874  1.00  0.00     0.029 A 
ATOM     46  C   UNL A   1      38.931  29.986  29.245  1.00  0.00     0.049 A 
ATOM     47  H   UNL A   1      40.402  29.458  30.624  1.00  0.00     0.167 HD
ATOM     48  C   UNL A   1      43.387  28.124  33.490  1.00  0.00     0.037 A 
ATOM     49  C   UNL A   1      38.104  30.858  29.853  1.00  0.00     0.037 A 
ATOM     50  C   UNL A   1      42.587  29.080  34.211  1.00  0.00     0.049 A 
ATOM     51  C   UNL A   1      38.333  31.217  31.296  1.00  0.00     0.074 A 
ATOM     52  C   UNL A   1      42.752  29.541  35.507  1.00  0.00     0.029 A 
ATOM     53  N   UNL A   1      41.459  29.711  33.706  1.00  0.00    -0.354 N 
ATOM     54  N   UNL A   1      39.288  30.824  32.103  1.00  0.00    -0.248 NA
ATOM     55  C   UNL A   1      37.357  32.123  31.919  1.00  0.00     0.031 C 
ATOM     56  C   UNL A   1      41.698  30.415  35.800  1.00  0.00     0.029 A 
ATOM     57  C   UNL A   1      40.902  30.533  34.672  1.00  0.00     0.049 A 
ATOM     58  H   UNL A   1      41.107  29.591  32.794  1.00  0.00     0.167 HD
ATOM     59  C   UNL A   1      39.031  31.435  33.324  1.00  0.00     0.074 A 
ATOM     60  C   UNL A   1      37.844  32.245  33.146  1.00  0.00     0.031 C 
ATOM     61  C   UNL A   1      39.715  31.328  34.490  1.00  0.00     0.037 A 
BRANCH  48  62
ATOM     62  C   UNL A   1      44.546  27.489  34.201  1.00  0.00     0.057 A 
ATOM     63  C   UNL A   1      44.410  26.284  34.901  1.00  0.00     0.134 A 
ATOM     64  C   UNL A   1      45.816  28.078  34.165  1.00  0.00     0.134 A 
ATOM     65  F   UNL A   1      43.217  25.676  34.984  1.00  0.00    -0.206 F 
ATOM     66  C   UNL A   1      45.493  25.699  35.560  1.00  0.00     0.040 A 
ATOM     67  C   UNL A   1      46.911  27.490  34.800  1.00  0.00     0.040 A 
ATOM     68  F   UNL A   1      46.014  29.230  33.506  1.00  0.00    -0.206 F 
ATOM     69  C   UNL A   1      46.749  26.301  35.506  1.00  0.00     0.006 A 
ENDBRANCH  48  62
BRANCH  49  70
ATOM     70  C   UNL A   1      36.944  31.415  29.113  1.00  0.00     0.057 A 
ATOM     71  C   UNL A   1      35.797  30.650  28.877  1.00  0.00     0.134 A 
ATOM     72  C   UNL A   1      36.961  32.724  28.616  1.00  0.00     0.134 A 
ATOM     73  F   UNL A   1      35.733  29.380  29.303  1.00  0.00    -0.206 F 
ATOM     74  C   UNL A   1      34.709  31.165  28.170  1.00  0.00     0.040 A 
ATOM     75  C   UNL A   1      35.870  33.261  27.932  1.00  0.00     0.040 A 
ATOM     76  F   UNL A   1      38.035  33.505  28.804  1.00  0.00    -0.206 F 
ATOM     77  C   UNL A   1      34.741  32.477  27.702  1.00  0.00     0.006 A 
ENDBRANCH  49  70
BRANCH  61  78
ATOM     78  C   UNL A   1      39.202  32.112  35.662  1.00  0.00     0.057 A 
ATOM     79  C   UNL A   1      38.346  31.538  36.612  1.00  0.00     0.134 A 
ATOM     80  C   UNL A   1      39.596  33.440  35.865  1.00  0.00     0.134 A 
ATOM     81  F   UNL A   1      37.919  30.275  36.467  1.00  0.00    -0.206 F 
ATOM     82  C   UNL A   1      37.889  32.264  37.714  1.00  0.00     0.040 A 
ATOM     83  C   UNL A   1      39.164  34.168  36.975  1.00  0.00     0.040 A 
ATOM     84  F   UNL A   1      40.419  34.046  34.996  1.00  0.00    -0.206 F 
ATOM     85  C   UNL A   1      38.304  33.581  37.901  1.00  0.00     0.006 A 
ENDBRANCH  61  78
ENDBRANCH  35  36
ENDBRANCH  28  30
ENDBRANCH  27  28
ENDBRANCH  26  27
ENDBRANCH  25  26
ENDBRANCH  24  25
ENDBRANCH  23  24
ENDBRANCH   1  23
TORSDOF 21
ENDMDL
MODEL 2
REMARK VINA RESULT:      -9.9      4.816      9.743
REMARK SMILES CC(C)N(CCCC(=O)OCCOCCOC(=O)c1ccc(-c2c3nc(c(-c4c(F)cccc4F)c4ccc([nH]4)c(-c4c(F)cccc4F)c4nc(c(-c5c(F)cccc5F)c5ccc2[nH]5)C=C4)C=C3)cc1)C(=O)Cc1c(F)cccc1F
REMARK SMILES IDX 11 1 10 2 8 3 9 4 7 5 6 6 5 7 4 8 2 9 1 10 3 11 73 12 74 13
REMARK SMILES IDX 75 14 76 15 77 16 82 17 78 18 79 19 81 20 83 21 80 22 12 23
REMARK SMILES IDX 13 24 14 25 15 26 16 27 17 28 18 29 19 30 20 31 72 32 21 33
REMARK SMILES IDX 71 34 22 35 23 36 24 37 65 38 25 39 70 40 64 41 66 42 26 43
REMARK SMILES IDX 69 44 63 45 62 46 27 48 53 49 36 50 52 51 37 52 40 53 51 54
REMARK SMILES IDX 67 55 38 56 39 57 50 59 68 60 41 61 28 62 29 63 34 64 30 65
REMARK SMILES IDX 31 66 33 67 35 68 32 69 54 70 55 71 60 72 56 73 57 74 59 75
REMARK SMILES IDX 61 76 58 77 42 78 43 79 48 80 44 81 45 82 47 83 49 84 46 85
REMARK H PARENT 66 47 40 58
REMARK Flexibility Score: inf
ROOT
ATOM      1  C   UNL A   1      33.949  31.983  28.254  1.00  0.00     0.261 C 
ENDROOT
BRANCH   1   2
ATOM      2  O   UNL A   1      33.676  31.214  27.074  1.00  0.00    -0.463 OA
BRANCH   2   3
ATOM      3  C   UNL A   1      33.685  29.862  27.229  1.00  0.00     0.305 C 
ATOM      4  O   UNL A   1      34.692  29.173  27.314  1.00  0.00    -0.252 OA
BRANCH   3   5
ATOM      5  C   UNL A   1      32.293  29.257  27.252  1.00  0.00     0.124 C 
BRANCH   5   6
ATOM      6  C   UNL A   1      31.977  28.194  26.198  1.00  0.00     0.033 C 
BRANCH   6   7
ATOM      7  C   UNL A   1      31.836  28.697  24.753  1.00  0.00     0.120 C 
BRANCH   7   8
ATOM      8  N   UNL A   1      31.702  27.650  23.734  1.00  0.00    -0.340 N 
BRANCH   8   9
ATOM      9  C   UNL A   1      30.506  27.748  22.865  1.00  0.00     0.078 C 
ATOM     10  C   UNL A   1      29.265  27.115  23.504  1.00  0.00     0.031 C 
ATOM     11  C   UNL A   1      30.237  29.172  22.378  1.00  0.00     0.031 C 
ENDBRANCH   8   9
BRANCH   8  12
ATOM     12  C   UNL A   1      32.707  26.732  23.403  1.00  0.00     0.227 C 
ATOM     13  O   UNL A   1      33.654  27.031  22.669  1.00  0.00    -0.275 OA
BRANCH  12  14
ATOM     14  C   UNL A   1      32.610  25.299  23.891  1.00  0.00     0.142 C 
BRANCH  14  15
ATOM     15  C   UNL A   1      33.867  24.481  24.047  1.00  0.00     0.033 A 
ATOM     16  C   UNL A   1      34.658  24.721  25.182  1.00  0.00     0.129 A 
ATOM     17  C   UNL A   1      34.358  23.566  23.118  1.00  0.00     0.129 A 
ATOM     18  F   UNL A   1      34.249  25.614  26.093  1.00  0.00    -0.207 F 
ATOM     19  C   UNL A   1      35.897  24.108  25.371  1.00  0.00     0.040 A 
ATOM     20  C   UNL A   1      35.603  22.954  23.289  1.00  0.00     0.040 A 
ATOM     21  F   UNL A   1      33.676  23.287  22.001  1.00  0.00    -0.207 F 
ATOM     22  C   UNL A   1      36.379  23.225  24.412  1.00  0.00     0.006 A 
ENDBRANCH  14  15
ENDBRANCH  12  14
ENDBRANCH   8  12
ENDBRANCH   7   8
ENDBRANCH   6   7
ENDBRANCH   5   6
ENDBRANCH   3   5
ENDBRANCH   2   3
ENDBRANCH   1   2
BRANCH   1  23
ATOM     23  C   UNL A   1      33.762  33.492  28.107  1.00  0.00     0.202 C 
BRANCH  23  24
ATOM     24  O   UNL A   1      33.016  34.170  29.103  1.00  0.00    -0.374 OA
BRANCH  24  25
ATOM     25  C   UNL A   1      33.734  34.932  30.067  1.00  0.00     0.202 C 
BRANCH  25  26
ATOM     26  C   UNL A   1      34.250  34.225  31.332  1.00  0.00     0.261 C 
BRANCH  26  27
ATOM     27  O   UNL A   1      35.621  33.778  31.309  1.00  0.00    -0.460 OA
BRANCH  27  28
ATOM     28  C   UNL A   1      35.859  32.666  32.057  1.00  0.00     0.338 C 
ATOM     29  O   UNL A   1      35.303  32.350  33.094  1.00  0.00    -0.246 OA
BRANCH  28  30
ATOM     30  C   UNL A   1      36.867  31.784  31.432  1.00  0.00     0.060 A 
ATOM     31  C   UNL A   1      37.843  31.205  32.254  1.00  0.00     0.016 A 
ATOM     32  C   UNL A   1      36.976  31.690  30.042  1.00  0.00     0.016 A 
ATOM     33  C   UNL A   1      38.948  30.563  31.686  1.00  0.00     0.010 A 
ATOM     34  C   UNL A   1      38.090  31.056  29.476  1.00  0.00     0.010 A 
ATOM     35  C   UNL A   1      39.098  30.515  30.293  1.00  0.00    -0.014 A 
BRANCH  35  36
ATOM     36  C   UNL A   1      40.352  29.986  29.693  1.00  0.00     0.031 A 
ATOM     37  C   UNL A   1      41.538  30.891  29.508  1.00  0.00     0.074 A 
ATOM     38  C   UNL A   1      40.444  28.697  29.321  1.00  0.00     0.049 A 
ATOM     39  N   UNL A   1      42.698  30.634  28.958  1.00  0.00    -0.248 NA
ATOM     40  C   UNL A   1      41.393  32.271  29.996  1.00  0.00     0.031 C 
ATOM     41  C   UNL A   1      39.372  27.717  29.443  1.00  0.00     0.029 A 
ATOM     42  N   UNL A   1      41.480  27.993  28.760  1.00  0.00    -0.354 N 
ATOM     43  C   UNL A   1      43.422  31.817  29.029  1.00  0.00     0.074 A 
ATOM     44  C   UNL A   1      42.561  32.798  29.659  1.00  0.00     0.031 C 
ATOM     45  C   UNL A   1      39.807  26.530  28.995  1.00  0.00     0.029 A 
ATOM     46  C   UNL A   1      41.169  26.683  28.487  1.00  0.00     0.049 A 
ATOM     47  H   UNL A   1      42.362  28.389  28.571  1.00  0.00     0.167 HD
ATOM     48  C   UNL A   1      44.685  32.064  28.606  1.00  0.00     0.037 A 
ATOM     49  C   UNL A   1      41.877  25.727  27.855  1.00  0.00     0.037 A 
ATOM     50  C   UNL A   1      45.536  31.099  27.959  1.00  0.00     0.049 A 
ATOM     51  C   UNL A   1      43.247  26.048  27.322  1.00  0.00     0.074 A 
ATOM     52  C   UNL A   1      46.833  31.260  27.502  1.00  0.00     0.029 A 
ATOM     53  N   UNL A   1      45.168  29.794  27.660  1.00  0.00    -0.354 N 
ATOM     54  N   UNL A   1      43.926  27.165  27.409  1.00  0.00    -0.248 NA
ATOM     55  C   UNL A   1      43.939  24.980  26.585  1.00  0.00     0.031 C 
ATOM     56  C   UNL A   1      47.233  30.068  26.887  1.00  0.00     0.029 A 
ATOM     57  C   UNL A   1      46.202  29.150  26.999  1.00  0.00     0.049 A 
ATOM     58  H   UNL A   1      44.300  29.387  27.884  1.00  0.00     0.167 HD
ATOM     59  C   UNL A   1      45.123  26.936  26.743  1.00  0.00     0.074 A 
ATOM     60  C   UNL A   1      45.089  25.565  26.279  1.00  0.00     0.031 C 
ATOM     61  C   UNL A   1      46.156  27.789  26.531  1.00  0.00     0.037 A 
BRANCH  48  62
ATOM     62  C   UNL A   1      45.216  33.453  28.807  1.00  0.00     0.057 A 
ATOM     63  C   UNL A   1      45.015  34.463  27.859  1.00  0.00     0.134 A 
ATOM     64  C   UNL A   1      45.913  33.789  29.975  1.00  0.00     0.134 A 
ATOM     65  F   UNL A   1      44.365  34.203  26.715  1.00  0.00    -0.206 F 
ATOM     66  C   UNL A   1      45.511  35.754  28.054  1.00  0.00     0.040 A 
ATOM     67  C   UNL A   1      46.393  35.082  30.191  1.00  0.00     0.040 A 
ATOM     68  F   UNL A   1      46.134  32.868  30.925  1.00  0.00    -0.206 F 
ATOM     69  C   UNL A   1      46.199  36.067  29.226  1.00  0.00     0.006 A 
ENDBRANCH  48  62
BRANCH  49  70
ATOM     70  C   UNL A   1      41.279  24.385  27.640  1.00  0.00     0.057 A 
ATOM     71  C   UNL A   1      41.709  23.272  28.369  1.00  0.00     0.134 A 
ATOM     72  C   UNL A   1      40.267  24.185  26.692  1.00  0.00     0.134 A 
ATOM     73  F   UNL A   1      42.694  23.395  29.270  1.00  0.00    -0.206 F 
ATOM     74  C   UNL A   1      41.159  22.006  28.160  1.00  0.00     0.040 A 
ATOM     75  C   UNL A   1      39.689  22.932  26.493  1.00  0.00     0.040 A 
ATOM     76  F   UNL A   1      39.816  25.212  25.957  1.00  0.00    -0.206 F 
ATOM     77  C   UNL A   1      40.140  21.835  27.225  1.00  0.00     0.006 A 
ENDBRANCH  49  70
BRANCH  61  78
ATOM     78  C   UNL A   1      47.337  27.262  25.770  1.00  0.00     0.057 A 
ATOM     79  C   UNL A   1      47.454  27.432  24.383  1.00  0.00     0.134 A 
ATOM     80  C   UNL A   1      48.386  26.614  26.432  1.00  0.00     0.134 A 
ATOM     81  F   UNL A   1      46.475  28.030  23.688  1.00  0.00    -0.206 F 
ATOM     82  C   UNL A   1      48.565  26.960  23.682  1.00  0.00     0.040 A 
ATOM     83  C   UNL A   1      49.513  26.159  25.745  1.00  0.00     0.040 A 
ATOM     84  F   UNL A   1      48.340  26.425  27.760  1.00  0.00    -0.206 F 
ATOM     85  C   UNL A   1      49.602  26.328  24.365  1.00  0.00     0.006 A 
ENDBRANCH  61  78
ENDBRANCH  35  36
ENDBRANCH  28  30
ENDBRANCH  27  28
ENDBRANCH  26  27
ENDBRANCH  25  26
ENDBRANCH  24  25
ENDBRANCH  23  24
ENDBRANCH   1  23
TORSDOF 21
ENDMDL
MODEL 3
REMARK VINA RESULT:      -9.8      1.472      3.112
REMARK SMILES CC(C)N(CCCC(=O)OCCOCCOC(=O)c1ccc(-c2c3nc(c(-c4c(F)cccc4F)c4ccc([nH]4)c(-c4c(F)cccc4F)c4nc(c(-c5c(F)cccc5F)c5ccc2[nH]5)C=C4)C=C3)cc1)C(=O)Cc1c(F)cccc1F
REMARK SMILES IDX 11 1 10 2 8 3 9 4 7 5 6 6 5 7 4 8 2 9 1 10 3 11 73 12 74 13
REMARK SMILES IDX 75 14 76 15 77 16 82 17 78 18 79 19 81 20 83 21 80 22 12 23
REMARK SMILES IDX 13 24 14 25 15 26 16 27 17 28 18 29 19 30 20 31 72 32 21 33
REMARK SMILES IDX 71 34 22 35 23 36 24 37 65 38 25 39 70 40 64 41 66 42 26 43
REMARK SMILES IDX 69 44 63 45 62 46 27 48 53 49 36 50 52 51 37 52 40 53 51 54
REMARK SMILES IDX 67 55 38 56 39 57 50 59 68 60 41 61 28 62 29 63 34 64 30 65
REMARK SMILES IDX 31 66 33 67 35 68 32 69 54 70 55 71 60 72 56 73 57 74 59 75
REMARK SMILES IDX 61 76 58 77 42 78 43 79 48 80 44 81 45 82 47 83 49 84 46 85
REMARK H PARENT 66 47 40 58
REMARK Flexibility Score: inf
ROOT
ATOM      1  C   UNL A   1      39.712  20.446  26.051  1.00  0.00     0.261 C 
ENDROOT
BRANCH   1   2
ATOM      2  O   UNL A   1      39.019  19.458  25.275  1.00  0.00    -0.463 OA
BRANCH   2   3
ATOM      3  C   UNL A   1      37.718  19.732  24.987  1.00  0.00     0.305 C 
ATOM      4  O   UNL A   1      36.839  18.893  24.848  1.00  0.00    -0.252 OA
BRANCH   3   5
ATOM      5  C   UNL A   1      37.448  21.216  24.813  1.00  0.00     0.124 C 
BRANCH   5   6
ATOM      6  C   UNL A   1      35.993  21.638  24.593  1.00  0.00     0.033 C 
BRANCH   6   7
ATOM      7  C   UNL A   1      35.338  22.420  25.741  1.00  0.00     0.120 C 
BRANCH   7   8
ATOM      8  N   UNL A   1      34.153  23.204  25.370  1.00  0.00    -0.340 N 
BRANCH   8   9
ATOM      9  C   UNL A   1      34.410  24.409  24.548  1.00  0.00     0.078 C 
ATOM     10  C   UNL A   1      34.001  24.216  23.084  1.00  0.00     0.031 C 
ATOM     11  C   UNL A   1      33.811  25.680  25.149  1.00  0.00     0.031 C 
ENDBRANCH   8   9
BRANCH   8  12
ATOM     12  C   UNL A   1      32.831  22.776  25.553  1.00  0.00     0.227 C 
ATOM     13  O   UNL A   1      32.216  22.973  26.606  1.00  0.00    -0.275 OA
BRANCH  12  14
ATOM     14  C   UNL A   1      32.140  21.976  24.464  1.00  0.00     0.142 C 
BRANCH  14  15
ATOM     15  C   UNL A   1      32.494  20.523  24.274  1.00  0.00     0.033 A 
ATOM     16  C   UNL A   1      32.273  19.964  23.006  1.00  0.00     0.129 A 
ATOM     17  C   UNL A   1      32.944  19.662  25.273  1.00  0.00     0.129 A 
ATOM     18  F   UNL A   1      31.812  20.741  22.015  1.00  0.00    -0.207 F 
ATOM     19  C   UNL A   1      32.455  18.605  22.747  1.00  0.00     0.040 A 
ATOM     20  C   UNL A   1      33.119  18.297  25.030  1.00  0.00     0.040 A 
ATOM     21  F   UNL A   1      33.168  20.107  26.515  1.00  0.00    -0.207 F 
ATOM     22  C   UNL A   1      32.871  17.762  23.769  1.00  0.00     0.006 A 
ENDBRANCH  14  15
ENDBRANCH  12  14
ENDBRANCH   8  12
ENDBRANCH   7   8
ENDBRANCH   6   7
ENDBRANCH   5   6
ENDBRANCH   3   5
ENDBRANCH   2   3
ENDBRANCH   1   2
BRANCH   1  23
ATOM     23  C   UNL A   1      40.998  19.965  26.721  1.00  0.00     0.202 C 
BRANCH  23  24
ATOM     24  O   UNL A   1      42.122  20.829  26.703  1.00  0.00    -0.374 OA
BRANCH  24  25
ATOM     25  C   UNL A   1      43.191  20.509  25.821  1.00  0.00     0.202 C 
BRANCH  25  26
ATOM     26  C   UNL A   1      43.835  21.639  24.999  1.00  0.00     0.261 C 
BRANCH  26  27
ATOM     27  O   UNL A   1      43.040  22.826  24.799  1.00  0.00    -0.460 OA
BRANCH  27  28
ATOM     28  C   UNL A   1      43.731  23.990  24.939  1.00  0.00     0.338 C 
ATOM     29  O   UNL A   1      44.782  24.286  24.398  1.00  0.00    -0.246 OA
BRANCH  28  30
ATOM     30  C   UNL A   1      43.021  24.954  25.806  1.00  0.00     0.060 A 
ATOM     31  C   UNL A   1      43.498  26.270  25.865  1.00  0.00     0.016 A 
ATOM     32  C   UNL A   1      42.034  24.526  26.698  1.00  0.00     0.016 A 
ATOM     33  C   UNL A   1      43.015  27.149  26.840  1.00  0.00     0.010 A 
ATOM     34  C   UNL A   1      41.561  25.405  27.681  1.00  0.00     0.010 A 
ATOM     35  C   UNL A   1      42.069  26.712  27.778  1.00  0.00    -0.014 A 
BRANCH  35  36
ATOM     36  C   UNL A   1      41.683  27.589  28.916  1.00  0.00     0.031 A 
ATOM     37  C   UNL A   1      42.472  27.552  30.195  1.00  0.00     0.074 A 
ATOM     38  C   UNL A   1      40.637  28.428  28.811  1.00  0.00     0.049 A 
ATOM     39  N   UNL A   1      42.264  28.198  31.315  1.00  0.00    -0.248 NA
ATOM     40  C   UNL A   1      43.642  26.662  30.219  1.00  0.00     0.031 C 
ATOM     41  C   UNL A   1      39.790  28.559  27.633  1.00  0.00     0.029 A 
ATOM     42  N   UNL A   1      40.105  29.319  29.709  1.00  0.00    -0.354 N 
ATOM     43  C   UNL A   1      43.272  27.792  32.180  1.00  0.00     0.074 A 
ATOM     44  C   UNL A   1      44.080  26.829  31.459  1.00  0.00     0.031 C 
ATOM     45  C   UNL A   1      38.857  29.495  27.863  1.00  0.00     0.029 A 
ATOM     46  C   UNL A   1      38.996  29.977  29.236  1.00  0.00     0.049 A 
ATOM     47  H   UNL A   1      40.481  29.472  30.607  1.00  0.00     0.167 HD
ATOM     48  C   UNL A   1      43.501  28.183  33.456  1.00  0.00     0.037 A 
ATOM     49  C   UNL A   1      38.156  30.834  29.849  1.00  0.00     0.037 A 
ATOM     50  C   UNL A   1      42.688  29.122  34.184  1.00  0.00     0.049 A 
ATOM     51  C   UNL A   1      38.385  31.192  31.293  1.00  0.00     0.074 A 
ATOM     52  C   UNL A   1      42.850  29.583  35.480  1.00  0.00     0.029 A 
ATOM     53  N   UNL A   1      41.547  29.735  33.685  1.00  0.00    -0.354 N 
ATOM     54  N   UNL A   1      39.349  30.813  32.094  1.00  0.00    -0.248 NA
ATOM     55  C   UNL A   1      37.395  32.079  31.922  1.00  0.00     0.031 C 
ATOM     56  C   UNL A   1      41.782  30.436  35.780  1.00  0.00     0.029 A 
ATOM     57  C   UNL A   1      40.979  30.544  34.656  1.00  0.00     0.049 A 
ATOM     58  H   UNL A   1      41.193  29.612  32.774  1.00  0.00     0.167 HD
ATOM     59  C   UNL A   1      39.087  31.416  33.318  1.00  0.00     0.074 A 
ATOM     60  C   UNL A   1      37.885  32.206  33.147  1.00  0.00     0.031 C 
ATOM     61  C   UNL A   1      39.778  31.318  34.481  1.00  0.00     0.037 A 
BRANCH  48  62
ATOM     62  C   UNL A   1      44.674  27.567  34.161  1.00  0.00     0.057 A 
ATOM     63  C   UNL A   1      44.565  26.352  34.849  1.00  0.00     0.134 A 
ATOM     64  C   UNL A   1      45.931  28.184  34.130  1.00  0.00     0.134 A 
ATOM     65  F   UNL A   1      43.386  25.717  34.926  1.00  0.00    -0.206 F 
ATOM     66  C   UNL A   1      45.661  25.784  35.502  1.00  0.00     0.040 A 
ATOM     67  C   UNL A   1      47.039  27.614  34.759  1.00  0.00     0.040 A 
ATOM     68  F   UNL A   1      46.104  29.346  33.483  1.00  0.00    -0.206 F 
ATOM     69  C   UNL A   1      46.904  26.414  35.453  1.00  0.00     0.006 A 
ENDBRANCH  48  62
BRANCH  49  70
ATOM     70  C   UNL A   1      36.983  31.371  29.116  1.00  0.00     0.057 A 
ATOM     71  C   UNL A   1      35.858  30.580  28.862  1.00  0.00     0.134 A 
ATOM     72  C   UNL A   1      36.965  32.690  28.643  1.00  0.00     0.134 A 
ATOM     73  F   UNL A   1      35.828  29.301  29.263  1.00  0.00    -0.206 F 
ATOM     74  C   UNL A   1      34.759  31.077  28.160  1.00  0.00     0.040 A 
ATOM     75  C   UNL A   1      35.862  33.209  27.966  1.00  0.00     0.040 A 
ATOM     76  F   UNL A   1      38.016  33.497  28.851  1.00  0.00    -0.206 F 
ATOM     77  C   UNL A   1      34.756  32.399  27.717  1.00  0.00     0.006 A 
ENDBRANCH  49  70
BRANCH  61  78
ATOM     78  C   UNL A   1      39.255  32.089  35.658  1.00  0.00     0.057 A 
ATOM     79  C   UNL A   1      39.610  33.426  35.877  1.00  0.00     0.134 A 
ATOM     80  C   UNL A   1      38.358  31.502  36.558  1.00  0.00     0.134 A 
ATOM     81  F   UNL A   1      40.479  34.042  35.060  1.00  0.00    -0.206 F 
ATOM     82  C   UNL A   1      39.104  34.147  36.961  1.00  0.00     0.040 A 
ATOM     83  C   UNL A   1      37.827  32.220  37.632  1.00  0.00     0.040 A 
ATOM     84  F   UNL A   1      37.971  30.227  36.402  1.00  0.00    -0.206 F 
ATOM     85  C   UNL A   1      38.204  33.545  37.837  1.00  0.00     0.006 A 
ENDBRANCH  61  78
ENDBRANCH  35  36
ENDBRANCH  28  30
ENDBRANCH  27  28
ENDBRANCH  26  27
ENDBRANCH  25  26
ENDBRANCH  24  25
ENDBRANCH  23  24
ENDBRANCH   1  23
TORSDOF 21
ENDMDL
