MODEL 1
REMARK VINA RESULT:     -10.7      0.000      0.000
REMARK SMILES Cn1cc(S(=O)(=O)N[C@@H]2C=C[C@@H](C(=O)OCCOCCOC(=O)c3ccc(-c4c5nc(c(-c6c(F)cccc6F)c6ccc([nH]6)c(-c6c(F)cccc6F)c6nc(c(-c7c(F)cccc7F)c7ccc4[nH]7)C=C6)C=C5)cc3)C2)cc1C(N)=O
REMARK SMILES IDX 17 1 16 2 15 3 13 4 14 5 12 6 9 7 10 8 78 9 11 10 8 11 5 13
REMARK SMILES IDX 6 14 7 15 4 16 1 17 2 18 3 19 80 20 79 21 81 22 82 23 83 24
REMARK SMILES IDX 18 27 19 28 20 29 21 30 22 31 23 32 24 33 25 34 77 35 26 36
REMARK SMILES IDX 76 37 27 38 28 39 29 40 70 41 30 42 75 43 69 44 71 45 31 46
REMARK SMILES IDX 74 47 68 48 67 49 32 51 58 52 41 53 57 54 42 55 45 56 56 57
REMARK SMILES IDX 72 58 43 59 44 60 55 62 73 63 46 64 33 65 34 66 39 67 35 68
REMARK SMILES IDX 36 69 38 70 40 71 37 72 59 73 60 74 65 75 61 76 62 77 64 78
REMARK SMILES IDX 66 79 63 80 47 81 48 82 53 83 49 84 50 85 52 86 54 87 51 88
REMARK H PARENT 8 12 82 25 82 26 71 50 45 61
REMARK Flexibility Score: inf
ROOT
ATOM      1  C   UNL A   1      34.462  33.524  28.686  1.00  0.00     0.202 C 
ENDROOT
BRANCH   1   2
ATOM      2  C   UNL A   1      33.762  32.546  27.743  1.00  0.00     0.261 C 
BRANCH   2   3
ATOM      3  O   UNL A   1      33.853  31.200  28.245  1.00  0.00    -0.463 OA
BRANCH   3   4
ATOM      4  C   UNL A   1      34.382  30.285  27.394  1.00  0.00     0.312 C 
ATOM      5  O   UNL A   1      35.576  30.022  27.290  1.00  0.00    -0.252 OA
BRANCH   4   6
ATOM      6  C   UNL A   1      33.341  29.641  26.499  1.00  0.00     0.123 C 
ATOM      7  C   UNL A   1      32.425  27.611  25.524  1.00  0.00     0.093 C 
ATOM      8  C   UNL A   1      31.691  28.015  26.761  1.00  0.00    -0.011 C 
ATOM      9  C   UNL A   1      33.744  28.385  25.714  1.00  0.00     0.043 C 
ATOM     10  C   UNL A   1      32.182  29.137  27.303  1.00  0.00    -0.015 C 
BRANCH   7  11
ATOM     11  N   UNL A   1      31.779  28.112  24.299  1.00  0.00    -0.204 NA
ATOM     12  H   UNL A   1      31.182  28.890  24.578  1.00  0.00     0.142 HD
BRANCH  11  13
ATOM     13  S   UNL A   1      30.827  27.075  23.368  1.00  0.00     0.242 S 
ATOM     14  O   UNL A   1      31.390  27.010  22.039  1.00  0.00    -0.207 OA
ATOM     15  O   UNL A   1      29.454  27.455  23.613  1.00  0.00    -0.207 OA
BRANCH  13  16
ATOM     16  C   UNL A   1      30.950  25.480  24.012  1.00  0.00     0.100 A 
ATOM     17  C   UNL A   1      32.244  22.116  24.175  1.00  0.00     0.150 C 
ATOM     18  N   UNL A   1      31.593  23.389  24.405  1.00  0.00    -0.345 N 
ATOM     19  C   UNL A   1      31.692  24.435  23.515  1.00  0.00     0.107 A 
ATOM     20  C   UNL A   1      30.841  23.768  25.508  1.00  0.00     0.107 A 
ATOM     21  C   UNL A   1      30.332  25.027  25.200  1.00  0.00     0.055 A 
BRANCH  20  22
ATOM     22  C   UNL A   1      30.656  22.993  26.722  1.00  0.00     0.265 C 
ATOM     23  N   UNL A   1      29.441  22.382  26.854  1.00  0.00    -0.364 N 
ATOM     24  O   UNL A   1      31.476  22.887  27.628  1.00  0.00    -0.268 OA
ATOM     25  H   UNL A   1      28.773  22.458  26.137  1.00  0.00     0.160 HD
ATOM     26  H   UNL A   1      29.235  21.868  27.667  1.00  0.00     0.160 HD
ENDBRANCH  20  22
ENDBRANCH  13  16
ENDBRANCH  11  13
ENDBRANCH   7  11
ENDBRANCH   4   6
ENDBRANCH   3   4
ENDBRANCH   2   3
ENDBRANCH   1   2
BRANCH   1  27
ATOM     27  O   UNL A   1      34.063  33.446  30.053  1.00  0.00    -0.374 OA
BRANCH  27  28
ATOM     28  C   UNL A   1      34.148  34.639  30.833  1.00  0.00     0.202 C 
BRANCH  28  29
ATOM     29  C   UNL A   1      34.823  34.494  32.202  1.00  0.00     0.261 C 
BRANCH  29  30
ATOM     30  O   UNL A   1      36.167  33.987  32.088  1.00  0.00    -0.460 OA
BRANCH  30  31
ATOM     31  C   UNL A   1      36.383  32.806  32.717  1.00  0.00     0.338 C 
ATOM     32  O   UNL A   1      35.797  32.368  33.692  1.00  0.00    -0.246 OA
BRANCH  31  33
ATOM     33  C   UNL A   1      37.349  31.994  31.953  1.00  0.00     0.060 A 
ATOM     34  C   UNL A   1      38.317  31.286  32.678  1.00  0.00     0.016 A 
ATOM     35  C   UNL A   1      37.368  31.996  30.557  1.00  0.00     0.016 A 
ATOM     36  C   UNL A   1      39.335  30.610  32.009  1.00  0.00     0.010 A 
ATOM     37  C   UNL A   1      38.399  31.325  29.887  1.00  0.00     0.010 A 
ATOM     38  C   UNL A   1      39.403  30.656  30.610  1.00  0.00    -0.014 A 
BRANCH  38  39
ATOM     39  C   UNL A   1      40.597  30.119  29.915  1.00  0.00     0.031 A 
ATOM     40  C   UNL A   1      41.766  31.029  29.659  1.00  0.00     0.074 A 
ATOM     41  C   UNL A   1      40.649  28.832  29.531  1.00  0.00     0.049 A 
ATOM     42  N   UNL A   1      42.888  30.782  29.031  1.00  0.00    -0.248 NA
ATOM     43  C   UNL A   1      41.657  32.400  30.183  1.00  0.00     0.031 C 
ATOM     44  C   UNL A   1      39.599  27.840  29.757  1.00  0.00     0.029 A 
ATOM     45  N   UNL A   1      41.628  28.142  28.861  1.00  0.00    -0.354 N 
ATOM     46  C   UNL A   1      43.615  31.964  29.080  1.00  0.00     0.074 A 
ATOM     47  C   UNL A   1      42.800  32.935  29.778  1.00  0.00     0.031 C 
ATOM     48  C   UNL A   1      39.984  26.670  29.219  1.00  0.00     0.029 A 
ATOM     49  C   UNL A   1      41.292  26.839  28.588  1.00  0.00     0.049 A 
ATOM     50  H   UNL A   1      42.488  28.543  28.601  1.00  0.00     0.167 HD
ATOM     51  C   UNL A   1      44.853  32.216  28.594  1.00  0.00     0.037 A 
ATOM     52  C   UNL A   1      41.955  25.900  27.887  1.00  0.00     0.037 A 
ATOM     53  C   UNL A   1      45.667  31.253  27.901  1.00  0.00     0.049 A 
ATOM     54  C   UNL A   1      43.296  26.228  27.287  1.00  0.00     0.074 A 
ATOM     55  C   UNL A   1      46.946  31.407  27.395  1.00  0.00     0.029 A 
ATOM     56  N   UNL A   1      45.275  29.956  27.609  1.00  0.00    -0.354 N 
ATOM     57  N   UNL A   1      43.985  27.340  27.360  1.00  0.00    -0.248 NA
ATOM     58  C   UNL A   1      43.949  25.169  26.502  1.00  0.00     0.031 C 
ATOM     59  C   UNL A   1      47.311  30.215  26.760  1.00  0.00     0.029 A 
ATOM     60  C   UNL A   1      46.275  29.308  26.905  1.00  0.00     0.049 A 
ATOM     61  H   UNL A   1      44.413  29.554  27.865  1.00  0.00     0.167 HD
ATOM     62  C   UNL A   1      45.158  27.110  26.653  1.00  0.00     0.074 A 
ATOM     63  C   UNL A   1      45.092  25.748  26.164  1.00  0.00     0.031 C 
ATOM     64  C   UNL A   1      46.197  27.951  26.428  1.00  0.00     0.037 A 
BRANCH  51  65
ATOM     65  C   UNL A   1      45.397  33.601  28.778  1.00  0.00     0.057 A 
ATOM     66  C   UNL A   1      45.162  34.615  27.840  1.00  0.00     0.134 A 
ATOM     67  C   UNL A   1      46.134  33.931  29.921  1.00  0.00     0.134 A 
ATOM     68  F   UNL A   1      44.475  34.356  26.718  1.00  0.00    -0.206 F 
ATOM     69  C   UNL A   1      45.659  35.906  28.026  1.00  0.00     0.040 A 
ATOM     70  C   UNL A   1      46.618  35.224  30.127  1.00  0.00     0.040 A 
ATOM     71  F   UNL A   1      46.391  33.006  30.858  1.00  0.00    -0.206 F 
ATOM     72  C   UNL A   1      46.383  36.215  29.175  1.00  0.00     0.006 A 
ENDBRANCH  51  65
BRANCH  52  73
ATOM     73  C   UNL A   1      41.351  24.560  27.690  1.00  0.00     0.057 A 
ATOM     74  C   UNL A   1      41.790  23.451  28.423  1.00  0.00     0.134 A 
ATOM     75  C   UNL A   1      40.332  24.353  26.752  1.00  0.00     0.134 A 
ATOM     76  F   UNL A   1      42.780  23.583  29.317  1.00  0.00    -0.206 F 
ATOM     77  C   UNL A   1      41.247  22.181  28.221  1.00  0.00     0.040 A 
ATOM     78  C   UNL A   1      39.765  23.094  26.555  1.00  0.00     0.040 A 
ATOM     79  F   UNL A   1      39.869  25.376  26.018  1.00  0.00    -0.206 F 
ATOM     80  C   UNL A   1      40.227  22.001  27.287  1.00  0.00     0.006 A 
ENDBRANCH  52  73
BRANCH  64  81
ATOM     81  C   UNL A   1      47.356  27.420  25.640  1.00  0.00     0.057 A 
ATOM     82  C   UNL A   1      47.424  27.557  24.249  1.00  0.00     0.134 A 
ATOM     83  C   UNL A   1      48.439  26.810  26.286  1.00  0.00     0.134 A 
ATOM     84  F   UNL A   1      46.413  28.121  23.570  1.00  0.00    -0.206 F 
ATOM     85  C   UNL A   1      48.525  27.094  23.524  1.00  0.00     0.040 A 
ATOM     86  C   UNL A   1      49.554  26.362  25.576  1.00  0.00     0.040 A 
ATOM     87  F   UNL A   1      48.437  26.655  27.618  1.00  0.00    -0.206 F 
ATOM     88  C   UNL A   1      49.597  26.502  24.190  1.00  0.00     0.006 A 
ENDBRANCH  64  81
ENDBRANCH  38  39
ENDBRANCH  31  33
ENDBRANCH  30  31
ENDBRANCH  29  30
ENDBRANCH  28  29
ENDBRANCH  27  28
ENDBRANCH   1  27
TORSDOF 18
ENDMDL
MODEL 2
REMARK VINA RESULT:     -10.7      4.969      7.516
REMARK SMILES Cn1cc(S(=O)(=O)N[C@@H]2C=C[C@@H](C(=O)OCCOCCOC(=O)c3ccc(-c4c5nc(c(-c6c(F)cccc6F)c6ccc([nH]6)c(-c6c(F)cccc6F)c6nc(c(-c7c(F)cccc7F)c7ccc4[nH]7)C=C6)C=C5)cc3)C2)cc1C(N)=O
REMARK SMILES IDX 17 1 16 2 15 3 13 4 14 5 12 6 9 7 10 8 78 9 11 10 8 11 5 13
REMARK SMILES IDX 6 14 7 15 4 16 1 17 2 18 3 19 80 20 79 21 81 22 82 23 83 24
REMARK SMILES IDX 18 27 19 28 20 29 21 30 22 31 23 32 24 33 25 34 77 35 26 36
REMARK SMILES IDX 76 37 27 38 28 39 29 40 70 41 30 42 75 43 69 44 71 45 31 46
REMARK SMILES IDX 74 47 68 48 67 49 32 51 58 52 41 53 57 54 42 55 45 56 56 57
REMARK SMILES IDX 72 58 43 59 44 60 55 62 73 63 46 64 33 65 34 66 39 67 35 68
REMARK SMILES IDX 36 69 38 70 40 71 37 72 59 73 60 74 65 75 61 76 62 77 64 78
REMARK SMILES IDX 66 79 63 80 47 81 48 82 53 83 49 84 50 85 52 86 54 87 51 88
REMARK H PARENT 8 12 82 25 82 26 71 50 45 61
REMARK Flexibility Score: inf
ROOT
ATOM      1  C   UNL A   1      34.348  34.643  28.146  1.00  0.00     0.202 C 
ENDROOT
BRANCH   1   2
ATOM      2  C   UNL A   1      35.624  33.825  28.344  1.00  0.00     0.261 C 
BRANCH   2   3
ATOM      3  O   UNL A   1      35.548  32.580  27.626  1.00  0.00    -0.463 OA
BRANCH   3   4
ATOM      4  C   UNL A   1      34.674  31.666  28.117  1.00  0.00     0.312 C 
ATOM      5  O   UNL A   1      34.414  31.501  29.305  1.00  0.00    -0.252 OA
BRANCH   4   6
ATOM      6  C   UNL A   1      34.078  30.783  27.038  1.00  0.00     0.123 C 
ATOM      7  C   UNL A   1      33.373  28.563  26.340  1.00  0.00     0.093 C 
ATOM      8  C   UNL A   1      32.232  29.369  26.869  1.00  0.00    -0.011 C 
ATOM      9  C   UNL A   1      34.564  29.329  26.947  1.00  0.00     0.043 C 
ATOM     10  C   UNL A   1      32.607  30.598  27.249  1.00  0.00    -0.015 C 
BRANCH   7  11
ATOM     11  N   UNL A   1      33.484  28.642  24.874  1.00  0.00    -0.204 NA
ATOM     12  H   UNL A   1      33.059  29.525  24.593  1.00  0.00     0.142 HD
BRANCH  11  13
ATOM     13  S   UNL A   1      32.791  27.440  23.913  1.00  0.00     0.242 S 
ATOM     14  O   UNL A   1      32.507  26.296  24.749  1.00  0.00    -0.207 OA
ATOM     15  O   UNL A   1      33.606  27.350  22.723  1.00  0.00    -0.207 OA
BRANCH  13  16
ATOM     16  C   UNL A   1      31.262  27.999  23.343  1.00  0.00     0.100 A 
ATOM     17  C   UNL A   1      27.660  28.203  23.325  1.00  0.00     0.150 C 
ATOM     18  N   UNL A   1      29.084  28.381  23.126  1.00  0.00    -0.345 N 
ATOM     19  C   UNL A   1      30.017  27.590  23.758  1.00  0.00     0.107 A 
ATOM     20  C   UNL A   1      29.716  29.342  22.350  1.00  0.00     0.107 A 
ATOM     21  C   UNL A   1      31.069  29.019  22.383  1.00  0.00     0.055 A 
BRANCH  20  22
ATOM     22  C   UNL A   1      29.070  30.450  21.670  1.00  0.00     0.265 C 
ATOM     23  N   UNL A   1      29.527  31.694  22.002  1.00  0.00    -0.364 N 
ATOM     24  O   UNL A   1      28.143  30.352  20.873  1.00  0.00    -0.268 OA
ATOM     25  H   UNL A   1      30.270  31.791  22.640  1.00  0.00     0.160 HD
ATOM     26  H   UNL A   1      29.112  32.494  21.604  1.00  0.00     0.160 HD
ENDBRANCH  20  22
ENDBRANCH  13  16
ENDBRANCH  11  13
ENDBRANCH   7  11
ENDBRANCH   4   6
ENDBRANCH   3   4
ENDBRANCH   2   3
ENDBRANCH   1   2
BRANCH   1  27
ATOM     27  O   UNL A   1      34.539  36.049  28.002  1.00  0.00    -0.374 OA
BRANCH  27  28
ATOM     28  C   UNL A   1      33.652  36.912  28.715  1.00  0.00     0.202 C 
BRANCH  28  29
ATOM     29  C   UNL A   1      32.747  36.230  29.748  1.00  0.00     0.261 C 
BRANCH  29  30
ATOM     30  O   UNL A   1      33.117  36.574  31.098  1.00  0.00    -0.460 OA
BRANCH  30  31
ATOM     31  C   UNL A   1      32.695  35.697  32.042  1.00  0.00     0.338 C 
ATOM     32  O   UNL A   1      31.546  35.383  32.301  1.00  0.00    -0.246 OA
BRANCH  31  33
ATOM     33  C   UNL A   1      33.851  35.008  32.646  1.00  0.00     0.060 A 
ATOM     34  C   UNL A   1      35.108  35.611  32.512  1.00  0.00     0.016 A 
ATOM     35  C   UNL A   1      33.726  33.755  33.251  1.00  0.00     0.016 A 
ATOM     36  C   UNL A   1      36.253  34.945  32.945  1.00  0.00     0.010 A 
ATOM     37  C   UNL A   1      34.878  33.083  33.675  1.00  0.00     0.010 A 
ATOM     38  C   UNL A   1      36.148  33.660  33.496  1.00  0.00    -0.014 A 
BRANCH  38  39
ATOM     39  C   UNL A   1      37.375  32.872  33.757  1.00  0.00     0.031 A 
ATOM     40  C   UNL A   1      38.162  33.134  35.010  1.00  0.00     0.074 A 
ATOM     41  C   UNL A   1      37.777  31.920  32.896  1.00  0.00     0.049 A 
ATOM     42  N   UNL A   1      39.285  32.595  35.413  1.00  0.00    -0.248 NA
ATOM     43  C   UNL A   1      37.609  34.137  35.934  1.00  0.00     0.031 C 
ATOM     44  C   UNL A   1      37.080  31.542  31.668  1.00  0.00     0.029 A 
ATOM     45  N   UNL A   1      38.878  31.102  32.925  1.00  0.00    -0.354 N 
ATOM     46  C   UNL A   1      39.575  33.194  36.632  1.00  0.00     0.074 A 
ATOM     47  C   UNL A   1      38.523  34.154  36.893  1.00  0.00     0.031 C 
ATOM     48  C   UNL A   1      37.780  30.575  31.050  1.00  0.00     0.029 A 
ATOM     49  C   UNL A   1      38.987  30.288  31.825  1.00  0.00     0.049 A 
ATOM     50  H   UNL A   1      39.529  31.099  33.664  1.00  0.00     0.167 HD
ATOM     51  C   UNL A   1      40.617  32.960  37.463  1.00  0.00     0.037 A 
ATOM     52  C   UNL A   1      39.962  29.427  31.473  1.00  0.00     0.037 A 
ATOM     53  C   UNL A   1      41.664  32.006  37.207  1.00  0.00     0.049 A 
ATOM     54  C   UNL A   1      41.152  29.243  32.375  1.00  0.00     0.074 A 
ATOM     55  C   UNL A   1      42.748  31.680  38.003  1.00  0.00     0.029 A 
ATOM     56  N   UNL A   1      41.758  31.230  36.063  1.00  0.00    -0.354 N 
ATOM     57  N   UNL A   1      41.403  29.796  33.536  1.00  0.00    -0.248 NA
ATOM     58  C   UNL A   1      42.198  28.318  31.913  1.00  0.00     0.031 C 
ATOM     59  C   UNL A   1      43.522  30.736  37.320  1.00  0.00     0.029 A 
ATOM     60  C   UNL A   1      42.899  30.447  36.118  1.00  0.00     0.049 A 
ATOM     61  H   UNL A   1      41.111  31.235  35.321  1.00  0.00     0.167 HD
ATOM     62  C   UNL A   1      42.620  29.272  33.954  1.00  0.00     0.074 A 
ATOM     63  C   UNL A   1      43.054  28.350  32.925  1.00  0.00     0.031 C 
ATOM     64  C   UNL A   1      43.316  29.531  35.087  1.00  0.00     0.037 A 
BRANCH  51  65
ATOM     65  C   UNL A   1      40.690  33.770  38.722  1.00  0.00     0.057 A 
ATOM     66  C   UNL A   1      39.987  33.403  39.877  1.00  0.00     0.134 A 
ATOM     67  C   UNL A   1      41.499  34.911  38.790  1.00  0.00     0.134 A 
ATOM     68  F   UNL A   1      39.184  32.328  39.869  1.00  0.00    -0.206 F 
ATOM     69  C   UNL A   1      40.072  34.153  41.050  1.00  0.00     0.040 A 
ATOM     70  C   UNL A   1      41.609  35.657  39.965  1.00  0.00     0.040 A 
ATOM     71  F   UNL A   1      42.200  35.314  37.720  1.00  0.00    -0.206 F 
ATOM     72  C   UNL A   1      40.890  35.280  41.098  1.00  0.00     0.006 A 
ENDBRANCH  51  65
BRANCH  52  73
ATOM     73  C   UNL A   1      39.868  28.688  30.191  1.00  0.00     0.057 A 
ATOM     74  C   UNL A   1      40.456  29.184  29.022  1.00  0.00     0.134 A 
ATOM     75  C   UNL A   1      39.172  27.476  30.101  1.00  0.00     0.134 A 
ATOM     76  F   UNL A   1      41.114  30.352  29.041  1.00  0.00    -0.206 F 
ATOM     77  C   UNL A   1      40.345  28.508  27.806  1.00  0.00     0.040 A 
ATOM     78  C   UNL A   1      39.072  26.778  28.897  1.00  0.00     0.040 A 
ATOM     79  F   UNL A   1      38.585  26.949  31.186  1.00  0.00    -0.206 F 
ATOM     80  C   UNL A   1      39.655  27.298  27.743  1.00  0.00     0.006 A 
ENDBRANCH  52  73
BRANCH  64  81
ATOM     81  C   UNL A   1      44.605  28.793  35.289  1.00  0.00     0.057 A 
ATOM     82  C   UNL A   1      44.640  27.521  35.871  1.00  0.00     0.134 A 
ATOM     83  C   UNL A   1      45.818  29.340  34.849  1.00  0.00     0.134 A 
ATOM     84  F   UNL A   1      43.514  26.949  36.325  1.00  0.00    -0.206 F 
ATOM     85  C   UNL A   1      45.840  26.822  36.021  1.00  0.00     0.040 A 
ATOM     86  C   UNL A   1      47.020  28.642  34.974  1.00  0.00     0.040 A 
ATOM     87  F   UNL A   1      45.849  30.552  34.276  1.00  0.00    -0.206 F 
ATOM     88  C   UNL A   1      47.032  27.380  35.565  1.00  0.00     0.006 A 
ENDBRANCH  64  81
ENDBRANCH  38  39
ENDBRANCH  31  33
ENDBRANCH  30  31
ENDBRANCH  29  30
ENDBRANCH  28  29
ENDBRANCH  27  28
ENDBRANCH   1  27
TORSDOF 18
ENDMDL
MODEL 3
REMARK VINA RESULT:     -10.7      1.774      6.704
REMARK SMILES Cn1cc(S(=O)(=O)N[C@@H]2C=C[C@@H](C(=O)OCCOCCOC(=O)c3ccc(-c4c5nc(c(-c6c(F)cccc6F)c6ccc([nH]6)c(-c6c(F)cccc6F)c6nc(c(-c7c(F)cccc7F)c7ccc4[nH]7)C=C6)C=C5)cc3)C2)cc1C(N)=O
REMARK SMILES IDX 17 1 16 2 15 3 13 4 14 5 12 6 9 7 10 8 78 9 11 10 8 11 5 13
REMARK SMILES IDX 6 14 7 15 4 16 1 17 2 18 3 19 80 20 79 21 81 22 82 23 83 24
REMARK SMILES IDX 18 27 19 28 20 29 21 30 22 31 23 32 24 33 25 34 77 35 26 36
REMARK SMILES IDX 76 37 27 38 28 39 29 40 70 41 30 42 75 43 69 44 71 45 31 46
REMARK SMILES IDX 74 47 68 48 67 49 32 51 58 52 41 53 57 54 42 55 45 56 56 57
REMARK SMILES IDX 72 58 43 59 44 60 55 62 73 63 46 64 33 65 34 66 39 67 35 68
REMARK SMILES IDX 36 69 38 70 40 71 37 72 59 73 60 74 65 75 61 76 62 77 64 78
REMARK SMILES IDX 66 79 63 80 47 81 48 82 53 83 49 84 50 85 52 86 54 87 51 88
REMARK H PARENT 8 12 82 25 82 26 71 50 45 61
REMARK Flexibility Score: inf
ROOT
ATOM      1  C   UNL A   1      33.277  35.921  31.883  1.00  0.00     0.202 C 
ENDROOT
BRANCH   1   2
ATOM      2  C   UNL A   1      33.275  35.953  30.355  1.00  0.00     0.261 C 
BRANCH   2   3
ATOM      3  O   UNL A   1      32.970  34.654  29.818  1.00  0.00    -0.463 OA
BRANCH   3   4
ATOM      4  C   UNL A   1      33.824  34.188  28.872  1.00  0.00     0.312 C 
ATOM      5  O   UNL A   1      34.622  34.872  28.240  1.00  0.00    -0.252 OA
BRANCH   4   6
ATOM      6  C   UNL A   1      33.650  32.706  28.601  1.00  0.00     0.123 C 
ATOM      7  C   UNL A   1      33.652  30.886  26.988  1.00  0.00     0.093 C 
ATOM      8  C   UNL A   1      34.966  31.010  27.691  1.00  0.00    -0.011 C 
ATOM      9  C   UNL A   1      33.062  32.286  27.246  1.00  0.00     0.043 C 
ATOM     10  C   UNL A   1      34.973  32.005  28.588  1.00  0.00    -0.015 C 
BRANCH   7  11
ATOM     11  N   UNL A   1      32.767  29.897  27.626  1.00  0.00    -0.204 NA
ATOM     12  H   UNL A   1      33.021  29.867  28.613  1.00  0.00     0.142 HD
BRANCH  11  13
ATOM     13  S   UNL A   1      32.756  28.302  27.076  1.00  0.00     0.242 S 
ATOM     14  O   UNL A   1      32.108  27.481  28.072  1.00  0.00    -0.207 OA
ATOM     15  O   UNL A   1      34.090  28.030  26.591  1.00  0.00    -0.207 OA
BRANCH  13  16
ATOM     16  C   UNL A   1      31.763  28.208  25.669  1.00  0.00     0.100 A 
ATOM     17  C   UNL A   1      29.331  26.678  23.486  1.00  0.00     0.150 C 
ATOM     18  N   UNL A   1      30.259  27.557  24.167  1.00  0.00    -0.345 N 
ATOM     19  C   UNL A   1      30.962  27.159  25.283  1.00  0.00     0.107 A 
ATOM     20  C   UNL A   1      30.553  28.878  23.861  1.00  0.00     0.107 A 
ATOM     21  C   UNL A   1      31.588  29.240  24.719  1.00  0.00     0.055 A 
BRANCH  20  22
ATOM     22  C   UNL A   1      29.887  29.690  22.858  1.00  0.00     0.265 C 
ATOM     23  N   UNL A   1      30.663  30.075  21.800  1.00  0.00    -0.364 N 
ATOM     24  O   UNL A   1      28.725  30.076  22.913  1.00  0.00    -0.268 OA
ATOM     25  H   UNL A   1      31.597  29.774  21.740  1.00  0.00     0.160 HD
ATOM     26  H   UNL A   1      30.286  30.654  21.099  1.00  0.00     0.160 HD
ENDBRANCH  20  22
ENDBRANCH  13  16
ENDBRANCH  11  13
ENDBRANCH   7  11
ENDBRANCH   4   6
ENDBRANCH   3   4
ENDBRANCH   2   3
ENDBRANCH   1   2
BRANCH   1  27
ATOM     27  O   UNL A   1      32.930  34.667  32.469  1.00  0.00    -0.374 OA
BRANCH  27  28
ATOM     28  C   UNL A   1      33.962  33.945  33.140  1.00  0.00     0.202 C 
BRANCH  28  29
ATOM     29  C   UNL A   1      35.173  33.560  32.281  1.00  0.00     0.261 C 
BRANCH  29  30
ATOM     30  O   UNL A   1      35.508  32.165  32.419  1.00  0.00    -0.460 OA
BRANCH  30  31
ATOM     31  C   UNL A   1      36.663  31.923  33.087  1.00  0.00     0.338 C 
ATOM     32  O   UNL A   1      36.878  32.085  34.277  1.00  0.00    -0.246 OA
BRANCH  31  33
ATOM     33  C   UNL A   1      37.633  31.256  32.199  1.00  0.00     0.060 A 
ATOM     34  C   UNL A   1      38.735  30.629  32.796  1.00  0.00     0.016 A 
ATOM     35  C   UNL A   1      37.520  31.319  30.808  1.00  0.00     0.016 A 
ATOM     36  C   UNL A   1      39.751  30.098  32.005  1.00  0.00     0.010 A 
ATOM     37  C   UNL A   1      38.547  30.795  30.015  1.00  0.00     0.010 A 
ATOM     38  C   UNL A   1      39.680  30.211  30.609  1.00  0.00    -0.014 A 
BRANCH  38  39
ATOM     39  C   UNL A   1      40.854  29.839  29.784  1.00  0.00     0.031 A 
ATOM     40  C   UNL A   1      40.941  28.450  29.217  1.00  0.00     0.074 A 
ATOM     41  C   UNL A   1      41.825  30.733  29.527  1.00  0.00     0.049 A 
ATOM     42  N   UNL A   1      41.895  27.900  28.509  1.00  0.00    -0.248 NA
ATOM     43  C   UNL A   1      39.797  27.561  29.481  1.00  0.00     0.031 C 
ATOM     44  C   UNL A   1      41.838  32.121  29.984  1.00  0.00     0.029 A 
ATOM     45  N   UNL A   1      42.993  30.598  28.821  1.00  0.00    -0.354 N 
ATOM     46  C   UNL A   1      41.471  26.604  28.247  1.00  0.00     0.074 A 
ATOM     47  C   UNL A   1      40.186  26.440  28.890  1.00  0.00     0.031 C 
ATOM     48  C   UNL A   1      42.970  32.708  29.560  1.00  0.00     0.029 A 
ATOM     49  C   UNL A   1      43.772  31.729  28.827  1.00  0.00     0.049 A 
ATOM     50  H   UNL A   1      43.251  29.770  28.355  1.00  0.00     0.167 HD
ATOM     51  C   UNL A   1      42.093  25.640  27.529  1.00  0.00     0.037 A 
ATOM     52  C   UNL A   1      45.002  31.941  28.321  1.00  0.00     0.037 A 
ATOM     53  C   UNL A   1      43.371  25.800  26.887  1.00  0.00     0.049 A 
ATOM     54  C   UNL A   1      45.709  30.828  27.595  1.00  0.00     0.074 A 
ATOM     55  C   UNL A   1      44.070  24.888  26.114  1.00  0.00     0.029 A 
ATOM     56  N   UNL A   1      44.146  26.947  26.950  1.00  0.00    -0.354 N 
ATOM     57  N   UNL A   1      45.289  29.615  27.332  1.00  0.00    -0.248 NA
ATOM     58  C   UNL A   1      47.064  31.114  27.100  1.00  0.00     0.031 C 
ATOM     59  C   UNL A   1      45.287  25.470  25.746  1.00  0.00     0.029 A 
ATOM     60  C   UNL A   1      45.328  26.757  26.255  1.00  0.00     0.049 A 
ATOM     61  H   UNL A   1      43.892  27.775  27.419  1.00  0.00     0.167 HD
ATOM     62  C   UNL A   1      46.315  29.000  26.624  1.00  0.00     0.074 A 
ATOM     63  C   UNL A   1      47.375  29.978  26.491  1.00  0.00     0.031 C 
ATOM     64  C   UNL A   1      46.373  27.740  26.129  1.00  0.00     0.037 A 
BRANCH  51  65
ATOM     65  C   UNL A   1      41.407  24.312  27.418  1.00  0.00     0.057 A 
ATOM     66  C   UNL A   1      41.784  23.219  28.208  1.00  0.00     0.134 A 
ATOM     67  C   UNL A   1      40.334  24.136  26.535  1.00  0.00     0.134 A 
ATOM     68  F   UNL A   1      42.813  23.321  29.062  1.00  0.00    -0.206 F 
ATOM     69  C   UNL A   1      41.129  21.990  28.110  1.00  0.00     0.040 A 
ATOM     70  C   UNL A   1      39.658  22.918  26.444  1.00  0.00     0.040 A 
ATOM     71  F   UNL A   1      39.922  25.145  25.753  1.00  0.00    -0.206 F 
ATOM     72  C   UNL A   1      40.059  21.839  27.230  1.00  0.00     0.006 A 
ENDBRANCH  51  65
BRANCH  52  73
ATOM     73  C   UNL A   1      45.660  33.257  28.502  1.00  0.00     0.057 A 
ATOM     74  C   UNL A   1      46.415  33.540  29.646  1.00  0.00     0.134 A 
ATOM     75  C   UNL A   1      45.535  34.270  27.543  1.00  0.00     0.134 A 
ATOM     76  F   UNL A   1      46.550  32.618  30.610  1.00  0.00    -0.206 F 
ATOM     77  C   UNL A   1      47.012  34.788  29.837  1.00  0.00     0.040 A 
ATOM     78  C   UNL A   1      46.144  35.514  27.710  1.00  0.00     0.040 A 
ATOM     79  F   UNL A   1      44.824  34.060  26.425  1.00  0.00    -0.206 F 
ATOM     80  C   UNL A   1      46.880  35.778  28.864  1.00  0.00     0.006 A 
ENDBRANCH  52  73
BRANCH  64  81
ATOM     81  C   UNL A   1      47.611  27.351  25.378  1.00  0.00     0.057 A 
ATOM     82  C   UNL A   1      47.736  27.576  24.002  1.00  0.00     0.134 A 
ATOM     83  C   UNL A   1      48.707  26.793  26.048  1.00  0.00     0.134 A 
ATOM     84  F   UNL A   1      46.716  28.096  23.302  1.00  0.00    -0.206 F 
ATOM     85  C   UNL A   1      48.906  27.247  23.314  1.00  0.00     0.040 A 
ATOM     86  C   UNL A   1      49.889  26.480  25.375  1.00  0.00     0.040 A 
ATOM     87  F   UNL A   1      48.652  26.560  27.367  1.00  0.00    -0.206 F 
ATOM     88  C   UNL A   1      49.989  26.705  24.004  1.00  0.00     0.006 A 
ENDBRANCH  64  81
ENDBRANCH  38  39
ENDBRANCH  31  33
ENDBRANCH  30  31
ENDBRANCH  29  30
ENDBRANCH  28  29
ENDBRANCH  27  28
ENDBRANCH   1  27
TORSDOF 18
ENDMDL
