MODEL 1
REMARK VINA RESULT:     -10.9      0.000      0.000
REMARK SMILES CCc1c(Cl)ccc2c1C=C(C(=O)OCCOCCOC(=O)c1ccc(-c3c4nc(c(-c5c(F)cccc5F)c5ccc([nH]5)c(-c5c(F)cccc5F)c5nc(c(-c6c(F)cccc6F)c6ccc3[nH]6)C=C5)C=C4)cc1)[C@@H](C(F)(F)F)O2
REMARK SMILES IDX 18 1 17 2 16 3 15 4 14 5 12 6 13 7 11 8 3 9 4 10 9 11 5 12
REMARK SMILES IDX 6 13 8 14 10 15 7 16 82 17 77 18 2 19 1 20 78 21 79 22 80 23
REMARK SMILES IDX 81 24 19 25 20 26 21 27 22 28 23 29 24 30 76 31 25 32 75 33
REMARK SMILES IDX 26 34 27 35 28 36 69 37 29 38 74 39 68 40 70 41 30 42 73 43
REMARK SMILES IDX 67 44 66 45 31 47 57 48 40 49 56 50 41 51 44 52 55 53 71 54
REMARK SMILES IDX 42 55 43 56 54 58 72 59 45 60 32 61 33 62 38 63 34 64 35 65
REMARK SMILES IDX 37 66 39 67 36 68 58 69 59 70 64 71 60 72 61 73 63 74 65 75
REMARK SMILES IDX 62 76 46 77 47 78 52 79 48 80 49 81 51 82 53 83 50 84
REMARK H PARENT 70 46 44 57
REMARK Flexibility Score: inf
ROOT
ATOM      1  C   UNL A   1      31.644  31.855  26.859  1.00  0.00     0.202 C 
ENDROOT
BRANCH   1   2
ATOM      2  O   UNL A   1      32.343  30.640  27.130  1.00  0.00    -0.374 OA
BRANCH   2   3
ATOM      3  C   UNL A   1      33.764  30.641  27.058  1.00  0.00     0.202 C 
BRANCH   3   4
ATOM      4  C   UNL A   1      34.485  29.289  27.076  1.00  0.00     0.261 C 
BRANCH   4   5
ATOM      5  O   UNL A   1      33.580  28.185  26.934  1.00  0.00    -0.460 OA
BRANCH   5   6
ATOM      6  C   UNL A   1      33.618  27.588  25.719  1.00  0.00     0.338 C 
ATOM      7  O   UNL A   1      34.056  28.061  24.684  1.00  0.00    -0.246 OA
BRANCH   6   8
ATOM      8  C   UNL A   1      33.167  26.188  25.836  1.00  0.00     0.087 C 
ATOM      9  C   UNL A   1      34.704  22.825  25.423  1.00  0.00    -0.019 A 
ATOM     10  C   UNL A   1      34.231  21.499  25.329  1.00  0.00     0.045 A 
ATOM     11  C   UNL A   1      33.755  23.855  25.662  1.00  0.00     0.022 A 
ATOM     12  Cl  UNL A   1      35.274  20.158  25.001  1.00  0.00    -0.084 Cl
ATOM     13  C   UNL A   1      32.874  21.205  25.490  1.00  0.00     0.024 A 
ATOM     14  C   UNL A   1      32.404  23.537  25.872  1.00  0.00     0.128 A 
ATOM     15  C   UNL A   1      34.118  25.267  25.644  1.00  0.00     0.027 C 
ATOM     16  C   UNL A   1      31.967  22.218  25.782  1.00  0.00     0.048 A 
ATOM     17  O   UNL A   1      31.431  24.447  26.178  1.00  0.00    -0.475 OA
ATOM     18  C   UNL A   1      31.735  25.866  26.131  1.00  0.00     0.316 C 
BRANCH   9  19
ATOM     19  C   UNL A   1      36.186  23.140  25.289  1.00  0.00     0.034 C 
ATOM     20  C   UNL A   1      36.638  23.234  23.834  1.00  0.00     0.009 C 
ENDBRANCH   9  19
BRANCH  18  21
ATOM     21  C   UNL A   1      30.773  26.532  25.137  1.00  0.00     0.430 C 
ATOM     22  F   UNL A   1      29.550  25.948  25.173  1.00  0.00    -0.167 F 
ATOM     23  F   UNL A   1      30.583  27.842  25.422  1.00  0.00    -0.167 F 
ATOM     24  F   UNL A   1      31.224  26.455  23.865  1.00  0.00    -0.167 F 
ENDBRANCH  18  21
ENDBRANCH   6   8
ENDBRANCH   5   6
ENDBRANCH   4   5
ENDBRANCH   3   4
ENDBRANCH   2   3
ENDBRANCH   1   2
BRANCH   1  25
ATOM     25  C   UNL A   1      32.406  33.182  26.970  1.00  0.00     0.261 C 
BRANCH  25  26
ATOM     26  O   UNL A   1      32.155  33.876  28.204  1.00  0.00    -0.460 OA
BRANCH  26  27
ATOM     27  C   UNL A   1      33.145  34.716  28.599  1.00  0.00     0.338 C 
ATOM     28  O   UNL A   1      33.081  35.928  28.734  1.00  0.00    -0.246 OA
BRANCH  27  29
ATOM     29  C   UNL A   1      34.302  33.923  29.053  1.00  0.00     0.060 A 
ATOM     30  C   UNL A   1      35.600  34.250  28.660  1.00  0.00     0.016 A 
ATOM     31  C   UNL A   1      34.070  32.853  29.927  1.00  0.00     0.016 A 
ATOM     32  C   UNL A   1      36.673  33.507  29.160  1.00  0.00     0.010 A 
ATOM     33  C   UNL A   1      35.141  32.112  30.422  1.00  0.00     0.010 A 
ATOM     34  C   UNL A   1      36.453  32.442  30.054  1.00  0.00    -0.014 A 
BRANCH  34  35
ATOM     35  C   UNL A   1      37.601  31.733  30.674  1.00  0.00     0.031 A 
ATOM     36  C   UNL A   1      38.046  32.049  32.072  1.00  0.00     0.074 A 
ATOM     37  C   UNL A   1      38.258  30.807  29.952  1.00  0.00     0.049 A 
ATOM     38  N   UNL A   1      39.000  31.498  32.778  1.00  0.00    -0.248 NA
ATOM     39  C   UNL A   1      37.329  33.129  32.765  1.00  0.00     0.031 C 
ATOM     40  C   UNL A   1      37.941  30.435  28.571  1.00  0.00     0.029 A 
ATOM     41  N   UNL A   1      39.324  30.008  30.277  1.00  0.00    -0.354 N 
ATOM     42  C   UNL A   1      38.988  32.144  34.005  1.00  0.00     0.074 A 
ATOM     43  C   UNL A   1      37.967  33.170  33.927  1.00  0.00     0.031 C 
ATOM     44  C   UNL A   1      38.778  29.462  28.178  1.00  0.00     0.029 A 
ATOM     45  C   UNL A   1      39.708  29.165  29.262  1.00  0.00     0.049 A 
ATOM     46  H   UNL A   1      39.771  30.035  31.153  1.00  0.00     0.167 HD
ATOM     47  C   UNL A   1      39.741  31.893  35.104  1.00  0.00     0.037 A 
ATOM     48  C   UNL A   1      40.703  28.260  29.212  1.00  0.00     0.037 A 
ATOM     49  C   UNL A   1      40.780  30.893  35.168  1.00  0.00     0.049 A 
ATOM     50  C   UNL A   1      41.576  28.059  30.421  1.00  0.00     0.074 A 
ATOM     51  C   UNL A   1      41.586  30.553  36.242  1.00  0.00     0.029 A 
ATOM     52  N   UNL A   1      41.170  30.087  34.109  1.00  0.00    -0.354 N 
ATOM     53  N   UNL A   1      41.504  28.624  31.601  1.00  0.00    -0.248 NA
ATOM     54  C   UNL A   1      42.670  27.085  30.287  1.00  0.00     0.031 C 
ATOM     55  C   UNL A   1      42.499  29.582  35.815  1.00  0.00     0.029 A 
ATOM     56  C   UNL A   1      42.222  29.271  34.495  1.00  0.00     0.049 A 
ATOM     57  H   UNL A   1      40.759  30.093  33.215  1.00  0.00     0.167 HD
ATOM     58  C   UNL A   1      42.516  28.050  32.360  1.00  0.00     0.074 A 
ATOM     59  C   UNL A   1      43.176  27.080  31.511  1.00  0.00     0.031 C 
ATOM     60  C   UNL A   1      42.870  28.304  33.644  1.00  0.00     0.037 A 
BRANCH  47  61
ATOM     61  C   UNL A   1      39.472  32.720  36.329  1.00  0.00     0.057 A 
ATOM     62  C   UNL A   1      38.488  32.343  37.253  1.00  0.00     0.134 A 
ATOM     63  C   UNL A   1      40.167  33.911  36.578  1.00  0.00     0.134 A 
ATOM     64  F   UNL A   1      37.778  31.221  37.071  1.00  0.00    -0.206 F 
ATOM     65  C   UNL A   1      38.210  33.119  38.380  1.00  0.00     0.040 A 
ATOM     66  C   UNL A   1      39.917  34.680  37.716  1.00  0.00     0.040 A 
ATOM     67  F   UNL A   1      41.126  34.328  35.737  1.00  0.00    -0.206 F 
ATOM     68  C   UNL A   1      38.930  34.287  38.619  1.00  0.00     0.006 A 
ENDBRANCH  47  61
BRANCH  48  69
ATOM     69  C   UNL A   1      40.933  27.461  27.981  1.00  0.00     0.057 A 
ATOM     70  C   UNL A   1      40.294  26.234  27.776  1.00  0.00     0.134 A 
ATOM     71  C   UNL A   1      41.758  27.938  26.954  1.00  0.00     0.134 A 
ATOM     72  F   UNL A   1      39.495  25.718  28.722  1.00  0.00    -0.206 F 
ATOM     73  C   UNL A   1      40.460  25.512  26.593  1.00  0.00     0.040 A 
ATOM     74  C   UNL A   1      41.910  27.242  25.755  1.00  0.00     0.040 A 
ATOM     75  F   UNL A   1      42.385  29.117  27.085  1.00  0.00    -0.206 F 
ATOM     76  C   UNL A   1      41.259  26.023  25.572  1.00  0.00     0.006 A 
ENDBRANCH  48  69
BRANCH  60  77
ATOM     77  C   UNL A   1      43.993  27.487  34.218  1.00  0.00     0.057 A 
ATOM     78  C   UNL A   1      45.314  27.952  34.159  1.00  0.00     0.134 A 
ATOM     79  C   UNL A   1      43.777  26.241  34.821  1.00  0.00     0.134 A 
ATOM     80  F   UNL A   1      45.597  29.133  33.588  1.00  0.00    -0.206 F 
ATOM     81  C   UNL A   1      46.375  27.209  34.680  1.00  0.00     0.040 A 
ATOM     82  C   UNL A   1      44.826  25.504  35.376  1.00  0.00     0.040 A 
ATOM     83  F   UNL A   1      42.535  25.742  34.927  1.00  0.00    -0.206 F 
ATOM     84  C   UNL A   1      46.131  25.987  35.300  1.00  0.00     0.006 A 
ENDBRANCH  60  77
ENDBRANCH  34  35
ENDBRANCH  27  29
ENDBRANCH  26  27
ENDBRANCH  25  26
ENDBRANCH   1  25
TORSDOF 16
ENDMDL
MODEL 2
REMARK VINA RESULT:     -10.7      4.515      9.242
REMARK SMILES CCc1c(Cl)ccc2c1C=C(C(=O)OCCOCCOC(=O)c1ccc(-c3c4nc(c(-c5c(F)cccc5F)c5ccc([nH]5)c(-c5c(F)cccc5F)c5nc(c(-c6c(F)cccc6F)c6ccc3[nH]6)C=C5)C=C4)cc1)[C@@H](C(F)(F)F)O2
REMARK SMILES IDX 18 1 17 2 16 3 15 4 14 5 12 6 13 7 11 8 3 9 4 10 9 11 5 12
REMARK SMILES IDX 6 13 8 14 10 15 7 16 82 17 77 18 2 19 1 20 78 21 79 22 80 23
REMARK SMILES IDX 81 24 19 25 20 26 21 27 22 28 23 29 24 30 76 31 25 32 75 33
REMARK SMILES IDX 26 34 27 35 28 36 69 37 29 38 74 39 68 40 70 41 30 42 73 43
REMARK SMILES IDX 67 44 66 45 31 47 57 48 40 49 56 50 41 51 44 52 55 53 71 54
REMARK SMILES IDX 42 55 43 56 54 58 72 59 45 60 32 61 33 62 38 63 34 64 35 65
REMARK SMILES IDX 37 66 39 67 36 68 58 69 59 70 64 71 60 72 61 73 63 74 65 75
REMARK SMILES IDX 62 76 46 77 47 78 52 79 48 80 49 81 51 82 53 83 50 84
REMARK H PARENT 70 46 44 57
REMARK Flexibility Score: inf
ROOT
ATOM      1  C   UNL A   1      38.703  21.222  25.637  1.00  0.00     0.202 C 
ENDROOT
BRANCH   1   2
ATOM      2  O   UNL A   1      37.678  21.619  24.728  1.00  0.00    -0.374 OA
BRANCH   2   3
ATOM      3  C   UNL A   1      36.383  21.045  24.867  1.00  0.00     0.202 C 
BRANCH   3   4
ATOM      4  C   UNL A   1      35.544  21.451  26.084  1.00  0.00     0.261 C 
BRANCH   4   5
ATOM      5  O   UNL A   1      35.327  22.868  26.151  1.00  0.00    -0.460 OA
BRANCH   5   6
ATOM      6  C   UNL A   1      34.026  23.235  26.059  1.00  0.00     0.338 C 
ATOM      7  O   UNL A   1      33.081  22.736  26.647  1.00  0.00    -0.246 OA
BRANCH   6   8
ATOM      8  C   UNL A   1      33.907  24.448  25.229  1.00  0.00     0.087 C 
ATOM      9  C   UNL A   1      32.942  27.999  25.780  1.00  0.00    -0.019 A 
ATOM     10  C   UNL A   1      32.627  29.103  24.959  1.00  0.00     0.045 A 
ATOM     11  C   UNL A   1      33.348  26.793  25.147  1.00  0.00     0.022 A 
ATOM     12  Cl  UNL A   1      32.082  30.615  25.599  1.00  0.00    -0.084 Cl
ATOM     13  C   UNL A   1      32.734  29.020  23.567  1.00  0.00     0.024 A 
ATOM     14  C   UNL A   1      33.499  26.742  23.752  1.00  0.00     0.128 A 
ATOM     15  C   UNL A   1      33.566  25.559  25.891  1.00  0.00     0.027 C 
ATOM     16  C   UNL A   1      33.190  27.851  22.967  1.00  0.00     0.048 A 
ATOM     17  O   UNL A   1      33.951  25.654  23.060  1.00  0.00    -0.475 OA
ATOM     18  C   UNL A   1      34.142  24.392  23.751  1.00  0.00     0.316 C 
BRANCH   9  19
ATOM     19  C   UNL A   1      32.865  28.101  27.294  1.00  0.00     0.034 C 
ATOM     20  C   UNL A   1      31.429  28.097  27.812  1.00  0.00     0.009 C 
ENDBRANCH   9  19
BRANCH  18  21
ATOM     21  C   UNL A   1      33.271  23.330  23.064  1.00  0.00     0.430 C 
ATOM     22  F   UNL A   1      33.258  23.502  21.720  1.00  0.00    -0.167 F 
ATOM     23  F   UNL A   1      33.735  22.078  23.289  1.00  0.00    -0.167 F 
ATOM     24  F   UNL A   1      31.990  23.371  23.493  1.00  0.00    -0.167 F 
ENDBRANCH  18  21
ENDBRANCH   6   8
ENDBRANCH   5   6
ENDBRANCH   4   5
ENDBRANCH   3   4
ENDBRANCH   2   3
ENDBRANCH   1   2
BRANCH   1  25
ATOM     25  C   UNL A   1      39.410  19.879  25.407  1.00  0.00     0.261 C 
BRANCH  25  26
ATOM     26  O   UNL A   1      40.408  19.588  26.401  1.00  0.00    -0.460 OA
BRANCH  26  27
ATOM     27  C   UNL A   1      41.686  19.833  26.016  1.00  0.00     0.338 C 
ATOM     28  O   UNL A   1      42.361  19.186  25.231  1.00  0.00    -0.246 OA
BRANCH  27  29
ATOM     29  C   UNL A   1      42.108  21.144  26.539  1.00  0.00     0.060 A 
ATOM     30  C   UNL A   1      42.509  22.169  25.681  1.00  0.00     0.016 A 
ATOM     31  C   UNL A   1      42.059  21.353  27.924  1.00  0.00     0.016 A 
ATOM     32  C   UNL A   1      42.846  23.415  26.217  1.00  0.00     0.010 A 
ATOM     33  C   UNL A   1      42.398  22.596  28.456  1.00  0.00     0.010 A 
ATOM     34  C   UNL A   1      42.781  23.642  27.605  1.00  0.00    -0.014 A 
BRANCH  34  35
ATOM     35  C   UNL A   1      43.025  24.998  28.156  1.00  0.00     0.031 A 
ATOM     36  C   UNL A   1      44.401  25.436  28.562  1.00  0.00     0.074 A 
ATOM     37  C   UNL A   1      41.980  25.834  28.308  1.00  0.00     0.049 A 
ATOM     38  N   UNL A   1      44.795  26.597  29.021  1.00  0.00    -0.248 NA
ATOM     39  C   UNL A   1      45.474  24.439  28.440  1.00  0.00     0.031 C 
ATOM     40  C   UNL A   1      40.590  25.512  27.981  1.00  0.00     0.029 A 
ATOM     41  N   UNL A   1      41.925  27.123  28.771  1.00  0.00    -0.354 N 
ATOM     42  C   UNL A   1      46.163  26.482  29.224  1.00  0.00     0.074 A 
ATOM     43  C   UNL A   1      46.521  25.117  28.892  1.00  0.00     0.031 C 
ATOM     44  C   UNL A   1      39.822  26.585  28.229  1.00  0.00     0.029 A 
ATOM     45  C   UNL A   1      40.658  27.656  28.763  1.00  0.00     0.049 A 
ATOM     46  H   UNL A   1      42.717  27.620  29.081  1.00  0.00     0.167 HD
ATOM     47  C   UNL A   1      47.044  27.430  29.628  1.00  0.00     0.037 A 
ATOM     48  C   UNL A   1      40.222  28.869  29.147  1.00  0.00     0.037 A 
ATOM     49  C   UNL A   1      46.679  28.778  29.990  1.00  0.00     0.049 A 
ATOM     50  C   UNL A   1      41.211  29.876  29.668  1.00  0.00     0.074 A 
ATOM     51  C   UNL A   1      47.502  29.816  30.396  1.00  0.00     0.029 A 
ATOM     52  N   UNL A   1      45.382  29.270  30.009  1.00  0.00    -0.354 N 
ATOM     53  N   UNL A   1      42.513  29.779  29.783  1.00  0.00    -0.248 NA
ATOM     54  C   UNL A   1      40.664  31.167  30.110  1.00  0.00     0.031 C 
ATOM     55  C   UNL A   1      46.698  30.916  30.714  1.00  0.00     0.029 A 
ATOM     56  C   UNL A   1      45.379  30.586  30.447  1.00  0.00     0.049 A 
ATOM     57  H   UNL A   1      44.582  28.760  29.749  1.00  0.00     0.167 HD
ATOM     58  C   UNL A   1      42.944  31.004  30.275  1.00  0.00     0.074 A 
ATOM     59  C   UNL A   1      41.766  31.834  30.419  1.00  0.00     0.031 C 
ATOM     60  C   UNL A   1      44.203  31.407  30.582  1.00  0.00     0.037 A 
BRANCH  47  61
ATOM     61  C   UNL A   1      48.492  27.038  29.706  1.00  0.00     0.057 A 
ATOM     62  C   UNL A   1      49.034  26.508  30.885  1.00  0.00     0.134 A 
ATOM     63  C   UNL A   1      49.361  27.218  28.621  1.00  0.00     0.134 A 
ATOM     64  F   UNL A   1      48.263  26.321  31.965  1.00  0.00    -0.206 F 
ATOM     65  C   UNL A   1      50.385  26.168  30.978  1.00  0.00     0.040 A 
ATOM     66  C   UNL A   1      50.706  26.854  28.693  1.00  0.00     0.040 A 
ATOM     67  F   UNL A   1      48.906  27.715  27.460  1.00  0.00    -0.206 F 
ATOM     68  C   UNL A   1      51.224  26.332  29.878  1.00  0.00     0.006 A 
ENDBRANCH  47  61
BRANCH  48  69
ATOM     69  C   UNL A   1      38.781  29.217  29.051  1.00  0.00     0.057 A 
ATOM     70  C   UNL A   1      38.200  29.597  27.836  1.00  0.00     0.134 A 
ATOM     71  C   UNL A   1      37.939  29.122  30.166  1.00  0.00     0.134 A 
ATOM     72  F   UNL A   1      38.952  29.714  26.732  1.00  0.00    -0.206 F 
ATOM     73  C   UNL A   1      36.834  29.863  27.731  1.00  0.00     0.040 A 
ATOM     74  C   UNL A   1      36.567  29.355  30.069  1.00  0.00     0.040 A 
ATOM     75  F   UNL A   1      38.434  28.745  31.355  1.00  0.00    -0.206 F 
ATOM     76  C   UNL A   1      36.010  29.728  28.847  1.00  0.00     0.006 A 
ENDBRANCH  48  69
BRANCH  60  77
ATOM     77  C   UNL A   1      44.370  32.822  31.061  1.00  0.00     0.057 A 
ATOM     78  C   UNL A   1      44.517  33.871  30.143  1.00  0.00     0.134 A 
ATOM     79  C   UNL A   1      44.394  33.151  32.423  1.00  0.00     0.134 A 
ATOM     80  F   UNL A   1      44.513  33.628  28.823  1.00  0.00    -0.206 F 
ATOM     81  C   UNL A   1      44.680  35.192  30.562  1.00  0.00     0.040 A 
ATOM     82  C   UNL A   1      44.521  34.474  32.853  1.00  0.00     0.040 A 
ATOM     83  F   UNL A   1      44.241  32.198  33.356  1.00  0.00    -0.206 F 
ATOM     84  C   UNL A   1      44.671  35.498  31.920  1.00  0.00     0.006 A 
ENDBRANCH  60  77
ENDBRANCH  34  35
ENDBRANCH  27  29
ENDBRANCH  26  27
ENDBRANCH  25  26
ENDBRANCH   1  25
TORSDOF 16
ENDMDL
MODEL 3
REMARK VINA RESULT:     -10.7      5.214      9.953
REMARK SMILES CCc1c(Cl)ccc2c1C=C(C(=O)OCCOCCOC(=O)c1ccc(-c3c4nc(c(-c5c(F)cccc5F)c5ccc([nH]5)c(-c5c(F)cccc5F)c5nc(c(-c6c(F)cccc6F)c6ccc3[nH]6)C=C5)C=C4)cc1)[C@@H](C(F)(F)F)O2
REMARK SMILES IDX 18 1 17 2 16 3 15 4 14 5 12 6 13 7 11 8 3 9 4 10 9 11 5 12
REMARK SMILES IDX 6 13 8 14 10 15 7 16 82 17 77 18 2 19 1 20 78 21 79 22 80 23
REMARK SMILES IDX 81 24 19 25 20 26 21 27 22 28 23 29 24 30 76 31 25 32 75 33
REMARK SMILES IDX 26 34 27 35 28 36 69 37 29 38 74 39 68 40 70 41 30 42 73 43
REMARK SMILES IDX 67 44 66 45 31 47 57 48 40 49 56 50 41 51 44 52 55 53 71 54
REMARK SMILES IDX 42 55 43 56 54 58 72 59 45 60 32 61 33 62 38 63 34 64 35 65
REMARK SMILES IDX 37 66 39 67 36 68 58 69 59 70 64 71 60 72 61 73 63 74 65 75
REMARK SMILES IDX 62 76 46 77 47 78 52 79 48 80 49 81 51 82 53 83 50 84
REMARK H PARENT 70 46 44 57
REMARK Flexibility Score: inf
ROOT
ATOM      1  C   UNL A   1      38.379  19.555  25.086  1.00  0.00     0.202 C 
ENDROOT
BRANCH   1   2
ATOM      2  O   UNL A   1      37.594  20.744  25.009  1.00  0.00    -0.374 OA
BRANCH   2   3
ATOM      3  C   UNL A   1      38.029  21.895  25.725  1.00  0.00     0.202 C 
BRANCH   3   4
ATOM      4  C   UNL A   1      37.456  23.256  25.313  1.00  0.00     0.261 C 
BRANCH   4   5
ATOM      5  O   UNL A   1      36.050  23.195  25.034  1.00  0.00    -0.460 OA
BRANCH   5   6
ATOM      6  C   UNL A   1      35.740  23.288  23.718  1.00  0.00     0.338 C 
ATOM      7  O   UNL A   1      36.439  22.953  22.776  1.00  0.00    -0.246 OA
BRANCH   6   8
ATOM      8  C   UNL A   1      34.344  23.737  23.564  1.00  0.00     0.087 C 
ATOM      9  C   UNL A   1      32.502  26.953  23.897  1.00  0.00    -0.019 A 
ATOM     10  C   UNL A   1      31.147  27.343  23.955  1.00  0.00     0.045 A 
ATOM     11  C   UNL A   1      32.789  25.578  23.681  1.00  0.00     0.022 A 
ATOM     12  Cl  UNL A   1      30.660  28.977  24.252  1.00  0.00    -0.084 Cl
ATOM     13  C   UNL A   1      30.120  26.411  23.784  1.00  0.00     0.024 A 
ATOM     14  C   UNL A   1      31.748  24.664  23.459  1.00  0.00     0.128 A 
ATOM     15  C   UNL A   1      34.146  25.049  23.736  1.00  0.00     0.027 C 
ATOM     16  C   UNL A   1      30.419  25.079  23.514  1.00  0.00     0.048 A 
ATOM     17  O   UNL A   1      31.926  23.339  23.173  1.00  0.00    -0.475 OA
ATOM     18  C   UNL A   1      33.253  22.759  23.257  1.00  0.00     0.316 C 
BRANCH   9  19
ATOM     19  C   UNL A   1      33.619  27.973  24.042  1.00  0.00     0.034 C 
ATOM     20  C   UNL A   1      33.884  28.743  22.750  1.00  0.00     0.009 C 
ENDBRANCH   9  19
BRANCH  18  21
ATOM     21  C   UNL A   1      33.210  21.601  24.265  1.00  0.00     0.430 C 
ATOM     22  F   UNL A   1      33.221  22.060  25.540  1.00  0.00    -0.167 F 
ATOM     23  F   UNL A   1      32.086  20.860  24.131  1.00  0.00    -0.167 F 
ATOM     24  F   UNL A   1      34.265  20.767  24.124  1.00  0.00    -0.167 F 
ENDBRANCH  18  21
ENDBRANCH   6   8
ENDBRANCH   5   6
ENDBRANCH   4   5
ENDBRANCH   3   4
ENDBRANCH   2   3
ENDBRANCH   1   2
BRANCH   1  25
ATOM     25  C   UNL A   1      39.642  19.562  25.958  1.00  0.00     0.261 C 
BRANCH  25  26
ATOM     26  O   UNL A   1      40.733  18.827  25.378  1.00  0.00    -0.460 OA
BRANCH  26  27
ATOM     27  C   UNL A   1      41.911  18.931  26.045  1.00  0.00     0.338 C 
ATOM     28  O   UNL A   1      42.764  18.069  26.182  1.00  0.00    -0.246 OA
BRANCH  27  29
ATOM     29  C   UNL A   1      42.126  20.336  26.434  1.00  0.00     0.060 A 
ATOM     30  C   UNL A   1      42.081  20.730  27.771  1.00  0.00     0.016 A 
ATOM     31  C   UNL A   1      42.421  21.264  25.428  1.00  0.00     0.016 A 
ATOM     32  C   UNL A   1      42.349  22.062  28.101  1.00  0.00     0.010 A 
ATOM     33  C   UNL A   1      42.685  22.593  25.758  1.00  0.00     0.010 A 
ATOM     34  C   UNL A   1      42.665  22.999  27.099  1.00  0.00    -0.014 A 
BRANCH  34  35
ATOM     35  C   UNL A   1      43.064  24.381  27.464  1.00  0.00     0.031 A 
ATOM     36  C   UNL A   1      44.503  24.807  27.439  1.00  0.00     0.074 A 
ATOM     37  C   UNL A   1      42.111  25.254  27.840  1.00  0.00     0.049 A 
ATOM     38  N   UNL A   1      45.019  25.983  27.688  1.00  0.00    -0.248 NA
ATOM     39  C   UNL A   1      45.491  23.775  27.095  1.00  0.00     0.031 C 
ATOM     40  C   UNL A   1      40.682  24.950  27.936  1.00  0.00     0.029 A 
ATOM     41  N   UNL A   1      42.198  26.572  28.209  1.00  0.00    -0.354 N 
ATOM     42  C   UNL A   1      46.388  25.844  27.511  1.00  0.00     0.074 A 
ATOM     43  C   UNL A   1      46.628  24.451  27.189  1.00  0.00     0.031 C 
ATOM     44  C   UNL A   1      40.023  26.058  28.312  1.00  0.00     0.029 A 
ATOM     45  C   UNL A   1      40.983  27.138  28.515  1.00  0.00     0.049 A 
ATOM     46  H   UNL A   1      43.048  27.066  28.251  1.00  0.00     0.167 HD
ATOM     47  C   UNL A   1      47.355  26.792  27.587  1.00  0.00     0.037 A 
ATOM     48  C   UNL A   1      40.682  28.385  28.919  1.00  0.00     0.037 A 
ATOM     49  C   UNL A   1      47.117  28.170  27.941  1.00  0.00     0.049 A 
ATOM     50  C   UNL A   1      41.786  29.396  29.073  1.00  0.00     0.074 A 
ATOM     51  C   UNL A   1      48.029  29.209  28.028  1.00  0.00     0.029 A 
ATOM     52  N   UNL A   1      45.881  28.699  28.284  1.00  0.00    -0.354 N 
ATOM     53  N   UNL A   1      43.067  29.270  28.829  1.00  0.00    -0.248 NA
ATOM     54  C   UNL A   1      41.394  30.728  29.558  1.00  0.00     0.031 C 
ATOM     55  C   UNL A   1      47.354  30.350  28.478  1.00  0.00     0.029 A 
ATOM     56  C   UNL A   1      46.011  30.040  28.612  1.00  0.00     0.049 A 
ATOM     57  H   UNL A   1      45.035  28.195  28.294  1.00  0.00     0.167 HD
ATOM     58  C   UNL A   1      43.628  30.513  29.094  1.00  0.00     0.074 A 
ATOM     59  C   UNL A   1      42.544  31.383  29.500  1.00  0.00     0.031 C 
ATOM     60  C   UNL A   1      44.926  30.900  29.010  1.00  0.00     0.037 A 
BRANCH  47  61
ATOM     61  C   UNL A   1      48.763  26.366  27.288  1.00  0.00     0.057 A 
ATOM     62  C   UNL A   1      49.624  25.947  28.311  1.00  0.00     0.134 A 
ATOM     63  C   UNL A   1      49.281  26.403  25.985  1.00  0.00     0.134 A 
ATOM     64  F   UNL A   1      49.200  25.898  29.581  1.00  0.00    -0.206 F 
ATOM     65  C   UNL A   1      50.945  25.577  28.047  1.00  0.00     0.040 A 
ATOM     66  C   UNL A   1      50.590  26.008  25.706  1.00  0.00     0.040 A 
ATOM     67  F   UNL A   1      48.509  26.790  24.957  1.00  0.00    -0.206 F 
ATOM     68  C   UNL A   1      51.429  25.598  26.741  1.00  0.00     0.006 A 
ENDBRANCH  47  61
BRANCH  48  69
ATOM     69  C   UNL A   1      39.274  28.765  29.203  1.00  0.00     0.057 A 
ATOM     70  C   UNL A   1      38.703  28.564  30.464  1.00  0.00     0.134 A 
ATOM     71  C   UNL A   1      38.485  29.391  28.230  1.00  0.00     0.134 A 
ATOM     72  F   UNL A   1      39.403  27.964  31.438  1.00  0.00    -0.206 F 
ATOM     73  C   UNL A   1      37.401  28.977  30.751  1.00  0.00     0.040 A 
ATOM     74  C   UNL A   1      37.193  29.837  28.512  1.00  0.00     0.040 A 
ATOM     75  F   UNL A   1      38.983  29.628  27.007  1.00  0.00    -0.206 F 
ATOM     76  C   UNL A   1      36.647  29.629  29.777  1.00  0.00     0.006 A 
ENDBRANCH  48  69
BRANCH  60  77
ATOM     77  C   UNL A   1      45.232  32.338  29.323  1.00  0.00     0.057 A 
ATOM     78  C   UNL A   1      45.581  32.725  30.624  1.00  0.00     0.134 A 
ATOM     79  C   UNL A   1      45.174  33.342  28.347  1.00  0.00     0.134 A 
ATOM     80  F   UNL A   1      45.647  31.818  31.611  1.00  0.00    -0.206 F 
ATOM     81  C   UNL A   1      45.864  34.054  30.940  1.00  0.00     0.040 A 
ATOM     82  C   UNL A   1      45.489  34.670  28.644  1.00  0.00     0.040 A 
ATOM     83  F   UNL A   1      44.862  33.039  27.077  1.00  0.00    -0.206 F 
ATOM     84  C   UNL A   1      45.829  35.030  29.947  1.00  0.00     0.006 A 
ENDBRANCH  60  77
ENDBRANCH  34  35
ENDBRANCH  27  29
ENDBRANCH  26  27
ENDBRANCH  25  26
ENDBRANCH   1  25
TORSDOF 16
ENDMDL
