MODEL 1
REMARK VINA RESULT:      -8.1      0.000      0.000
REMARK SMILES CCOCCS(=O)(=O)NCC(=O)OCCOCCOC(=O)c1ccc(-c2c3nc(c(-c4c(F)cccc4F)c4ccc([nH]4)c(-c4c(F)cccc4F)c4nc(c(-c5c(F)cccc5F)c5ccc2[nH]5)C=C4)C=C3)cc1
REMARK SMILES IDX 14 1 13 2 11 3 12 4 10 5 9 6 6 8 7 9 8 10 5 11 4 12 3 13
REMARK SMILES IDX 2 14 1 15 15 16 16 17 17 18 18 19 19 20 20 21 21 22 22 23
REMARK SMILES IDX 23 24 75 25 24 26 74 27 25 28 26 29 27 30 68 31 28 32 73 33
REMARK SMILES IDX 67 34 69 35 29 36 72 37 66 38 65 39 30 41 56 42 39 43 55 44
REMARK SMILES IDX 40 45 43 46 54 47 70 48 41 49 42 50 53 52 71 53 44 54 31 55
REMARK SMILES IDX 32 56 37 57 33 58 34 59 36 60 38 61 35 62 57 63 58 64 63 65
REMARK SMILES IDX 59 66 60 67 62 68 64 69 61 70 45 71 46 72 51 73 47 74 48 75
REMARK SMILES IDX 50 76 52 77 49 78
REMARK H PARENT 9 7 69 40 43 51
REMARK Flexibility Score: inf
ROOT
ATOM      1  C   UNL A   1      46.424  23.075  24.225  1.00  0.00     0.261 C 
ENDROOT
BRANCH   1   2
ATOM      2  O   UNL A   1      46.194  24.419  24.679  1.00  0.00    -0.462 OA
BRANCH   2   3
ATOM      3  C   UNL A   1      46.712  24.775  25.871  1.00  0.00     0.321 C 
ATOM      4  O   UNL A   1      47.596  24.160  26.458  1.00  0.00    -0.251 OA
BRANCH   3   5
ATOM      5  C   UNL A   1      46.205  26.109  26.353  1.00  0.00     0.221 C 
BRANCH   5   6
ATOM      6  N   UNL A   1      46.122  27.342  25.574  1.00  0.00    -0.204 NA
ATOM      7  H   UNL A   1      46.665  27.145  24.734  1.00  0.00     0.141 HD
BRANCH   6   8
ATOM      8  S   UNL A   1      46.556  28.886  25.985  1.00  0.00     0.214 S 
ATOM      9  O   UNL A   1      46.382  29.778  24.866  1.00  0.00    -0.212 OA
ATOM     10  O   UNL A   1      47.869  28.705  26.572  1.00  0.00    -0.212 OA
BRANCH   8  11
ATOM     11  C   UNL A   1      45.465  29.359  27.330  1.00  0.00     0.182 C 
BRANCH  11  12
ATOM     12  C   UNL A   1      44.042  28.835  27.206  1.00  0.00     0.177 C 
BRANCH  12  13
ATOM     13  O   UNL A   1      43.542  28.823  25.867  1.00  0.00    -0.381 OA
BRANCH  13  14
ATOM     14  C   UNL A   1      42.351  28.081  25.643  1.00  0.00     0.156 C 
ATOM     15  C   UNL A   1      42.587  26.690  25.084  1.00  0.00     0.035 C 
ENDBRANCH  13  14
ENDBRANCH  12  13
ENDBRANCH  11  12
ENDBRANCH   8  11
ENDBRANCH   6   8
ENDBRANCH   5   6
ENDBRANCH   3   5
ENDBRANCH   2   3
ENDBRANCH   1   2
BRANCH   1  16
ATOM     16  C   UNL A   1      45.615  22.118  25.096  1.00  0.00     0.202 C 
BRANCH  16  17
ATOM     17  O   UNL A   1      46.130  20.792  25.244  1.00  0.00    -0.374 OA
BRANCH  17  18
ATOM     18  C   UNL A   1      45.684  19.785  24.341  1.00  0.00     0.202 C 
BRANCH  18  19
ATOM     19  C   UNL A   1      44.378  19.037  24.656  1.00  0.00     0.261 C 
BRANCH  19  20
ATOM     20  O   UNL A   1      43.814  19.302  25.947  1.00  0.00    -0.460 OA
BRANCH  20  21
ATOM     21  C   UNL A   1      42.483  19.561  25.917  1.00  0.00     0.338 C 
ATOM     22  O   UNL A   1      41.596  18.815  25.533  1.00  0.00    -0.246 OA
BRANCH  21  23
ATOM     23  C   UNL A   1      42.175  20.866  26.527  1.00  0.00     0.060 A 
ATOM     24  C   UNL A   1      42.382  22.010  25.746  1.00  0.00     0.016 A 
ATOM     25  C   UNL A   1      41.877  20.976  27.886  1.00  0.00     0.016 A 
ATOM     26  C   UNL A   1      42.360  23.270  26.337  1.00  0.00     0.010 A 
ATOM     27  C   UNL A   1      41.861  22.244  28.479  1.00  0.00     0.010 A 
ATOM     28  C   UNL A   1      42.149  23.391  27.717  1.00  0.00    -0.014 A 
BRANCH  28  29
ATOM     29  C   UNL A   1      42.377  24.703  28.374  1.00  0.00     0.031 A 
ATOM     30  C   UNL A   1      43.721  24.999  28.983  1.00  0.00     0.074 A 
ATOM     31  C   UNL A   1      41.412  25.638  28.388  1.00  0.00     0.049 A 
ATOM     32  N   UNL A   1      44.124  26.062  29.631  1.00  0.00    -0.248 NA
ATOM     33  C   UNL A   1      44.750  23.956  28.842  1.00  0.00     0.031 C 
ATOM     34  C   UNL A   1      40.085  25.489  27.791  1.00  0.00     0.029 A 
ATOM     35  N   UNL A   1      41.400  26.898  28.929  1.00  0.00    -0.354 N 
ATOM     36  C   UNL A   1      45.446  25.814  29.982  1.00  0.00     0.074 A 
ATOM     37  C   UNL A   1      45.767  24.486  29.505  1.00  0.00     0.031 C 
ATOM     38  C   UNL A   1      39.382  26.614  28.009  1.00  0.00     0.029 A 
ATOM     39  C   UNL A   1      40.195  27.542  28.791  1.00  0.00     0.049 A 
ATOM     40  H   UNL A   1      42.181  27.303  29.373  1.00  0.00     0.167 HD
ATOM     41  C   UNL A   1      46.315  26.623  30.633  1.00  0.00     0.037 A 
ATOM     42  C   UNL A   1      39.786  28.734  29.268  1.00  0.00     0.037 A 
ATOM     43  C   UNL A   1      45.992  27.944  31.108  1.00  0.00     0.049 A 
ATOM     44  C   UNL A   1      40.746  29.583  30.059  1.00  0.00     0.074 A 
ATOM     45  C   UNL A   1      46.808  28.848  31.768  1.00  0.00     0.029 A 
ATOM     46  N   UNL A   1      44.749  28.548  30.981  1.00  0.00    -0.354 N 
ATOM     47  N   UNL A   1      41.998  29.348  30.370  1.00  0.00    -0.248 NA
ATOM     48  C   UNL A   1      40.235  30.867  30.561  1.00  0.00     0.031 C 
ATOM     49  C   UNL A   1      46.042  29.973  32.092  1.00  0.00     0.029 A 
ATOM     50  C   UNL A   1      44.769  29.798  31.576  1.00  0.00     0.049 A 
ATOM     51  H   UNL A   1      43.970  28.146  30.535  1.00  0.00     0.167 HD
ATOM     52  C   UNL A   1      42.432  30.463  31.077  1.00  0.00     0.074 A 
ATOM     53  C   UNL A   1      41.314  31.381  31.135  1.00  0.00     0.031 C 
ATOM     54  C   UNL A   1      43.649  30.707  31.625  1.00  0.00     0.037 A 
BRANCH  41  55
ATOM     55  C   UNL A   1      47.696  26.091  30.896  1.00  0.00     0.057 A 
ATOM     56  C   UNL A   1      48.697  26.099  29.916  1.00  0.00     0.134 A 
ATOM     57  C   UNL A   1      48.039  25.592  32.160  1.00  0.00     0.134 A 
ATOM     58  F   UNL A   1      48.434  26.553  28.680  1.00  0.00    -0.206 F 
ATOM     59  C   UNL A   1      49.978  25.607  30.174  1.00  0.00     0.040 A 
ATOM     60  C   UNL A   1      49.325  25.125  32.440  1.00  0.00     0.040 A 
ATOM     61  F   UNL A   1      47.133  25.561  33.150  1.00  0.00    -0.206 F 
ATOM     62  C   UNL A   1      50.296  25.124  31.441  1.00  0.00     0.006 A 
ENDBRANCH  41  55
BRANCH  42  63
ATOM     63  C   UNL A   1      38.393  29.187  29.029  1.00  0.00     0.057 A 
ATOM     64  C   UNL A   1      37.989  29.678  27.782  1.00  0.00     0.134 A 
ATOM     65  C   UNL A   1      37.433  29.155  30.050  1.00  0.00     0.134 A 
ATOM     66  F   UNL A   1      38.867  29.755  26.771  1.00  0.00    -0.206 F 
ATOM     67  C   UNL A   1      36.689  30.137  27.563  1.00  0.00     0.040 A 
ATOM     68  C   UNL A   1      36.122  29.582  29.835  1.00  0.00     0.040 A 
ATOM     69  F   UNL A   1      37.754  28.695  31.267  1.00  0.00    -0.206 F 
ATOM     70  C   UNL A   1      35.749  30.083  28.591  1.00  0.00     0.006 A 
ENDBRANCH  42  63
BRANCH  54  71
ATOM     71  C   UNL A   1      43.850  32.034  32.301  1.00  0.00     0.057 A 
ATOM     72  C   UNL A   1      44.286  33.166  31.603  1.00  0.00     0.134 A 
ATOM     73  C   UNL A   1      43.566  32.188  33.665  1.00  0.00     0.134 A 
ATOM     74  F   UNL A   1      44.587  33.087  30.297  1.00  0.00    -0.206 F 
ATOM     75  C   UNL A   1      44.458  34.396  32.241  1.00  0.00     0.040 A 
ATOM     76  C   UNL A   1      43.703  33.419  34.306  1.00  0.00     0.040 A 
ATOM     77  F   UNL A   1      43.133  31.147  34.393  1.00  0.00    -0.206 F 
ATOM     78  C   UNL A   1      44.159  34.527  33.596  1.00  0.00     0.006 A 
ENDBRANCH  54  71
ENDBRANCH  28  29
ENDBRANCH  21  23
ENDBRANCH  20  21
ENDBRANCH  19  20
ENDBRANCH  18  19
ENDBRANCH  17  18
ENDBRANCH  16  17
ENDBRANCH   1  16
TORSDOF 20
ENDMDL
MODEL 2
REMARK VINA RESULT:      -7.9      5.104     10.619
REMARK SMILES CCOCCS(=O)(=O)NCC(=O)OCCOCCOC(=O)c1ccc(-c2c3nc(c(-c4c(F)cccc4F)c4ccc([nH]4)c(-c4c(F)cccc4F)c4nc(c(-c5c(F)cccc5F)c5ccc2[nH]5)C=C4)C=C3)cc1
REMARK SMILES IDX 14 1 13 2 11 3 12 4 10 5 9 6 6 8 7 9 8 10 5 11 4 12 3 13
REMARK SMILES IDX 2 14 1 15 15 16 16 17 17 18 18 19 19 20 20 21 21 22 22 23
REMARK SMILES IDX 23 24 75 25 24 26 74 27 25 28 26 29 27 30 68 31 28 32 73 33
REMARK SMILES IDX 67 34 69 35 29 36 72 37 66 38 65 39 30 41 56 42 39 43 55 44
REMARK SMILES IDX 40 45 43 46 54 47 70 48 41 49 42 50 53 52 71 53 44 54 31 55
REMARK SMILES IDX 32 56 37 57 33 58 34 59 36 60 38 61 35 62 57 63 58 64 63 65
REMARK SMILES IDX 59 66 60 67 62 68 64 69 61 70 45 71 46 72 51 73 47 74 48 75
REMARK SMILES IDX 50 76 52 77 49 78
REMARK H PARENT 9 7 69 40 43 51
REMARK Flexibility Score: inf
ROOT
ATOM      1  C   UNL A   1      32.527  36.042  30.216  1.00  0.00     0.261 C 
ENDROOT
BRANCH   1   2
ATOM      2  O   UNL A   1      32.937  37.124  31.067  1.00  0.00    -0.462 OA
BRANCH   2   3
ATOM      3  C   UNL A   1      32.756  36.980  32.395  1.00  0.00     0.321 C 
ATOM      4  O   UNL A   1      31.662  36.905  32.945  1.00  0.00    -0.251 OA
BRANCH   3   5
ATOM      5  C   UNL A   1      34.046  36.758  33.140  1.00  0.00     0.221 C 
BRANCH   5   6
ATOM      6  N   UNL A   1      35.101  35.810  32.792  1.00  0.00    -0.204 NA
ATOM      7  H   UNL A   1      35.210  35.915  31.784  1.00  0.00     0.141 HD
BRANCH   6   8
ATOM      8  S   UNL A   1      35.178  34.174  33.040  1.00  0.00     0.214 S 
ATOM      9  O   UNL A   1      34.130  33.500  32.313  1.00  0.00    -0.212 OA
ATOM     10  O   UNL A   1      35.241  34.071  34.484  1.00  0.00    -0.212 OA
BRANCH   8  11
ATOM     11  C   UNL A   1      36.785  33.662  32.427  1.00  0.00     0.182 C 
BRANCH  11  12
ATOM     12  C   UNL A   1      37.598  32.824  33.403  1.00  0.00     0.177 C 
BRANCH  12  13
ATOM     13  O   UNL A   1      38.270  31.717  32.798  1.00  0.00    -0.381 OA
BRANCH  13  14
ATOM     14  C   UNL A   1      38.196  30.478  33.489  1.00  0.00     0.156 C 
ATOM     15  C   UNL A   1      39.440  29.620  33.351  1.00  0.00     0.035 C 
ENDBRANCH  13  14
ENDBRANCH  12  13
ENDBRANCH  11  12
ENDBRANCH   8  11
ENDBRANCH   6   8
ENDBRANCH   5   6
ENDBRANCH   3   5
ENDBRANCH   2   3
ENDBRANCH   1   2
BRANCH   1  16
ATOM     16  C   UNL A   1      33.541  35.897  29.084  1.00  0.00     0.202 C 
BRANCH  16  17
ATOM     17  O   UNL A   1      33.603  34.623  28.437  1.00  0.00    -0.374 OA
BRANCH  17  18
ATOM     18  C   UNL A   1      34.872  34.139  28.009  1.00  0.00     0.202 C 
BRANCH  18  19
ATOM     19  C   UNL A   1      35.654  33.197  28.939  1.00  0.00     0.261 C 
BRANCH  19  20
ATOM     20  O   UNL A   1      34.913  32.080  29.448  1.00  0.00    -0.460 OA
BRANCH  20  21
ATOM     21  C   UNL A   1      34.810  31.051  28.571  1.00  0.00     0.338 C 
ATOM     22  O   UNL A   1      33.900  30.843  27.783  1.00  0.00    -0.246 OA
BRANCH  21  23
ATOM     23  C   UNL A   1      36.021  30.212  28.579  1.00  0.00     0.060 A 
ATOM     24  C   UNL A   1      36.436  29.691  29.811  1.00  0.00     0.016 A 
ATOM     25  C   UNL A   1      36.832  30.101  27.450  1.00  0.00     0.016 A 
ATOM     26  C   UNL A   1      37.698  29.114  29.933  1.00  0.00     0.010 A 
ATOM     27  C   UNL A   1      38.101  29.527  27.576  1.00  0.00     0.010 A 
ATOM     28  C   UNL A   1      38.558  29.074  28.828  1.00  0.00    -0.014 A 
BRANCH  28  29
ATOM     29  C   UNL A   1      39.979  28.693  29.027  1.00  0.00     0.031 A 
ATOM     30  C   UNL A   1      40.921  29.673  29.673  1.00  0.00     0.074 A 
ATOM     31  C   UNL A   1      40.415  27.470  28.679  1.00  0.00     0.049 A 
ATOM     32  N   UNL A   1      42.203  29.559  29.912  1.00  0.00    -0.248 NA
ATOM     33  C   UNL A   1      40.340  30.953  30.108  1.00  0.00     0.031 C 
ATOM     34  C   UNL A   1      39.589  26.418  28.090  1.00  0.00     0.029 A 
ATOM     35  N   UNL A   1      41.664  26.911  28.768  1.00  0.00    -0.354 N 
ATOM     36  C   UNL A   1      42.584  30.752  30.516  1.00  0.00     0.074 A 
ATOM     37  C   UNL A   1      41.404  31.589  30.575  1.00  0.00     0.031 C 
ATOM     38  C   UNL A   1      40.359  25.340  27.859  1.00  0.00     0.029 A 
ATOM     39  C   UNL A   1      41.734  25.642  28.249  1.00  0.00     0.049 A 
ATOM     40  H   UNL A   1      42.436  27.375  29.167  1.00  0.00     0.167 HD
ATOM     41  C   UNL A   1      43.801  31.112  30.986  1.00  0.00     0.037 A 
ATOM     42  C   UNL A   1      42.794  24.828  28.081  1.00  0.00     0.037 A 
ATOM     43  C   UNL A   1      44.974  30.277  30.923  1.00  0.00     0.049 A 
ATOM     44  C   UNL A   1      44.155  25.282  28.539  1.00  0.00     0.074 A 
ATOM     45  C   UNL A   1      46.251  30.547  31.384  1.00  0.00     0.029 A 
ATOM     46  N   UNL A   1      45.012  29.012  30.356  1.00  0.00    -0.354 N 
ATOM     47  N   UNL A   1      44.502  26.404  29.124  1.00  0.00    -0.248 NA
ATOM     48  C   UNL A   1      45.272  24.353  28.316  1.00  0.00     0.031 C 
ATOM     49  C   UNL A   1      47.076  29.469  31.043  1.00  0.00     0.029 A 
ATOM     50  C   UNL A   1      46.298  28.501  30.430  1.00  0.00     0.049 A 
ATOM     51  H   UNL A   1      44.241  28.546  29.961  1.00  0.00     0.167 HD
ATOM     52  C   UNL A   1      45.866  26.303  29.366  1.00  0.00     0.074 A 
ATOM     53  C   UNL A   1      46.281  25.005  28.878  1.00  0.00     0.031 C 
ATOM     54  C   UNL A   1      46.700  27.203  29.943  1.00  0.00     0.037 A 
BRANCH  41  55
ATOM     55  C   UNL A   1      43.937  32.484  31.586  1.00  0.00     0.057 A 
ATOM     56  C   UNL A   1      44.225  33.613  30.808  1.00  0.00     0.134 A 
ATOM     57  C   UNL A   1      43.742  32.683  32.960  1.00  0.00     0.134 A 
ATOM     58  F   UNL A   1      44.432  33.492  29.487  1.00  0.00    -0.206 F 
ATOM     59  C   UNL A   1      44.342  34.883  31.376  1.00  0.00     0.040 A 
ATOM     60  C   UNL A   1      43.828  33.953  33.535  1.00  0.00     0.040 A 
ATOM     61  F   UNL A   1      43.456  31.649  33.765  1.00  0.00    -0.206 F 
ATOM     62  C   UNL A   1      44.137  35.055  32.743  1.00  0.00     0.006 A 
ENDBRANCH  41  55
BRANCH  42  63
ATOM     63  C   UNL A   1      42.615  23.507  27.429  1.00  0.00     0.057 A 
ATOM     64  C   UNL A   1      42.314  22.360  28.173  1.00  0.00     0.134 A 
ATOM     65  C   UNL A   1      42.758  23.355  26.043  1.00  0.00     0.134 A 
ATOM     66  F   UNL A   1      42.187  22.436  29.506  1.00  0.00    -0.206 F 
ATOM     67  C   UNL A   1      42.179  21.110  27.568  1.00  0.00     0.040 A 
ATOM     68  C   UNL A   1      42.596  22.116  25.421  1.00  0.00     0.040 A 
ATOM     69  F   UNL A   1      43.045  24.413  25.271  1.00  0.00    -0.206 F 
ATOM     70  C   UNL A   1      42.314  20.987  26.186  1.00  0.00     0.006 A 
ENDBRANCH  42  63
BRANCH  54  71
ATOM     71  C   UNL A   1      48.137  26.802  30.117  1.00  0.00     0.057 A 
ATOM     72  C   UNL A   1      49.127  27.157  29.192  1.00  0.00     0.134 A 
ATOM     73  C   UNL A   1      48.543  26.081  31.249  1.00  0.00     0.134 A 
ATOM     74  F   UNL A   1      48.807  27.838  28.081  1.00  0.00    -0.206 F 
ATOM     75  C   UNL A   1      50.461  26.788  29.372  1.00  0.00     0.040 A 
ATOM     76  C   UNL A   1      49.878  25.734  31.456  1.00  0.00     0.040 A 
ATOM     77  F   UNL A   1      47.650  25.717  32.182  1.00  0.00    -0.206 F 
ATOM     78  C   UNL A   1      50.842  26.080  30.511  1.00  0.00     0.006 A 
ENDBRANCH  54  71
ENDBRANCH  28  29
ENDBRANCH  21  23
ENDBRANCH  20  21
ENDBRANCH  19  20
ENDBRANCH  18  19
ENDBRANCH  17  18
ENDBRANCH  16  17
ENDBRANCH   1  16
TORSDOF 20
ENDMDL
MODEL 3
REMARK VINA RESULT:      -7.7      1.195      2.107
REMARK SMILES CCOCCS(=O)(=O)NCC(=O)OCCOCCOC(=O)c1ccc(-c2c3nc(c(-c4c(F)cccc4F)c4ccc([nH]4)c(-c4c(F)cccc4F)c4nc(c(-c5c(F)cccc5F)c5ccc2[nH]5)C=C4)C=C3)cc1
REMARK SMILES IDX 14 1 13 2 11 3 12 4 10 5 9 6 6 8 7 9 8 10 5 11 4 12 3 13
REMARK SMILES IDX 2 14 1 15 15 16 16 17 17 18 18 19 19 20 20 21 21 22 22 23
REMARK SMILES IDX 23 24 75 25 24 26 74 27 25 28 26 29 27 30 68 31 28 32 73 33
REMARK SMILES IDX 67 34 69 35 29 36 72 37 66 38 65 39 30 41 56 42 39 43 55 44
REMARK SMILES IDX 40 45 43 46 54 47 70 48 41 49 42 50 53 52 71 53 44 54 31 55
REMARK SMILES IDX 32 56 37 57 33 58 34 59 36 60 38 61 35 62 57 63 58 64 63 65
REMARK SMILES IDX 59 66 60 67 62 68 64 69 61 70 45 71 46 72 51 73 47 74 48 75
REMARK SMILES IDX 50 76 52 77 49 78
REMARK H PARENT 9 7 69 40 43 51
REMARK Flexibility Score: inf
ROOT
ATOM      1  C   UNL A   1      46.031  23.735  25.290  1.00  0.00     0.261 C 
ENDROOT
BRANCH   1   2
ATOM      2  O   UNL A   1      45.464  24.860  24.600  1.00  0.00    -0.462 OA
BRANCH   2   3
ATOM      3  C   UNL A   1      45.312  26.008  25.291  1.00  0.00     0.321 C 
ATOM      4  O   UNL A   1      44.241  26.582  25.458  1.00  0.00    -0.251 OA
BRANCH   3   5
ATOM      5  C   UNL A   1      46.576  26.445  25.984  1.00  0.00     0.221 C 
BRANCH   5   6
ATOM      6  N   UNL A   1      47.171  27.778  25.950  1.00  0.00    -0.204 NA
ATOM      7  H   UNL A   1      48.022  27.686  26.503  1.00  0.00     0.141 HD
BRANCH   6   8
ATOM      8  S   UNL A   1      46.536  29.233  26.420  1.00  0.00     0.214 S 
ATOM      9  O   UNL A   1      45.518  29.044  27.423  1.00  0.00    -0.212 OA
ATOM     10  O   UNL A   1      46.202  29.861  25.157  1.00  0.00    -0.212 OA
BRANCH   8  11
ATOM     11  C   UNL A   1      47.909  30.169  27.099  1.00  0.00     0.182 C 
BRANCH  11  12
ATOM     12  C   UNL A   1      49.237  29.426  27.114  1.00  0.00     0.177 C 
BRANCH  12  13
ATOM     13  O   UNL A   1      49.732  29.096  25.815  1.00  0.00    -0.381 OA
BRANCH  13  14
ATOM     14  C   UNL A   1      50.606  27.978  25.736  1.00  0.00     0.156 C 
ATOM     15  C   UNL A   1      50.748  27.405  24.337  1.00  0.00     0.035 C 
ENDBRANCH  13  14
ENDBRANCH  12  13
ENDBRANCH  11  12
ENDBRANCH   8  11
ENDBRANCH   6   8
ENDBRANCH   5   6
ENDBRANCH   3   5
ENDBRANCH   2   3
ENDBRANCH   1   2
BRANCH   1  16
ATOM     16  C   UNL A   1      46.393  22.662  24.266  1.00  0.00     0.202 C 
BRANCH  16  17
ATOM     17  O   UNL A   1      45.484  21.567  24.136  1.00  0.00    -0.374 OA
BRANCH  17  18
ATOM     18  C   UNL A   1      45.836  20.317  24.722  1.00  0.00     0.202 C 
BRANCH  18  19
ATOM     19  C   UNL A   1      44.773  19.208  24.791  1.00  0.00     0.261 C 
BRANCH  19  20
ATOM     20  O   UNL A   1      43.416  19.649  24.655  1.00  0.00    -0.460 OA
BRANCH  20  21
ATOM     21  C   UNL A   1      42.686  19.523  25.791  1.00  0.00     0.338 C 
ATOM     22  O   UNL A   1      42.366  18.485  26.349  1.00  0.00    -0.246 OA
BRANCH  21  23
ATOM     23  C   UNL A   1      42.385  20.836  26.386  1.00  0.00     0.060 A 
ATOM     24  C   UNL A   1      42.596  21.970  25.591  1.00  0.00     0.016 A 
ATOM     25  C   UNL A   1      42.090  20.965  27.744  1.00  0.00     0.016 A 
ATOM     26  C   UNL A   1      42.580  23.237  26.167  1.00  0.00     0.010 A 
ATOM     27  C   UNL A   1      42.082  22.239  28.321  1.00  0.00     0.010 A 
ATOM     28  C   UNL A   1      42.373  23.376  27.545  1.00  0.00    -0.014 A 
BRANCH  28  29
ATOM     29  C   UNL A   1      42.608  24.694  28.186  1.00  0.00     0.031 A 
ATOM     30  C   UNL A   1      43.970  25.011  28.743  1.00  0.00     0.074 A 
ATOM     31  C   UNL A   1      41.632  25.617  28.231  1.00  0.00     0.049 A 
ATOM     32  N   UNL A   1      44.383  26.083  29.369  1.00  0.00    -0.248 NA
ATOM     33  C   UNL A   1      45.006  23.980  28.568  1.00  0.00     0.031 C 
ATOM     34  C   UNL A   1      40.287  25.448  27.684  1.00  0.00     0.029 A 
ATOM     35  N   UNL A   1      41.625  26.880  28.765  1.00  0.00    -0.354 N 
ATOM     36  C   UNL A   1      45.721  25.854  29.672  1.00  0.00     0.074 A 
ATOM     37  C   UNL A   1      46.040  24.527  29.190  1.00  0.00     0.031 C 
ATOM     38  C   UNL A   1      39.578  26.565  27.923  1.00  0.00     0.029 A 
ATOM     39  C   UNL A   1      40.407  27.508  28.669  1.00  0.00     0.049 A 
ATOM     40  H   UNL A   1      42.416  27.298  29.177  1.00  0.00     0.167 HD
ATOM     41  C   UNL A   1      46.603  26.678  30.285  1.00  0.00     0.037 A 
ATOM     42  C   UNL A   1      40.001  28.697  29.154  1.00  0.00     0.037 A 
ATOM     43  C   UNL A   1      46.281  27.998  30.765  1.00  0.00     0.049 A 
ATOM     44  C   UNL A   1      40.979  29.563  29.904  1.00  0.00     0.074 A 
ATOM     45  C   UNL A   1      47.109  28.915  31.388  1.00  0.00     0.029 A 
ATOM     46  N   UNL A   1      45.026  28.585  30.681  1.00  0.00    -0.354 N 
ATOM     47  N   UNL A   1      42.245  29.347  30.169  1.00  0.00    -0.248 NA
ATOM     48  C   UNL A   1      40.470  30.843  30.417  1.00  0.00     0.031 C 
ATOM     49  C   UNL A   1      46.341  30.033  31.735  1.00  0.00     0.029 A 
ATOM     50  C   UNL A   1      45.052  29.839  31.268  1.00  0.00     0.049 A 
ATOM     51  H   UNL A   1      44.236  28.170  30.266  1.00  0.00     0.167 HD
ATOM     52  C   UNL A   1      42.690  30.471  30.852  1.00  0.00     0.074 A 
ATOM     53  C   UNL A   1      41.563  31.375  30.947  1.00  0.00     0.031 C 
ATOM     54  C   UNL A   1      43.923  30.734  31.353  1.00  0.00     0.037 A 
BRANCH  41  55
ATOM     55  C   UNL A   1      48.000  26.165  30.499  1.00  0.00     0.057 A 
ATOM     56  C   UNL A   1      48.980  26.234  29.501  1.00  0.00     0.134 A 
ATOM     57  C   UNL A   1      48.378  25.624  31.735  1.00  0.00     0.134 A 
ATOM     58  F   UNL A   1      48.683  26.731  28.290  1.00  0.00    -0.206 F 
ATOM     59  C   UNL A   1      50.276  25.758  29.714  1.00  0.00     0.040 A 
ATOM     60  C   UNL A   1      49.679  25.172  31.970  1.00  0.00     0.040 A 
ATOM     61  F   UNL A   1      47.494  25.534  32.740  1.00  0.00    -0.206 F 
ATOM     62  C   UNL A   1      50.629  25.232  30.954  1.00  0.00     0.006 A 
ENDBRANCH  41  55
BRANCH  42  63
ATOM     63  C   UNL A   1      38.594  29.131  28.964  1.00  0.00     0.057 A 
ATOM     64  C   UNL A   1      38.141  29.624  27.735  1.00  0.00     0.134 A 
ATOM     65  C   UNL A   1      37.669  29.079  30.017  1.00  0.00     0.134 A 
ATOM     66  F   UNL A   1      38.984  29.721  26.696  1.00  0.00    -0.206 F 
ATOM     67  C   UNL A   1      36.828  30.065  27.563  1.00  0.00     0.040 A 
ATOM     68  C   UNL A   1      36.346  29.488  29.849  1.00  0.00     0.040 A 
ATOM     69  F   UNL A   1      38.038  28.616  31.220  1.00  0.00    -0.206 F 
ATOM     70  C   UNL A   1      35.924  29.991  28.621  1.00  0.00     0.006 A 
ENDBRANCH  42  63
BRANCH  54  71
ATOM     71  C   UNL A   1      44.132  32.067  32.014  1.00  0.00     0.057 A 
ATOM     72  C   UNL A   1      43.893  32.267  33.378  1.00  0.00     0.134 A 
ATOM     73  C   UNL A   1      44.616  33.158  31.277  1.00  0.00     0.134 A 
ATOM     74  F   UNL A   1      43.418  31.270  34.140  1.00  0.00    -0.206 F 
ATOM     75  C   UNL A   1      44.102  33.509  33.982  1.00  0.00     0.040 A 
ATOM     76  C   UNL A   1      44.859  34.394  31.876  1.00  0.00     0.040 A 
ATOM     77  F   UNL A   1      44.877  33.034  29.967  1.00  0.00    -0.206 F 
ATOM     78  C   UNL A   1      44.594  34.576  33.231  1.00  0.00     0.006 A 
ENDBRANCH  54  71
ENDBRANCH  28  29
ENDBRANCH  21  23
ENDBRANCH  20  21
ENDBRANCH  19  20
ENDBRANCH  18  19
ENDBRANCH  17  18
ENDBRANCH  16  17
ENDBRANCH   1  16
TORSDOF 20
ENDMDL
