MODEL 1
REMARK VINA RESULT:     -11.3      0.000      0.000
REMARK SMILES Cc1ccccc1NC(=O)CSc1nc(C(=O)OCCOCCOC(=O)c2ccc(-c3c4nc(c(-c5c(F)cccc5F)c5ccc([nH]5)c(-c5c(F)cccc5F)c5nc(c(-c6c(F)cccc6F)c6ccc3[nH]6)C=C5)C=C4)cc2)c2ccccc2n1
REMARK SMILES IDX 20 1 19 2 18 3 16 4 17 5 15 6 13 7 14 8 87 9 86 10 81 11
REMARK SMILES IDX 85 12 82 13 84 14 83 15 12 16 11 17 9 18 8 19 10 21 7 22
REMARK SMILES IDX 1 23 2 24 3 25 4 26 6 27 5 28 21 29 22 30 23 31 24 32 25 33
REMARK SMILES IDX 26 34 27 35 28 36 80 37 29 38 79 39 30 40 31 41 32 42 73 43
REMARK SMILES IDX 33 44 78 45 72 46 74 47 34 48 77 49 71 50 70 51 35 53 61 54
REMARK SMILES IDX 44 55 60 56 45 57 48 58 59 59 75 60 46 61 47 62 58 64 76 65
REMARK SMILES IDX 49 66 36 67 37 68 42 69 38 70 39 71 41 72 43 73 40 74 62 75
REMARK SMILES IDX 63 76 68 77 64 78 65 79 67 80 69 81 66 82 50 83 51 84 56 85
REMARK SMILES IDX 52 86 53 87 55 88 57 89 54 90
REMARK H PARENT 8 20 74 52 48 63
REMARK Flexibility Score: inf
ROOT
ATOM      1  C   UNL A   1      34.983  29.819  27.511  1.00  0.00     0.202 C 
ENDROOT
BRANCH   1   2
ATOM      2  C   UNL A   1      33.901  29.338  26.594  1.00  0.00     0.261 C 
BRANCH   2   3
ATOM      3  O   UNL A   1      33.489  28.005  26.931  1.00  0.00    -0.458 OA
BRANCH   3   4
ATOM      4  C   UNL A   1      32.227  27.684  27.304  1.00  0.00     0.357 C 
ATOM      5  O   UNL A   1      31.605  28.105  28.251  1.00  0.00    -0.244 OA
BRANCH   4   6
ATOM      6  C   UNL A   1      31.655  26.815  26.235  1.00  0.00     0.160 A 
ATOM      7  C   UNL A   1      30.950  24.691  25.897  1.00  0.00     0.189 A 
ATOM      8  N   UNL A   1      31.659  25.527  26.627  1.00  0.00    -0.215 NA
ATOM      9  N   UNL A   1      30.277  25.024  24.790  1.00  0.00    -0.222 NA
ATOM     10  C   UNL A   1      30.311  26.304  24.392  1.00  0.00     0.076 A 
ATOM     11  C   UNL A   1      30.993  27.302  25.086  1.00  0.00     0.034 A 
ATOM     12  C   UNL A   1      29.584  26.664  23.260  1.00  0.00     0.029 A 
ATOM     13  C   UNL A   1      30.905  28.649  24.595  1.00  0.00     0.013 A 
ATOM     14  C   UNL A   1      29.471  27.989  22.821  1.00  0.00     0.002 A 
ATOM     15  C   UNL A   1      30.125  28.994  23.504  1.00  0.00     0.001 A 
BRANCH   7  16
ATOM     16  S   UNL A   1      30.642  23.121  26.630  1.00  0.00    -0.076 SA
BRANCH  16  17
ATOM     17  C   UNL A   1      31.107  22.036  25.239  1.00  0.00     0.178 C 
BRANCH  17  18
ATOM     18  C   UNL A   1      32.572  21.640  25.236  1.00  0.00     0.234 C 
ATOM     19  N   UNL A   1      33.553  22.309  24.562  1.00  0.00    -0.325 N 
ATOM     20  H   UNL A   1      34.439  21.888  24.653  1.00  0.00     0.169 HD
ATOM     21  O   UNL A   1      32.935  20.638  25.868  1.00  0.00    -0.274 OA
BRANCH  19  22
ATOM     22  C   UNL A   1      33.571  23.470  23.764  1.00  0.00     0.044 A 
ATOM     23  C   UNL A   1      34.979  24.732  25.531  1.00  0.00     0.046 C 
ATOM     24  C   UNL A   1      34.156  24.649  24.271  1.00  0.00    -0.027 A 
ATOM     25  C   UNL A   1      33.975  25.859  23.570  1.00  0.00     0.005 A 
ATOM     26  C   UNL A   1      33.263  25.904  22.376  1.00  0.00     0.000 A 
ATOM     27  C   UNL A   1      32.990  23.518  22.492  1.00  0.00     0.026 A 
ATOM     28  C   UNL A   1      32.796  24.725  21.821  1.00  0.00     0.002 A 
ENDBRANCH  19  22
ENDBRANCH  17  18
ENDBRANCH  16  17
ENDBRANCH   7  16
ENDBRANCH   4   6
ENDBRANCH   3   4
ENDBRANCH   2   3
ENDBRANCH   1   2
BRANCH   1  29
ATOM     29  O   UNL A   1      34.890  31.227  27.508  1.00  0.00    -0.374 OA
BRANCH  29  30
ATOM     30  C   UNL A   1      33.909  31.796  28.346  1.00  0.00     0.202 C 
BRANCH  30  31
ATOM     31  C   UNL A   1      33.263  33.018  27.687  1.00  0.00     0.261 C 
BRANCH  31  32
ATOM     32  O   UNL A   1      33.860  34.234  28.201  1.00  0.00    -0.460 OA
BRANCH  32  33
ATOM     33  C   UNL A   1      33.947  34.351  29.560  1.00  0.00     0.338 C 
ATOM     34  O   UNL A   1      33.032  34.683  30.296  1.00  0.00    -0.246 OA
BRANCH  33  35
ATOM     35  C   UNL A   1      35.378  34.298  29.996  1.00  0.00     0.060 A 
ATOM     36  C   UNL A   1      36.420  34.316  29.043  1.00  0.00     0.016 A 
ATOM     37  C   UNL A   1      35.635  33.851  31.284  1.00  0.00     0.016 A 
ATOM     38  C   UNL A   1      37.657  33.706  29.327  1.00  0.00     0.010 A 
ATOM     39  C   UNL A   1      36.783  33.124  31.498  1.00  0.00     0.010 A 
ATOM     40  C   UNL A   1      37.794  33.011  30.524  1.00  0.00    -0.014 A 
BRANCH  40  41
ATOM     41  C   UNL A   1      38.875  32.094  30.915  1.00  0.00     0.031 A 
ATOM     42  C   UNL A   1      38.733  30.687  30.474  1.00  0.00     0.074 A 
ATOM     43  C   UNL A   1      40.102  32.548  31.281  1.00  0.00     0.049 A 
ATOM     44  N   UNL A   1      39.625  29.783  30.647  1.00  0.00    -0.248 NA
ATOM     45  C   UNL A   1      37.535  30.160  29.817  1.00  0.00     0.031 C 
ATOM     46  C   UNL A   1      41.410  31.947  30.979  1.00  0.00     0.029 A 
ATOM     47  N   UNL A   1      40.458  33.702  31.981  1.00  0.00    -0.354 N 
ATOM     48  C   UNL A   1      39.316  28.722  29.833  1.00  0.00     0.074 A 
ATOM     49  C   UNL A   1      37.946  28.941  29.455  1.00  0.00     0.031 C 
ATOM     50  C   UNL A   1      42.377  32.566  31.678  1.00  0.00     0.029 A 
ATOM     51  C   UNL A   1      41.720  33.499  32.569  1.00  0.00     0.049 A 
ATOM     52  H   UNL A   1      39.918  34.522  32.051  1.00  0.00     0.167 HD
ATOM     53  C   UNL A   1      40.324  27.867  29.508  1.00  0.00     0.037 A 
ATOM     54  C   UNL A   1      41.866  33.589  33.917  1.00  0.00     0.037 A 
ATOM     55  C   UNL A   1      41.519  28.175  30.317  1.00  0.00     0.049 A 
ATOM     56  C   UNL A   1      42.206  32.224  34.444  1.00  0.00     0.074 A 
ATOM     57  C   UNL A   1      42.752  28.745  30.048  1.00  0.00     0.029 A 
ATOM     58  N   UNL A   1      41.387  28.187  31.707  1.00  0.00    -0.354 N 
ATOM     59  N   UNL A   1      41.913  31.128  33.793  1.00  0.00    -0.248 NA
ATOM     60  C   UNL A   1      43.021  31.970  35.625  1.00  0.00     0.031 C 
ATOM     61  C   UNL A   1      43.333  29.136  31.295  1.00  0.00     0.029 A 
ATOM     62  C   UNL A   1      42.469  28.782  32.323  1.00  0.00     0.049 A 
ATOM     63  H   UNL A   1      40.614  27.814  32.190  1.00  0.00     0.167 HD
ATOM     64  C   UNL A   1      42.566  30.073  34.352  1.00  0.00     0.074 A 
ATOM     65  C   UNL A   1      43.211  30.642  35.523  1.00  0.00     0.031 C 
ATOM     66  C   UNL A   1      42.561  28.829  33.785  1.00  0.00     0.037 A 
BRANCH  53  67
ATOM     67  C   UNL A   1      40.310  26.843  28.386  1.00  0.00     0.057 A 
ATOM     68  C   UNL A   1      39.511  25.686  28.496  1.00  0.00     0.134 A 
ATOM     69  C   UNL A   1      41.085  26.881  27.207  1.00  0.00     0.134 A 
ATOM     70  F   UNL A   1      38.719  25.479  29.558  1.00  0.00    -0.206 F 
ATOM     71  C   UNL A   1      39.486  24.671  27.526  1.00  0.00     0.040 A 
ATOM     72  C   UNL A   1      41.042  25.891  26.213  1.00  0.00     0.040 A 
ATOM     73  F   UNL A   1      41.962  27.851  26.947  1.00  0.00    -0.206 F 
ATOM     74  C   UNL A   1      40.244  24.774  26.372  1.00  0.00     0.006 A 
ENDBRANCH  53  67
BRANCH  54  75
ATOM     75  C   UNL A   1      40.994  34.674  34.469  1.00  0.00     0.057 A 
ATOM     76  C   UNL A   1      39.881  34.243  35.225  1.00  0.00     0.134 A 
ATOM     77  C   UNL A   1      41.535  35.921  34.813  1.00  0.00     0.134 A 
ATOM     78  F   UNL A   1      39.311  33.054  34.968  1.00  0.00    -0.206 F 
ATOM     79  C   UNL A   1      39.446  34.925  36.370  1.00  0.00     0.040 A 
ATOM     80  C   UNL A   1      41.114  36.602  35.969  1.00  0.00     0.040 A 
ATOM     81  F   UNL A   1      42.606  36.399  34.164  1.00  0.00    -0.206 F 
ATOM     82  C   UNL A   1      40.102  36.081  36.775  1.00  0.00     0.006 A 
ENDBRANCH  54  75
BRANCH  66  83
ATOM     83  C   UNL A   1      42.688  27.538  34.563  1.00  0.00     0.057 A 
ATOM     84  C   UNL A   1      41.951  27.233  35.719  1.00  0.00     0.134 A 
ATOM     85  C   UNL A   1      43.441  26.454  34.050  1.00  0.00     0.134 A 
ATOM     86  F   UNL A   1      41.086  28.096  36.266  1.00  0.00    -0.206 F 
ATOM     87  C   UNL A   1      42.010  25.985  36.348  1.00  0.00     0.040 A 
ATOM     88  C   UNL A   1      43.444  25.182  34.625  1.00  0.00     0.040 A 
ATOM     89  F   UNL A   1      44.183  26.554  32.939  1.00  0.00    -0.206 F 
ATOM     90  C   UNL A   1      42.744  24.948  35.793  1.00  0.00     0.006 A 
ENDBRANCH  66  83
ENDBRANCH  40  41
ENDBRANCH  33  35
ENDBRANCH  32  33
ENDBRANCH  31  32
ENDBRANCH  30  31
ENDBRANCH  29  30
ENDBRANCH   1  29
TORSDOF 18
ENDMDL
MODEL 2
REMARK VINA RESULT:     -11.2      1.958      2.736
REMARK SMILES Cc1ccccc1NC(=O)CSc1nc(C(=O)OCCOCCOC(=O)c2ccc(-c3c4nc(c(-c5c(F)cccc5F)c5ccc([nH]5)c(-c5c(F)cccc5F)c5nc(c(-c6c(F)cccc6F)c6ccc3[nH]6)C=C5)C=C4)cc2)c2ccccc2n1
REMARK SMILES IDX 20 1 19 2 18 3 16 4 17 5 15 6 13 7 14 8 87 9 86 10 81 11
REMARK SMILES IDX 85 12 82 13 84 14 83 15 12 16 11 17 9 18 8 19 10 21 7 22
REMARK SMILES IDX 1 23 2 24 3 25 4 26 6 27 5 28 21 29 22 30 23 31 24 32 25 33
REMARK SMILES IDX 26 34 27 35 28 36 80 37 29 38 79 39 30 40 31 41 32 42 73 43
REMARK SMILES IDX 33 44 78 45 72 46 74 47 34 48 77 49 71 50 70 51 35 53 61 54
REMARK SMILES IDX 44 55 60 56 45 57 48 58 59 59 75 60 46 61 47 62 58 64 76 65
REMARK SMILES IDX 49 66 36 67 37 68 42 69 38 70 39 71 41 72 43 73 40 74 62 75
REMARK SMILES IDX 63 76 68 77 64 78 65 79 67 80 69 81 66 82 50 83 51 84 56 85
REMARK SMILES IDX 52 86 53 87 55 88 57 89 54 90
REMARK H PARENT 8 20 74 52 48 63
REMARK Flexibility Score: inf
ROOT
ATOM      1  C   UNL A   1      33.537  31.483  27.590  1.00  0.00     0.202 C 
ENDROOT
BRANCH   1   2
ATOM      2  C   UNL A   1      32.210  31.483  26.895  1.00  0.00     0.261 C 
BRANCH   2   3
ATOM      3  O   UNL A   1      32.234  30.646  25.730  1.00  0.00    -0.458 OA
BRANCH   3   4
ATOM      4  C   UNL A   1      31.700  29.401  25.692  1.00  0.00     0.357 C 
ATOM      5  O   UNL A   1      31.507  28.650  26.619  1.00  0.00    -0.244 OA
BRANCH   4   6
ATOM      6  C   UNL A   1      31.232  29.161  24.296  1.00  0.00     0.160 A 
ATOM      7  C   UNL A   1      31.290  27.577  22.679  1.00  0.00     0.189 A 
ATOM      8  N   UNL A   1      31.806  28.051  23.796  1.00  0.00    -0.215 NA
ATOM      9  N   UNL A   1      30.282  28.141  22.004  1.00  0.00    -0.222 NA
ATOM     10  C   UNL A   1      29.743  29.266  22.497  1.00  0.00     0.076 A 
ATOM     11  C   UNL A   1      30.167  29.859  23.685  1.00  0.00     0.034 A 
ATOM     12  C   UNL A   1      28.672  29.839  21.817  1.00  0.00     0.029 A 
ATOM     13  C   UNL A   1      29.471  31.029  24.143  1.00  0.00     0.013 A 
ATOM     14  C   UNL A   1      27.974  30.953  22.301  1.00  0.00     0.002 A 
ATOM     15  C   UNL A   1      28.368  31.544  23.484  1.00  0.00     0.001 A 
BRANCH   7  16
ATOM     16  S   UNL A   1      31.775  25.940  22.257  1.00  0.00    -0.076 SA
BRANCH  16  17
ATOM     17  C   UNL A   1      32.850  25.561  23.682  1.00  0.00     0.178 C 
BRANCH  17  18
ATOM     18  C   UNL A   1      32.208  24.642  24.704  1.00  0.00     0.234 C 
ATOM     19  N   UNL A   1      32.838  23.585  25.297  1.00  0.00    -0.325 N 
ATOM     20  H   UNL A   1      32.254  23.084  25.913  1.00  0.00     0.169 HD
ATOM     21  O   UNL A   1      31.030  24.827  25.038  1.00  0.00    -0.274 OA
BRANCH  19  22
ATOM     22  C   UNL A   1      34.141  23.055  25.216  1.00  0.00     0.044 A 
ATOM     23  C   UNL A   1      33.239  20.833  24.245  1.00  0.00     0.046 C 
ATOM     24  C   UNL A   1      34.319  21.714  24.817  1.00  0.00    -0.027 A 
ATOM     25  C   UNL A   1      35.592  21.124  24.953  1.00  0.00     0.005 A 
ATOM     26  C   UNL A   1      36.678  21.847  25.439  1.00  0.00     0.000 A 
ATOM     27  C   UNL A   1      35.276  23.797  25.558  1.00  0.00     0.026 A 
ATOM     28  C   UNL A   1      36.525  23.195  25.713  1.00  0.00     0.002 A 
ENDBRANCH  19  22
ENDBRANCH  17  18
ENDBRANCH  16  17
ENDBRANCH   7  16
ENDBRANCH   4   6
ENDBRANCH   3   4
ENDBRANCH   2   3
ENDBRANCH   1   2
BRANCH   1  29
ATOM     29  O   UNL A   1      33.938  32.835  27.651  1.00  0.00    -0.374 OA
BRANCH  29  30
ATOM     30  C   UNL A   1      32.934  33.776  27.958  1.00  0.00     0.202 C 
BRANCH  30  31
ATOM     31  C   UNL A   1      33.486  34.907  28.830  1.00  0.00     0.261 C 
BRANCH  31  32
ATOM     32  O   UNL A   1      33.252  34.615  30.231  1.00  0.00    -0.460 OA
BRANCH  32  33
ATOM     33  C   UNL A   1      34.351  34.560  31.040  1.00  0.00     0.338 C 
ATOM     34  O   UNL A   1      34.763  35.480  31.730  1.00  0.00    -0.246 OA
BRANCH  33  35
ATOM     35  C   UNL A   1      35.146  33.325  30.754  1.00  0.00     0.060 A 
ATOM     36  C   UNL A   1      34.911  32.136  31.479  1.00  0.00     0.016 A 
ATOM     37  C   UNL A   1      36.339  33.481  30.062  1.00  0.00     0.016 A 
ATOM     38  C   UNL A   1      35.946  31.199  31.666  1.00  0.00     0.010 A 
ATOM     39  C   UNL A   1      37.383  32.644  30.378  1.00  0.00     0.010 A 
ATOM     40  C   UNL A   1      37.218  31.514  31.203  1.00  0.00    -0.014 A 
BRANCH  40  41
ATOM     41  C   UNL A   1      38.483  30.829  31.506  1.00  0.00     0.031 A 
ATOM     42  C   UNL A   1      38.797  29.637  30.683  1.00  0.00     0.074 A 
ATOM     43  C   UNL A   1      39.489  31.447  32.179  1.00  0.00     0.049 A 
ATOM     44  N   UNL A   1      39.897  28.983  30.750  1.00  0.00    -0.248 NA
ATOM     45  C   UNL A   1      37.865  29.049  29.719  1.00  0.00     0.031 C 
ATOM     46  C   UNL A   1      40.936  31.322  31.947  1.00  0.00     0.029 A 
ATOM     47  N   UNL A   1      39.432  32.382  33.214  1.00  0.00    -0.354 N 
ATOM     48  C   UNL A   1      39.981  28.180  29.641  1.00  0.00     0.074 A 
ATOM     49  C   UNL A   1      38.644  28.147  29.114  1.00  0.00     0.031 C 
ATOM     50  C   UNL A   1      41.617  31.923  32.938  1.00  0.00     0.029 A 
ATOM     51  C   UNL A   1      40.644  32.337  33.925  1.00  0.00     0.049 A 
ATOM     52  H   UNL A   1      38.671  32.974  33.412  1.00  0.00     0.167 HD
ATOM     53  C   UNL A   1      41.219  27.754  29.268  1.00  0.00     0.037 A 
ATOM     54  C   UNL A   1      40.645  32.045  35.253  1.00  0.00     0.037 A 
ATOM     55  C   UNL A   1      42.200  28.093  30.317  1.00  0.00     0.049 A 
ATOM     56  C   UNL A   1      41.325  30.718  35.440  1.00  0.00     0.074 A 
ATOM     57  C   UNL A   1      43.230  29.013  30.420  1.00  0.00     0.029 A 
ATOM     58  N   UNL A   1      41.955  27.645  31.617  1.00  0.00    -0.354 N 
ATOM     59  N   UNL A   1      41.421  29.838  34.477  1.00  0.00    -0.248 NA
ATOM     60  C   UNL A   1      42.078  30.332  36.626  1.00  0.00     0.031 C 
ATOM     61  C   UNL A   1      43.565  29.139  31.806  1.00  0.00     0.029 A 
ATOM     62  C   UNL A   1      42.760  28.278  32.541  1.00  0.00     0.049 A 
ATOM     63  H   UNL A   1      41.289  26.957  31.846  1.00  0.00     0.167 HD
ATOM     64  C   UNL A   1      42.306  28.866  34.830  1.00  0.00     0.074 A 
ATOM     65  C   UNL A   1      42.657  29.194  36.202  1.00  0.00     0.031 C 
ATOM     66  C   UNL A   1      42.713  27.898  33.956  1.00  0.00     0.037 A 
BRANCH  53  67
ATOM     67  C   UNL A   1      41.599  27.154  27.925  1.00  0.00     0.057 A 
ATOM     68  C   UNL A   1      42.150  25.858  27.861  1.00  0.00     0.134 A 
ATOM     69  C   UNL A   1      41.517  27.794  26.670  1.00  0.00     0.134 A 
ATOM     70  F   UNL A   1      42.313  25.109  28.960  1.00  0.00    -0.206 F 
ATOM     71  C   UNL A   1      42.574  25.259  26.663  1.00  0.00     0.040 A 
ATOM     72  C   UNL A   1      41.903  27.192  25.461  1.00  0.00     0.040 A 
ATOM     73  F   UNL A   1      41.096  29.050  26.522  1.00  0.00    -0.206 F 
ATOM     74  C   UNL A   1      42.442  25.920  25.454  1.00  0.00     0.006 A 
ENDBRANCH  53  67
BRANCH  54  75
ATOM     75  C   UNL A   1      39.451  32.647  35.926  1.00  0.00     0.057 A 
ATOM     76  C   UNL A   1      38.474  31.733  36.380  1.00  0.00     0.134 A 
ATOM     77  C   UNL A   1      39.563  33.847  36.644  1.00  0.00     0.134 A 
ATOM     78  F   UNL A   1      38.311  30.556  35.755  1.00  0.00    -0.206 F 
ATOM     79  C   UNL A   1      37.779  31.919  37.583  1.00  0.00     0.040 A 
ATOM     80  C   UNL A   1      38.881  34.032  37.859  1.00  0.00     0.040 A 
ATOM     81  F   UNL A   1      40.479  34.763  36.297  1.00  0.00    -0.206 F 
ATOM     82  C   UNL A   1      38.026  33.049  38.355  1.00  0.00     0.006 A 
ENDBRANCH  54  75
BRANCH  66  83
ATOM     83  C   UNL A   1      43.148  26.507  34.366  1.00  0.00     0.057 A 
ATOM     84  C   UNL A   1      42.337  25.596  35.060  1.00  0.00     0.134 A 
ATOM     85  C   UNL A   1      44.366  25.961  33.893  1.00  0.00     0.134 A 
ATOM     86  F   UNL A   1      41.098  25.903  35.466  1.00  0.00    -0.206 F 
ATOM     87  C   UNL A   1      42.730  24.280  35.323  1.00  0.00     0.040 A 
ATOM     88  C   UNL A   1      44.731  24.627  34.081  1.00  0.00     0.040 A 
ATOM     89  F   UNL A   1      45.251  26.677  33.188  1.00  0.00    -0.206 F 
ATOM     90  C   UNL A   1      43.922  23.784  34.820  1.00  0.00     0.006 A 
ENDBRANCH  66  83
ENDBRANCH  40  41
ENDBRANCH  33  35
ENDBRANCH  32  33
ENDBRANCH  31  32
ENDBRANCH  30  31
ENDBRANCH  29  30
ENDBRANCH   1  29
TORSDOF 18
ENDMDL
MODEL 3
REMARK VINA RESULT:     -10.9      3.998      9.037
REMARK SMILES Cc1ccccc1NC(=O)CSc1nc(C(=O)OCCOCCOC(=O)c2ccc(-c3c4nc(c(-c5c(F)cccc5F)c5ccc([nH]5)c(-c5c(F)cccc5F)c5nc(c(-c6c(F)cccc6F)c6ccc3[nH]6)C=C5)C=C4)cc2)c2ccccc2n1
REMARK SMILES IDX 20 1 19 2 18 3 16 4 17 5 15 6 13 7 14 8 87 9 86 10 81 11
REMARK SMILES IDX 85 12 82 13 84 14 83 15 12 16 11 17 9 18 8 19 10 21 7 22
REMARK SMILES IDX 1 23 2 24 3 25 4 26 6 27 5 28 21 29 22 30 23 31 24 32 25 33
REMARK SMILES IDX 26 34 27 35 28 36 80 37 29 38 79 39 30 40 31 41 32 42 73 43
REMARK SMILES IDX 33 44 78 45 72 46 74 47 34 48 77 49 71 50 70 51 35 53 61 54
REMARK SMILES IDX 44 55 60 56 45 57 48 58 59 59 75 60 46 61 47 62 58 64 76 65
REMARK SMILES IDX 49 66 36 67 37 68 42 69 38 70 39 71 41 72 43 73 40 74 62 75
REMARK SMILES IDX 63 76 68 77 64 78 65 79 67 80 69 81 66 82 50 83 51 84 56 85
REMARK SMILES IDX 52 86 53 87 55 88 57 89 54 90
REMARK H PARENT 8 20 74 52 48 63
REMARK Flexibility Score: inf
ROOT
ATOM      1  C   UNL A   1      35.850  23.341  24.847  1.00  0.00     0.202 C 
ENDROOT
BRANCH   1   2
ATOM      2  C   UNL A   1      35.351  22.995  26.216  1.00  0.00     0.261 C 
BRANCH   2   3
ATOM      3  O   UNL A   1      34.137  23.697  26.519  1.00  0.00    -0.458 OA
BRANCH   3   4
ATOM      4  C   UNL A   1      32.934  23.088  26.651  1.00  0.00     0.357 C 
ATOM      5  O   UNL A   1      32.318  22.874  27.668  1.00  0.00    -0.244 OA
BRANCH   4   6
ATOM      6  C   UNL A   1      32.404  22.852  25.276  1.00  0.00     0.160 A 
ATOM      7  C   UNL A   1      31.965  23.965  23.354  1.00  0.00     0.189 A 
ATOM      8  N   UNL A   1      32.182  24.024  24.653  1.00  0.00    -0.215 NA
ATOM      9  N   UNL A   1      31.908  22.835  22.639  1.00  0.00    -0.222 NA
ATOM     10  C   UNL A   1      32.096  21.673  23.280  1.00  0.00     0.076 A 
ATOM     11  C   UNL A   1      32.368  21.588  24.645  1.00  0.00     0.034 A 
ATOM     12  C   UNL A   1      32.072  20.496  22.536  1.00  0.00     0.029 A 
ATOM     13  C   UNL A   1      32.613  20.289  25.207  1.00  0.00     0.013 A 
ATOM     14  C   UNL A   1      32.358  19.243  23.091  1.00  0.00     0.002 A 
ATOM     15  C   UNL A   1      32.647  19.139  24.435  1.00  0.00     0.001 A 
BRANCH   7  16
ATOM     16  S   UNL A   1      32.072  25.499  22.499  1.00  0.00    -0.076 SA
BRANCH  16  17
ATOM     17  C   UNL A   1      30.672  26.379  23.271  1.00  0.00     0.178 C 
BRANCH  17  18
ATOM     18  C   UNL A   1      30.618  27.856  22.932  1.00  0.00     0.234 C 
ATOM     19  N   UNL A   1      31.232  28.839  23.654  1.00  0.00    -0.325 N 
ATOM     20  H   UNL A   1      31.062  29.742  23.301  1.00  0.00     0.169 HD
ATOM     21  O   UNL A   1      29.970  28.234  21.946  1.00  0.00    -0.274 OA
BRANCH  19  22
ATOM     22  C   UNL A   1      32.057  28.839  24.797  1.00  0.00     0.044 A 
ATOM     23  C   UNL A   1      34.177  28.574  23.337  1.00  0.00     0.046 C 
ATOM     24  C   UNL A   1      33.441  28.607  24.651  1.00  0.00    -0.027 A 
ATOM     25  C   UNL A   1      34.222  28.385  25.804  1.00  0.00     0.005 A 
ATOM     26  C   UNL A   1      33.662  28.424  27.077  1.00  0.00     0.000 A 
ATOM     27  C   UNL A   1      31.552  29.020  26.088  1.00  0.00     0.026 A 
ATOM     28  C   UNL A   1      32.329  28.773  27.221  1.00  0.00     0.002 A 
ENDBRANCH  19  22
ENDBRANCH  17  18
ENDBRANCH  16  17
ENDBRANCH   7  16
ENDBRANCH   4   6
ENDBRANCH   3   4
ENDBRANCH   2   3
ENDBRANCH   1   2
BRANCH   1  29
ATOM     29  O   UNL A   1      37.241  23.535  24.984  1.00  0.00    -0.374 OA
BRANCH  29  30
ATOM     30  C   UNL A   1      37.839  23.010  26.148  1.00  0.00     0.202 C 
BRANCH  30  31
ATOM     31  C   UNL A   1      38.795  21.864  25.808  1.00  0.00     0.261 C 
BRANCH  31  32
ATOM     32  O   UNL A   1      39.775  21.704  26.864  1.00  0.00    -0.460 OA
BRANCH  32  33
ATOM     33  C   UNL A   1      41.031  21.319  26.485  1.00  0.00     0.338 C 
ATOM     34  O   UNL A   1      41.325  20.220  26.042  1.00  0.00    -0.246 OA
BRANCH  33  35
ATOM     35  C   UNL A   1      42.043  22.317  26.952  1.00  0.00     0.060 A 
ATOM     36  C   UNL A   1      42.302  22.487  28.330  1.00  0.00     0.016 A 
ATOM     37  C   UNL A   1      42.420  23.308  26.057  1.00  0.00     0.016 A 
ATOM     38  C   UNL A   1      42.755  23.726  28.823  1.00  0.00     0.010 A 
ATOM     39  C   UNL A   1      42.712  24.555  26.559  1.00  0.00     0.010 A 
ATOM     40  C   UNL A   1      42.854  24.795  27.940  1.00  0.00    -0.014 A 
BRANCH  40  41
ATOM     41  C   UNL A   1      43.047  26.216  28.263  1.00  0.00     0.031 A 
ATOM     42  C   UNL A   1      41.818  27.036  28.379  1.00  0.00     0.074 A 
ATOM     43  C   UNL A   1      44.198  26.674  28.822  1.00  0.00     0.049 A 
ATOM     44  N   UNL A   1      41.801  28.263  28.746  1.00  0.00    -0.248 NA
ATOM     45  C   UNL A   1      40.480  26.541  28.052  1.00  0.00     0.031 C 
ATOM     46  C   UNL A   1      44.347  27.720  29.845  1.00  0.00     0.029 A 
ATOM     47  N   UNL A   1      45.516  26.257  28.627  1.00  0.00    -0.354 N 
ATOM     48  C   UNL A   1      40.508  28.592  29.065  1.00  0.00     0.074 A 
ATOM     49  C   UNL A   1      39.713  27.546  28.483  1.00  0.00     0.031 C 
ATOM     50  C   UNL A   1      45.644  28.037  29.999  1.00  0.00     0.029 A 
ATOM     51  C   UNL A   1      46.376  27.312  28.983  1.00  0.00     0.049 A 
ATOM     52  H   UNL A   1      45.797  25.374  28.297  1.00  0.00     0.167 HD
ATOM     53  C   UNL A   1      40.318  29.660  29.889  1.00  0.00     0.037 A 
ATOM     54  C   UNL A   1      47.238  27.827  28.065  1.00  0.00     0.037 A 
ATOM     55  C   UNL A   1      41.594  30.375  30.080  1.00  0.00     0.049 A 
ATOM     56  C   UNL A   1      46.815  29.238  27.766  1.00  0.00     0.074 A 
ATOM     57  C   UNL A   1      42.482  30.511  31.134  1.00  0.00     0.029 A 
ATOM     58  N   UNL A   1      42.278  30.815  28.944  1.00  0.00    -0.354 N 
ATOM     59  N   UNL A   1      45.594  29.661  27.971  1.00  0.00    -0.248 NA
ATOM     60  C   UNL A   1      47.721  30.311  27.379  1.00  0.00     0.031 C 
ATOM     61  C   UNL A   1      43.719  30.996  30.602  1.00  0.00     0.029 A 
ATOM     62  C   UNL A   1      43.576  31.181  29.233  1.00  0.00     0.049 A 
ATOM     63  H   UNL A   1      41.880  30.860  28.045  1.00  0.00     0.167 HD
ATOM     64  C   UNL A   1      45.558  31.019  27.877  1.00  0.00     0.074 A 
ATOM     65  C   UNL A   1      46.904  31.377  27.461  1.00  0.00     0.031 C 
ATOM     66  C   UNL A   1      44.442  31.742  28.191  1.00  0.00     0.037 A 
BRANCH  53  67
ATOM     67  C   UNL A   1      39.042  30.004  30.637  1.00  0.00     0.057 A 
ATOM     68  C   UNL A   1      38.687  29.285  31.798  1.00  0.00     0.134 A 
ATOM     69  C   UNL A   1      38.084  30.969  30.259  1.00  0.00     0.134 A 
ATOM     70  F   UNL A   1      39.476  28.322  32.294  1.00  0.00    -0.206 F 
ATOM     71  C   UNL A   1      37.498  29.510  32.511  1.00  0.00     0.040 A 
ATOM     72  C   UNL A   1      36.909  31.228  30.983  1.00  0.00     0.040 A 
ATOM     73  F   UNL A   1      38.191  31.702  29.150  1.00  0.00    -0.206 F 
ATOM     74  C   UNL A   1      36.607  30.492  32.113  1.00  0.00     0.006 A 
ENDBRANCH  53  67
BRANCH  54  75
ATOM     75  C   UNL A   1      47.772  26.746  27.180  1.00  0.00     0.057 A 
ATOM     76  C   UNL A   1      47.292  26.745  25.851  1.00  0.00     0.134 A 
ATOM     77  C   UNL A   1      49.062  26.232  27.375  1.00  0.00     0.134 A 
ATOM     78  F   UNL A   1      46.070  27.231  25.577  1.00  0.00    -0.206 F 
ATOM     79  C   UNL A   1      48.112  26.425  24.760  1.00  0.00     0.040 A 
ATOM     80  C   UNL A   1      49.895  25.925  26.285  1.00  0.00     0.040 A 
ATOM     81  F   UNL A   1      49.608  26.214  28.600  1.00  0.00    -0.206 F 
ATOM     82  C   UNL A   1      49.438  26.067  24.975  1.00  0.00     0.006 A 
ENDBRANCH  54  75
BRANCH  66  83
ATOM     83  C   UNL A   1      44.087  33.076  27.570  1.00  0.00     0.057 A 
ATOM     84  C   UNL A   1      43.885  33.281  26.196  1.00  0.00     0.134 A 
ATOM     85  C   UNL A   1      43.744  34.184  28.382  1.00  0.00     0.134 A 
ATOM     86  F   UNL A   1      44.035  32.302  25.295  1.00  0.00    -0.206 F 
ATOM     87  C   UNL A   1      43.448  34.500  25.669  1.00  0.00     0.040 A 
ATOM     88  C   UNL A   1      43.231  35.377  27.871  1.00  0.00     0.040 A 
ATOM     89  F   UNL A   1      43.847  34.159  29.717  1.00  0.00    -0.206 F 
ATOM     90  C   UNL A   1      43.102  35.549  26.506  1.00  0.00     0.006 A 
ENDBRANCH  66  83
ENDBRANCH  40  41
ENDBRANCH  33  35
ENDBRANCH  32  33
ENDBRANCH  31  32
ENDBRANCH  30  31
ENDBRANCH  29  30
ENDBRANCH   1  29
TORSDOF 18
ENDMDL
