MODEL 1
REMARK VINA RESULT:     -11.0      0.000      0.000
REMARK SMILES Cn1ccc(NC(=O)[C@@H]2CCCC[C@@H]2C(=O)OCCOCCOC(=O)c2ccc(-c3c4nc(c(-c5c(F)cccc5F)c5ccc([nH]5)c(-c5c(F)cccc5F)c5nc(c(-c6c(F)cccc6F)c6ccc3[nH]6)C=C5)C=C4)cc2)n1
REMARK SMILES IDX 20 1 19 2 18 3 17 4 15 5 16 6 14 7 9 8 10 9 11 10 13 11
REMARK SMILES IDX 12 12 7 13 6 14 8 16 5 17 1 18 2 19 3 20 80 21 4 22 21 23
REMARK SMILES IDX 22 24 23 25 24 26 25 27 26 28 27 29 79 30 28 31 78 32 29 33
REMARK SMILES IDX 30 34 31 35 72 36 32 37 77 38 71 39 73 40 33 41 76 42 70 43
REMARK SMILES IDX 69 44 34 46 60 47 43 48 59 49 44 50 47 51 58 52 74 53 45 54
REMARK SMILES IDX 46 55 57 57 75 58 48 59 35 60 36 61 41 62 37 63 38 64 40 65
REMARK SMILES IDX 42 66 39 67 61 68 62 69 67 70 63 71 64 72 66 73 68 74 65 75
REMARK SMILES IDX 49 76 50 77 55 78 51 79 52 80 54 81 56 82 53 83
REMARK H PARENT 6 15 73 45 47 56
REMARK Flexibility Score: inf
ROOT
ATOM      1  O   UNL A   1      32.134  30.791  27.251  1.00  0.00    -0.374 OA
ENDROOT
BRANCH   1   2
ATOM      2  C   UNL A   1      33.359  30.449  26.603  1.00  0.00     0.202 C 
BRANCH   2   3
ATOM      3  C   UNL A   1      33.609  28.960  26.353  1.00  0.00     0.261 C 
BRANCH   3   4
ATOM      4  O   UNL A   1      33.390  28.582  24.983  1.00  0.00    -0.463 OA
BRANCH   4   5
ATOM      5  C   UNL A   1      32.092  28.441  24.617  1.00  0.00     0.309 C 
ATOM      6  O   UNL A   1      31.187  28.195  25.407  1.00  0.00    -0.252 OA
BRANCH   5   7
ATOM      7  C   UNL A   1      31.877  28.486  23.107  1.00  0.00     0.111 C 
ATOM      8  C   UNL A   1      30.748  27.641  22.444  1.00  0.00     0.093 C 
ATOM      9  C   UNL A   1      31.192  26.187  22.141  1.00  0.00     0.014 C 
ATOM     10  C   UNL A   1      32.562  26.069  21.489  1.00  0.00     0.001 C 
ATOM     11  C   UNL A   1      33.219  28.296  22.376  1.00  0.00     0.016 C 
ATOM     12  C   UNL A   1      33.616  26.833  22.269  1.00  0.00     0.001 C 
BRANCH   8  13
ATOM     13  C   UNL A   1      29.381  27.594  23.160  1.00  0.00     0.229 C 
ATOM     14  N   UNL A   1      28.540  28.664  23.217  1.00  0.00    -0.309 N 
ATOM     15  H   UNL A   1      27.712  28.523  23.733  1.00  0.00     0.171 HD
ATOM     16  O   UNL A   1      28.999  26.565  23.734  1.00  0.00    -0.274 OA
BRANCH  14  17
ATOM     17  C   UNL A   1      28.680  29.907  22.662  1.00  0.00     0.154 A 
ATOM     18  C   UNL A   1      28.945  33.335  23.052  1.00  0.00     0.173 C 
ATOM     19  N   UNL A   1      28.874  32.003  22.502  1.00  0.00    -0.274 N 
ATOM     20  C   UNL A   1      28.363  31.623  21.298  1.00  0.00     0.110 A 
ATOM     21  N   UNL A   1      29.185  30.965  23.290  1.00  0.00    -0.155 NA
ATOM     22  C   UNL A   1      28.264  30.250  21.355  1.00  0.00     0.068 A 
ENDBRANCH  14  17
ENDBRANCH   8  13
ENDBRANCH   5   7
ENDBRANCH   4   5
ENDBRANCH   3   4
ENDBRANCH   2   3
ENDBRANCH   1   2
BRANCH   1  23
ATOM     23  C   UNL A   1      31.447  31.934  26.742  1.00  0.00     0.202 C 
BRANCH  23  24
ATOM     24  C   UNL A   1      32.175  33.276  26.869  1.00  0.00     0.261 C 
BRANCH  24  25
ATOM     25  O   UNL A   1      32.222  33.724  28.232  1.00  0.00    -0.460 OA
BRANCH  25  26
ATOM     26  C   UNL A   1      33.292  34.491  28.538  1.00  0.00     0.338 C 
ATOM     27  O   UNL A   1      33.304  35.690  28.759  1.00  0.00    -0.246 OA
BRANCH  26  28
ATOM     28  C   UNL A   1      34.483  33.640  28.742  1.00  0.00     0.060 A 
ATOM     29  C   UNL A   1      34.294  32.453  29.462  1.00  0.00     0.016 A 
ATOM     30  C   UNL A   1      35.757  34.007  28.301  1.00  0.00     0.016 A 
ATOM     31  C   UNL A   1      35.388  31.672  29.816  1.00  0.00     0.010 A 
ATOM     32  C   UNL A   1      36.858  33.225  28.664  1.00  0.00     0.010 A 
ATOM     33  C   UNL A   1      36.681  32.082  29.463  1.00  0.00    -0.014 A 
BRANCH  33  34
ATOM     34  C   UNL A   1      37.837  31.406  30.093  1.00  0.00     0.031 A 
ATOM     35  C   UNL A   1      38.148  31.706  31.533  1.00  0.00     0.074 A 
ATOM     36  C   UNL A   1      38.552  30.494  29.413  1.00  0.00     0.049 A 
ATOM     37  N   UNL A   1      39.075  31.201  32.305  1.00  0.00    -0.248 NA
ATOM     38  C   UNL A   1      37.296  32.711  32.193  1.00  0.00     0.031 C 
ATOM     39  C   UNL A   1      38.317  30.103  28.025  1.00  0.00     0.029 A 
ATOM     40  N   UNL A   1      39.618  29.728  29.806  1.00  0.00    -0.354 N 
ATOM     41  C   UNL A   1      38.916  31.822  33.539  1.00  0.00     0.074 A 
ATOM     42  C   UNL A   1      37.828  32.765  33.404  1.00  0.00     0.031 C 
ATOM     43  C   UNL A   1      39.219  29.167  27.679  1.00  0.00     0.029 A 
ATOM     44  C   UNL A   1      40.101  28.910  28.815  1.00  0.00     0.049 A 
ATOM     45  H   UNL A   1      40.002  29.761  30.713  1.00  0.00     0.167 HD
ATOM     46  C   UNL A   1      39.606  31.612  34.685  1.00  0.00     0.037 A 
ATOM     47  C   UNL A   1      41.143  28.057  28.828  1.00  0.00     0.037 A 
ATOM     48  C   UNL A   1      40.689  30.674  34.811  1.00  0.00     0.049 A 
ATOM     49  C   UNL A   1      41.931  27.882  30.099  1.00  0.00     0.074 A 
ATOM     50  C   UNL A   1      41.447  30.374  35.928  1.00  0.00     0.029 A 
ATOM     51  N   UNL A   1      41.170  29.888  33.774  1.00  0.00    -0.354 N 
ATOM     52  N   UNL A   1      41.751  28.448  31.268  1.00  0.00    -0.248 NA
ATOM     53  C   UNL A   1      43.063  26.945  30.053  1.00  0.00     0.031 C 
ATOM     54  C   UNL A   1      42.416  29.435  35.557  1.00  0.00     0.029 A 
ATOM     55  C   UNL A   1      42.232  29.119  34.220  1.00  0.00     0.049 A 
ATOM     56  H   UNL A   1      40.811  29.878  32.859  1.00  0.00     0.167 HD
ATOM     57  C   UNL A   1      42.727  27.919  32.103  1.00  0.00     0.074 A 
ATOM     58  C   UNL A   1      43.490  26.977  31.308  1.00  0.00     0.031 C 
ATOM     59  C   UNL A   1      42.972  28.186  33.409  1.00  0.00     0.037 A 
BRANCH  46  60
ATOM     60  C   UNL A   1      39.220  32.430  35.881  1.00  0.00     0.057 A 
ATOM     61  C   UNL A   1      39.740  33.713  36.097  1.00  0.00     0.134 A 
ATOM     62  C   UNL A   1      38.306  31.937  36.821  1.00  0.00     0.134 A 
ATOM     63  F   UNL A   1      40.633  34.238  35.243  1.00  0.00    -0.206 F 
ATOM     64  C   UNL A   1      39.383  34.466  37.217  1.00  0.00     0.040 A 
ATOM     65  C   UNL A   1      37.924  32.690  37.932  1.00  0.00     0.040 A 
ATOM     66  F   UNL A   1      37.770  30.717  36.673  1.00  0.00    -0.206 F 
ATOM     67  C   UNL A   1      38.467  33.957  38.136  1.00  0.00     0.006 A 
ENDBRANCH  46  60
BRANCH  47  68
ATOM     68  C   UNL A   1      41.498  27.302  27.600  1.00  0.00     0.057 A 
ATOM     69  C   UNL A   1      41.007  26.012  27.372  1.00  0.00     0.134 A 
ATOM     70  C   UNL A   1      42.344  27.852  26.629  1.00  0.00     0.134 A 
ATOM     71  F   UNL A   1      40.210  25.423  28.275  1.00  0.00    -0.206 F 
ATOM     72  C   UNL A   1      41.354  25.290  26.228  1.00  0.00     0.040 A 
ATOM     73  C   UNL A   1      42.681  27.151  25.471  1.00  0.00     0.040 A 
ATOM     74  F   UNL A   1      42.845  29.086  26.788  1.00  0.00    -0.206 F 
ATOM     75  C   UNL A   1      42.190  25.862  25.271  1.00  0.00     0.006 A 
ENDBRANCH  47  68
BRANCH  59  76
ATOM     76  C   UNL A   1      44.092  27.434  34.064  1.00  0.00     0.057 A 
ATOM     77  C   UNL A   1      43.893  26.178  34.651  1.00  0.00     0.134 A 
ATOM     78  C   UNL A   1      45.394  27.952  34.064  1.00  0.00     0.134 A 
ATOM     79  F   UNL A   1      42.667  25.634  34.692  1.00  0.00    -0.206 F 
ATOM     80  C   UNL A   1      44.946  25.473  35.234  1.00  0.00     0.040 A 
ATOM     81  C   UNL A   1      46.458  27.246  34.623  1.00  0.00     0.040 A 
ATOM     82  F   UNL A   1      45.652  29.145  33.509  1.00  0.00    -0.206 F 
ATOM     83  C   UNL A   1      46.235  26.003  35.215  1.00  0.00     0.006 A 
ENDBRANCH  59  76
ENDBRANCH  33  34
ENDBRANCH  26  28
ENDBRANCH  25  26
ENDBRANCH  24  25
ENDBRANCH  23  24
ENDBRANCH   1  23
TORSDOF 16
ENDMDL
MODEL 2
REMARK VINA RESULT:     -10.8      4.291      8.094
REMARK SMILES Cn1ccc(NC(=O)[C@@H]2CCCC[C@@H]2C(=O)OCCOCCOC(=O)c2ccc(-c3c4nc(c(-c5c(F)cccc5F)c5ccc([nH]5)c(-c5c(F)cccc5F)c5nc(c(-c6c(F)cccc6F)c6ccc3[nH]6)C=C5)C=C4)cc2)n1
REMARK SMILES IDX 20 1 19 2 18 3 17 4 15 5 16 6 14 7 9 8 10 9 11 10 13 11
REMARK SMILES IDX 12 12 7 13 6 14 8 16 5 17 1 18 2 19 3 20 80 21 4 22 21 23
REMARK SMILES IDX 22 24 23 25 24 26 25 27 26 28 27 29 79 30 28 31 78 32 29 33
REMARK SMILES IDX 30 34 31 35 72 36 32 37 77 38 71 39 73 40 33 41 76 42 70 43
REMARK SMILES IDX 69 44 34 46 60 47 43 48 59 49 44 50 47 51 58 52 74 53 45 54
REMARK SMILES IDX 46 55 57 57 75 58 48 59 35 60 36 61 41 62 37 63 38 64 40 65
REMARK SMILES IDX 42 66 39 67 61 68 62 69 67 70 63 71 64 72 66 73 68 74 65 75
REMARK SMILES IDX 49 76 50 77 55 78 51 79 52 80 54 81 56 82 53 83
REMARK H PARENT 6 15 73 45 47 56
REMARK Flexibility Score: inf
ROOT
ATOM      1  O   UNL A   1      34.291  31.780  27.479  1.00  0.00    -0.374 OA
ENDROOT
BRANCH   1   2
ATOM      2  C   UNL A   1      32.922  31.445  27.252  1.00  0.00     0.202 C 
BRANCH   2   3
ATOM      3  C   UNL A   1      32.629  29.998  26.849  1.00  0.00     0.261 C 
BRANCH   3   4
ATOM      4  O   UNL A   1      31.612  29.898  25.837  1.00  0.00    -0.463 OA
BRANCH   4   5
ATOM      5  C   UNL A   1      31.570  28.719  25.168  1.00  0.00     0.309 C 
ATOM      6  O   UNL A   1      31.564  27.624  25.721  1.00  0.00    -0.252 OA
BRANCH   5   7
ATOM      7  C   UNL A   1      31.665  28.875  23.654  1.00  0.00     0.111 C 
ATOM      8  C   UNL A   1      30.739  28.048  22.714  1.00  0.00     0.093 C 
ATOM      9  C   UNL A   1      31.305  26.637  22.408  1.00  0.00     0.014 C 
ATOM     10  C   UNL A   1      32.784  26.616  22.047  1.00  0.00     0.001 C 
ATOM     11  C   UNL A   1      33.137  28.788  23.205  1.00  0.00     0.016 C 
ATOM     12  C   UNL A   1      33.618  27.351  23.080  1.00  0.00     0.001 C 
BRANCH   8  13
ATOM     13  C   UNL A   1      29.258  27.898  23.126  1.00  0.00     0.229 C 
ATOM     14  N   UNL A   1      28.356  28.913  23.019  1.00  0.00    -0.309 N 
ATOM     15  H   UNL A   1      27.450  28.708  23.347  1.00  0.00     0.171 HD
ATOM     16  O   UNL A   1      28.832  26.834  23.595  1.00  0.00    -0.274 OA
BRANCH  14  17
ATOM     17  C   UNL A   1      28.528  30.176  22.520  1.00  0.00     0.154 A 
ATOM     18  C   UNL A   1      28.912  33.571  23.067  1.00  0.00     0.173 C 
ATOM     19  N   UNL A   1      28.787  32.270  22.456  1.00  0.00    -0.274 N 
ATOM     20  C   UNL A   1      28.245  31.965  21.245  1.00  0.00     0.110 A 
ATOM     21  N   UNL A   1      29.077  31.186  23.189  1.00  0.00    -0.155 NA
ATOM     22  C   UNL A   1      28.102  30.595  21.239  1.00  0.00     0.068 A 
ENDBRANCH  14  17
ENDBRANCH   8  13
ENDBRANCH   5   7
ENDBRANCH   4   5
ENDBRANCH   3   4
ENDBRANCH   2   3
ENDBRANCH   1   2
BRANCH   1  23
ATOM     23  C   UNL A   1      34.547  32.726  28.518  1.00  0.00     0.202 C 
BRANCH  23  24
ATOM     24  C   UNL A   1      35.196  32.175  29.791  1.00  0.00     0.261 C 
BRANCH  24  25
ATOM     25  O   UNL A   1      35.602  30.808  29.628  1.00  0.00    -0.460 OA
BRANCH  25  26
ATOM     26  C   UNL A   1      36.371  30.324  30.629  1.00  0.00     0.338 C 
ATOM     27  O   UNL A   1      36.107  30.298  31.819  1.00  0.00    -0.246 OA
BRANCH  26  28
ATOM     28  C   UNL A   1      37.560  29.647  30.071  1.00  0.00     0.060 A 
ATOM     29  C   UNL A   1      38.381  28.963  30.976  1.00  0.00     0.016 A 
ATOM     30  C   UNL A   1      37.903  29.722  28.718  1.00  0.00     0.016 A 
ATOM     31  C   UNL A   1      39.590  28.424  30.550  1.00  0.00     0.010 A 
ATOM     32  C   UNL A   1      39.123  29.185  28.291  1.00  0.00     0.010 A 
ATOM     33  C   UNL A   1      39.990  28.578  29.216  1.00  0.00    -0.014 A 
BRANCH  33  34
ATOM     34  C   UNL A   1      41.389  28.262  28.854  1.00  0.00     0.031 A 
ATOM     35  C   UNL A   1      41.719  26.864  28.409  1.00  0.00     0.074 A 
ATOM     36  C   UNL A   1      42.333  29.219  28.858  1.00  0.00     0.049 A 
ATOM     37  N   UNL A   1      42.858  26.369  28.000  1.00  0.00    -0.248 NA
ATOM     38  C   UNL A   1      40.612  25.892  28.428  1.00  0.00     0.031 C 
ATOM     39  C   UNL A   1      42.116  30.614  29.239  1.00  0.00     0.029 A 
ATOM     40  N   UNL A   1      43.660  29.161  28.524  1.00  0.00    -0.354 N 
ATOM     41  C   UNL A   1      42.605  25.034  27.709  1.00  0.00     0.074 A 
ATOM     42  C   UNL A   1      41.215  24.785  28.021  1.00  0.00     0.031 C 
ATOM     43  C   UNL A   1      43.277  31.282  29.119  1.00  0.00     0.029 A 
ATOM     44  C   UNL A   1      44.317  30.357  28.672  1.00  0.00     0.049 A 
ATOM     45  H   UNL A   1      44.102  28.339  28.209  1.00  0.00     0.167 HD
ATOM     46  C   UNL A   1      43.453  24.103  27.211  1.00  0.00     0.037 A 
ATOM     47  C   UNL A   1      45.613  30.663  28.474  1.00  0.00     0.037 A 
ATOM     48  C   UNL A   1      44.835  24.355  26.905  1.00  0.00     0.049 A 
ATOM     49  C   UNL A   1      46.550  29.596  27.973  1.00  0.00     0.074 A 
ATOM     50  C   UNL A   1      45.779  23.488  26.386  1.00  0.00     0.029 A 
ATOM     51  N   UNL A   1      45.472  25.573  27.101  1.00  0.00    -0.354 N 
ATOM     52  N   UNL A   1      46.292  28.347  27.668  1.00  0.00    -0.248 NA
ATOM     53  C   UNL A   1      47.955  29.984  27.782  1.00  0.00     0.031 C 
ATOM     54  C   UNL A   1      46.998  24.169  26.306  1.00  0.00     0.029 A 
ATOM     55  C   UNL A   1      46.803  25.472  26.733  1.00  0.00     0.049 A 
ATOM     56  H   UNL A   1      45.042  26.386  27.448  1.00  0.00     0.167 HD
ATOM     57  C   UNL A   1      47.494  27.806  27.227  1.00  0.00     0.074 A 
ATOM     58  C   UNL A   1      48.478  28.868  27.292  1.00  0.00     0.031 C 
ATOM     59  C   UNL A   1      47.761  26.546  26.805  1.00  0.00     0.037 A 
BRANCH  46  60
ATOM     60  C   UNL A   1      42.908  22.723  26.991  1.00  0.00     0.057 A 
ATOM     61  C   UNL A   1      42.658  21.849  28.057  1.00  0.00     0.134 A 
ATOM     62  C   UNL A   1      42.616  22.266  25.699  1.00  0.00     0.134 A 
ATOM     63  F   UNL A   1      42.932  22.219  29.318  1.00  0.00    -0.206 F 
ATOM     64  C   UNL A   1      42.159  20.562  27.844  1.00  0.00     0.040 A 
ATOM     65  C   UNL A   1      42.095  20.991  25.477  1.00  0.00     0.040 A 
ATOM     66  F   UNL A   1      42.831  23.053  24.635  1.00  0.00    -0.206 F 
ATOM     67  C   UNL A   1      41.870  20.132  26.550  1.00  0.00     0.006 A 
ENDBRANCH  46  60
BRANCH  47  68
ATOM     68  C   UNL A   1      46.099  32.039  28.744  1.00  0.00     0.057 A 
ATOM     69  C   UNL A   1      46.070  33.030  27.756  1.00  0.00     0.134 A 
ATOM     70  C   UNL A   1      46.613  32.394  29.997  1.00  0.00     0.134 A 
ATOM     71  F   UNL A   1      45.609  32.746  26.529  1.00  0.00    -0.206 F 
ATOM     72  C   UNL A   1      46.544  34.320  28.000  1.00  0.00     0.040 A 
ATOM     73  C   UNL A   1      47.070  33.686  30.263  1.00  0.00     0.040 A 
ATOM     74  F   UNL A   1      46.666  31.491  30.988  1.00  0.00    -0.206 F 
ATOM     75  C   UNL A   1      47.042  34.652  29.259  1.00  0.00     0.006 A 
ENDBRANCH  47  68
BRANCH  59  76
ATOM     76  C   UNL A   1      49.163  26.256  26.359  1.00  0.00     0.057 A 
ATOM     77  C   UNL A   1      49.630  26.640  25.096  1.00  0.00     0.134 A 
ATOM     78  C   UNL A   1      50.069  25.627  27.223  1.00  0.00     0.134 A 
ATOM     79  F   UNL A   1      48.807  27.236  24.221  1.00  0.00    -0.206 F 
ATOM     80  C   UNL A   1      50.944  26.389  24.700  1.00  0.00     0.040 A 
ATOM     81  C   UNL A   1      51.391  25.393  26.846  1.00  0.00     0.040 A 
ATOM     82  F   UNL A   1      49.687  25.243  28.450  1.00  0.00    -0.206 F 
ATOM     83  C   UNL A   1      51.831  25.771  25.578  1.00  0.00     0.006 A 
ENDBRANCH  59  76
ENDBRANCH  33  34
ENDBRANCH  26  28
ENDBRANCH  25  26
ENDBRANCH  24  25
ENDBRANCH  23  24
ENDBRANCH   1  23
TORSDOF 16
ENDMDL
MODEL 3
REMARK VINA RESULT:     -10.8      0.473      6.362
REMARK SMILES Cn1ccc(NC(=O)[C@@H]2CCCC[C@@H]2C(=O)OCCOCCOC(=O)c2ccc(-c3c4nc(c(-c5c(F)cccc5F)c5ccc([nH]5)c(-c5c(F)cccc5F)c5nc(c(-c6c(F)cccc6F)c6ccc3[nH]6)C=C5)C=C4)cc2)n1
REMARK SMILES IDX 20 1 19 2 18 3 17 4 15 5 16 6 14 7 9 8 10 9 11 10 13 11
REMARK SMILES IDX 12 12 7 13 6 14 8 16 5 17 1 18 2 19 3 20 80 21 4 22 21 23
REMARK SMILES IDX 22 24 23 25 24 26 25 27 26 28 27 29 79 30 28 31 78 32 29 33
REMARK SMILES IDX 30 34 31 35 72 36 32 37 77 38 71 39 73 40 33 41 76 42 70 43
REMARK SMILES IDX 69 44 34 46 60 47 43 48 59 49 44 50 47 51 58 52 74 53 45 54
REMARK SMILES IDX 46 55 57 57 75 58 48 59 35 60 36 61 41 62 37 63 38 64 40 65
REMARK SMILES IDX 42 66 39 67 61 68 62 69 67 70 63 71 64 72 66 73 68 74 65 75
REMARK SMILES IDX 49 76 50 77 55 78 51 79 52 80 54 81 56 82 53 83
REMARK H PARENT 6 15 73 45 47 56
REMARK Flexibility Score: inf
ROOT
ATOM      1  O   UNL A   1      32.217  30.814  27.295  1.00  0.00    -0.374 OA
ENDROOT
BRANCH   1   2
ATOM      2  C   UNL A   1      33.449  30.406  26.701  1.00  0.00     0.202 C 
BRANCH   2   3
ATOM      3  C   UNL A   1      33.624  28.906  26.450  1.00  0.00     0.261 C 
BRANCH   3   4
ATOM      4  O   UNL A   1      33.403  28.542  25.077  1.00  0.00    -0.463 OA
BRANCH   4   5
ATOM      5  C   UNL A   1      32.106  28.511  24.684  1.00  0.00     0.309 C 
ATOM      6  O   UNL A   1      31.167  28.331  25.453  1.00  0.00    -0.252 OA
BRANCH   5   7
ATOM      7  C   UNL A   1      31.926  28.589  23.171  1.00  0.00     0.111 C 
ATOM      8  C   UNL A   1      30.832  27.739  22.459  1.00  0.00     0.093 C 
ATOM      9  C   UNL A   1      31.313  26.301  22.132  1.00  0.00     0.014 C 
ATOM     10  C   UNL A   1      32.701  26.228  21.511  1.00  0.00     0.001 C 
ATOM     11  C   UNL A   1      33.290  28.445  22.469  1.00  0.00     0.016 C 
ATOM     12  C   UNL A   1      33.719  26.993  22.335  1.00  0.00     0.001 C 
BRANCH   8  13
ATOM     13  C   UNL A   1      29.449  27.646  23.140  1.00  0.00     0.229 C 
ATOM     14  N   UNL A   1      28.576  28.690  23.183  1.00  0.00    -0.309 N 
ATOM     15  H   UNL A   1      27.740  28.521  23.676  1.00  0.00     0.171 HD
ATOM     16  O   UNL A   1      29.083  26.602  23.697  1.00  0.00    -0.274 OA
BRANCH  14  17
ATOM     17  C   UNL A   1      28.693  29.941  22.640  1.00  0.00     0.154 A 
ATOM     18  C   UNL A   1      28.934  33.367  23.066  1.00  0.00     0.173 C 
ATOM     19  N   UNL A   1      28.864  32.040  22.502  1.00  0.00    -0.274 N 
ATOM     20  C   UNL A   1      28.333  31.670  21.304  1.00  0.00     0.110 A 
ATOM     21  N   UNL A   1      29.201  30.996  23.271  1.00  0.00    -0.155 NA
ATOM     22  C   UNL A   1      28.248  30.296  21.346  1.00  0.00     0.068 A 
ENDBRANCH  14  17
ENDBRANCH   8  13
ENDBRANCH   5   7
ENDBRANCH   4   5
ENDBRANCH   3   4
ENDBRANCH   2   3
ENDBRANCH   1   2
BRANCH   1  23
ATOM     23  C   UNL A   1      31.605  31.981  26.745  1.00  0.00     0.202 C 
BRANCH  23  24
ATOM     24  C   UNL A   1      32.409  33.281  26.847  1.00  0.00     0.261 C 
BRANCH  24  25
ATOM     25  O   UNL A   1      32.218  33.922  28.117  1.00  0.00    -0.460 OA
BRANCH  25  26
ATOM     26  C   UNL A   1      33.245  34.705  28.515  1.00  0.00     0.338 C 
ATOM     27  O   UNL A   1      33.223  35.906  28.720  1.00  0.00    -0.246 OA
BRANCH  26  28
ATOM     28  C   UNL A   1      34.419  33.870  28.846  1.00  0.00     0.060 A 
ATOM     29  C   UNL A   1      34.170  32.673  29.528  1.00  0.00     0.016 A 
ATOM     30  C   UNL A   1      35.728  34.263  28.555  1.00  0.00     0.016 A 
ATOM     31  C   UNL A   1      35.230  31.905  29.997  1.00  0.00     0.010 A 
ATOM     32  C   UNL A   1      36.795  33.494  29.033  1.00  0.00     0.010 A 
ATOM     33  C   UNL A   1      36.547  32.340  29.796  1.00  0.00    -0.014 A 
BRANCH  33  34
ATOM     34  C   UNL A   1      37.636  31.675  30.547  1.00  0.00     0.031 A 
ATOM     35  C   UNL A   1      38.473  30.646  29.839  1.00  0.00     0.074 A 
ATOM     36  C   UNL A   1      37.913  32.029  31.813  1.00  0.00     0.049 A 
ATOM     37  N   UNL A   1      39.505  29.971  30.275  1.00  0.00    -0.248 NA
ATOM     38  C   UNL A   1      38.096  30.337  28.448  1.00  0.00     0.031 C 
ATOM     39  C   UNL A   1      37.188  33.038  32.584  1.00  0.00     0.029 A 
ATOM     40  N   UNL A   1      38.886  31.584  32.668  1.00  0.00    -0.354 N 
ATOM     41  C   UNL A   1      39.902  29.165  29.215  1.00  0.00     0.074 A 
ATOM     42  C   UNL A   1      38.980  29.406  28.127  1.00  0.00     0.031 C 
ATOM     43  C   UNL A   1      37.742  33.132  33.805  1.00  0.00     0.029 A 
ATOM     44  C   UNL A   1      38.846  32.179  33.904  1.00  0.00     0.049 A 
ATOM     45  H   UNL A   1      39.551  30.900  32.421  1.00  0.00     0.167 HD
ATOM     46  C   UNL A   1      40.950  28.310  29.151  1.00  0.00     0.037 A 
ATOM     47  C   UNL A   1      39.612  31.970  34.991  1.00  0.00     0.037 A 
ATOM     48  C   UNL A   1      41.862  28.072  30.237  1.00  0.00     0.049 A 
ATOM     49  C   UNL A   1      40.738  30.974  34.914  1.00  0.00     0.074 A 
ATOM     50  C   UNL A   1      42.964  27.238  30.275  1.00  0.00     0.029 A 
ATOM     51  N   UNL A   1      41.767  28.671  31.486  1.00  0.00    -0.354 N 
ATOM     52  N   UNL A   1      41.125  30.242  33.897  1.00  0.00    -0.248 NA
ATOM     53  C   UNL A   1      41.537  30.779  36.132  1.00  0.00     0.031 C 
ATOM     54  C   UNL A   1      43.513  27.300  31.560  1.00  0.00     0.029 A 
ATOM     55  C   UNL A   1      42.779  28.206  32.309  1.00  0.00     0.049 A 
ATOM     56  H   UNL A   1      41.083  29.328  31.747  1.00  0.00     0.167 HD
ATOM     57  C   UNL A   1      42.226  29.520  34.342  1.00  0.00     0.074 A 
ATOM     58  C   UNL A   1      42.451  29.912  35.719  1.00  0.00     0.031 C 
ATOM     59  C   UNL A   1      42.983  28.615  33.675  1.00  0.00     0.037 A 
BRANCH  46  60
ATOM     60  C   UNL A   1      41.148  27.557  27.869  1.00  0.00     0.057 A 
ATOM     61  C   UNL A   1      40.559  26.305  27.650  1.00  0.00     0.134 A 
ATOM     62  C   UNL A   1      41.924  28.095  26.835  1.00  0.00     0.134 A 
ATOM     63  F   UNL A   1      39.816  25.726  28.607  1.00  0.00    -0.206 F 
ATOM     64  C   UNL A   1      40.753  25.605  26.457  1.00  0.00     0.040 A 
ATOM     65  C   UNL A   1      42.106  27.416  25.630  1.00  0.00     0.040 A 
ATOM     66  F   UNL A   1      42.515  29.291  26.979  1.00  0.00    -0.206 F 
ATOM     67  C   UNL A   1      41.525  26.164  25.440  1.00  0.00     0.006 A 
ENDBRANCH  46  60
BRANCH  47  68
ATOM     68  C   UNL A   1      39.344  32.721  36.243  1.00  0.00     0.057 A 
ATOM     69  C   UNL A   1      40.003  33.922  36.527  1.00  0.00     0.134 A 
ATOM     70  C   UNL A   1      38.426  32.251  37.190  1.00  0.00     0.134 A 
ATOM     71  F   UNL A   1      40.910  34.414  35.670  1.00  0.00    -0.206 F 
ATOM     72  C   UNL A   1      39.768  34.622  37.713  1.00  0.00     0.040 A 
ATOM     73  C   UNL A   1      38.165  32.950  38.369  1.00  0.00     0.040 A 
ATOM     74  F   UNL A   1      37.759  31.106  36.975  1.00  0.00    -0.206 F 
ATOM     75  C   UNL A   1      38.842  34.138  38.635  1.00  0.00     0.006 A 
ENDBRANCH  47  68
BRANCH  59  76
ATOM     76  C   UNL A   1      44.136  28.008  34.416  1.00  0.00     0.057 A 
ATOM     77  C   UNL A   1      45.381  28.645  34.492  1.00  0.00     0.134 A 
ATOM     78  C   UNL A   1      43.984  26.795  35.101  1.00  0.00     0.134 A 
ATOM     79  F   UNL A   1      45.592  29.802  33.848  1.00  0.00    -0.206 F 
ATOM     80  C   UNL A   1      46.442  28.085  35.206  1.00  0.00     0.040 A 
ATOM     81  C   UNL A   1      45.030  26.239  35.837  1.00  0.00     0.040 A 
ATOM     82  F   UNL A   1      42.813  26.141  35.076  1.00  0.00    -0.206 F 
ATOM     83  C   UNL A   1      46.265  26.882  35.887  1.00  0.00     0.006 A 
ENDBRANCH  59  76
ENDBRANCH  33  34
ENDBRANCH  26  28
ENDBRANCH  25  26
ENDBRANCH  24  25
ENDBRANCH  23  24
ENDBRANCH   1  23
TORSDOF 16
ENDMDL
