MODEL 1
REMARK VINA RESULT:      -9.7      0.000      0.000
REMARK SMILES C[C@H](C(=O)OCCOCCOC(=O)c1ccc(-c2c3nc(c(-c4c(F)cccc4F)c4ccc([nH]4)c(-c4c(F)cccc4F)c4nc(c(-c5c(F)cccc5F)c5ccc2[nH]5)C=C4)C=C3)cc1)[C@H](C)[S@@](=O)C(C)(C)C
REMARK SMILES IDX 7 1 6 2 5 3 3 4 4 5 2 6 1 7 68 8 69 9 70 10 71 11 72 12
REMARK SMILES IDX 73 13 74 14 75 15 8 16 9 17 10 18 11 19 12 20 13 21 14 22
REMARK SMILES IDX 15 23 67 24 16 25 66 26 17 27 18 28 19 29 60 30 20 31 65 32
REMARK SMILES IDX 59 33 61 34 21 35 64 36 58 37 57 38 22 40 48 41 31 42 47 43
REMARK SMILES IDX 32 44 35 45 46 46 62 47 33 48 34 49 45 51 63 52 36 53 23 54
REMARK SMILES IDX 24 55 29 56 25 57 26 58 28 59 30 60 27 61 49 62 50 63 55 64
REMARK SMILES IDX 51 65 52 66 54 67 56 68 53 69 37 70 38 71 43 72 39 73 40 74
REMARK SMILES IDX 42 75 44 76 41 77
REMARK H PARENT 61 39 35 50
REMARK Flexibility Score: inf
ROOT
ATOM      1  C   UNL A   1      40.630  20.190  26.297  1.00  0.00     0.202 C 
ENDROOT
BRANCH   1   2
ATOM      2  C   UNL A   1      39.711  21.357  25.956  1.00  0.00     0.261 C 
BRANCH   2   3
ATOM      3  O   UNL A   1      38.357  20.906  25.784  1.00  0.00    -0.463 OA
BRANCH   3   4
ATOM      4  C   UNL A   1      37.549  21.720  25.081  1.00  0.00     0.309 C 
ATOM      5  O   UNL A   1      37.458  21.724  23.856  1.00  0.00    -0.252 OA
BRANCH   4   6
ATOM      6  C   UNL A   1      36.680  22.619  25.936  1.00  0.00     0.111 C 
ATOM      7  C   UNL A   1      37.318  24.021  25.873  1.00  0.00     0.021 C 
BRANCH   6   8
ATOM      8  C   UNL A   1      35.159  22.711  25.717  1.00  0.00     0.090 C 
ATOM      9  C   UNL A   1      34.623  24.061  26.222  1.00  0.00     0.023 C 
BRANCH   8  10
ATOM     10  S   UNL A   1      34.023  21.382  26.189  1.00  0.00     0.030 S 
ATOM     11  O   UNL A   1      33.404  21.673  27.519  1.00  0.00    -0.259 OA
BRANCH  10  12
ATOM     12  C   UNL A   1      32.723  21.144  24.928  1.00  0.00     0.038 C 
ATOM     13  C   UNL A   1      33.008  21.818  23.593  1.00  0.00     0.025 C 
ATOM     14  C   UNL A   1      32.423  19.661  24.709  1.00  0.00     0.025 C 
ATOM     15  C   UNL A   1      31.452  21.805  25.514  1.00  0.00     0.025 C 
ENDBRANCH  10  12
ENDBRANCH   8  10
ENDBRANCH   6   8
ENDBRANCH   4   6
ENDBRANCH   3   4
ENDBRANCH   2   3
ENDBRANCH   1   2
BRANCH   1  16
ATOM     16  O   UNL A   1      41.701  19.959  25.380  1.00  0.00    -0.374 OA
BRANCH  16  17
ATOM     17  C   UNL A   1      43.025  20.189  25.858  1.00  0.00     0.202 C 
BRANCH  17  18
ATOM     18  C   UNL A   1      43.446  21.653  26.041  1.00  0.00     0.261 C 
BRANCH  18  19
ATOM     19  O   UNL A   1      42.956  22.534  25.016  1.00  0.00    -0.460 OA
BRANCH  19  20
ATOM     20  C   UNL A   1      43.584  23.730  24.957  1.00  0.00     0.338 C 
ATOM     21  O   UNL A   1      44.549  24.026  24.255  1.00  0.00    -0.246 OA
BRANCH  20  22
ATOM     22  C   UNL A   1      42.897  24.739  25.781  1.00  0.00     0.060 A 
ATOM     23  C   UNL A   1      43.538  25.971  25.967  1.00  0.00     0.016 A 
ATOM     24  C   UNL A   1      41.721  24.441  26.473  1.00  0.00     0.016 A 
ATOM     25  C   UNL A   1      43.038  26.887  26.890  1.00  0.00     0.010 A 
ATOM     26  C   UNL A   1      41.226  25.357  27.409  1.00  0.00     0.010 A 
ATOM     27  C   UNL A   1      41.906  26.564  27.651  1.00  0.00    -0.014 A 
BRANCH  27  28
ATOM     28  C   UNL A   1      41.536  27.422  28.802  1.00  0.00     0.031 A 
ATOM     29  C   UNL A   1      42.340  27.333  30.069  1.00  0.00     0.074 A 
ATOM     30  C   UNL A   1      40.519  28.297  28.710  1.00  0.00     0.049 A 
ATOM     31  N   UNL A   1      42.187  27.976  31.199  1.00  0.00    -0.248 NA
ATOM     32  C   UNL A   1      43.472  26.392  30.062  1.00  0.00     0.031 C 
ATOM     33  C   UNL A   1      39.687  28.503  27.527  1.00  0.00     0.029 A 
ATOM     34  N   UNL A   1      40.015  29.174  29.638  1.00  0.00    -0.354 N 
ATOM     35  C   UNL A   1      43.199  27.519  32.034  1.00  0.00     0.074 A 
ATOM     36  C   UNL A   1      43.944  26.524  31.293  1.00  0.00     0.031 C 
ATOM     37  C   UNL A   1      38.765  29.442  27.804  1.00  0.00     0.029 A 
ATOM     38  C   UNL A   1      38.929  29.882  29.189  1.00  0.00     0.049 A 
ATOM     39  H   UNL A   1      40.396  29.285  30.538  1.00  0.00     0.167 HD
ATOM     40  C   UNL A   1      43.489  27.900  33.301  1.00  0.00     0.037 A 
ATOM     41  C   UNL A   1      38.144  30.770  29.830  1.00  0.00     0.037 A 
ATOM     42  C   UNL A   1      42.749  28.886  34.043  1.00  0.00     0.049 A 
ATOM     43  C   UNL A   1      38.446  31.131  31.260  1.00  0.00     0.074 A 
ATOM     44  C   UNL A   1      42.970  29.347  35.329  1.00  0.00     0.029 A 
ATOM     45  N   UNL A   1      41.636  29.561  33.563  1.00  0.00    -0.354 N 
ATOM     46  N   UNL A   1      39.416  30.708  32.034  1.00  0.00    -0.248 NA
ATOM     47  C   UNL A   1      37.544  32.096  31.905  1.00  0.00     0.031 C 
ATOM     48  C   UNL A   1      41.968  30.272  35.641  1.00  0.00     0.029 A 
ATOM     49  C   UNL A   1      41.147  30.417  34.534  1.00  0.00     0.049 A 
ATOM     50  H   UNL A   1      41.250  29.447  32.664  1.00  0.00     0.167 HD
ATOM     51  C   UNL A   1      39.256  31.369  33.245  1.00  0.00     0.074 A 
ATOM     52  C   UNL A   1      38.101  32.231  33.101  1.00  0.00     0.031 C 
ATOM     53  C   UNL A   1      39.998  31.271  34.375  1.00  0.00     0.037 A 
BRANCH  40  54
ATOM     54  C   UNL A   1      44.649  27.228  33.972  1.00  0.00     0.057 A 
ATOM     55  C   UNL A   1      44.499  26.025  34.675  1.00  0.00     0.134 A 
ATOM     56  C   UNL A   1      45.935  27.777  33.896  1.00  0.00     0.134 A 
ATOM     57  F   UNL A   1      43.291  25.455  34.795  1.00  0.00    -0.206 F 
ATOM     58  C   UNL A   1      45.585  25.404  35.296  1.00  0.00     0.040 A 
ATOM     59  C   UNL A   1      47.031  27.154  34.494  1.00  0.00     0.040 A 
ATOM     60  F   UNL A   1      46.147  28.925  33.234  1.00  0.00    -0.206 F 
ATOM     61  C   UNL A   1      46.856  25.966  35.201  1.00  0.00     0.006 A 
ENDBRANCH  40  54
BRANCH  41  62
ATOM     62  C   UNL A   1      36.985  31.372  29.128  1.00  0.00     0.057 A 
ATOM     63  C   UNL A   1      35.817  30.640  28.893  1.00  0.00     0.134 A 
ATOM     64  C   UNL A   1      37.026  32.693  28.664  1.00  0.00     0.134 A 
ATOM     65  F   UNL A   1      35.729  29.363  29.291  1.00  0.00    -0.206 F 
ATOM     66  C   UNL A   1      34.733  31.195  28.211  1.00  0.00     0.040 A 
ATOM     67  C   UNL A   1      35.941  33.268  28.000  1.00  0.00     0.040 A 
ATOM     68  F   UNL A   1      38.119  33.445  28.856  1.00  0.00    -0.206 F 
ATOM     69  C   UNL A   1      34.791  32.515  27.767  1.00  0.00     0.006 A 
ENDBRANCH  41  62
BRANCH  53  70
ATOM     70  C   UNL A   1      39.603  32.136  35.534  1.00  0.00     0.057 A 
ATOM     71  C   UNL A   1      40.142  33.416  35.716  1.00  0.00     0.134 A 
ATOM     72  C   UNL A   1      38.640  31.702  36.454  1.00  0.00     0.134 A 
ATOM     73  F   UNL A   1      41.077  33.885  34.876  1.00  0.00    -0.206 F 
ATOM     74  C   UNL A   1      39.752  34.227  36.784  1.00  0.00     0.040 A 
ATOM     75  C   UNL A   1      38.225  32.511  37.513  1.00  0.00     0.040 A 
ATOM     76  F   UNL A   1      38.078  30.490  36.331  1.00  0.00    -0.206 F 
ATOM     77  C   UNL A   1      38.785  33.776  37.681  1.00  0.00     0.006 A 
ENDBRANCH  53  70
ENDBRANCH  27  28
ENDBRANCH  20  22
ENDBRANCH  19  20
ENDBRANCH  18  19
ENDBRANCH  17  18
ENDBRANCH  16  17
ENDBRANCH   1  16
TORSDOF 17
ENDMDL
MODEL 2
REMARK VINA RESULT:      -9.6      1.086      2.047
REMARK SMILES C[C@H](C(=O)OCCOCCOC(=O)c1ccc(-c2c3nc(c(-c4c(F)cccc4F)c4ccc([nH]4)c(-c4c(F)cccc4F)c4nc(c(-c5c(F)cccc5F)c5ccc2[nH]5)C=C4)C=C3)cc1)[C@H](C)[S@@](=O)C(C)(C)C
REMARK SMILES IDX 7 1 6 2 5 3 3 4 4 5 2 6 1 7 68 8 69 9 70 10 71 11 72 12
REMARK SMILES IDX 73 13 74 14 75 15 8 16 9 17 10 18 11 19 12 20 13 21 14 22
REMARK SMILES IDX 15 23 67 24 16 25 66 26 17 27 18 28 19 29 60 30 20 31 65 32
REMARK SMILES IDX 59 33 61 34 21 35 64 36 58 37 57 38 22 40 48 41 31 42 47 43
REMARK SMILES IDX 32 44 35 45 46 46 62 47 33 48 34 49 45 51 63 52 36 53 23 54
REMARK SMILES IDX 24 55 29 56 25 57 26 58 28 59 30 60 27 61 49 62 50 63 55 64
REMARK SMILES IDX 51 65 52 66 54 67 56 68 53 69 37 70 38 71 43 72 39 73 40 74
REMARK SMILES IDX 42 75 44 76 41 77
REMARK H PARENT 61 39 35 50
REMARK Flexibility Score: inf
ROOT
ATOM      1  C   UNL A   1      39.718  21.189  26.140  1.00  0.00     0.202 C 
ENDROOT
BRANCH   1   2
ATOM      2  C   UNL A   1      38.812  22.329  25.690  1.00  0.00     0.261 C 
BRANCH   2   3
ATOM      3  O   UNL A   1      37.505  22.201  26.274  1.00  0.00    -0.463 OA
BRANCH   3   4
ATOM      4  C   UNL A   1      36.501  21.932  25.419  1.00  0.00     0.309 C 
ATOM      5  O   UNL A   1      36.268  20.825  24.943  1.00  0.00    -0.252 OA
BRANCH   4   6
ATOM      6  C   UNL A   1      35.605  23.118  25.124  1.00  0.00     0.111 C 
ATOM      7  C   UNL A   1      35.088  22.918  23.685  1.00  0.00     0.021 C 
BRANCH   6   8
ATOM      8  C   UNL A   1      34.447  23.504  26.062  1.00  0.00     0.090 C 
ATOM      9  C   UNL A   1      34.300  22.467  27.189  1.00  0.00     0.023 C 
BRANCH   8  10
ATOM     10  S   UNL A   1      32.813  23.982  25.448  1.00  0.00     0.030 S 
ATOM     11  O   UNL A   1      31.752  23.594  26.428  1.00  0.00    -0.259 OA
BRANCH  10  12
ATOM     12  C   UNL A   1      32.732  25.776  25.110  1.00  0.00     0.038 C 
ATOM     13  C   UNL A   1      31.406  26.428  25.473  1.00  0.00     0.025 C 
ATOM     14  C   UNL A   1      33.882  26.523  25.785  1.00  0.00     0.025 C 
ATOM     15  C   UNL A   1      32.909  25.916  23.577  1.00  0.00     0.025 C 
ENDBRANCH  10  12
ENDBRANCH   8  10
ENDBRANCH   6   8
ENDBRANCH   4   6
ENDBRANCH   3   4
ENDBRANCH   2   3
ENDBRANCH   1   2
BRANCH   1  16
ATOM     16  O   UNL A   1      40.997  21.580  26.643  1.00  0.00    -0.374 OA
BRANCH  16  17
ATOM     17  C   UNL A   1      42.132  20.873  26.149  1.00  0.00     0.202 C 
BRANCH  17  18
ATOM     18  C   UNL A   1      43.258  21.720  25.539  1.00  0.00     0.261 C 
BRANCH  18  19
ATOM     19  O   UNL A   1      42.796  22.874  24.818  1.00  0.00    -0.460 OA
BRANCH  19  20
ATOM     20  C   UNL A   1      43.550  23.983  24.993  1.00  0.00     0.338 C 
ATOM     21  O   UNL A   1      44.644  24.222  24.485  1.00  0.00    -0.246 OA
BRANCH  20  22
ATOM     22  C   UNL A   1      42.850  24.987  25.811  1.00  0.00     0.060 A 
ATOM     23  C   UNL A   1      43.501  26.206  26.041  1.00  0.00     0.016 A 
ATOM     24  C   UNL A   1      41.647  24.694  26.457  1.00  0.00     0.016 A 
ATOM     25  C   UNL A   1      42.983  27.113  26.963  1.00  0.00     0.010 A 
ATOM     26  C   UNL A   1      41.133  25.601  27.393  1.00  0.00     0.010 A 
ATOM     27  C   UNL A   1      41.821  26.794  27.679  1.00  0.00    -0.014 A 
BRANCH  27  28
ATOM     28  C   UNL A   1      41.423  27.637  28.832  1.00  0.00     0.031 A 
ATOM     29  C   UNL A   1      42.210  27.545  30.111  1.00  0.00     0.074 A 
ATOM     30  C   UNL A   1      40.398  28.501  28.733  1.00  0.00     0.049 A 
ATOM     31  N   UNL A   1      42.032  28.175  31.244  1.00  0.00    -0.248 NA
ATOM     32  C   UNL A   1      43.353  26.617  30.111  1.00  0.00     0.031 C 
ATOM     33  C   UNL A   1      39.582  28.708  27.540  1.00  0.00     0.029 A 
ATOM     34  N   UNL A   1      39.870  29.363  29.661  1.00  0.00    -0.354 N 
ATOM     35  C   UNL A   1      43.037  27.723  32.089  1.00  0.00     0.074 A 
ATOM     36  C   UNL A   1      43.804  26.743  31.350  1.00  0.00     0.031 C 
ATOM     37  C   UNL A   1      38.645  29.634  27.811  1.00  0.00     0.029 A 
ATOM     38  C   UNL A   1      38.782  30.062  29.202  1.00  0.00     0.049 A 
ATOM     39  H   UNL A   1      40.237  29.469  30.568  1.00  0.00     0.167 HD
ATOM     40  C   UNL A   1      43.303  28.095  33.364  1.00  0.00     0.037 A 
ATOM     41  C   UNL A   1      37.978  30.935  29.840  1.00  0.00     0.037 A 
ATOM     42  C   UNL A   1      42.541  29.065  34.103  1.00  0.00     0.049 A 
ATOM     43  C   UNL A   1      38.254  31.286  31.277  1.00  0.00     0.074 A 
ATOM     44  C   UNL A   1      42.738  29.517  35.397  1.00  0.00     0.029 A 
ATOM     45  N   UNL A   1      41.427  29.732  33.613  1.00  0.00    -0.354 N 
ATOM     46  N   UNL A   1      39.217  30.867  32.061  1.00  0.00    -0.248 NA
ATOM     47  C   UNL A   1      37.331  32.235  31.917  1.00  0.00     0.031 C 
ATOM     48  C   UNL A   1      41.720  30.428  35.703  1.00  0.00     0.029 A 
ATOM     49  C   UNL A   1      40.914  30.574  34.585  1.00  0.00     0.049 A 
ATOM     50  H   UNL A   1      41.057  29.622  32.707  1.00  0.00     0.167 HD
ATOM     51  C   UNL A   1      39.032  31.515  33.276  1.00  0.00     0.074 A 
ATOM     52  C   UNL A   1      37.869  32.365  33.122  1.00  0.00     0.031 C 
ATOM     53  C   UNL A   1      39.758  31.415  34.416  1.00  0.00     0.037 A 
BRANCH  40  54
ATOM     54  C   UNL A   1      44.461  27.430  34.047  1.00  0.00     0.057 A 
ATOM     55  C   UNL A   1      45.748  27.983  34.022  1.00  0.00     0.134 A 
ATOM     56  C   UNL A   1      44.284  26.236  34.756  1.00  0.00     0.134 A 
ATOM     57  F   UNL A   1      45.986  29.118  33.349  1.00  0.00    -0.206 F 
ATOM     58  C   UNL A   1      46.822  27.360  34.662  1.00  0.00     0.040 A 
ATOM     59  C   UNL A   1      45.344  25.616  35.417  1.00  0.00     0.040 A 
ATOM     60  F   UNL A   1      43.075  25.656  34.822  1.00  0.00    -0.206 F 
ATOM     61  C   UNL A   1      46.619  26.175  35.366  1.00  0.00     0.006 A 
ENDBRANCH  40  54
BRANCH  41  62
ATOM     62  C   UNL A   1      36.822  31.531  29.126  1.00  0.00     0.057 A 
ATOM     63  C   UNL A   1      35.665  30.789  28.870  1.00  0.00     0.134 A 
ATOM     64  C   UNL A   1      36.856  32.855  28.671  1.00  0.00     0.134 A 
ATOM     65  F   UNL A   1      35.585  29.508  29.258  1.00  0.00    -0.206 F 
ATOM     66  C   UNL A   1      34.585  31.337  28.177  1.00  0.00     0.040 A 
ATOM     67  C   UNL A   1      35.775  33.423  27.996  1.00  0.00     0.040 A 
ATOM     68  F   UNL A   1      37.939  33.617  28.883  1.00  0.00    -0.206 F 
ATOM     69  C   UNL A   1      34.636  32.661  27.742  1.00  0.00     0.006 A 
ENDBRANCH  41  62
BRANCH  53  70
ATOM     70  C   UNL A   1      39.335  32.265  35.577  1.00  0.00     0.057 A 
ATOM     71  C   UNL A   1      38.506  31.769  36.591  1.00  0.00     0.134 A 
ATOM     72  C   UNL A   1      39.796  33.582  35.705  1.00  0.00     0.134 A 
ATOM     73  F   UNL A   1      38.021  30.519  36.521  1.00  0.00    -0.206 F 
ATOM     74  C   UNL A   1      38.136  32.557  37.682  1.00  0.00     0.040 A 
ATOM     75  C   UNL A   1      39.452  34.373  36.801  1.00  0.00     0.040 A 
ATOM     76  F   UNL A   1      40.601  34.114  34.772  1.00  0.00    -0.206 F 
ATOM     77  C   UNL A   1      38.616  33.861  37.792  1.00  0.00     0.006 A 
ENDBRANCH  53  70
ENDBRANCH  27  28
ENDBRANCH  20  22
ENDBRANCH  19  20
ENDBRANCH  18  19
ENDBRANCH  17  18
ENDBRANCH  16  17
ENDBRANCH   1  16
TORSDOF 17
ENDMDL
MODEL 3
REMARK VINA RESULT:      -9.5      3.529      8.504
REMARK SMILES C[C@H](C(=O)OCCOCCOC(=O)c1ccc(-c2c3nc(c(-c4c(F)cccc4F)c4ccc([nH]4)c(-c4c(F)cccc4F)c4nc(c(-c5c(F)cccc5F)c5ccc2[nH]5)C=C4)C=C3)cc1)[C@H](C)[S@@](=O)C(C)(C)C
REMARK SMILES IDX 7 1 6 2 5 3 3 4 4 5 2 6 1 7 68 8 69 9 70 10 71 11 72 12
REMARK SMILES IDX 73 13 74 14 75 15 8 16 9 17 10 18 11 19 12 20 13 21 14 22
REMARK SMILES IDX 15 23 67 24 16 25 66 26 17 27 18 28 19 29 60 30 20 31 65 32
REMARK SMILES IDX 59 33 61 34 21 35 64 36 58 37 57 38 22 40 48 41 31 42 47 43
REMARK SMILES IDX 32 44 35 45 46 46 62 47 33 48 34 49 45 51 63 52 36 53 23 54
REMARK SMILES IDX 24 55 29 56 25 57 26 58 28 59 30 60 27 61 49 62 50 63 55 64
REMARK SMILES IDX 51 65 52 66 54 67 56 68 53 69 37 70 38 71 43 72 39 73 40 74
REMARK SMILES IDX 42 75 44 76 41 77
REMARK H PARENT 61 39 35 50
REMARK Flexibility Score: inf
ROOT
ATOM      1  C   UNL A   1      31.849  29.364  26.471  1.00  0.00     0.202 C 
ENDROOT
BRANCH   1   2
ATOM      2  C   UNL A   1      31.307  29.433  25.048  1.00  0.00     0.261 C 
BRANCH   2   3
ATOM      3  O   UNL A   1      32.281  28.949  24.108  1.00  0.00    -0.463 OA
BRANCH   3   4
ATOM      4  C   UNL A   1      31.804  28.196  23.100  1.00  0.00     0.309 C 
ATOM      5  O   UNL A   1      30.614  28.070  22.827  1.00  0.00    -0.252 OA
BRANCH   4   6
ATOM      6  C   UNL A   1      32.877  27.543  22.254  1.00  0.00     0.111 C 
ATOM      7  C   UNL A   1      34.203  28.234  22.631  1.00  0.00     0.021 C 
BRANCH   6   8
ATOM      8  C   UNL A   1      33.058  26.014  22.226  1.00  0.00     0.090 C 
ATOM      9  C   UNL A   1      32.704  25.456  20.837  1.00  0.00     0.023 C 
BRANCH   8  10
ATOM     10  S   UNL A   1      32.392  24.929  23.513  1.00  0.00     0.030 S 
ATOM     11  O   UNL A   1      31.532  23.866  22.908  1.00  0.00    -0.259 OA
BRANCH  10  12
ATOM     12  C   UNL A   1      33.731  24.172  24.498  1.00  0.00     0.038 C 
ATOM     13  C   UNL A   1      34.633  25.170  25.210  1.00  0.00     0.025 C 
ATOM     14  C   UNL A   1      33.182  23.158  25.502  1.00  0.00     0.025 C 
ATOM     15  C   UNL A   1      34.610  23.404  23.479  1.00  0.00     0.025 C 
ENDBRANCH  10  12
ENDBRANCH   8  10
ENDBRANCH   6   8
ENDBRANCH   4   6
ENDBRANCH   3   4
ENDBRANCH   2   3
ENDBRANCH   1   2
BRANCH   1  16
ATOM     16  O   UNL A   1      31.952  30.615  27.153  1.00  0.00    -0.374 OA
BRANCH  16  17
ATOM     17  C   UNL A   1      31.333  31.742  26.537  1.00  0.00     0.202 C 
BRANCH  17  18
ATOM     18  C   UNL A   1      32.037  33.095  26.712  1.00  0.00     0.261 C 
BRANCH  18  19
ATOM     19  O   UNL A   1      32.212  33.489  28.083  1.00  0.00    -0.460 OA
BRANCH  19  20
ATOM     20  C   UNL A   1      33.300  34.259  28.310  1.00  0.00     0.338 C 
ATOM     21  O   UNL A   1      33.329  35.483  28.431  1.00  0.00    -0.246 OA
BRANCH  20  22
ATOM     22  C   UNL A   1      34.505  33.440  28.520  1.00  0.00     0.060 A 
ATOM     23  C   UNL A   1      34.329  32.137  29.003  1.00  0.00     0.016 A 
ATOM     24  C   UNL A   1      35.788  33.976  28.384  1.00  0.00     0.016 A 
ATOM     25  C   UNL A   1      35.431  31.386  29.409  1.00  0.00     0.010 A 
ATOM     26  C   UNL A   1      36.893  33.226  28.802  1.00  0.00     0.010 A 
ATOM     27  C   UNL A   1      36.714  31.945  29.354  1.00  0.00    -0.014 A 
BRANCH  27  28
ATOM     28  C   UNL A   1      37.840  31.246  30.021  1.00  0.00     0.031 A 
ATOM     29  C   UNL A   1      38.130  31.542  31.467  1.00  0.00     0.074 A 
ATOM     30  C   UNL A   1      38.572  30.333  29.361  1.00  0.00     0.049 A 
ATOM     31  N   UNL A   1      39.068  31.062  32.242  1.00  0.00    -0.248 NA
ATOM     32  C   UNL A   1      37.241  32.511  32.128  1.00  0.00     0.031 C 
ATOM     33  C   UNL A   1      38.368  29.932  27.971  1.00  0.00     0.029 A 
ATOM     34  N   UNL A   1      39.641  29.579  29.779  1.00  0.00    -0.354 N 
ATOM     35  C   UNL A   1      38.883  31.667  33.479  1.00  0.00     0.074 A 
ATOM     36  C   UNL A   1      37.762  32.572  33.345  1.00  0.00     0.031 C 
ATOM     37  C   UNL A   1      39.292  29.010  27.646  1.00  0.00     0.029 A 
ATOM     38  C   UNL A   1      40.164  28.778  28.796  1.00  0.00     0.049 A 
ATOM     39  H   UNL A   1      39.996  29.611  30.696  1.00  0.00     0.167 HD
ATOM     40  C   UNL A   1      39.578  31.480  34.626  1.00  0.00     0.037 A 
ATOM     41  C   UNL A   1      41.237  27.963  28.819  1.00  0.00     0.037 A 
ATOM     42  C   UNL A   1      40.696  30.584  34.763  1.00  0.00     0.049 A 
ATOM     43  C   UNL A   1      42.034  27.820  30.087  1.00  0.00     0.074 A 
ATOM     44  C   UNL A   1      41.459  30.319  35.887  1.00  0.00     0.029 A 
ATOM     45  N   UNL A   1      41.215  29.810  33.735  1.00  0.00    -0.354 N 
ATOM     46  N   UNL A   1      41.840  28.382  31.255  1.00  0.00    -0.248 NA
ATOM     47  C   UNL A   1      43.200  26.925  30.040  1.00  0.00     0.031 C 
ATOM     48  C   UNL A   1      42.464  29.413  35.529  1.00  0.00     0.029 A 
ATOM     49  C   UNL A   1      42.301  29.084  34.193  1.00  0.00     0.049 A 
ATOM     50  H   UNL A   1      40.862  29.782  32.816  1.00  0.00     0.167 HD
ATOM     51  C   UNL A   1      42.840  27.894  32.086  1.00  0.00     0.074 A 
ATOM     52  C   UNL A   1      43.635  26.981  31.291  1.00  0.00     0.031 C 
ATOM     53  C   UNL A   1      43.080  28.177  33.390  1.00  0.00     0.037 A 
BRANCH  40  54
ATOM     54  C   UNL A   1      39.158  32.280  35.822  1.00  0.00     0.057 A 
ATOM     55  C   UNL A   1      39.623  33.584  36.039  1.00  0.00     0.134 A 
ATOM     56  C   UNL A   1      38.259  31.751  36.757  1.00  0.00     0.134 A 
ATOM     57  F   UNL A   1      40.495  34.144  35.187  1.00  0.00    -0.206 F 
ATOM     58  C   UNL A   1      39.225  34.325  37.154  1.00  0.00     0.040 A 
ATOM     59  C   UNL A   1      37.838  32.489  37.864  1.00  0.00     0.040 A 
ATOM     60  F   UNL A   1      37.773  30.509  36.606  1.00  0.00    -0.206 F 
ATOM     61  C   UNL A   1      38.326  33.778  38.067  1.00  0.00     0.006 A 
ENDBRANCH  40  54
BRANCH  41  62
ATOM     62  C   UNL A   1      41.630  27.227  27.592  1.00  0.00     0.057 A 
ATOM     63  C   UNL A   1      41.221  25.908  27.373  1.00  0.00     0.134 A 
ATOM     64  C   UNL A   1      42.438  27.824  26.618  1.00  0.00     0.134 A 
ATOM     65  F   UNL A   1      40.468  25.275  28.284  1.00  0.00    -0.206 F 
ATOM     66  C   UNL A   1      41.609  25.203  26.233  1.00  0.00     0.040 A 
ATOM     67  C   UNL A   1      42.817  27.139  25.462  1.00  0.00     0.040 A 
ATOM     68  F   UNL A   1      42.865  29.086  26.771  1.00  0.00    -0.206 F 
ATOM     69  C   UNL A   1      42.406  25.821  25.270  1.00  0.00     0.006 A 
ENDBRANCH  41  62
BRANCH  53  70
ATOM     70  C   UNL A   1      44.229  27.472  34.046  1.00  0.00     0.057 A 
ATOM     71  C   UNL A   1      45.509  28.039  34.100  1.00  0.00     0.134 A 
ATOM     72  C   UNL A   1      44.045  26.230  34.669  1.00  0.00     0.134 A 
ATOM     73  F   UNL A   1      45.753  29.220  33.512  1.00  0.00    -0.206 F 
ATOM     74  C   UNL A   1      46.569  27.389  34.734  1.00  0.00     0.040 A 
ATOM     75  C   UNL A   1      45.091  25.581  35.325  1.00  0.00     0.040 A 
ATOM     76  F   UNL A   1      42.841  25.637  34.661  1.00  0.00    -0.206 F 
ATOM     77  C   UNL A   1      46.358  26.159  35.355  1.00  0.00     0.006 A 
ENDBRANCH  53  70
ENDBRANCH  27  28
ENDBRANCH  20  22
ENDBRANCH  19  20
ENDBRANCH  18  19
ENDBRANCH  17  18
ENDBRANCH  16  17
ENDBRANCH   1  16
TORSDOF 17
ENDMDL
