MODEL 1
REMARK VINA RESULT:     -10.9      0.000      0.000
REMARK SMILES COc1ccc(F)cc1[C@H](C)NC(=O)[C@H]1CC=CC[C@@H]1C(=O)OCCOCCOC(=O)c1ccc(-c2c3nc(c(-c4c(F)cccc4F)c4ccc([nH]4)c(-c4c(F)cccc4F)c4nc(c(-c5c(F)cccc5F)c5ccc2[nH]5)C=C4)C=C3)cc1
REMARK SMILES IDX 25 1 24 2 23 3 21 4 22 5 20 6 15 7 16 8 17 9 19 10 18 11
REMARK SMILES IDX 13 12 12 13 14 15 10 16 11 17 9 18 3 19 4 20 5 21 8 22 6 23
REMARK SMILES IDX 7 24 2 25 1 26 26 27 27 28 28 29 29 30 30 31 31 32 32 33
REMARK SMILES IDX 33 34 85 35 34 36 84 37 35 38 36 39 37 40 78 41 38 42 83 43
REMARK SMILES IDX 77 44 79 45 39 46 82 47 76 48 75 49 40 51 66 52 49 53 65 54
REMARK SMILES IDX 50 55 53 56 64 57 80 58 51 59 52 60 63 62 81 63 54 64 41 65
REMARK SMILES IDX 42 66 47 67 43 68 44 69 46 70 48 71 45 72 67 73 68 74 73 75
REMARK SMILES IDX 69 76 70 77 72 78 74 79 71 80 55 81 56 82 61 83 57 84 58 85
REMARK SMILES IDX 60 86 62 87 59 88
REMARK H PARENT 12 14 79 50 53 61
REMARK Flexibility Score: inf
ROOT
ATOM      1  C   UNL A   1      39.643  21.668  26.363  1.00  0.00     0.202 C 
ENDROOT
BRANCH   1   2
ATOM      2  C   UNL A   1      38.487  21.508  25.382  1.00  0.00     0.261 C 
BRANCH   2   3
ATOM      3  O   UNL A   1      37.241  21.772  26.042  1.00  0.00    -0.463 OA
BRANCH   3   4
ATOM      4  C   UNL A   1      36.553  22.868  25.610  1.00  0.00     0.310 C 
ATOM      5  O   UNL A   1      36.955  24.019  25.702  1.00  0.00    -0.252 OA
BRANCH   4   6
ATOM      6  C   UNL A   1      35.241  22.437  24.950  1.00  0.00     0.115 C 
ATOM      7  C   UNL A   1      34.233  23.605  25.032  1.00  0.00     0.097 C 
ATOM      8  C   UNL A   1      33.591  23.773  26.416  1.00  0.00     0.041 C 
ATOM      9  C   UNL A   1      33.443  22.511  27.209  1.00  0.00    -0.030 C 
ATOM     10  C   UNL A   1      34.811  21.130  25.633  1.00  0.00     0.043 C 
ATOM     11  C   UNL A   1      33.971  21.330  26.857  1.00  0.00    -0.030 C 
BRANCH   7  12
ATOM     12  C   UNL A   1      33.232  23.829  23.891  1.00  0.00     0.224 C 
ATOM     13  N   UNL A   1      33.173  24.937  23.116  1.00  0.00    -0.349 N 
ATOM     14  H   UNL A   1      32.778  24.793  22.227  1.00  0.00     0.164 HD
ATOM     15  O   UNL A   1      32.461  22.915  23.572  1.00  0.00    -0.275 OA
BRANCH  13  16
ATOM     16  C   UNL A   1      33.595  26.303  23.375  1.00  0.00     0.113 C 
ATOM     17  C   UNL A   1      33.414  27.184  22.140  1.00  0.00     0.036 C 
BRANCH  16  18
ATOM     18  C   UNL A   1      32.933  26.871  24.629  1.00  0.00     0.019 A 
ATOM     19  C   UNL A   1      31.528  26.894  24.759  1.00  0.00     0.124 A 
ATOM     20  C   UNL A   1      30.922  27.399  25.921  1.00  0.00     0.050 A 
ATOM     21  C   UNL A   1      31.701  27.933  26.946  1.00  0.00     0.043 A 
ATOM     22  C   UNL A   1      33.695  27.417  25.683  1.00  0.00     0.049 A 
ATOM     23  C   UNL A   1      33.079  27.944  26.813  1.00  0.00     0.123 A 
ATOM     24  F   UNL A   1      33.831  28.471  27.788  1.00  0.00    -0.207 F 
BRANCH  19  25
ATOM     25  O   UNL A   1      30.795  26.380  23.720  1.00  0.00    -0.496 OA
ATOM     26  C   UNL A   1      29.396  26.276  23.983  1.00  0.00     0.278 C 
ENDBRANCH  19  25
ENDBRANCH  16  18
ENDBRANCH  13  16
ENDBRANCH   7  12
ENDBRANCH   4   6
ENDBRANCH   3   4
ENDBRANCH   2   3
ENDBRANCH   1   2
BRANCH   1  27
ATOM     27  O   UNL A   1      40.712  20.736  26.219  1.00  0.00    -0.374 OA
BRANCH  27  28
ATOM     28  C   UNL A   1      41.989  21.096  26.748  1.00  0.00     0.202 C 
BRANCH  28  29
ATOM     29  C   UNL A   1      43.021  21.603  25.734  1.00  0.00     0.261 C 
BRANCH  29  30
ATOM     30  O   UNL A   1      42.737  22.943  25.288  1.00  0.00    -0.460 OA
BRANCH  30  31
ATOM     31  C   UNL A   1      43.620  23.879  25.701  1.00  0.00     0.338 C 
ATOM     32  O   UNL A   1      44.805  23.971  25.400  1.00  0.00    -0.246 OA
BRANCH  31  33
ATOM     33  C   UNL A   1      42.933  24.922  26.475  1.00  0.00     0.060 A 
ATOM     34  C   UNL A   1      43.508  26.199  26.511  1.00  0.00     0.016 A 
ATOM     35  C   UNL A   1      41.814  24.623  27.255  1.00  0.00     0.016 A 
ATOM     36  C   UNL A   1      43.000  27.169  27.370  1.00  0.00     0.010 A 
ATOM     37  C   UNL A   1      41.313  25.594  28.126  1.00  0.00     0.010 A 
ATOM     38  C   UNL A   1      41.929  26.856  28.214  1.00  0.00    -0.014 A 
BRANCH  38  39
ATOM     39  C   UNL A   1      41.553  27.787  29.304  1.00  0.00     0.031 A 
ATOM     40  C   UNL A   1      42.301  27.719  30.606  1.00  0.00     0.074 A 
ATOM     41  C   UNL A   1      40.564  28.682  29.133  1.00  0.00     0.049 A 
ATOM     42  N   UNL A   1      42.077  28.360  31.723  1.00  0.00    -0.248 NA
ATOM     43  C   UNL A   1      43.456  26.805  30.656  1.00  0.00     0.031 C 
ATOM     44  C   UNL A   1      39.805  28.876  27.899  1.00  0.00     0.029 A 
ATOM     45  N   UNL A   1      40.020  29.586  30.010  1.00  0.00    -0.354 N 
ATOM     46  C   UNL A   1      43.048  27.917  32.612  1.00  0.00     0.074 A 
ATOM     47  C   UNL A   1      43.856  26.942  31.913  1.00  0.00     0.031 C 
ATOM     48  C   UNL A   1      38.874  29.823  28.105  1.00  0.00     0.029 A 
ATOM     49  C   UNL A   1      38.948  30.272  29.495  1.00  0.00     0.049 A 
ATOM     50  H   UNL A   1      40.365  29.729  30.921  1.00  0.00     0.167 HD
ATOM     51  C   UNL A   1      43.245  28.294  33.896  1.00  0.00     0.037 A 
ATOM     52  C   UNL A   1      38.102  31.138  30.088  1.00  0.00     0.037 A 
ATOM     53  C   UNL A   1      42.454  29.282  34.577  1.00  0.00     0.049 A 
ATOM     54  C   UNL A   1      38.304  31.495  31.537  1.00  0.00     0.074 A 
ATOM     55  C   UNL A   1      42.605  29.761  35.866  1.00  0.00     0.029 A 
ATOM     56  N   UNL A   1      41.364  29.937  34.028  1.00  0.00    -0.354 N 
ATOM     57  N   UNL A   1      39.234  31.083  32.364  1.00  0.00    -0.248 NA
ATOM     58  C   UNL A   1      37.341  32.430  32.137  1.00  0.00     0.031 C 
ATOM     59  C   UNL A   1      41.573  30.670  36.115  1.00  0.00     0.029 A 
ATOM     60  C   UNL A   1      40.812  30.794  34.963  1.00  0.00     0.049 A 
ATOM     61  H   UNL A   1      41.032  29.812  33.110  1.00  0.00     0.167 HD
ATOM     62  C   UNL A   1      38.983  31.722  33.571  1.00  0.00     0.074 A 
ATOM     63  C   UNL A   1      37.818  32.557  33.369  1.00  0.00     0.031 C 
ATOM     64  C   UNL A   1      39.658  31.626  34.742  1.00  0.00     0.037 A 
BRANCH  51  65
ATOM     65  C   UNL A   1      44.348  27.635  34.666  1.00  0.00     0.057 A 
ATOM     66  C   UNL A   1      45.643  28.172  34.649  1.00  0.00     0.134 A 
ATOM     67  C   UNL A   1      44.158  26.420  35.336  1.00  0.00     0.134 A 
ATOM     68  F   UNL A   1      45.890  29.330  34.020  1.00  0.00    -0.206 F 
ATOM     69  C   UNL A   1      46.714  27.513  35.253  1.00  0.00     0.040 A 
ATOM     70  C   UNL A   1      45.219  25.762  35.963  1.00  0.00     0.040 A 
ATOM     71  F   UNL A   1      42.941  25.861  35.397  1.00  0.00    -0.206 F 
ATOM     72  C   UNL A   1      46.502  26.302  35.910  1.00  0.00     0.006 A 
ENDBRANCH  51  65
BRANCH  52  73
ATOM     73  C   UNL A   1      36.965  31.700  29.315  1.00  0.00     0.057 A 
ATOM     74  C   UNL A   1      35.791  30.964  29.111  1.00  0.00     0.134 A 
ATOM     75  C   UNL A   1      37.028  32.981  28.756  1.00  0.00     0.134 A 
ATOM     76  F   UNL A   1      35.669  29.728  29.618  1.00  0.00    -0.206 F 
ATOM     77  C   UNL A   1      34.727  31.473  28.365  1.00  0.00     0.040 A 
ATOM     78  C   UNL A   1      35.962  33.513  28.027  1.00  0.00     0.040 A 
ATOM     79  F   UNL A   1      38.117  33.742  28.935  1.00  0.00    -0.206 F 
ATOM     80  C   UNL A   1      34.811  32.755  27.824  1.00  0.00     0.006 A 
ENDBRANCH  52  73
BRANCH  64  81
ATOM     81  C   UNL A   1      39.183  32.451  35.900  1.00  0.00     0.057 A 
ATOM     82  C   UNL A   1      39.707  33.732  36.124  1.00  0.00     0.134 A 
ATOM     83  C   UNL A   1      38.302  31.933  36.856  1.00  0.00     0.134 A 
ATOM     84  F   UNL A   1      40.566  34.278  35.251  1.00  0.00    -0.206 F 
ATOM     85  C   UNL A   1      39.392  34.458  37.272  1.00  0.00     0.040 A 
ATOM     86  C   UNL A   1      37.962  32.660  37.998  1.00  0.00     0.040 A 
ATOM     87  F   UNL A   1      37.762  30.716  36.695  1.00  0.00    -0.206 F 
ATOM     88  C   UNL A   1      38.518  33.920  38.215  1.00  0.00     0.006 A 
ENDBRANCH  64  81
ENDBRANCH  38  39
ENDBRANCH  31  33
ENDBRANCH  30  31
ENDBRANCH  29  30
ENDBRANCH  28  29
ENDBRANCH  27  28
ENDBRANCH   1  27
TORSDOF 18
ENDMDL
MODEL 2
REMARK VINA RESULT:     -10.9      3.895      8.139
REMARK SMILES COc1ccc(F)cc1[C@H](C)NC(=O)[C@H]1CC=CC[C@@H]1C(=O)OCCOCCOC(=O)c1ccc(-c2c3nc(c(-c4c(F)cccc4F)c4ccc([nH]4)c(-c4c(F)cccc4F)c4nc(c(-c5c(F)cccc5F)c5ccc2[nH]5)C=C4)C=C3)cc1
REMARK SMILES IDX 25 1 24 2 23 3 21 4 22 5 20 6 15 7 16 8 17 9 19 10 18 11
REMARK SMILES IDX 13 12 12 13 14 15 10 16 11 17 9 18 3 19 4 20 5 21 8 22 6 23
REMARK SMILES IDX 7 24 2 25 1 26 26 27 27 28 28 29 29 30 30 31 31 32 32 33
REMARK SMILES IDX 33 34 85 35 34 36 84 37 35 38 36 39 37 40 78 41 38 42 83 43
REMARK SMILES IDX 77 44 79 45 39 46 82 47 76 48 75 49 40 51 66 52 49 53 65 54
REMARK SMILES IDX 50 55 53 56 64 57 80 58 51 59 52 60 63 62 81 63 54 64 41 65
REMARK SMILES IDX 42 66 47 67 43 68 44 69 46 70 48 71 45 72 67 73 68 74 73 75
REMARK SMILES IDX 69 76 70 77 72 78 74 79 71 80 55 81 56 82 61 83 57 84 58 85
REMARK SMILES IDX 60 86 62 87 59 88
REMARK H PARENT 12 14 79 50 53 61
REMARK Flexibility Score: inf
ROOT
ATOM      1  C   UNL A   1      36.683  23.396  24.685  1.00  0.00     0.202 C 
ENDROOT
BRANCH   1   2
ATOM      2  C   UNL A   1      35.579  24.180  25.388  1.00  0.00     0.261 C 
BRANCH   2   3
ATOM      3  O   UNL A   1      34.603  24.617  24.433  1.00  0.00    -0.463 OA
BRANCH   3   4
ATOM      4  C   UNL A   1      33.838  25.685  24.802  1.00  0.00     0.310 C 
ATOM      5  O   UNL A   1      33.907  26.795  24.294  1.00  0.00    -0.252 OA
BRANCH   4   6
ATOM      6  C   UNL A   1      32.852  25.271  25.897  1.00  0.00     0.115 C 
ATOM      7  C   UNL A   1      31.819  24.292  25.297  1.00  0.00     0.097 C 
ATOM      8  C   UNL A   1      30.738  24.974  24.449  1.00  0.00     0.041 C 
ATOM      9  C   UNL A   1      30.392  26.373  24.861  1.00  0.00    -0.030 C 
ATOM     10  C   UNL A   1      32.281  26.569  26.490  1.00  0.00     0.043 C 
ATOM     11  C   UNL A   1      31.066  27.080  25.778  1.00  0.00    -0.030 C 
BRANCH   7  12
ATOM     12  C   UNL A   1      31.256  23.156  26.160  1.00  0.00     0.224 C 
ATOM     13  N   UNL A   1      31.983  22.132  26.668  1.00  0.00    -0.349 N 
ATOM     14  H   UNL A   1      31.603  21.723  27.478  1.00  0.00     0.164 HD
ATOM     15  O   UNL A   1      30.069  23.189  26.509  1.00  0.00    -0.275 OA
BRANCH  13  16
ATOM     16  C   UNL A   1      33.230  21.537  26.219  1.00  0.00     0.113 C 
ATOM     17  C   UNL A   1      34.220  21.385  27.373  1.00  0.00     0.036 C 
BRANCH  16  18
ATOM     18  C   UNL A   1      32.992  20.239  25.449  1.00  0.00     0.019 A 
ATOM     19  C   UNL A   1      32.808  20.251  24.050  1.00  0.00     0.124 A 
ATOM     20  C   UNL A   1      32.609  19.055  23.342  1.00  0.00     0.050 A 
ATOM     21  C   UNL A   1      32.538  17.839  24.019  1.00  0.00     0.043 A 
ATOM     22  C   UNL A   1      32.917  18.994  26.108  1.00  0.00     0.049 A 
ATOM     23  C   UNL A   1      32.685  17.821  25.396  1.00  0.00     0.123 A 
ATOM     24  F   UNL A   1      32.601  16.657  26.053  1.00  0.00    -0.207 F 
BRANCH  19  25
ATOM     25  O   UNL A   1      32.862  21.469  23.422  1.00  0.00    -0.496 OA
ATOM     26  C   UNL A   1      31.905  21.633  22.376  1.00  0.00     0.278 C 
ENDBRANCH  19  25
ENDBRANCH  16  18
ENDBRANCH  13  16
ENDBRANCH   7  12
ENDBRANCH   4   6
ENDBRANCH   3   4
ENDBRANCH   2   3
ENDBRANCH   1   2
BRANCH   1  27
ATOM     27  O   UNL A   1      37.117  22.209  25.346  1.00  0.00    -0.374 OA
BRANCH  27  28
ATOM     28  C   UNL A   1      37.086  20.985  24.610  1.00  0.00     0.202 C 
BRANCH  28  29
ATOM     29  C   UNL A   1      38.233  20.005  24.879  1.00  0.00     0.261 C 
BRANCH  29  30
ATOM     30  O   UNL A   1      38.954  20.325  26.085  1.00  0.00    -0.460 OA
BRANCH  30  31
ATOM     31  C   UNL A   1      40.260  19.978  26.075  1.00  0.00     0.338 C 
ATOM     32  O   UNL A   1      40.758  18.962  25.603  1.00  0.00    -0.246 OA
BRANCH  31  33
ATOM     33  C   UNL A   1      41.086  21.083  26.584  1.00  0.00     0.060 A 
ATOM     34  C   UNL A   1      41.148  21.271  27.970  1.00  0.00     0.016 A 
ATOM     35  C   UNL A   1      41.687  21.995  25.714  1.00  0.00     0.016 A 
ATOM     36  C   UNL A   1      41.765  22.404  28.494  1.00  0.00     0.010 A 
ATOM     37  C   UNL A   1      42.295  23.137  26.240  1.00  0.00     0.010 A 
ATOM     38  C   UNL A   1      42.301  23.364  27.628  1.00  0.00    -0.014 A 
BRANCH  38  39
ATOM     39  C   UNL A   1      42.723  24.681  28.161  1.00  0.00     0.031 A 
ATOM     40  C   UNL A   1      41.676  25.730  28.411  1.00  0.00     0.074 A 
ATOM     41  C   UNL A   1      44.017  24.935  28.421  1.00  0.00     0.049 A 
ATOM     42  N   UNL A   1      41.825  26.977  28.773  1.00  0.00    -0.248 NA
ATOM     43  C   UNL A   1      40.273  25.319  28.229  1.00  0.00     0.031 C 
ATOM     44  C   UNL A   1      45.112  23.979  28.267  1.00  0.00     0.029 A 
ATOM     45  N   UNL A   1      44.629  26.084  28.855  1.00  0.00    -0.354 N 
ATOM     46  C   UNL A   1      40.542  27.505  28.845  1.00  0.00     0.074 A 
ATOM     47  C   UNL A   1      39.625  26.449  28.477  1.00  0.00     0.031 C 
ATOM     48  C   UNL A   1      46.268  24.589  28.578  1.00  0.00     0.029 A 
ATOM     49  C   UNL A   1      45.997  25.986  28.915  1.00  0.00     0.049 A 
ATOM     50  H   UNL A   1      44.135  26.899  29.101  1.00  0.00     0.167 HD
ATOM     51  C   UNL A   1      40.167  28.758  29.191  1.00  0.00     0.037 A 
ATOM     52  C   UNL A   1      46.927  26.927  29.177  1.00  0.00     0.037 A 
ATOM     53  C   UNL A   1      41.083  29.795  29.580  1.00  0.00     0.049 A 
ATOM     54  C   UNL A   1      46.488  28.331  29.498  1.00  0.00     0.074 A 
ATOM     55  C   UNL A   1      40.794  31.084  29.989  1.00  0.00     0.029 A 
ATOM     56  N   UNL A   1      42.462  29.663  29.606  1.00  0.00    -0.354 N 
ATOM     57  N   UNL A   1      45.272  28.815  29.579  1.00  0.00    -0.248 NA
ATOM     58  C   UNL A   1      47.544  29.320  29.759  1.00  0.00     0.031 C 
ATOM     59  C   UNL A   1      42.002  31.750  30.213  1.00  0.00     0.029 A 
ATOM     60  C   UNL A   1      43.039  30.858  29.993  1.00  0.00     0.049 A 
ATOM     61  H   UNL A   1      42.956  28.841  29.384  1.00  0.00     0.167 HD
ATOM     62  C   UNL A   1      45.416  30.154  29.920  1.00  0.00     0.074 A 
ATOM     63  C   UNL A   1      46.836  30.407  30.039  1.00  0.00     0.031 C 
ATOM     64  C   UNL A   1      44.456  31.090  30.118  1.00  0.00     0.037 A 
BRANCH  51  65
ATOM     65  C   UNL A   1      38.708  29.096  29.155  1.00  0.00     0.057 A 
ATOM     66  C   UNL A   1      38.133  29.625  27.992  1.00  0.00     0.134 A 
ATOM     67  C   UNL A   1      37.899  28.999  30.293  1.00  0.00     0.134 A 
ATOM     68  F   UNL A   1      38.858  29.749  26.870  1.00  0.00    -0.206 F 
ATOM     69  C   UNL A   1      36.810  30.065  27.968  1.00  0.00     0.040 A 
ATOM     70  C   UNL A   1      36.566  29.416  30.275  1.00  0.00     0.040 A 
ATOM     71  F   UNL A   1      38.388  28.491  31.433  1.00  0.00    -0.206 F 
ATOM     72  C   UNL A   1      36.023  29.963  29.114  1.00  0.00     0.006 A 
ENDBRANCH  51  65
BRANCH  52  73
ATOM     73  C   UNL A   1      48.368  26.573  29.113  1.00  0.00     0.057 A 
ATOM     74  C   UNL A   1      49.106  26.746  27.936  1.00  0.00     0.134 A 
ATOM     75  C   UNL A   1      49.039  26.049  30.223  1.00  0.00     0.134 A 
ATOM     76  F   UNL A   1      48.522  27.241  26.835  1.00  0.00    -0.206 F 
ATOM     77  C   UNL A   1      50.454  26.393  27.858  1.00  0.00     0.040 A 
ATOM     78  C   UNL A   1      50.393  25.714  30.168  1.00  0.00     0.040 A 
ATOM     79  F   UNL A   1      48.391  25.881  31.386  1.00  0.00    -0.206 F 
ATOM     80  C   UNL A   1      51.102  25.879  28.980  1.00  0.00     0.006 A 
ENDBRANCH  52  73
BRANCH  64  81
ATOM     81  C   UNL A   1      44.887  32.473  30.503  1.00  0.00     0.057 A 
ATOM     82  C   UNL A   1      45.056  32.815  31.851  1.00  0.00     0.134 A 
ATOM     83  C   UNL A   1      45.016  33.492  29.553  1.00  0.00     0.134 A 
ATOM     84  F   UNL A   1      44.932  31.886  32.811  1.00  0.00    -0.206 F 
ATOM     85  C   UNL A   1      45.313  34.129  32.244  1.00  0.00     0.040 A 
ATOM     86  C   UNL A   1      45.295  34.806  29.931  1.00  0.00     0.040 A 
ATOM     87  F   UNL A   1      44.873  33.225  28.247  1.00  0.00    -0.206 F 
ATOM     88  C   UNL A   1      45.431  35.129  31.281  1.00  0.00     0.006 A 
ENDBRANCH  64  81
ENDBRANCH  38  39
ENDBRANCH  31  33
ENDBRANCH  30  31
ENDBRANCH  29  30
ENDBRANCH  28  29
ENDBRANCH  27  28
ENDBRANCH   1  27
TORSDOF 18
ENDMDL
MODEL 3
REMARK VINA RESULT:     -10.6      1.169      2.073
REMARK SMILES COc1ccc(F)cc1[C@H](C)NC(=O)[C@H]1CC=CC[C@@H]1C(=O)OCCOCCOC(=O)c1ccc(-c2c3nc(c(-c4c(F)cccc4F)c4ccc([nH]4)c(-c4c(F)cccc4F)c4nc(c(-c5c(F)cccc5F)c5ccc2[nH]5)C=C4)C=C3)cc1
REMARK SMILES IDX 25 1 24 2 23 3 21 4 22 5 20 6 15 7 16 8 17 9 19 10 18 11
REMARK SMILES IDX 13 12 12 13 14 15 10 16 11 17 9 18 3 19 4 20 5 21 8 22 6 23
REMARK SMILES IDX 7 24 2 25 1 26 26 27 27 28 28 29 29 30 30 31 31 32 32 33
REMARK SMILES IDX 33 34 85 35 34 36 84 37 35 38 36 39 37 40 78 41 38 42 83 43
REMARK SMILES IDX 77 44 79 45 39 46 82 47 76 48 75 49 40 51 66 52 49 53 65 54
REMARK SMILES IDX 50 55 53 56 64 57 80 58 51 59 52 60 63 62 81 63 54 64 41 65
REMARK SMILES IDX 42 66 47 67 43 68 44 69 46 70 48 71 45 72 67 73 68 74 73 75
REMARK SMILES IDX 69 76 70 77 72 78 74 79 71 80 55 81 56 82 61 83 57 84 58 85
REMARK SMILES IDX 60 86 62 87 59 88
REMARK H PARENT 12 14 79 50 53 61
REMARK Flexibility Score: inf
ROOT
ATOM      1  C   UNL A   1      39.237  21.725  26.089  1.00  0.00     0.202 C 
ENDROOT
BRANCH   1   2
ATOM      2  C   UNL A   1      37.973  21.561  25.251  1.00  0.00     0.261 C 
BRANCH   2   3
ATOM      3  O   UNL A   1      37.065  22.639  25.516  1.00  0.00    -0.463 OA
BRANCH   3   4
ATOM      4  C   UNL A   1      35.790  22.283  25.848  1.00  0.00     0.310 C 
ATOM      5  O   UNL A   1      35.473  21.197  26.312  1.00  0.00    -0.252 OA
BRANCH   4   6
ATOM      6  C   UNL A   1      34.837  23.456  25.606  1.00  0.00     0.115 C 
ATOM      7  C   UNL A   1      33.384  22.964  25.782  1.00  0.00     0.097 C 
ATOM      8  C   UNL A   1      32.852  22.162  24.586  1.00  0.00     0.041 C 
ATOM      9  C   UNL A   1      33.430  22.540  23.256  1.00  0.00    -0.030 C 
ATOM     10  C   UNL A   1      35.188  24.033  24.226  1.00  0.00     0.043 C 
ATOM     11  C   UNL A   1      34.459  23.383  23.091  1.00  0.00    -0.030 C 
BRANCH   7  12
ATOM     12  C   UNL A   1      32.327  23.906  26.372  1.00  0.00     0.224 C 
ATOM     13  N   UNL A   1      31.529  24.728  25.649  1.00  0.00    -0.349 N 
ATOM     14  H   UNL A   1      30.681  24.963  26.089  1.00  0.00     0.164 HD
ATOM     15  O   UNL A   1      32.100  23.879  27.588  1.00  0.00    -0.275 OA
BRANCH  13  16
ATOM     16  C   UNL A   1      31.712  25.319  24.336  1.00  0.00     0.113 C 
ATOM     17  C   UNL A   1      30.400  25.356  23.554  1.00  0.00     0.036 C 
BRANCH  16  18
ATOM     18  C   UNL A   1      32.408  26.677  24.419  1.00  0.00     0.019 A 
ATOM     19  C   UNL A   1      32.129  27.569  25.476  1.00  0.00     0.124 A 
ATOM     20  C   UNL A   1      32.784  28.808  25.560  1.00  0.00     0.050 A 
ATOM     21  C   UNL A   1      33.685  29.198  24.572  1.00  0.00     0.043 A 
ATOM     22  C   UNL A   1      33.325  27.097  23.433  1.00  0.00     0.049 A 
ATOM     23  C   UNL A   1      33.940  28.342  23.513  1.00  0.00     0.123 A 
ATOM     24  F   UNL A   1      34.793  28.719  22.551  1.00  0.00    -0.207 F 
BRANCH  19  25
ATOM     25  O   UNL A   1      31.220  27.159  26.418  1.00  0.00    -0.496 OA
ATOM     26  C   UNL A   1      31.252  27.912  27.630  1.00  0.00     0.278 C 
ENDBRANCH  19  25
ENDBRANCH  16  18
ENDBRANCH  13  16
ENDBRANCH   7  12
ENDBRANCH   4   6
ENDBRANCH   3   4
ENDBRANCH   2   3
ENDBRANCH   1   2
BRANCH   1  27
ATOM     27  O   UNL A   1      39.991  20.535  26.312  1.00  0.00    -0.374 OA
BRANCH  27  28
ATOM     28  C   UNL A   1      41.389  20.566  26.017  1.00  0.00     0.202 C 
BRANCH  28  29
ATOM     29  C   UNL A   1      42.104  21.896  26.273  1.00  0.00     0.261 C 
BRANCH  29  30
ATOM     30  O   UNL A   1      42.338  22.634  25.058  1.00  0.00    -0.460 OA
BRANCH  30  31
ATOM     31  C   UNL A   1      43.205  23.664  25.176  1.00  0.00     0.338 C 
ATOM     32  O   UNL A   1      44.295  23.788  24.628  1.00  0.00    -0.246 OA
BRANCH  31  33
ATOM     33  C   UNL A   1      42.601  24.752  25.959  1.00  0.00     0.060 A 
ATOM     34  C   UNL A   1      43.337  25.934  26.115  1.00  0.00     0.016 A 
ATOM     35  C   UNL A   1      41.391  24.572  26.631  1.00  0.00     0.016 A 
ATOM     36  C   UNL A   1      42.893  26.921  26.991  1.00  0.00     0.010 A 
ATOM     37  C   UNL A   1      40.954  25.558  27.519  1.00  0.00     0.010 A 
ATOM     38  C   UNL A   1      41.723  26.717  27.731  1.00  0.00    -0.014 A 
BRANCH  38  39
ATOM     39  C   UNL A   1      41.386  27.635  28.844  1.00  0.00     0.031 A 
ATOM     40  C   UNL A   1      42.181  27.554  30.117  1.00  0.00     0.074 A 
ATOM     41  C   UNL A   1      40.390  28.530  28.719  1.00  0.00     0.049 A 
ATOM     42  N   UNL A   1      41.997  28.182  31.248  1.00  0.00    -0.248 NA
ATOM     43  C   UNL A   1      43.339  26.642  30.115  1.00  0.00     0.031 C 
ATOM     44  C   UNL A   1      39.587  28.736  27.516  1.00  0.00     0.029 A 
ATOM     45  N   UNL A   1      39.877  29.423  29.626  1.00  0.00    -0.354 N 
ATOM     46  C   UNL A   1      43.000  27.731  32.097  1.00  0.00     0.074 A 
ATOM     47  C   UNL A   1      43.784  26.766  31.358  1.00  0.00     0.031 C 
ATOM     48  C   UNL A   1      38.663  29.679  27.766  1.00  0.00     0.029 A 
ATOM     49  C   UNL A   1      38.786  30.113  29.157  1.00  0.00     0.049 A 
ATOM     50  H   UNL A   1      40.255  29.557  30.525  1.00  0.00     0.167 HD
ATOM     51  C   UNL A   1      43.244  28.095  33.377  1.00  0.00     0.037 A 
ATOM     52  C   UNL A   1      37.960  30.971  29.790  1.00  0.00     0.037 A 
ATOM     53  C   UNL A   1      42.476  29.073  34.097  1.00  0.00     0.049 A 
ATOM     54  C   UNL A   1      38.215  31.312  31.235  1.00  0.00     0.074 A 
ATOM     55  C   UNL A   1      42.674  29.539  35.385  1.00  0.00     0.029 A 
ATOM     56  N   UNL A   1      41.366  29.732  33.595  1.00  0.00    -0.354 N 
ATOM     57  N   UNL A   1      39.175  30.892  32.023  1.00  0.00    -0.248 NA
ATOM     58  C   UNL A   1      37.273  32.239  31.880  1.00  0.00     0.031 C 
ATOM     59  C   UNL A   1      41.650  30.443  35.681  1.00  0.00     0.029 A 
ATOM     60  C   UNL A   1      40.848  30.578  34.560  1.00  0.00     0.049 A 
ATOM     61  H   UNL A   1      41.001  29.617  32.688  1.00  0.00     0.167 HD
ATOM     62  C   UNL A   1      38.967  31.518  33.245  1.00  0.00     0.074 A 
ATOM     63  C   UNL A   1      37.794  32.352  33.095  1.00  0.00     0.031 C 
ATOM     64  C   UNL A   1      39.685  31.411  34.390  1.00  0.00     0.037 A 
BRANCH  51  65
ATOM     65  C   UNL A   1      44.375  27.429  34.099  1.00  0.00     0.057 A 
ATOM     66  C   UNL A   1      44.159  26.243  34.813  1.00  0.00     0.134 A 
ATOM     67  C   UNL A   1      45.646  28.011  34.177  1.00  0.00     0.134 A 
ATOM     68  F   UNL A   1      42.962  25.640  34.783  1.00  0.00    -0.206 F 
ATOM     69  C   UNL A   1      45.161  25.670  35.596  1.00  0.00     0.040 A 
ATOM     70  C   UNL A   1      46.664  27.435  34.940  1.00  0.00     0.040 A 
ATOM     71  F   UNL A   1      45.919  29.141  33.508  1.00  0.00    -0.206 F 
ATOM     72  C   UNL A   1      46.418  26.268  35.662  1.00  0.00     0.006 A 
ENDBRANCH  51  65
BRANCH  52  73
ATOM     73  C   UNL A   1      36.796  31.539  29.066  1.00  0.00     0.057 A 
ATOM     74  C   UNL A   1      36.802  32.860  28.603  1.00  0.00     0.134 A 
ATOM     75  C   UNL A   1      35.647  30.778  28.825  1.00  0.00     0.134 A 
ATOM     76  F   UNL A   1      37.872  33.644  28.805  1.00  0.00    -0.206 F 
ATOM     77  C   UNL A   1      35.702  33.411  27.944  1.00  0.00     0.040 A 
ATOM     78  C   UNL A   1      34.549  31.307  28.145  1.00  0.00     0.040 A 
ATOM     79  F   UNL A   1      35.589  29.498  29.224  1.00  0.00    -0.206 F 
ATOM     80  C   UNL A   1      34.572  32.631  27.709  1.00  0.00     0.006 A 
ENDBRANCH  52  73
BRANCH  64  81
ATOM     81  C   UNL A   1      39.251  32.222  35.573  1.00  0.00     0.057 A 
ATOM     82  C   UNL A   1      39.753  33.515  35.772  1.00  0.00     0.134 A 
ATOM     83  C   UNL A   1      38.437  31.680  36.574  1.00  0.00     0.134 A 
ATOM     84  F   UNL A   1      40.550  34.085  34.855  1.00  0.00    -0.206 F 
ATOM     85  C   UNL A   1      39.481  34.232  36.937  1.00  0.00     0.040 A 
ATOM     86  C   UNL A   1      38.139  32.396  37.734  1.00  0.00     0.040 A 
ATOM     87  F   UNL A   1      37.921  30.450  36.439  1.00  0.00    -0.206 F 
ATOM     88  C   UNL A   1      38.673  33.671  37.924  1.00  0.00     0.006 A 
ENDBRANCH  64  81
ENDBRANCH  38  39
ENDBRANCH  31  33
ENDBRANCH  30  31
ENDBRANCH  29  30
ENDBRANCH  28  29
ENDBRANCH  27  28
ENDBRANCH   1  27
TORSDOF 18
ENDMDL
