MODEL 1
REMARK VINA RESULT:     -10.5      0.000      0.000
REMARK SMILES C[C@H](NC(=O)N(CC(=O)OCCOCCOC(=O)c1ccc(-c2c3nc(c(-c4c(F)cccc4F)c4ccc([nH]4)c(-c4c(F)cccc4F)c4nc(c(-c5c(F)cccc5F)c5ccc2[nH]5)C=C4)C=C3)cc1)C(C)(C)C)c1nncn1C
REMARK SMILES IDX 12 1 11 2 10 3 8 4 9 5 7 6 6 7 4 8 3 9 5 11 2 12 1 13 77 14
REMARK SMILES IDX 78 15 81 16 79 17 80 18 82 19 73 20 74 21 75 22 76 23 13 24
REMARK SMILES IDX 14 25 15 26 16 27 17 28 18 29 19 30 20 31 72 32 21 33 71 34
REMARK SMILES IDX 22 35 23 36 24 37 65 38 25 39 70 40 64 41 66 42 26 43 69 44
REMARK SMILES IDX 63 45 62 46 27 48 53 49 36 50 52 51 37 52 40 53 51 54 67 55
REMARK SMILES IDX 38 56 39 57 50 59 68 60 41 61 28 62 29 63 34 64 30 65 31 66
REMARK SMILES IDX 33 67 35 68 32 69 54 70 55 71 60 72 56 73 57 74 59 75 61 76
REMARK SMILES IDX 58 77 42 78 43 79 48 80 44 81 45 82 47 83 49 84 46 85
REMARK H PARENT 3 10 66 47 40 58
REMARK Flexibility Score: inf
ROOT
ATOM      1  C   UNL A   1      34.061  18.984  24.612  1.00  0.00     0.202 C 
ENDROOT
BRANCH   1   2
ATOM      2  C   UNL A   1      33.460  20.355  24.960  1.00  0.00     0.261 C 
BRANCH   2   3
ATOM      3  O   UNL A   1      32.129  20.611  24.466  1.00  0.00    -0.462 OA
BRANCH   3   4
ATOM      4  C   UNL A   1      32.068  21.615  23.558  1.00  0.00     0.325 C 
ATOM      5  O   UNL A   1      32.115  21.454  22.338  1.00  0.00    -0.250 OA
BRANCH   4   6
ATOM      6  C   UNL A   1      32.111  23.032  24.119  1.00  0.00     0.244 C 
BRANCH   6   7
ATOM      7  N   UNL A   1      32.788  23.605  25.287  1.00  0.00    -0.309 N 
BRANCH   7   8
ATOM      8  C   UNL A   1      32.081  23.887  26.441  1.00  0.00     0.318 C 
ATOM      9  N   UNL A   1      31.413  25.064  26.544  1.00  0.00    -0.328 N 
ATOM     10  H   UNL A   1      31.149  25.289  27.466  1.00  0.00     0.166 HD
ATOM     11  O   UNL A   1      31.952  23.084  27.363  1.00  0.00    -0.249 OA
BRANCH   9  12
ATOM     12  C   UNL A   1      31.006  26.067  25.557  1.00  0.00     0.149 C 
ATOM     13  C   UNL A   1      29.546  25.881  25.163  1.00  0.00     0.040 C 
BRANCH  12  14
ATOM     14  C   UNL A   1      31.232  27.422  26.163  1.00  0.00     0.154 A 
ATOM     15  N   UNL A   1      31.271  27.702  27.453  1.00  0.00    -0.133 NA
ATOM     16  N   UNL A   1      31.545  28.567  25.467  1.00  0.00    -0.319 N 
ATOM     17  N   UNL A   1      31.671  29.007  27.602  1.00  0.00    -0.139 NA
ATOM     18  C   UNL A   1      31.854  29.506  26.404  1.00  0.00     0.225 A 
ATOM     19  C   UNL A   1      31.599  28.762  24.044  1.00  0.00     0.152 C 
ENDBRANCH  12  14
ENDBRANCH   9  12
ENDBRANCH   7   8
BRANCH   7  20
ATOM     20  C   UNL A   1      34.240  23.979  25.217  1.00  0.00     0.037 C 
ATOM     21  C   UNL A   1      34.869  23.546  23.881  1.00  0.00     0.034 C 
ATOM     22  C   UNL A   1      34.397  25.514  25.377  1.00  0.00     0.034 C 
ATOM     23  C   UNL A   1      35.065  23.371  26.371  1.00  0.00     0.034 C 
ENDBRANCH   7  20
ENDBRANCH   6   7
ENDBRANCH   4   6
ENDBRANCH   3   4
ENDBRANCH   2   3
ENDBRANCH   1   2
BRANCH   1  24
ATOM     24  O   UNL A   1      35.475  18.829  24.651  1.00  0.00    -0.374 OA
BRANCH  24  25
ATOM     25  C   UNL A   1      36.261  19.974  24.969  1.00  0.00     0.202 C 
BRANCH  25  26
ATOM     26  C   UNL A   1      37.786  19.821  24.924  1.00  0.00     0.261 C 
BRANCH  26  27
ATOM     27  O   UNL A   1      38.463  21.038  25.278  1.00  0.00    -0.460 OA
BRANCH  27  28
ATOM     28  C   UNL A   1      39.587  20.859  26.009  1.00  0.00     0.338 C 
ATOM     29  O   UNL A   1      40.372  19.918  25.938  1.00  0.00    -0.246 OA
BRANCH  28  30
ATOM     30  C   UNL A   1      39.886  22.055  26.811  1.00  0.00     0.060 A 
ATOM     31  C   UNL A   1      39.212  23.235  26.476  1.00  0.00     0.016 A 
ATOM     32  C   UNL A   1      40.908  22.064  27.761  1.00  0.00     0.016 A 
ATOM     33  C   UNL A   1      39.610  24.447  27.034  1.00  0.00     0.010 A 
ATOM     34  C   UNL A   1      41.317  23.286  28.313  1.00  0.00     0.010 A 
ATOM     35  C   UNL A   1      40.705  24.486  27.909  1.00  0.00    -0.014 A 
BRANCH  35  36
ATOM     36  C   UNL A   1      41.312  25.806  28.214  1.00  0.00     0.031 A 
ATOM     37  C   UNL A   1      42.709  26.087  27.725  1.00  0.00     0.074 A 
ATOM     38  C   UNL A   1      40.602  26.773  28.820  1.00  0.00     0.049 A 
ATOM     39  N   UNL A   1      43.408  27.192  27.795  1.00  0.00    -0.248 NA
ATOM     40  C   UNL A   1      43.406  24.978  27.053  1.00  0.00     0.031 C 
ATOM     41  C   UNL A   1      39.228  26.639  29.300  1.00  0.00     0.029 A 
ATOM     42  N   UNL A   1      40.940  28.069  29.122  1.00  0.00    -0.354 N 
ATOM     43  C   UNL A   1      44.615  26.914  27.165  1.00  0.00     0.074 A 
ATOM     44  C   UNL A   1      44.572  25.529  26.751  1.00  0.00     0.031 C 
ATOM     45  C   UNL A   1      38.837  27.811  29.833  1.00  0.00     0.029 A 
ATOM     46  C   UNL A   1      39.937  28.769  29.747  1.00  0.00     0.049 A 
ATOM     47  H   UNL A   1      41.819  28.460  28.909  1.00  0.00     0.167 HD
ATOM     48  C   UNL A   1      45.662  27.743  26.935  1.00  0.00     0.037 A 
ATOM     49  C   UNL A   1      39.916  30.038  30.199  1.00  0.00     0.037 A 
ATOM     50  C   UNL A   1      45.716  29.117  27.356  1.00  0.00     0.049 A 
ATOM     51  C   UNL A   1      41.122  30.916  29.997  1.00  0.00     0.074 A 
ATOM     52  C   UNL A   1      46.743  30.030  27.194  1.00  0.00     0.029 A 
ATOM     53  N   UNL A   1      44.696  29.774  28.025  1.00  0.00    -0.354 N 
ATOM     54  N   UNL A   1      42.251  30.646  29.387  1.00  0.00    -0.248 NA
ATOM     55  C   UNL A   1      41.049  32.280  30.543  1.00  0.00     0.031 C 
ATOM     56  C   UNL A   1      46.355  31.234  27.792  1.00  0.00     0.029 A 
ATOM     57  C   UNL A   1      45.073  31.079  28.292  1.00  0.00     0.049 A 
ATOM     58  H   UNL A   1      43.831  29.373  28.272  1.00  0.00     0.167 HD
ATOM     59  C   UNL A   1      43.005  31.811  29.446  1.00  0.00     0.074 A 
ATOM     60  C   UNL A   1      42.203  32.795  30.144  1.00  0.00     0.031 C 
ATOM     61  C   UNL A   1      44.252  32.048  28.969  1.00  0.00     0.037 A 
BRANCH  48  62
ATOM     62  C   UNL A   1      46.838  27.180  26.198  1.00  0.00     0.057 A 
ATOM     63  C   UNL A   1      47.853  26.481  26.863  1.00  0.00     0.134 A 
ATOM     64  C   UNL A   1      46.939  27.302  24.806  1.00  0.00     0.134 A 
ATOM     65  F   UNL A   1      47.821  26.343  28.197  1.00  0.00    -0.206 F 
ATOM     66  C   UNL A   1      48.936  25.934  26.171  1.00  0.00     0.040 A 
ATOM     67  C   UNL A   1      48.007  26.743  24.102  1.00  0.00     0.040 A 
ATOM     68  F   UNL A   1      45.998  27.957  24.110  1.00  0.00    -0.206 F 
ATOM     69  C   UNL A   1      49.011  26.058  24.785  1.00  0.00     0.006 A 
ENDBRANCH  48  62
BRANCH  49  70
ATOM     70  C   UNL A   1      38.713  30.565  30.891  1.00  0.00     0.057 A 
ATOM     71  C   UNL A   1      38.519  30.373  32.264  1.00  0.00     0.134 A 
ATOM     72  C   UNL A   1      37.707  31.235  30.185  1.00  0.00     0.134 A 
ATOM     73  F   UNL A   1      39.435  29.715  32.989  1.00  0.00    -0.206 F 
ATOM     74  C   UNL A   1      37.359  30.810  32.906  1.00  0.00     0.040 A 
ATOM     75  C   UNL A   1      36.553  31.699  30.818  1.00  0.00     0.040 A 
ATOM     76  F   UNL A   1      37.831  31.446  28.866  1.00  0.00    -0.206 F 
ATOM     77  C   UNL A   1      36.373  31.478  32.183  1.00  0.00     0.006 A 
ENDBRANCH  49  70
BRANCH  61  78
ATOM     78  C   UNL A   1      44.805  33.430  29.145  1.00  0.00     0.057 A 
ATOM     79  C   UNL A   1      45.579  33.778  30.258  1.00  0.00     0.134 A 
ATOM     80  C   UNL A   1      44.594  34.410  28.167  1.00  0.00     0.134 A 
ATOM     81  F   UNL A   1      45.807  32.887  31.234  1.00  0.00    -0.206 F 
ATOM     82  C   UNL A   1      46.109  35.062  30.402  1.00  0.00     0.040 A 
ATOM     83  C   UNL A   1      45.137  35.690  28.289  1.00  0.00     0.040 A 
ATOM     84  F   UNL A   1      43.869  34.136  27.072  1.00  0.00    -0.206 F 
ATOM     85  C   UNL A   1      45.893  36.020  29.412  1.00  0.00     0.006 A 
ENDBRANCH  61  78
ENDBRANCH  35  36
ENDBRANCH  28  30
ENDBRANCH  27  28
ENDBRANCH  26  27
ENDBRANCH  25  26
ENDBRANCH  24  25
ENDBRANCH   1  24
TORSDOF 19
ENDMDL
MODEL 2
REMARK VINA RESULT:     -10.4      1.281      2.392
REMARK SMILES C[C@H](NC(=O)N(CC(=O)OCCOCCOC(=O)c1ccc(-c2c3nc(c(-c4c(F)cccc4F)c4ccc([nH]4)c(-c4c(F)cccc4F)c4nc(c(-c5c(F)cccc5F)c5ccc2[nH]5)C=C4)C=C3)cc1)C(C)(C)C)c1nncn1C
REMARK SMILES IDX 12 1 11 2 10 3 8 4 9 5 7 6 6 7 4 8 3 9 5 11 2 12 1 13 77 14
REMARK SMILES IDX 78 15 81 16 79 17 80 18 82 19 73 20 74 21 75 22 76 23 13 24
REMARK SMILES IDX 14 25 15 26 16 27 17 28 18 29 19 30 20 31 72 32 21 33 71 34
REMARK SMILES IDX 22 35 23 36 24 37 65 38 25 39 70 40 64 41 66 42 26 43 69 44
REMARK SMILES IDX 63 45 62 46 27 48 53 49 36 50 52 51 37 52 40 53 51 54 67 55
REMARK SMILES IDX 38 56 39 57 50 59 68 60 41 61 28 62 29 63 34 64 30 65 31 66
REMARK SMILES IDX 33 67 35 68 32 69 54 70 55 71 60 72 56 73 57 74 59 75 61 76
REMARK SMILES IDX 58 77 42 78 43 79 48 80 44 81 45 82 47 83 49 84 46 85
REMARK H PARENT 3 10 66 47 40 58
REMARK Flexibility Score: inf
ROOT
ATOM      1  C   UNL A   1      33.639  20.675  25.299  1.00  0.00     0.202 C 
ENDROOT
BRANCH   1   2
ATOM      2  C   UNL A   1      33.037  21.840  26.100  1.00  0.00     0.261 C 
BRANCH   2   3
ATOM      3  O   UNL A   1      31.619  22.056  25.944  1.00  0.00    -0.462 OA
BRANCH   3   4
ATOM      4  C   UNL A   1      31.219  23.310  26.269  1.00  0.00     0.325 C 
ATOM      5  O   UNL A   1      30.527  23.587  27.250  1.00  0.00    -0.250 OA
BRANCH   4   6
ATOM      6  C   UNL A   1      31.524  24.399  25.247  1.00  0.00     0.244 C 
BRANCH   6   7
ATOM      7  N   UNL A   1      32.015  25.773  25.395  1.00  0.00    -0.309 N 
BRANCH   7   8
ATOM      8  C   UNL A   1      31.181  26.771  25.864  1.00  0.00     0.318 C 
ATOM      9  N   UNL A   1      30.333  27.392  25.006  1.00  0.00    -0.328 N 
ATOM     10  H   UNL A   1      29.964  28.235  25.358  1.00  0.00     0.166 HD
ATOM     11  O   UNL A   1      31.101  27.076  27.053  1.00  0.00    -0.249 OA
BRANCH   9  12
ATOM     12  C   UNL A   1      29.859  27.060  23.661  1.00  0.00     0.149 C 
ATOM     13  C   UNL A   1      28.703  26.069  23.721  1.00  0.00     0.040 C 
BRANCH  12  14
ATOM     14  C   UNL A   1      29.438  28.339  22.996  1.00  0.00     0.154 A 
ATOM     15  N   UNL A   1      28.205  28.805  22.914  1.00  0.00    -0.133 NA
ATOM     16  N   UNL A   1      30.288  29.281  22.465  1.00  0.00    -0.319 N 
ATOM     17  N   UNL A   1      28.255  30.073  22.390  1.00  0.00    -0.139 NA
ATOM     18  C   UNL A   1      29.512  30.354  22.148  1.00  0.00     0.225 A 
ATOM     19  C   UNL A   1      31.715  29.210  22.306  1.00  0.00     0.152 C 
ENDBRANCH  12  14
ENDBRANCH   9  12
ENDBRANCH   7   8
BRANCH   7  20
ATOM     20  C   UNL A   1      33.402  26.137  24.951  1.00  0.00     0.037 C 
ATOM     21  C   UNL A   1      33.502  26.207  23.418  1.00  0.00     0.034 C 
ATOM     22  C   UNL A   1      33.803  27.511  25.549  1.00  0.00     0.034 C 
ATOM     23  C   UNL A   1      34.468  25.150  25.471  1.00  0.00     0.034 C 
ENDBRANCH   7  20
ENDBRANCH   6   7
ENDBRANCH   4   6
ENDBRANCH   3   4
ENDBRANCH   2   3
ENDBRANCH   1   2
BRANCH   1  24
ATOM     24  O   UNL A   1      34.852  20.891  24.587  1.00  0.00    -0.374 OA
BRANCH  24  25
ATOM     25  C   UNL A   1      36.006  21.261  25.336  1.00  0.00     0.202 C 
BRANCH  25  26
ATOM     26  C   UNL A   1      37.315  20.523  25.031  1.00  0.00     0.261 C 
BRANCH  26  27
ATOM     27  O   UNL A   1      38.451  21.402  25.054  1.00  0.00    -0.460 OA
BRANCH  27  28
ATOM     28  C   UNL A   1      39.387  21.083  25.977  1.00  0.00     0.338 C 
ATOM     29  O   UNL A   1      39.999  20.024  26.070  1.00  0.00    -0.246 OA
BRANCH  28  30
ATOM     30  C   UNL A   1      39.744  22.257  26.787  1.00  0.00     0.060 A 
ATOM     31  C   UNL A   1      39.091  23.459  26.495  1.00  0.00     0.016 A 
ATOM     32  C   UNL A   1      40.798  22.224  27.701  1.00  0.00     0.016 A 
ATOM     33  C   UNL A   1      39.540  24.651  27.058  1.00  0.00     0.010 A 
ATOM     34  C   UNL A   1      41.258  23.425  28.259  1.00  0.00     0.010 A 
ATOM     35  C   UNL A   1      40.664  24.647  27.896  1.00  0.00    -0.014 A 
BRANCH  35  36
ATOM     36  C   UNL A   1      41.316  25.945  28.201  1.00  0.00     0.031 A 
ATOM     37  C   UNL A   1      42.711  26.190  27.686  1.00  0.00     0.074 A 
ATOM     38  C   UNL A   1      40.648  26.927  28.830  1.00  0.00     0.049 A 
ATOM     39  N   UNL A   1      43.444  27.273  27.753  1.00  0.00    -0.248 NA
ATOM     40  C   UNL A   1      43.361  25.068  26.989  1.00  0.00     0.031 C 
ATOM     41  C   UNL A   1      39.280  26.828  29.336  1.00  0.00     0.029 A 
ATOM     42  N   UNL A   1      41.029  28.209  29.137  1.00  0.00    -0.354 N 
ATOM     43  C   UNL A   1      44.629  26.966  27.095  1.00  0.00     0.074 A 
ATOM     44  C   UNL A   1      44.536  25.587  26.670  1.00  0.00     0.031 C 
ATOM     45  C   UNL A   1      38.935  28.005  29.889  1.00  0.00     0.029 A 
ATOM     46  C   UNL A   1      40.061  28.932  29.789  1.00  0.00     0.049 A 
ATOM     47  H   UNL A   1      41.916  28.576  28.911  1.00  0.00     0.167 HD
ATOM     48  C   UNL A   1      45.695  27.766  26.852  1.00  0.00     0.037 A 
ATOM     49  C   UNL A   1      40.086  30.196  30.253  1.00  0.00     0.037 A 
ATOM     50  C   UNL A   1      45.798  29.134  27.285  1.00  0.00     0.049 A 
ATOM     51  C   UNL A   1      41.313  31.040  30.036  1.00  0.00     0.074 A 
ATOM     52  C   UNL A   1      46.849  30.018  27.111  1.00  0.00     0.029 A 
ATOM     53  N   UNL A   1      44.812  29.814  27.981  1.00  0.00    -0.354 N 
ATOM     54  N   UNL A   1      42.422  30.744  29.400  1.00  0.00    -0.248 NA
ATOM     55  C   UNL A   1      41.292  32.400  30.596  1.00  0.00     0.031 C 
ATOM     56  C   UNL A   1      46.509  31.226  27.729  1.00  0.00     0.029 A 
ATOM     57  C   UNL A   1      45.232  31.104  28.253  1.00  0.00     0.049 A 
ATOM     58  H   UNL A   1      43.941  29.436  28.242  1.00  0.00     0.167 HD
ATOM     59  C   UNL A   1      43.211  31.885  29.456  1.00  0.00     0.074 A 
ATOM     60  C   UNL A   1      42.453  32.885  30.179  1.00  0.00     0.031 C 
ATOM     61  C   UNL A   1      44.454  32.090  28.955  1.00  0.00     0.037 A 
BRANCH  48  62
ATOM     62  C   UNL A   1      46.839  27.176  26.086  1.00  0.00     0.057 A 
ATOM     63  C   UNL A   1      46.966  27.360  24.703  1.00  0.00     0.134 A 
ATOM     64  C   UNL A   1      47.844  26.451  26.739  1.00  0.00     0.134 A 
ATOM     65  F   UNL A   1      46.029  28.032  24.017  1.00  0.00    -0.206 F 
ATOM     66  C   UNL A   1      48.047  26.831  23.994  1.00  0.00     0.040 A 
ATOM     67  C   UNL A   1      48.938  25.935  26.044  1.00  0.00     0.040 A 
ATOM     68  F   UNL A   1      47.781  26.243  28.063  1.00  0.00    -0.206 F 
ATOM     69  C   UNL A   1      49.041  26.122  24.666  1.00  0.00     0.006 A 
ENDBRANCH  48  62
BRANCH  49  70
ATOM     70  C   UNL A   1      38.914  30.751  30.975  1.00  0.00     0.057 A 
ATOM     71  C   UNL A   1      37.939  31.506  30.312  1.00  0.00     0.134 A 
ATOM     72  C   UNL A   1      38.764  30.578  32.356  1.00  0.00     0.134 A 
ATOM     73  F   UNL A   1      38.041  31.730  28.993  1.00  0.00    -0.206 F 
ATOM     74  C   UNL A   1      36.870  32.086  30.998  1.00  0.00     0.040 A 
ATOM     75  C   UNL A   1      37.688  31.131  33.052  1.00  0.00     0.040 A 
ATOM     76  F   UNL A   1      39.667  29.869  33.050  1.00  0.00    -0.206 F 
ATOM     77  C   UNL A   1      36.742  31.896  32.372  1.00  0.00     0.006 A 
ENDBRANCH  49  70
BRANCH  61  78
ATOM     78  C   UNL A   1      45.051  33.453  29.133  1.00  0.00     0.057 A 
ATOM     79  C   UNL A   1      44.866  34.469  28.188  1.00  0.00     0.134 A 
ATOM     80  C   UNL A   1      45.787  33.763  30.285  1.00  0.00     0.134 A 
ATOM     81  F   UNL A   1      44.181  34.231  27.060  1.00  0.00    -0.206 F 
ATOM     82  C   UNL A   1      45.408  35.742  28.373  1.00  0.00     0.040 A 
ATOM     83  C   UNL A   1      46.315  35.038  30.491  1.00  0.00     0.040 A 
ATOM     84  F   UNL A   1      45.992  32.836  31.232  1.00  0.00    -0.206 F 
ATOM     85  C   UNL A   1      46.129  36.031  29.531  1.00  0.00     0.006 A 
ENDBRANCH  61  78
ENDBRANCH  35  36
ENDBRANCH  28  30
ENDBRANCH  27  28
ENDBRANCH  26  27
ENDBRANCH  25  26
ENDBRANCH  24  25
ENDBRANCH   1  24
TORSDOF 19
ENDMDL
MODEL 3
REMARK VINA RESULT:     -10.3      2.069      3.931
REMARK SMILES C[C@H](NC(=O)N(CC(=O)OCCOCCOC(=O)c1ccc(-c2c3nc(c(-c4c(F)cccc4F)c4ccc([nH]4)c(-c4c(F)cccc4F)c4nc(c(-c5c(F)cccc5F)c5ccc2[nH]5)C=C4)C=C3)cc1)C(C)(C)C)c1nncn1C
REMARK SMILES IDX 12 1 11 2 10 3 8 4 9 5 7 6 6 7 4 8 3 9 5 11 2 12 1 13 77 14
REMARK SMILES IDX 78 15 81 16 79 17 80 18 82 19 73 20 74 21 75 22 76 23 13 24
REMARK SMILES IDX 14 25 15 26 16 27 17 28 18 29 19 30 20 31 72 32 21 33 71 34
REMARK SMILES IDX 22 35 23 36 24 37 65 38 25 39 70 40 64 41 66 42 26 43 69 44
REMARK SMILES IDX 63 45 62 46 27 48 53 49 36 50 52 51 37 52 40 53 51 54 67 55
REMARK SMILES IDX 38 56 39 57 50 59 68 60 41 61 28 62 29 63 34 64 30 65 31 66
REMARK SMILES IDX 33 67 35 68 32 69 54 70 55 71 60 72 56 73 57 74 59 75 61 76
REMARK SMILES IDX 58 77 42 78 43 79 48 80 44 81 45 82 47 83 49 84 46 85
REMARK H PARENT 3 10 66 47 40 58
REMARK Flexibility Score: inf
ROOT
ATOM      1  C   UNL A   1      38.107  23.579  26.097  1.00  0.00     0.202 C 
ENDROOT
BRANCH   1   2
ATOM      2  C   UNL A   1      36.884  23.725  25.179  1.00  0.00     0.261 C 
BRANCH   2   3
ATOM      3  O   UNL A   1      35.866  24.650  25.615  1.00  0.00    -0.462 OA
BRANCH   3   4
ATOM      4  C   UNL A   1      34.641  24.400  25.092  1.00  0.00     0.325 C 
ATOM      5  O   UNL A   1      34.414  24.255  23.890  1.00  0.00    -0.250 OA
BRANCH   4   6
ATOM      6  C   UNL A   1      33.467  24.473  26.062  1.00  0.00     0.244 C 
BRANCH   6   7
ATOM      7  N   UNL A   1      32.424  23.503  26.413  1.00  0.00    -0.309 N 
BRANCH   7   8
ATOM      8  C   UNL A   1      32.720  22.404  27.198  1.00  0.00     0.318 C 
ATOM      9  N   UNL A   1      32.927  21.198  26.609  1.00  0.00    -0.328 N 
ATOM     10  H   UNL A   1      32.888  20.441  27.238  1.00  0.00     0.166 HD
ATOM     11  O   UNL A   1      32.894  22.474  28.413  1.00  0.00    -0.249 OA
BRANCH   9  12
ATOM     12  C   UNL A   1      33.195  20.800  25.226  1.00  0.00     0.149 C 
ATOM     13  C   UNL A   1      34.657  21.035  24.866  1.00  0.00     0.040 C 
BRANCH  12  14
ATOM     14  C   UNL A   1      32.834  19.348  25.091  1.00  0.00     0.154 A 
ATOM     15  N   UNL A   1      32.726  18.477  26.078  1.00  0.00    -0.133 NA
ATOM     16  N   UNL A   1      32.450  18.725  23.927  1.00  0.00    -0.319 N 
ATOM     17  N   UNL A   1      32.212  17.309  25.572  1.00  0.00    -0.139 NA
ATOM     18  C   UNL A   1      32.030  17.480  24.285  1.00  0.00     0.225 A 
ATOM     19  C   UNL A   1      32.431  19.257  22.591  1.00  0.00     0.152 C 
ENDBRANCH  12  14
ENDBRANCH   9  12
ENDBRANCH   7   8
BRANCH   7  20
ATOM     20  C   UNL A   1      31.039  23.638  25.849  1.00  0.00     0.037 C 
ATOM     21  C   UNL A   1      30.494  25.065  26.029  1.00  0.00     0.034 C 
ATOM     22  C   UNL A   1      31.049  23.285  24.338  1.00  0.00     0.034 C 
ATOM     23  C   UNL A   1      30.042  22.645  26.483  1.00  0.00     0.034 C 
ENDBRANCH   7  20
ENDBRANCH   6   7
ENDBRANCH   4   6
ENDBRANCH   3   4
ENDBRANCH   2   3
ENDBRANCH   1   2
BRANCH   1  24
ATOM     24  O   UNL A   1      38.765  22.319  26.161  1.00  0.00    -0.374 OA
BRANCH  24  25
ATOM     25  C   UNL A   1      38.275  21.270  25.332  1.00  0.00     0.202 C 
BRANCH  25  26
ATOM     26  C   UNL A   1      38.978  19.909  25.419  1.00  0.00     0.261 C 
BRANCH  26  27
ATOM     27  O   UNL A   1      39.841  19.817  26.565  1.00  0.00    -0.460 OA
BRANCH  27  28
ATOM     28  C   UNL A   1      41.136  19.564  26.270  1.00  0.00     0.338 C 
ATOM     29  O   UNL A   1      41.586  18.560  25.726  1.00  0.00    -0.246 OA
BRANCH  28  30
ATOM     30  C   UNL A   1      41.970  20.750  26.513  1.00  0.00     0.060 A 
ATOM     31  C   UNL A   1      42.277  21.054  27.845  1.00  0.00     0.016 A 
ATOM     32  C   UNL A   1      42.313  21.630  25.486  1.00  0.00     0.016 A 
ATOM     33  C   UNL A   1      42.861  22.277  28.164  1.00  0.00     0.010 A 
ATOM     34  C   UNL A   1      42.889  22.867  25.809  1.00  0.00     0.010 A 
ATOM     35  C   UNL A   1      43.114  23.214  27.153  1.00  0.00    -0.014 A 
BRANCH  35  36
ATOM     36  C   UNL A   1      43.411  24.613  27.551  1.00  0.00     0.031 A 
ATOM     37  C   UNL A   1      44.808  25.139  27.349  1.00  0.00     0.074 A 
ATOM     38  C   UNL A   1      42.437  25.433  27.984  1.00  0.00     0.049 A 
ATOM     39  N   UNL A   1      45.278  26.347  27.540  1.00  0.00    -0.248 NA
ATOM     40  C   UNL A   1      45.807  24.179  26.851  1.00  0.00     0.031 C 
ATOM     41  C   UNL A   1      41.039  25.055  28.179  1.00  0.00     0.029 A 
ATOM     42  N   UNL A   1      42.478  26.762  28.325  1.00  0.00    -0.354 N 
ATOM     43  C   UNL A   1      46.617  26.293  27.171  1.00  0.00     0.074 A 
ATOM     44  C   UNL A   1      46.897  24.928  26.782  1.00  0.00     0.031 C 
ATOM     45  C   UNL A   1      40.353  26.132  28.602  1.00  0.00     0.029 A 
ATOM     46  C   UNL A   1      41.265  27.267  28.723  1.00  0.00     0.049 A 
ATOM     47  H   UNL A   1      43.302  27.302  28.288  1.00  0.00     0.167 HD
ATOM     48  C   UNL A   1      47.529  27.294  27.143  1.00  0.00     0.037 A 
ATOM     49  C   UNL A   1      40.934  28.505  29.138  1.00  0.00     0.037 A 
ATOM     50  C   UNL A   1      47.259  28.648  27.543  1.00  0.00     0.049 A 
ATOM     51  C   UNL A   1      41.987  29.581  29.169  1.00  0.00     0.074 A 
ATOM     52  C   UNL A   1      48.125  29.728  27.576  1.00  0.00     0.029 A 
ATOM     53  N   UNL A   1      46.027  29.108  27.980  1.00  0.00    -0.354 N 
ATOM     54  N   UNL A   1      43.245  29.521  28.805  1.00  0.00    -0.248 NA
ATOM     55  C   UNL A   1      41.571  30.902  29.665  1.00  0.00     0.031 C 
ATOM     56  C   UNL A   1      47.423  30.835  28.062  1.00  0.00     0.029 A 
ATOM     57  C   UNL A   1      46.112  30.453  28.295  1.00  0.00     0.049 A 
ATOM     58  H   UNL A   1      45.213  28.559  28.055  1.00  0.00     0.167 HD
ATOM     59  C   UNL A   1      43.760  30.797  28.995  1.00  0.00     0.074 A 
ATOM     60  C   UNL A   1      42.676  31.615  29.499  1.00  0.00     0.031 C 
ATOM     61  C   UNL A   1      45.017  31.254  28.775  1.00  0.00     0.037 A 
BRANCH  48  62
ATOM     62  C   UNL A   1      48.909  26.955  26.669  1.00  0.00     0.057 A 
ATOM     63  C   UNL A   1      49.900  26.513  27.554  1.00  0.00     0.134 A 
ATOM     64  C   UNL A   1      49.241  27.032  25.310  1.00  0.00     0.134 A 
ATOM     65  F   UNL A   1      49.649  26.431  28.870  1.00  0.00    -0.206 F 
ATOM     66  C   UNL A   1      51.178  26.173  27.107  1.00  0.00     0.040 A 
ATOM     67  C   UNL A   1      50.509  26.677  24.849  1.00  0.00     0.040 A 
ATOM     68  F   UNL A   1      48.336  27.446  24.411  1.00  0.00    -0.206 F 
ATOM     69  C   UNL A   1      51.484  26.247  25.749  1.00  0.00     0.006 A 
ENDBRANCH  48  62
BRANCH  49  70
ATOM     70  C   UNL A   1      39.545  28.804  29.564  1.00  0.00     0.057 A 
ATOM     71  C   UNL A   1      39.113  28.557  30.873  1.00  0.00     0.134 A 
ATOM     72  C   UNL A   1      38.601  29.304  28.658  1.00  0.00     0.134 A 
ATOM     73  F   UNL A   1      39.963  28.053  31.780  1.00  0.00    -0.206 F 
ATOM     74  C   UNL A   1      37.789  28.775  31.260  1.00  0.00     0.040 A 
ATOM     75  C   UNL A   1      37.281  29.550  29.037  1.00  0.00     0.040 A 
ATOM     76  F   UNL A   1      38.951  29.557  27.388  1.00  0.00    -0.206 F 
ATOM     77  C   UNL A   1      36.870  29.276  30.340  1.00  0.00     0.006 A 
ENDBRANCH  49  70
BRANCH  61  78
ATOM     78  C   UNL A   1      45.276  32.707  29.035  1.00  0.00     0.057 A 
ATOM     79  C   UNL A   1      45.715  33.166  30.283  1.00  0.00     0.134 A 
ATOM     80  C   UNL A   1      45.125  33.651  28.011  1.00  0.00     0.134 A 
ATOM     81  F   UNL A   1      45.869  32.313  31.306  1.00  0.00    -0.206 F 
ATOM     82  C   UNL A   1      45.976  34.519  30.509  1.00  0.00     0.040 A 
ATOM     83  C   UNL A   1      45.403  35.002  28.219  1.00  0.00     0.040 A 
ATOM     84  F   UNL A   1      44.717  33.273  26.791  1.00  0.00    -0.206 F 
ATOM     85  C   UNL A   1      45.826  35.440  29.473  1.00  0.00     0.006 A 
ENDBRANCH  61  78
ENDBRANCH  35  36
ENDBRANCH  28  30
ENDBRANCH  27  28
ENDBRANCH  26  27
ENDBRANCH  25  26
ENDBRANCH  24  25
ENDBRANCH   1  24
TORSDOF 19
ENDMDL
