MODEL 1
REMARK VINA RESULT:     -10.8      0.000      0.000
REMARK SMILES O=C(NC[C@@H]1CC[C@@H](C(=O)OCCOCCOC(=O)c2ccc(-c3c4nc(c(-c5c(F)cccc5F)c5ccc([nH]5)c(-c5c(F)cccc5F)c5nc(c(-c6c(F)cccc6F)c6ccc3[nH]6)C=C5)C=C4)cc2)O1)NC1CC1
REMARK SMILES IDX 13 1 12 2 11 3 9 4 10 5 8 6 5 7 6 8 74 9 7 10 4 11 3 12 1 13
REMARK SMILES IDX 2 14 75 15 76 18 77 19 78 20 14 21 15 22 16 23 17 24 18 25
REMARK SMILES IDX 19 26 20 27 21 28 73 29 22 30 72 31 23 32 24 33 25 34 66 35
REMARK SMILES IDX 26 36 71 37 65 38 67 39 27 40 70 41 64 42 63 43 28 45 54 46
REMARK SMILES IDX 37 47 53 48 38 49 41 50 52 51 68 52 39 53 40 54 51 56 69 57
REMARK SMILES IDX 42 58 29 59 30 60 35 61 31 62 32 63 34 64 36 65 33 66 55 67
REMARK SMILES IDX 56 68 61 69 57 70 58 71 60 72 62 73 59 74 43 75 44 76 49 77
REMARK SMILES IDX 45 78 46 79 48 80 50 81 47 82
REMARK H PARENT 3 16 75 17 67 44 41 55
REMARK Flexibility Score: inf
ROOT
ATOM      1  C   UNL A   1      45.909  19.060  24.971  1.00  0.00     0.202 C 
ENDROOT
BRANCH   1   2
ATOM      2  C   UNL A   1      44.593  19.164  24.193  1.00  0.00     0.261 C 
BRANCH   2   3
ATOM      3  O   UNL A   1      43.660  18.183  24.682  1.00  0.00    -0.461 OA
BRANCH   3   4
ATOM      4  C   UNL A   1      43.114  18.440  25.903  1.00  0.00     0.335 C 
ATOM      5  O   UNL A   1      43.223  17.714  26.883  1.00  0.00    -0.249 OA
BRANCH   4   6
ATOM      6  C   UNL A   1      42.389  19.789  25.929  1.00  0.00     0.228 C 
ATOM      7  C   UNL A   1      40.331  20.713  26.544  1.00  0.00     0.138 C 
ATOM      8  C   UNL A   1      41.450  21.587  27.090  1.00  0.00     0.037 C 
ATOM      9  O   UNL A   1      40.965  19.697  25.741  1.00  0.00    -0.361 OA
ATOM     10  C   UNL A   1      42.575  20.582  27.211  1.00  0.00     0.047 C 
BRANCH   7  11
ATOM     11  C   UNL A   1      39.242  21.454  25.753  1.00  0.00     0.149 C 
BRANCH  11  12
ATOM     12  N   UNL A   1      38.157  20.591  25.307  1.00  0.00    -0.336 N 
ATOM     13  O   UNL A   1      36.092  19.959  24.749  1.00  0.00    -0.249 OA
ATOM     14  C   UNL A   1      36.861  20.880  25.011  1.00  0.00     0.315 C 
ATOM     15  N   UNL A   1      36.499  22.196  25.024  1.00  0.00    -0.335 N 
ATOM     16  H   UNL A   1      38.401  19.643  25.202  1.00  0.00     0.165 HD
ATOM     17  H   UNL A   1      37.194  22.873  25.188  1.00  0.00     0.165 HD
BRANCH  15  18
ATOM     18  C   UNL A   1      35.155  22.638  24.810  1.00  0.00     0.084 C 
ATOM     19  C   UNL A   1      34.802  24.094  24.964  1.00  0.00     0.027 C 
ATOM     20  C   UNL A   1      34.802  23.463  23.603  1.00  0.00     0.027 C 
ENDBRANCH  15  18
ENDBRANCH  11  12
ENDBRANCH   7  11
ENDBRANCH   4   6
ENDBRANCH   3   4
ENDBRANCH   2   3
ENDBRANCH   1   2
BRANCH   1  21
ATOM     21  O   UNL A   1      46.469  20.308  25.391  1.00  0.00    -0.374 OA
BRANCH  21  22
ATOM     22  C   UNL A   1      45.895  21.487  24.828  1.00  0.00     0.202 C 
BRANCH  22  23
ATOM     23  C   UNL A   1      45.336  22.495  25.835  1.00  0.00     0.261 C 
BRANCH  23  24
ATOM     24  O   UNL A   1      44.363  23.373  25.241  1.00  0.00    -0.460 OA
BRANCH  24  25
ATOM     25  C   UNL A   1      44.711  24.679  25.262  1.00  0.00     0.338 C 
ATOM     26  O   UNL A   1      45.610  25.215  24.628  1.00  0.00    -0.246 OA
BRANCH  25  27
ATOM     27  C   UNL A   1      43.764  25.462  26.078  1.00  0.00     0.060 A 
ATOM     28  C   UNL A   1      44.074  26.811  26.290  1.00  0.00     0.016 A 
ATOM     29  C   UNL A   1      42.659  24.881  26.707  1.00  0.00     0.016 A 
ATOM     30  C   UNL A   1      43.334  27.563  27.197  1.00  0.00     0.010 A 
ATOM     31  C   UNL A   1      41.916  25.639  27.620  1.00  0.00     0.010 A 
ATOM     32  C   UNL A   1      42.284  26.966  27.907  1.00  0.00    -0.014 A 
BRANCH  32  33
ATOM     33  C   UNL A   1      41.720  27.684  29.075  1.00  0.00     0.031 A 
ATOM     34  C   UNL A   1      42.404  27.555  30.409  1.00  0.00     0.074 A 
ATOM     35  C   UNL A   1      40.658  28.498  28.940  1.00  0.00     0.049 A 
ATOM     36  N   UNL A   1      42.129  28.144  31.545  1.00  0.00    -0.248 NA
ATOM     37  C   UNL A   1      43.552  26.637  30.469  1.00  0.00     0.031 C 
ATOM     38  C   UNL A   1      39.918  28.722  27.700  1.00  0.00     0.029 A 
ATOM     39  N   UNL A   1      40.025  29.291  29.863  1.00  0.00    -0.354 N 
ATOM     40  C   UNL A   1      43.071  27.673  32.451  1.00  0.00     0.074 A 
ATOM     41  C   UNL A   1      43.895  26.716  31.745  1.00  0.00     0.031 C 
ATOM     42  C   UNL A   1      38.922  29.592  27.942  1.00  0.00     0.029 A 
ATOM     43  C   UNL A   1      38.951  29.976  29.353  1.00  0.00     0.049 A 
ATOM     44  H   UNL A   1      40.314  29.361  30.801  1.00  0.00     0.167 HD
ATOM     45  C   UNL A   1      43.245  28.016  33.749  1.00  0.00     0.037 A 
ATOM     46  C   UNL A   1      38.088  30.815  29.958  1.00  0.00     0.037 A 
ATOM     47  C   UNL A   1      42.428  28.965  34.456  1.00  0.00     0.049 A 
ATOM     48  C   UNL A   1      38.281  31.161  31.408  1.00  0.00     0.074 A 
ATOM     49  C   UNL A   1      42.538  29.395  35.767  1.00  0.00     0.029 A 
ATOM     50  N   UNL A   1      41.341  29.630  33.907  1.00  0.00    -0.354 N 
ATOM     51  N   UNL A   1      39.199  30.741  32.244  1.00  0.00    -0.248 NA
ATOM     52  C   UNL A   1      37.325  32.113  31.996  1.00  0.00     0.031 C 
ATOM     53  C   UNL A   1      41.491  30.289  36.022  1.00  0.00     0.029 A 
ATOM     54  C   UNL A   1      40.757  30.450  34.858  1.00  0.00     0.049 A 
ATOM     55  H   UNL A   1      41.030  29.532  32.977  1.00  0.00     0.167 HD
ATOM     56  C   UNL A   1      38.948  31.390  33.448  1.00  0.00     0.074 A 
ATOM     57  C   UNL A   1      37.798  32.243  33.227  1.00  0.00     0.031 C 
ATOM     58  C   UNL A   1      39.610  31.290  34.626  1.00  0.00     0.037 A 
BRANCH  45  59
ATOM     59  C   UNL A   1      44.361  27.336  34.488  1.00  0.00     0.057 A 
ATOM     60  C   UNL A   1      44.173  26.115  35.150  1.00  0.00     0.134 A 
ATOM     61  C   UNL A   1      45.636  27.912  34.544  1.00  0.00     0.134 A 
ATOM     62  F   UNL A   1      42.971  25.520  35.149  1.00  0.00    -0.206 F 
ATOM     63  C   UNL A   1      45.205  25.506  35.867  1.00  0.00     0.040 A 
ATOM     64  C   UNL A   1      46.683  27.301  35.237  1.00  0.00     0.040 A 
ATOM     65  F   UNL A   1      45.885  29.079  33.931  1.00  0.00    -0.206 F 
ATOM     66  C   UNL A   1      46.466  26.098  35.908  1.00  0.00     0.006 A 
ENDBRANCH  45  59
BRANCH  46  67
ATOM     67  C   UNL A   1      36.963  31.389  29.181  1.00  0.00     0.057 A 
ATOM     68  C   UNL A   1      35.815  30.642  28.895  1.00  0.00     0.134 A 
ATOM     69  C   UNL A   1      37.008  32.709  28.714  1.00  0.00     0.134 A 
ATOM     70  F   UNL A   1      35.723  29.367  29.297  1.00  0.00    -0.206 F 
ATOM     71  C   UNL A   1      34.756  31.183  28.164  1.00  0.00     0.040 A 
ATOM     72  C   UNL A   1      35.949  33.269  28.001  1.00  0.00     0.040 A 
ATOM     73  F   UNL A   1      38.081  33.476  28.960  1.00  0.00    -0.206 F 
ATOM     74  C   UNL A   1      34.820  32.504  27.720  1.00  0.00     0.006 A 
ENDBRANCH  46  67
BRANCH  58  75
ATOM     75  C   UNL A   1      39.121  32.139  35.762  1.00  0.00     0.057 A 
ATOM     76  C   UNL A   1      39.523  33.472  35.914  1.00  0.00     0.134 A 
ATOM     77  C   UNL A   1      38.210  31.629  36.695  1.00  0.00     0.134 A 
ATOM     78  F   UNL A   1      40.402  34.018  35.060  1.00  0.00    -0.206 F 
ATOM     79  C   UNL A   1      39.055  34.259  36.968  1.00  0.00     0.040 A 
ATOM     80  C   UNL A   1      37.717  32.413  37.740  1.00  0.00     0.040 A 
ATOM     81  F   UNL A   1      37.778  30.361  36.602  1.00  0.00    -0.206 F 
ATOM     82  C   UNL A   1      38.145  33.731  37.881  1.00  0.00     0.006 A 
ENDBRANCH  58  75
ENDBRANCH  32  33
ENDBRANCH  25  27
ENDBRANCH  24  25
ENDBRANCH  23  24
ENDBRANCH  22  23
ENDBRANCH  21  22
ENDBRANCH   1  21
TORSDOF 17
ENDMDL
MODEL 2
REMARK VINA RESULT:     -10.5      5.573     11.234
REMARK SMILES O=C(NC[C@@H]1CC[C@@H](C(=O)OCCOCCOC(=O)c2ccc(-c3c4nc(c(-c5c(F)cccc5F)c5ccc([nH]5)c(-c5c(F)cccc5F)c5nc(c(-c6c(F)cccc6F)c6ccc3[nH]6)C=C5)C=C4)cc2)O1)NC1CC1
REMARK SMILES IDX 13 1 12 2 11 3 9 4 10 5 8 6 5 7 6 8 74 9 7 10 4 11 3 12 1 13
REMARK SMILES IDX 2 14 75 15 76 18 77 19 78 20 14 21 15 22 16 23 17 24 18 25
REMARK SMILES IDX 19 26 20 27 21 28 73 29 22 30 72 31 23 32 24 33 25 34 66 35
REMARK SMILES IDX 26 36 71 37 65 38 67 39 27 40 70 41 64 42 63 43 28 45 54 46
REMARK SMILES IDX 37 47 53 48 38 49 41 50 52 51 68 52 39 53 40 54 51 56 69 57
REMARK SMILES IDX 42 58 29 59 30 60 35 61 31 62 32 63 34 64 36 65 33 66 55 67
REMARK SMILES IDX 56 68 61 69 57 70 58 71 60 72 62 73 59 74 43 75 44 76 49 77
REMARK SMILES IDX 45 78 46 79 48 80 50 81 47 82
REMARK H PARENT 3 16 75 17 67 44 41 55
REMARK Flexibility Score: inf
ROOT
ATOM      1  C   UNL A   1      34.548  34.528  33.534  1.00  0.00     0.202 C 
ENDROOT
BRANCH   1   2
ATOM      2  C   UNL A   1      35.500  34.506  34.734  1.00  0.00     0.261 C 
BRANCH   2   3
ATOM      3  O   UNL A   1      36.789  34.012  34.324  1.00  0.00    -0.461 OA
BRANCH   3   4
ATOM      4  C   UNL A   1      37.248  32.921  34.995  1.00  0.00     0.335 C 
ATOM      5  O   UNL A   1      37.054  32.698  36.184  1.00  0.00    -0.249 OA
BRANCH   4   6
ATOM      6  C   UNL A   1      37.995  31.957  34.068  1.00  0.00     0.228 C 
ATOM      7  C   UNL A   1      39.002  29.847  34.102  1.00  0.00     0.138 C 
ATOM      8  C   UNL A   1      38.120  29.954  32.868  1.00  0.00     0.037 C 
ATOM      9  O   UNL A   1      38.980  31.144  34.731  1.00  0.00    -0.361 OA
ATOM     10  C   UNL A   1      37.102  30.978  33.323  1.00  0.00     0.047 C 
BRANCH   7  11
ATOM     11  C   UNL A   1      40.442  29.374  33.844  1.00  0.00     0.149 C 
BRANCH  11  12
ATOM     12  N   UNL A   1      41.285  29.400  35.031  1.00  0.00    -0.336 N 
ATOM     13  O   UNL A   1      42.294  28.684  36.886  1.00  0.00    -0.249 OA
ATOM     14  C   UNL A   1      41.649  28.402  35.880  1.00  0.00     0.315 C 
ATOM     15  N   UNL A   1      41.266  27.134  35.550  1.00  0.00    -0.335 N 
ATOM     16  H   UNL A   1      41.653  30.286  35.255  1.00  0.00     0.165 HD
ATOM     17  H   UNL A   1      40.800  26.992  34.695  1.00  0.00     0.165 HD
BRANCH  15  18
ATOM     18  C   UNL A   1      41.511  26.002  36.388  1.00  0.00     0.084 C 
ATOM     19  C   UNL A   1      41.696  24.635  35.783  1.00  0.00     0.027 C 
ATOM     20  C   UNL A   1      42.861  25.340  36.410  1.00  0.00     0.027 C 
ENDBRANCH  15  18
ENDBRANCH  11  12
ENDBRANCH   7  11
ENDBRANCH   4   6
ENDBRANCH   3   4
ENDBRANCH   2   3
ENDBRANCH   1   2
BRANCH   1  21
ATOM     21  O   UNL A   1      34.006  35.811  33.210  1.00  0.00    -0.374 OA
BRANCH  21  22
ATOM     22  C   UNL A   1      32.668  35.833  32.714  1.00  0.00     0.202 C 
BRANCH  22  23
ATOM     23  C   UNL A   1      32.520  36.179  31.230  1.00  0.00     0.261 C 
BRANCH  23  24
ATOM     24  O   UNL A   1      32.605  35.014  30.390  1.00  0.00    -0.460 OA
BRANCH  24  25
ATOM     25  C   UNL A   1      33.329  35.197  29.263  1.00  0.00     0.338 C 
ATOM     26  O   UNL A   1      33.176  36.070  28.418  1.00  0.00    -0.246 OA
BRANCH  25  27
ATOM     27  C   UNL A   1      34.468  34.262  29.212  1.00  0.00     0.060 A 
ATOM     28  C   UNL A   1      34.569  33.328  30.250  1.00  0.00     0.016 A 
ATOM     29  C   UNL A   1      35.470  34.354  28.241  1.00  0.00     0.016 A 
ATOM     30  C   UNL A   1      35.710  32.541  30.372  1.00  0.00     0.010 A 
ATOM     31  C   UNL A   1      36.618  33.562  28.366  1.00  0.00     0.010 A 
ATOM     32  C   UNL A   1      36.764  32.692  29.462  1.00  0.00    -0.014 A 
BRANCH  32  33
ATOM     33  C   UNL A   1      38.075  32.080  29.787  1.00  0.00     0.031 A 
ATOM     34  C   UNL A   1      39.008  32.807  30.715  1.00  0.00     0.074 A 
ATOM     35  C   UNL A   1      38.403  30.861  29.323  1.00  0.00     0.049 A 
ATOM     36  N   UNL A   1      40.168  32.432  31.190  1.00  0.00    -0.248 NA
ATOM     37  C   UNL A   1      38.574  34.138  31.168  1.00  0.00     0.031 C 
ATOM     38  C   UNL A   1      37.580  30.047  28.431  1.00  0.00     0.029 A 
ATOM     39  N   UNL A   1      39.520  30.097  29.548  1.00  0.00    -0.354 N 
ATOM     40  C   UNL A   1      40.599  33.476  32.000  1.00  0.00     0.074 A 
ATOM     41  C   UNL A   1      39.599  34.517  31.915  1.00  0.00     0.031 C 
ATOM     42  C   UNL A   1      38.226  28.896  28.177  1.00  0.00     0.029 A 
ATOM     43  C   UNL A   1      39.509  28.899  28.880  1.00  0.00     0.049 A 
ATOM     44  H   UNL A   1      40.259  30.382  30.133  1.00  0.00     0.167 HD
ATOM     45  C   UNL A   1      41.719  33.556  32.758  1.00  0.00     0.037 A 
ATOM     46  C   UNL A   1      40.430  27.917  28.839  1.00  0.00     0.037 A 
ATOM     47  C   UNL A   1      42.717  32.524  32.844  1.00  0.00     0.049 A 
ATOM     48  C   UNL A   1      41.681  28.037  29.665  1.00  0.00     0.074 A 
ATOM     49  C   UNL A   1      43.876  32.502  33.600  1.00  0.00     0.029 A 
ATOM     50  N   UNL A   1      42.675  31.328  32.142  1.00  0.00    -0.354 N 
ATOM     51  N   UNL A   1      42.058  29.010  30.459  1.00  0.00    -0.248 NA
ATOM     52  C   UNL A   1      42.627  26.913  29.603  1.00  0.00     0.031 C 
ATOM     53  C   UNL A   1      44.555  31.310  33.324  1.00  0.00     0.029 A 
ATOM     54  C   UNL A   1      43.798  30.570  32.430  1.00  0.00     0.049 A 
ATOM     55  H   UNL A   1      41.953  31.058  31.529  1.00  0.00     0.167 HD
ATOM     56  C   UNL A   1      43.272  28.610  31.006  1.00  0.00     0.074 A 
ATOM     57  C   UNL A   1      43.559  27.298  30.464  1.00  0.00     0.031 C 
ATOM     58  C   UNL A   1      44.073  29.268  31.879  1.00  0.00     0.037 A 
BRANCH  45  59
ATOM     59  C   UNL A   1      41.922  34.821  33.539  1.00  0.00     0.057 A 
ATOM     60  C   UNL A   1      41.294  35.038  34.773  1.00  0.00     0.134 A 
ATOM     61  C   UNL A   1      42.752  35.837  33.048  1.00  0.00     0.134 A 
ATOM     62  F   UNL A   1      40.474  34.111  35.289  1.00  0.00    -0.206 F 
ATOM     63  C   UNL A   1      41.458  36.233  35.476  1.00  0.00     0.040 A 
ATOM     64  C   UNL A   1      42.943  37.026  33.754  1.00  0.00     0.040 A 
ATOM     65  F   UNL A   1      43.385  35.694  31.875  1.00  0.00    -0.206 F 
ATOM     66  C   UNL A   1      42.288  37.230  34.967  1.00  0.00     0.006 A 
ENDBRANCH  45  59
BRANCH  46  67
ATOM     67  C   UNL A   1      40.195  26.730  27.982  1.00  0.00     0.057 A 
ATOM     68  C   UNL A   1      40.754  26.627  26.705  1.00  0.00     0.134 A 
ATOM     69  C   UNL A   1      39.407  25.662  28.432  1.00  0.00     0.134 A 
ATOM     70  F   UNL A   1      41.500  27.626  26.213  1.00  0.00    -0.206 F 
ATOM     71  C   UNL A   1      40.532  25.509  25.899  1.00  0.00     0.040 A 
ATOM     72  C   UNL A   1      39.195  24.530  27.646  1.00  0.00     0.040 A 
ATOM     73  F   UNL A   1      38.846  25.701  29.650  1.00  0.00    -0.206 F 
ATOM     74  C   UNL A   1      39.755  24.453  26.373  1.00  0.00     0.006 A 
ENDBRANCH  46  67
BRANCH  58  75
ATOM     75  C   UNL A   1      45.327  28.570  32.319  1.00  0.00     0.057 A 
ATOM     76  C   UNL A   1      46.555  28.786  31.681  1.00  0.00     0.134 A 
ATOM     77  C   UNL A   1      45.312  27.699  33.416  1.00  0.00     0.134 A 
ATOM     78  F   UNL A   1      46.634  29.600  30.618  1.00  0.00    -0.206 F 
ATOM     79  C   UNL A   1      47.719  28.141  32.103  1.00  0.00     0.040 A 
ATOM     80  C   UNL A   1      46.474  27.067  33.861  1.00  0.00     0.040 A 
ATOM     81  F   UNL A   1      44.170  27.455  34.077  1.00  0.00    -0.206 F 
ATOM     82  C   UNL A   1      47.681  27.282  33.200  1.00  0.00     0.006 A 
ENDBRANCH  58  75
ENDBRANCH  32  33
ENDBRANCH  25  27
ENDBRANCH  24  25
ENDBRANCH  23  24
ENDBRANCH  22  23
ENDBRANCH  21  22
ENDBRANCH   1  21
TORSDOF 17
ENDMDL
MODEL 3
REMARK VINA RESULT:     -10.5      0.903      6.408
REMARK SMILES O=C(NC[C@@H]1CC[C@@H](C(=O)OCCOCCOC(=O)c2ccc(-c3c4nc(c(-c5c(F)cccc5F)c5ccc([nH]5)c(-c5c(F)cccc5F)c5nc(c(-c6c(F)cccc6F)c6ccc3[nH]6)C=C5)C=C4)cc2)O1)NC1CC1
REMARK SMILES IDX 13 1 12 2 11 3 9 4 10 5 8 6 5 7 6 8 74 9 7 10 4 11 3 12 1 13
REMARK SMILES IDX 2 14 75 15 76 18 77 19 78 20 14 21 15 22 16 23 17 24 18 25
REMARK SMILES IDX 19 26 20 27 21 28 73 29 22 30 72 31 23 32 24 33 25 34 66 35
REMARK SMILES IDX 26 36 71 37 65 38 67 39 27 40 70 41 64 42 63 43 28 45 54 46
REMARK SMILES IDX 37 47 53 48 38 49 41 50 52 51 68 52 39 53 40 54 51 56 69 57
REMARK SMILES IDX 42 58 29 59 30 60 35 61 31 62 32 63 34 64 36 65 33 66 55 67
REMARK SMILES IDX 56 68 61 69 57 70 58 71 60 72 62 73 59 74 43 75 44 76 49 77
REMARK SMILES IDX 45 78 46 79 48 80 50 81 47 82
REMARK H PARENT 3 16 75 17 67 44 41 55
REMARK Flexibility Score: inf
ROOT
ATOM      1  C   UNL A   1      46.120  19.247  24.871  1.00  0.00     0.202 C 
ENDROOT
BRANCH   1   2
ATOM      2  C   UNL A   1      44.721  19.196  24.249  1.00  0.00     0.261 C 
BRANCH   2   3
ATOM      3  O   UNL A   1      43.977  18.100  24.812  1.00  0.00    -0.461 OA
BRANCH   3   4
ATOM      4  C   UNL A   1      43.293  18.373  25.957  1.00  0.00     0.335 C 
ATOM      5  O   UNL A   1      43.454  17.790  27.023  1.00  0.00    -0.249 OA
BRANCH   4   6
ATOM      6  C   UNL A   1      42.330  19.550  25.777  1.00  0.00     0.228 C 
ATOM      7  C   UNL A   1      40.132  20.170  26.283  1.00  0.00     0.138 C 
ATOM      8  C   UNL A   1      41.066  21.314  26.647  1.00  0.00     0.037 C 
ATOM      9  O   UNL A   1      40.949  19.168  25.644  1.00  0.00    -0.361 OA
ATOM     10  C   UNL A   1      42.357  20.569  26.904  1.00  0.00     0.047 C 
BRANCH   7  11
ATOM     11  C   UNL A   1      38.929  20.554  25.408  1.00  0.00     0.149 C 
BRANCH  11  12
ATOM     12  N   UNL A   1      38.515  21.941  25.561  1.00  0.00    -0.336 N 
ATOM     13  O   UNL A   1      37.160  23.701  25.767  1.00  0.00    -0.249 OA
ATOM     14  C   UNL A   1      37.284  22.480  25.773  1.00  0.00     0.315 C 
ATOM     15  N   UNL A   1      36.253  21.610  25.982  1.00  0.00    -0.335 N 
ATOM     16  H   UNL A   1      39.247  22.598  25.502  1.00  0.00     0.165 HD
ATOM     17  H   UNL A   1      36.452  20.647  26.027  1.00  0.00     0.165 HD
BRANCH  15  18
ATOM     18  C   UNL A   1      34.895  22.032  26.139  1.00  0.00     0.084 C 
ATOM     19  C   UNL A   1      34.076  21.537  27.302  1.00  0.00     0.027 C 
ATOM     20  C   UNL A   1      34.508  22.972  27.247  1.00  0.00     0.027 C 
ENDBRANCH  15  18
ENDBRANCH  11  12
ENDBRANCH   7  11
ENDBRANCH   4   6
ENDBRANCH   3   4
ENDBRANCH   2   3
ENDBRANCH   1   2
BRANCH   1  21
ATOM     21  O   UNL A   1      46.404  20.421  25.637  1.00  0.00    -0.374 OA
BRANCH  21  22
ATOM     22  C   UNL A   1      45.867  21.649  25.147  1.00  0.00     0.202 C 
BRANCH  22  23
ATOM     23  C   UNL A   1      45.447  22.660  26.218  1.00  0.00     0.261 C 
BRANCH  23  24
ATOM     24  O   UNL A   1      44.164  23.247  25.935  1.00  0.00    -0.460 OA
BRANCH  24  25
ATOM     25  C   UNL A   1      44.222  24.544  25.558  1.00  0.00     0.338 C 
ATOM     26  O   UNL A   1      44.768  25.002  24.562  1.00  0.00    -0.246 OA
BRANCH  25  27
ATOM     27  C   UNL A   1      43.407  25.389  26.451  1.00  0.00     0.060 A 
ATOM     28  C   UNL A   1      43.678  26.762  26.448  1.00  0.00     0.016 A 
ATOM     29  C   UNL A   1      42.474  24.851  27.343  1.00  0.00     0.016 A 
ATOM     30  C   UNL A   1      43.084  27.592  27.394  1.00  0.00     0.010 A 
ATOM     31  C   UNL A   1      41.878  25.688  28.294  1.00  0.00     0.010 A 
ATOM     32  C   UNL A   1      42.222  27.050  28.356  1.00  0.00    -0.014 A 
BRANCH  32  33
ATOM     33  C   UNL A   1      41.851  27.884  29.526  1.00  0.00     0.031 A 
ATOM     34  C   UNL A   1      40.638  28.769  29.435  1.00  0.00     0.074 A 
ATOM     35  C   UNL A   1      42.539  27.802  30.678  1.00  0.00     0.049 A 
ATOM     36  N   UNL A   1      40.091  29.526  30.350  1.00  0.00    -0.248 NA
ATOM     37  C   UNL A   1      39.951  28.804  28.134  1.00  0.00     0.031 C 
ATOM     38  C   UNL A   1      43.720  26.972  30.900  1.00  0.00     0.029 A 
ATOM     39  N   UNL A   1      42.333  28.429  31.881  1.00  0.00    -0.354 N 
ATOM     40  C   UNL A   1      38.995  30.123  29.740  1.00  0.00     0.074 A 
ATOM     41  C   UNL A   1      38.981  29.675  28.364  1.00  0.00     0.031 C 
ATOM     42  C   UNL A   1      44.141  27.147  32.165  1.00  0.00     0.029 A 
ATOM     43  C   UNL A   1      43.264  28.106  32.835  1.00  0.00     0.049 A 
ATOM     44  H   UNL A   1      41.586  29.050  32.043  1.00  0.00     0.167 HD
ATOM     45  C   UNL A   1      38.072  30.956  30.278  1.00  0.00     0.037 A 
ATOM     46  C   UNL A   1      43.396  28.540  34.103  1.00  0.00     0.037 A 
ATOM     47  C   UNL A   1      38.082  31.404  31.644  1.00  0.00     0.049 A 
ATOM     48  C   UNL A   1      42.377  29.487  34.675  1.00  0.00     0.074 A 
ATOM     49  C   UNL A   1      37.180  32.233  32.289  1.00  0.00     0.029 A 
ATOM     50  N   UNL A   1      39.051  31.064  32.577  1.00  0.00    -0.354 N 
ATOM     51  N   UNL A   1      41.322  30.012  34.100  1.00  0.00    -0.248 NA
ATOM     52  C   UNL A   1      42.560  29.890  36.077  1.00  0.00     0.031 C 
ATOM     53  C   UNL A   1      37.626  32.426  33.602  1.00  0.00     0.029 A 
ATOM     54  C   UNL A   1      38.781  31.683  33.787  1.00  0.00     0.049 A 
ATOM     55  H   UNL A   1      39.817  30.470  32.404  1.00  0.00     0.167 HD
ATOM     56  C   UNL A   1      40.703  30.789  35.073  1.00  0.00     0.074 A 
ATOM     57  C   UNL A   1      41.495  30.654  36.279  1.00  0.00     0.031 C 
ATOM     58  C   UNL A   1      39.581  31.543  34.977  1.00  0.00     0.037 A 
BRANCH  45  59
ATOM     59  C   UNL A   1      36.985  31.446  29.367  1.00  0.00     0.057 A 
ATOM     60  C   UNL A   1      37.018  32.726  28.798  1.00  0.00     0.134 A 
ATOM     61  C   UNL A   1      35.889  30.630  29.059  1.00  0.00     0.134 A 
ATOM     62  F   UNL A   1      38.032  33.563  29.067  1.00  0.00    -0.206 F 
ATOM     63  C   UNL A   1      35.986  33.190  27.981  1.00  0.00     0.040 A 
ATOM     64  C   UNL A   1      34.862  31.074  28.224  1.00  0.00     0.040 A 
ATOM     65  F   UNL A   1      35.795  29.393  29.568  1.00  0.00    -0.206 F 
ATOM     66  C   UNL A   1      34.904  32.360  27.689  1.00  0.00     0.006 A 
ENDBRANCH  45  59
BRANCH  46  67
ATOM     67  C   UNL A   1      44.541  28.070  34.920  1.00  0.00     0.057 A 
ATOM     68  C   UNL A   1      45.757  28.760  34.940  1.00  0.00     0.134 A 
ATOM     69  C   UNL A   1      44.438  26.918  35.711  1.00  0.00     0.134 A 
ATOM     70  F   UNL A   1      45.922  29.858  34.188  1.00  0.00    -0.206 F 
ATOM     71  C   UNL A   1      46.835  28.318  35.709  1.00  0.00     0.040 A 
ATOM     72  C   UNL A   1      45.499  26.477  36.500  1.00  0.00     0.040 A 
ATOM     73  F   UNL A   1      43.295  26.215  35.736  1.00  0.00    -0.206 F 
ATOM     74  C   UNL A   1      46.704  27.175  36.497  1.00  0.00     0.006 A 
ENDBRANCH  46  67
BRANCH  58  75
ATOM     75  C   UNL A   1      39.130  32.263  36.214  1.00  0.00     0.057 A 
ATOM     76  C   UNL A   1      39.593  33.547  36.531  1.00  0.00     0.134 A 
ATOM     77  C   UNL A   1      38.196  31.681  37.080  1.00  0.00     0.134 A 
ATOM     78  F   UNL A   1      40.497  34.155  35.749  1.00  0.00    -0.206 F 
ATOM     79  C   UNL A   1      39.161  34.214  37.678  1.00  0.00     0.040 A 
ATOM     80  C   UNL A   1      37.739  32.348  38.217  1.00  0.00     0.040 A 
ATOM     81  F   UNL A   1      37.706  30.457  36.829  1.00  0.00    -0.206 F 
ATOM     82  C   UNL A   1      38.228  33.617  38.523  1.00  0.00     0.006 A 
ENDBRANCH  58  75
ENDBRANCH  32  33
ENDBRANCH  25  27
ENDBRANCH  24  25
ENDBRANCH  23  24
ENDBRANCH  22  23
ENDBRANCH  21  22
ENDBRANCH   1  21
TORSDOF 17
ENDMDL
