MODEL 1
REMARK VINA RESULT:      -9.7      0.000      0.000
REMARK SMILES Cc1cc(Cl)c2c(c1)C=C(C(=O)OCCOCCOC(=O)c1ccc(-c3c4nc(c(-c5c(F)cccc5F)c5ccc([nH]5)c(-c5c(F)cccc5F)c5nc(c(-c6c(F)cccc6F)c6ccc3[nH]6)C=C5)C=C4)cc1)[C@@H](C(F)(F)F)O2
REMARK SMILES IDX 17 1 16 2 15 3 14 4 13 5 11 6 12 7 10 8 1 9 2 10 3 11 8 12
REMARK SMILES IDX 4 13 7 14 5 15 6 16 9 17 81 18 76 19 77 20 78 21 79 22 80 23
REMARK SMILES IDX 18 24 19 25 20 26 21 27 22 28 23 29 75 30 24 31 74 32 25 33
REMARK SMILES IDX 26 34 27 35 68 36 28 37 73 38 67 39 69 40 29 41 72 42 66 43
REMARK SMILES IDX 65 44 30 46 56 47 39 48 55 49 40 50 43 51 54 52 70 53 41 54
REMARK SMILES IDX 42 55 53 57 71 58 44 59 31 60 32 61 37 62 33 63 34 64 36 65
REMARK SMILES IDX 38 66 35 67 57 68 58 69 63 70 59 71 60 72 62 73 64 74 61 75
REMARK SMILES IDX 45 76 46 77 51 78 47 79 48 80 50 81 52 82 49 83
REMARK H PARENT 69 45 43 56
REMARK Flexibility Score: inf
ROOT
ATOM      1  C   UNL A   1      33.345  37.180  31.628  1.00  0.00     0.202 C 
ENDROOT
BRANCH   1   2
ATOM      2  O   UNL A   1      33.188  36.445  32.845  1.00  0.00    -0.374 OA
BRANCH   2   3
ATOM      3  C   UNL A   1      34.357  36.189  33.620  1.00  0.00     0.202 C 
BRANCH   3   4
ATOM      4  C   UNL A   1      35.298  35.107  33.086  1.00  0.00     0.261 C 
BRANCH   4   5
ATOM      5  O   UNL A   1      36.450  34.951  33.932  1.00  0.00    -0.460 OA
BRANCH   5   6
ATOM      6  C   UNL A   1      36.373  33.919  34.803  1.00  0.00     0.338 C 
ATOM      7  O   UNL A   1      35.505  33.732  35.641  1.00  0.00    -0.246 OA
BRANCH   6   8
ATOM      8  C   UNL A   1      37.446  32.946  34.526  1.00  0.00     0.087 C 
ATOM      9  C   UNL A   1      38.210  27.436  31.885  1.00  0.00     0.044 C 
ATOM     10  C   UNL A   1      38.607  28.664  32.652  1.00  0.00    -0.049 A 
ATOM     11  C   UNL A   1      39.882  28.764  33.220  1.00  0.00     0.028 A 
ATOM     12  C   UNL A   1      37.718  29.733  32.792  1.00  0.00     0.015 A 
ATOM     13  C   UNL A   1      40.256  29.917  33.922  1.00  0.00     0.084 A 
ATOM     14  C   UNL A   1      38.081  30.874  33.520  1.00  0.00     0.019 A 
ATOM     15  Cl  UNL A   1      41.840  29.975  34.610  1.00  0.00    -0.080 Cl
ATOM     16  C   UNL A   1      39.357  30.980  34.079  1.00  0.00     0.146 A 
ATOM     17  C   UNL A   1      37.104  31.925  33.732  1.00  0.00     0.027 C 
ATOM     18  O   UNL A   1      39.775  32.092  34.760  1.00  0.00    -0.474 OA
ATOM     19  C   UNL A   1      38.808  33.109  35.139  1.00  0.00     0.316 C 
BRANCH  19  20
ATOM     20  C   UNL A   1      38.755  33.191  36.672  1.00  0.00     0.430 C 
ATOM     21  F   UNL A   1      39.957  32.897  37.223  1.00  0.00    -0.167 F 
ATOM     22  F   UNL A   1      38.431  34.436  37.096  1.00  0.00    -0.167 F 
ATOM     23  F   UNL A   1      37.847  32.336  37.194  1.00  0.00    -0.167 F 
ENDBRANCH  19  20
ENDBRANCH   6   8
ENDBRANCH   5   6
ENDBRANCH   4   5
ENDBRANCH   3   4
ENDBRANCH   2   3
ENDBRANCH   1   2
BRANCH   1  24
ATOM     24  C   UNL A   1      32.885  36.486  30.340  1.00  0.00     0.261 C 
BRANCH  24  25
ATOM     25  O   UNL A   1      33.045  35.057  30.416  1.00  0.00    -0.460 OA
BRANCH  25  26
ATOM     26  C   UNL A   1      33.225  34.442  29.223  1.00  0.00     0.338 C 
ATOM     27  O   UNL A   1      32.567  34.590  28.204  1.00  0.00    -0.246 OA
BRANCH  26  28
ATOM     28  C   UNL A   1      34.474  33.662  29.241  1.00  0.00     0.060 A 
ATOM     29  C   UNL A   1      34.651  32.750  30.290  1.00  0.00     0.016 A 
ATOM     30  C   UNL A   1      35.493  33.893  28.316  1.00  0.00     0.016 A 
ATOM     31  C   UNL A   1      35.874  32.106  30.452  1.00  0.00     0.010 A 
ATOM     32  C   UNL A   1      36.727  33.257  28.490  1.00  0.00     0.010 A 
ATOM     33  C   UNL A   1      36.933  32.393  29.581  1.00  0.00    -0.014 A 
BRANCH  33  34
ATOM     34  C   UNL A   1      38.299  31.938  29.929  1.00  0.00     0.031 A 
ATOM     35  C   UNL A   1      38.768  30.605  29.413  1.00  0.00     0.074 A 
ATOM     36  C   UNL A   1      39.128  32.716  30.644  1.00  0.00     0.049 A 
ATOM     37  N   UNL A   1      39.908  29.994  29.607  1.00  0.00    -0.248 NA
ATOM     38  C   UNL A   1      37.828  29.866  28.554  1.00  0.00     0.031 C 
ATOM     39  C   UNL A   1      38.811  34.052  31.144  1.00  0.00     0.029 A 
ATOM     40  N   UNL A   1      40.413  32.490  31.070  1.00  0.00    -0.354 N 
ATOM     41  C   UNL A   1      39.824  28.805  28.895  1.00  0.00     0.074 A 
ATOM     42  C   UNL A   1      38.511  28.763  28.288  1.00  0.00     0.031 C 
ATOM     43  C   UNL A   1      39.875  34.528  31.813  1.00  0.00     0.029 A 
ATOM     44  C   UNL A   1      40.934  33.518  31.815  1.00  0.00     0.049 A 
ATOM     45  H   UNL A   1      40.913  31.668  30.861  1.00  0.00     0.167 HD
ATOM     46  C   UNL A   1      40.761  27.839  28.750  1.00  0.00     0.037 A 
ATOM     47  C   UNL A   1      42.122  33.622  32.440  1.00  0.00     0.037 A 
ATOM     48  C   UNL A   1      42.062  27.875  29.359  1.00  0.00     0.049 A 
ATOM     49  C   UNL A   1      43.108  32.487  32.351  1.00  0.00     0.074 A 
ATOM     50  C   UNL A   1      43.080  26.940  29.277  1.00  0.00     0.029 A 
ATOM     51  N   UNL A   1      42.525  28.902  30.167  1.00  0.00    -0.354 N 
ATOM     52  N   UNL A   1      43.015  31.363  31.683  1.00  0.00    -0.248 NA
ATOM     53  C   UNL A   1      44.357  32.633  33.112  1.00  0.00     0.031 C 
ATOM     54  C   UNL A   1      44.143  27.382  30.071  1.00  0.00     0.029 A 
ATOM     55  C   UNL A   1      43.804  28.613  30.611  1.00  0.00     0.049 A 
ATOM     56  H   UNL A   1      42.019  29.716  30.392  1.00  0.00     0.167 HD
ATOM     57  C   UNL A   1      44.198  30.676  31.928  1.00  0.00     0.074 A 
ATOM     58  C   UNL A   1      44.999  31.517  32.793  1.00  0.00     0.031 C 
ATOM     59  C   UNL A   1      44.586  29.459  31.476  1.00  0.00     0.037 A 
BRANCH  46  60
ATOM     60  C   UNL A   1      40.402  26.649  27.911  1.00  0.00     0.057 A 
ATOM     61  C   UNL A   1      40.906  26.486  26.614  1.00  0.00     0.134 A 
ATOM     62  C   UNL A   1      39.580  25.637  28.420  1.00  0.00     0.134 A 
ATOM     63  F   UNL A   1      41.685  27.430  26.065  1.00  0.00    -0.206 F 
ATOM     64  C   UNL A   1      40.593  25.363  25.847  1.00  0.00     0.040 A 
ATOM     65  C   UNL A   1      39.278  24.498  27.670  1.00  0.00     0.040 A 
ATOM     66  F   UNL A   1      39.067  25.732  29.655  1.00  0.00    -0.206 F 
ATOM     67  C   UNL A   1      39.783  24.361  26.379  1.00  0.00     0.006 A 
ENDBRANCH  46  60
BRANCH  47  68
ATOM     68  C   UNL A   1      42.444  34.844  33.218  1.00  0.00     0.057 A 
ATOM     69  C   UNL A   1      42.909  36.002  32.585  1.00  0.00     0.134 A 
ATOM     70  C   UNL A   1      42.301  34.882  34.610  1.00  0.00     0.134 A 
ATOM     71  F   UNL A   1      43.091  36.018  31.257  1.00  0.00    -0.206 F 
ATOM     72  C   UNL A   1      43.226  37.152  33.309  1.00  0.00     0.040 A 
ATOM     73  C   UNL A   1      42.592  36.032  35.344  1.00  0.00     0.040 A 
ATOM     74  F   UNL A   1      41.863  33.803  35.275  1.00  0.00    -0.206 F 
ATOM     75  C   UNL A   1      43.062  37.172  34.693  1.00  0.00     0.006 A 
ENDBRANCH  47  68
BRANCH  59  76
ATOM     76  C   UNL A   1      45.936  28.960  31.899  1.00  0.00     0.057 A 
ATOM     77  C   UNL A   1      47.091  29.258  31.165  1.00  0.00     0.134 A 
ATOM     78  C   UNL A   1      46.092  28.232  33.086  1.00  0.00     0.134 A 
ATOM     79  F   UNL A   1      47.007  29.944  30.015  1.00  0.00    -0.206 F 
ATOM     80  C   UNL A   1      48.353  28.841  31.592  1.00  0.00     0.040 A 
ATOM     81  C   UNL A   1      47.351  27.829  33.534  1.00  0.00     0.040 A 
ATOM     82  F   UNL A   1      45.027  27.923  33.840  1.00  0.00    -0.206 F 
ATOM     83  C   UNL A   1      48.485  28.130  32.783  1.00  0.00     0.006 A 
ENDBRANCH  59  76
ENDBRANCH  33  34
ENDBRANCH  26  28
ENDBRANCH  25  26
ENDBRANCH  24  25
ENDBRANCH   1  24
TORSDOF 15
ENDMDL
MODEL 2
REMARK VINA RESULT:      -9.2      0.540      6.283
REMARK SMILES Cc1cc(Cl)c2c(c1)C=C(C(=O)OCCOCCOC(=O)c1ccc(-c3c4nc(c(-c5c(F)cccc5F)c5ccc([nH]5)c(-c5c(F)cccc5F)c5nc(c(-c6c(F)cccc6F)c6ccc3[nH]6)C=C5)C=C4)cc1)[C@@H](C(F)(F)F)O2
REMARK SMILES IDX 17 1 16 2 15 3 14 4 13 5 11 6 12 7 10 8 1 9 2 10 3 11 8 12
REMARK SMILES IDX 4 13 7 14 5 15 6 16 9 17 81 18 76 19 77 20 78 21 79 22 80 23
REMARK SMILES IDX 18 24 19 25 20 26 21 27 22 28 23 29 75 30 24 31 74 32 25 33
REMARK SMILES IDX 26 34 27 35 68 36 28 37 73 38 67 39 69 40 29 41 72 42 66 43
REMARK SMILES IDX 65 44 30 46 56 47 39 48 55 49 40 50 43 51 54 52 70 53 41 54
REMARK SMILES IDX 42 55 53 57 71 58 44 59 31 60 32 61 37 62 33 63 34 64 36 65
REMARK SMILES IDX 38 66 35 67 57 68 58 69 63 70 59 71 60 72 62 73 64 74 61 75
REMARK SMILES IDX 45 76 46 77 51 78 47 79 48 80 50 81 52 82 49 83
REMARK H PARENT 69 45 43 56
REMARK Flexibility Score: inf
ROOT
ATOM      1  C   UNL A   1      33.446  36.699  30.734  1.00  0.00     0.202 C 
ENDROOT
BRANCH   1   2
ATOM      2  O   UNL A   1      33.786  35.748  31.747  1.00  0.00    -0.374 OA
BRANCH   2   3
ATOM      3  C   UNL A   1      34.555  36.208  32.856  1.00  0.00     0.202 C 
BRANCH   3   4
ATOM      4  C   UNL A   1      34.724  35.225  34.016  1.00  0.00     0.261 C 
BRANCH   4   5
ATOM      5  O   UNL A   1      36.093  34.811  34.157  1.00  0.00    -0.460 OA
BRANCH   5   6
ATOM      6  C   UNL A   1      36.313  33.927  35.158  1.00  0.00     0.338 C 
ATOM      7  O   UNL A   1      35.657  33.799  36.180  1.00  0.00    -0.246 OA
BRANCH   6   8
ATOM      8  C   UNL A   1      37.416  33.019  34.793  1.00  0.00     0.087 C 
ATOM      9  C   UNL A   1      38.309  27.627  31.957  1.00  0.00     0.044 C 
ATOM     10  C   UNL A   1      38.686  28.854  32.736  1.00  0.00    -0.049 A 
ATOM     11  C   UNL A   1      39.985  29.007  33.234  1.00  0.00     0.028 A 
ATOM     12  C   UNL A   1      37.753  29.870  32.956  1.00  0.00     0.015 A 
ATOM     13  C   UNL A   1      40.339  30.159  33.946  1.00  0.00     0.084 A 
ATOM     14  C   UNL A   1      38.098  31.010  33.694  1.00  0.00     0.019 A 
ATOM     15  Cl  UNL A   1      41.955  30.284  34.544  1.00  0.00    -0.080 Cl
ATOM     16  C   UNL A   1      39.397  31.169  34.183  1.00  0.00     0.146 A 
ATOM     17  C   UNL A   1      37.083  32.002  33.991  1.00  0.00     0.027 C 
ATOM     18  O   UNL A   1      39.796  32.284  34.870  1.00  0.00    -0.474 OA
ATOM     19  C   UNL A   1      38.802  33.238  35.333  1.00  0.00     0.316 C 
BRANCH  19  20
ATOM     20  C   UNL A   1      38.834  33.279  36.868  1.00  0.00     0.430 C 
ATOM     21  F   UNL A   1      38.017  32.341  37.403  1.00  0.00    -0.167 F 
ATOM     22  F   UNL A   1      40.075  33.030  37.350  1.00  0.00    -0.167 F 
ATOM     23  F   UNL A   1      38.446  34.481  37.351  1.00  0.00    -0.167 F 
ENDBRANCH  19  20
ENDBRANCH   6   8
ENDBRANCH   5   6
ENDBRANCH   4   5
ENDBRANCH   3   4
ENDBRANCH   2   3
ENDBRANCH   1   2
BRANCH   1  24
ATOM     24  C   UNL A   1      32.942  36.134  29.401  1.00  0.00     0.261 C 
BRANCH  24  25
ATOM     25  O   UNL A   1      32.588  34.743  29.508  1.00  0.00    -0.460 OA
BRANCH  25  26
ATOM     26  C   UNL A   1      33.247  33.922  28.655  1.00  0.00     0.338 C 
ATOM     27  O   UNL A   1      32.891  33.569  27.541  1.00  0.00    -0.246 OA
BRANCH  26  28
ATOM     28  C   UNL A   1      34.591  33.625  29.178  1.00  0.00     0.060 A 
ATOM     29  C   UNL A   1      35.689  34.059  28.423  1.00  0.00     0.016 A 
ATOM     30  C   UNL A   1      34.774  32.847  30.322  1.00  0.00     0.016 A 
ATOM     31  C   UNL A   1      36.976  33.668  28.778  1.00  0.00     0.010 A 
ATOM     32  C   UNL A   1      36.068  32.442  30.669  1.00  0.00     0.010 A 
ATOM     33  C   UNL A   1      37.167  32.817  29.875  1.00  0.00    -0.014 A 
BRANCH  33  34
ATOM     34  C   UNL A   1      38.487  32.174  30.070  1.00  0.00     0.031 A 
ATOM     35  C   UNL A   1      39.521  32.885  30.900  1.00  0.00     0.074 A 
ATOM     36  C   UNL A   1      38.745  30.956  29.565  1.00  0.00     0.049 A 
ATOM     37  N   UNL A   1      40.746  32.527  31.184  1.00  0.00    -0.248 NA
ATOM     38  C   UNL A   1      39.114  34.168  31.495  1.00  0.00     0.031 C 
ATOM     39  C   UNL A   1      37.804  30.141  28.800  1.00  0.00     0.029 A 
ATOM     40  N   UNL A   1      39.884  30.192  29.626  1.00  0.00    -0.354 N 
ATOM     41  C   UNL A   1      41.254  33.535  31.993  1.00  0.00     0.074 A 
ATOM     42  C   UNL A   1      40.217  34.535  32.129  1.00  0.00     0.031 C 
ATOM     43  C   UNL A   1      38.405  28.988  28.460  1.00  0.00     0.029 A 
ATOM     44  C   UNL A   1      39.781  28.999  28.955  1.00  0.00     0.049 A 
ATOM     45  H   UNL A   1      40.696  30.472  30.106  1.00  0.00     0.167 HD
ATOM     46  C   UNL A   1      42.472  33.616  32.578  1.00  0.00     0.037 A 
ATOM     47  C   UNL A   1      40.700  28.036  28.752  1.00  0.00     0.037 A 
ATOM     48  C   UNL A   1      43.505  32.627  32.437  1.00  0.00     0.049 A 
ATOM     49  C   UNL A   1      42.083  28.198  29.325  1.00  0.00     0.074 A 
ATOM     50  C   UNL A   1      44.776  32.622  32.986  1.00  0.00     0.029 A 
ATOM     51  N   UNL A   1      43.387  31.466  31.688  1.00  0.00    -0.354 N 
ATOM     52  N   UNL A   1      42.557  29.159  30.081  1.00  0.00    -0.248 NA
ATOM     53  C   UNL A   1      43.060  27.146  29.009  1.00  0.00     0.031 C 
ATOM     54  C   UNL A   1      45.441  31.478  32.534  1.00  0.00     0.029 A 
ATOM     55  C   UNL A   1      44.570  30.749  31.740  1.00  0.00     0.049 A 
ATOM     56  H   UNL A   1      42.581  31.192  31.192  1.00  0.00     0.167 HD
ATOM     57  C   UNL A   1      43.879  28.821  30.344  1.00  0.00     0.074 A 
ATOM     58  C   UNL A   1      44.127  27.557  29.681  1.00  0.00     0.031 C 
ATOM     59  C   UNL A   1      44.803  29.495  31.070  1.00  0.00     0.037 A 
BRANCH  46  60
ATOM     60  C   UNL A   1      42.758  34.827  33.414  1.00  0.00     0.057 A 
ATOM     61  C   UNL A   1      42.646  34.799  34.810  1.00  0.00     0.134 A 
ATOM     62  C   UNL A   1      43.189  36.020  32.821  1.00  0.00     0.134 A 
ATOM     63  F   UNL A   1      42.221  33.691  35.436  1.00  0.00    -0.206 F 
ATOM     64  C   UNL A   1      42.941  35.921  35.587  1.00  0.00     0.040 A 
ATOM     65  C   UNL A   1      43.508  37.141  33.589  1.00  0.00     0.040 A 
ATOM     66  F   UNL A   1      43.317  36.111  31.490  1.00  0.00    -0.206 F 
ATOM     67  C   UNL A   1      43.381  37.094  34.976  1.00  0.00     0.006 A 
ENDBRANCH  46  60
BRANCH  47  68
ATOM     68  C   UNL A   1      40.349  26.834  27.956  1.00  0.00     0.057 A 
ATOM     69  C   UNL A   1      39.552  25.817  28.496  1.00  0.00     0.134 A 
ATOM     70  C   UNL A   1      40.803  26.669  26.642  1.00  0.00     0.134 A 
ATOM     71  F   UNL A   1      39.110  25.907  29.758  1.00  0.00    -0.206 F 
ATOM     72  C   UNL A   1      39.226  24.678  27.760  1.00  0.00     0.040 A 
ATOM     73  C   UNL A   1      40.465  25.546  25.887  1.00  0.00     0.040 A 
ATOM     74  F   UNL A   1      41.572  27.607  26.069  1.00  0.00    -0.206 F 
ATOM     75  C   UNL A   1      39.677  24.542  26.448  1.00  0.00     0.006 A 
ENDBRANCH  47  68
BRANCH  59  76
ATOM     76  C   UNL A   1      46.167  28.884  31.195  1.00  0.00     0.057 A 
ATOM     77  C   UNL A   1      47.193  29.187  30.290  1.00  0.00     0.134 A 
ATOM     78  C   UNL A   1      46.478  28.039  32.268  1.00  0.00     0.134 A 
ATOM     79  F   UNL A   1      46.956  29.984  29.237  1.00  0.00    -0.206 F 
ATOM     80  C   UNL A   1      48.477  28.662  30.442  1.00  0.00     0.040 A 
ATOM     81  C   UNL A   1      47.764  27.526  32.443  1.00  0.00     0.040 A 
ATOM     82  F   UNL A   1      45.543  27.718  33.175  1.00  0.00    -0.206 F 
ATOM     83  C   UNL A   1      48.766  27.834  31.525  1.00  0.00     0.006 A 
ENDBRANCH  59  76
ENDBRANCH  33  34
ENDBRANCH  26  28
ENDBRANCH  25  26
ENDBRANCH  24  25
ENDBRANCH   1  24
TORSDOF 15
ENDMDL
MODEL 3
REMARK VINA RESULT:      -8.6      4.901      9.501
REMARK SMILES Cc1cc(Cl)c2c(c1)C=C(C(=O)OCCOCCOC(=O)c1ccc(-c3c4nc(c(-c5c(F)cccc5F)c5ccc([nH]5)c(-c5c(F)cccc5F)c5nc(c(-c6c(F)cccc6F)c6ccc3[nH]6)C=C5)C=C4)cc1)[C@@H](C(F)(F)F)O2
REMARK SMILES IDX 17 1 16 2 15 3 14 4 13 5 11 6 12 7 10 8 1 9 2 10 3 11 8 12
REMARK SMILES IDX 4 13 7 14 5 15 6 16 9 17 81 18 76 19 77 20 78 21 79 22 80 23
REMARK SMILES IDX 18 24 19 25 20 26 21 27 22 28 23 29 75 30 24 31 74 32 25 33
REMARK SMILES IDX 26 34 27 35 68 36 28 37 73 38 67 39 69 40 29 41 72 42 66 43
REMARK SMILES IDX 65 44 30 46 56 47 39 48 55 49 40 50 43 51 54 52 70 53 41 54
REMARK SMILES IDX 42 55 53 57 71 58 44 59 31 60 32 61 37 62 33 63 34 64 36 65
REMARK SMILES IDX 38 66 35 67 57 68 58 69 63 70 59 71 60 72 62 73 64 74 61 75
REMARK SMILES IDX 45 76 46 77 51 78 47 79 48 80 50 81 52 82 49 83
REMARK H PARENT 69 45 43 56
REMARK Flexibility Score: inf
ROOT
ATOM      1  C   UNL A   1      34.329  33.668  29.081  1.00  0.00     0.202 C 
ENDROOT
BRANCH   1   2
ATOM      2  O   UNL A   1      33.534  32.572  28.623  1.00  0.00    -0.374 OA
BRANCH   2   3
ATOM      3  C   UNL A   1      34.184  31.548  27.875  1.00  0.00     0.202 C 
BRANCH   3   4
ATOM      4  C   UNL A   1      33.296  30.725  26.938  1.00  0.00     0.261 C 
BRANCH   4   5
ATOM      5  O   UNL A   1      33.552  29.318  27.075  1.00  0.00    -0.460 OA
BRANCH   5   6
ATOM      6  C   UNL A   1      32.449  28.537  27.005  1.00  0.00     0.338 C 
ATOM      7  O   UNL A   1      31.408  28.683  27.626  1.00  0.00    -0.246 OA
BRANCH   6   8
ATOM      8  C   UNL A   1      32.622  27.515  25.956  1.00  0.00     0.087 C 
ATOM      9  C   UNL A   1      36.464  22.943  24.455  1.00  0.00     0.044 C 
ATOM     10  C   UNL A   1      35.309  23.886  24.281  1.00  0.00    -0.049 A 
ATOM     11  C   UNL A   1      34.570  23.891  23.092  1.00  0.00     0.028 A 
ATOM     12  C   UNL A   1      34.941  24.756  25.311  1.00  0.00     0.015 A 
ATOM     13  C   UNL A   1      33.483  24.760  22.938  1.00  0.00     0.084 A 
ATOM     14  C   UNL A   1      33.871  25.647  25.146  1.00  0.00     0.019 A 
ATOM     15  Cl  UNL A   1      32.619  24.727  21.443  1.00  0.00    -0.080 Cl
ATOM     16  C   UNL A   1      33.127  25.645  23.964  1.00  0.00     0.146 A 
ATOM     17  C   UNL A   1      33.574  26.605  26.192  1.00  0.00     0.027 C 
ATOM     18  O   UNL A   1      32.046  26.464  23.771  1.00  0.00    -0.474 OA
ATOM     19  C   UNL A   1      31.788  27.547  24.706  1.00  0.00     0.316 C 
BRANCH  19  20
ATOM     20  C   UNL A   1      31.903  28.883  23.958  1.00  0.00     0.430 C 
ATOM     21  F   UNL A   1      33.182  29.328  23.938  1.00  0.00    -0.167 F 
ATOM     22  F   UNL A   1      31.515  28.769  22.665  1.00  0.00    -0.167 F 
ATOM     23  F   UNL A   1      31.143  29.848  24.524  1.00  0.00    -0.167 F 
ENDBRANCH  19  20
ENDBRANCH   6   8
ENDBRANCH   5   6
ENDBRANCH   4   5
ENDBRANCH   3   4
ENDBRANCH   2   3
ENDBRANCH   1   2
BRANCH   1  24
ATOM     24  C   UNL A   1      34.694  33.680  30.570  1.00  0.00     0.261 C 
BRANCH  24  25
ATOM     25  O   UNL A   1      34.573  32.373  31.161  1.00  0.00    -0.460 OA
BRANCH  25  26
ATOM     26  C   UNL A   1      35.523  32.074  32.078  1.00  0.00     0.338 C 
ATOM     27  O   UNL A   1      35.516  32.341  33.270  1.00  0.00    -0.246 OA
BRANCH  26  28
ATOM     28  C   UNL A   1      36.541  31.193  31.480  1.00  0.00     0.060 A 
ATOM     29  C   UNL A   1      37.635  30.834  32.279  1.00  0.00     0.016 A 
ATOM     30  C   UNL A   1      36.483  30.815  30.138  1.00  0.00     0.016 A 
ATOM     31  C   UNL A   1      38.705  30.141  31.723  1.00  0.00     0.010 A 
ATOM     32  C   UNL A   1      37.568  30.133  29.576  1.00  0.00     0.010 A 
ATOM     33  C   UNL A   1      38.699  29.830  30.357  1.00  0.00    -0.014 A 
BRANCH  33  34
ATOM     34  C   UNL A   1      39.949  29.363  29.715  1.00  0.00     0.031 A 
ATOM     35  C   UNL A   1      41.098  30.326  29.588  1.00  0.00     0.074 A 
ATOM     36  C   UNL A   1      40.082  28.092  29.299  1.00  0.00     0.049 A 
ATOM     37  N   UNL A   1      42.274  30.148  29.045  1.00  0.00    -0.248 NA
ATOM     38  C   UNL A   1      40.896  31.667  30.161  1.00  0.00     0.031 C 
ATOM     39  C   UNL A   1      39.065  27.052  29.425  1.00  0.00     0.029 A 
ATOM     40  N   UNL A   1      41.138  27.464  28.688  1.00  0.00    -0.354 N 
ATOM     41  C   UNL A   1      42.952  31.348  29.212  1.00  0.00     0.074 A 
ATOM     42  C   UNL A   1      42.047  32.258  29.881  1.00  0.00     0.031 C 
ATOM     43  C   UNL A   1      39.546  25.910  28.904  1.00  0.00     0.029 A 
ATOM     44  C   UNL A   1      40.890  26.149  28.380  1.00  0.00     0.049 A 
ATOM     45  H   UNL A   1      41.991  27.912  28.490  1.00  0.00     0.167 HD
ATOM     46  C   UNL A   1      44.218  31.661  28.852  1.00  0.00     0.037 A 
ATOM     47  C   UNL A   1      41.656  25.250  27.734  1.00  0.00     0.037 A 
ATOM     48  C   UNL A   1      45.115  30.760  28.181  1.00  0.00     0.049 A 
ATOM     49  C   UNL A   1      43.023  25.654  27.248  1.00  0.00     0.074 A 
ATOM     50  C   UNL A   1      46.416  30.987  27.768  1.00  0.00     0.029 A 
ATOM     51  N   UNL A   1      44.801  29.458  27.821  1.00  0.00    -0.354 N 
ATOM     52  N   UNL A   1      43.652  26.794  27.404  1.00  0.00    -0.248 NA
ATOM     53  C   UNL A   1      43.782  24.648  26.490  1.00  0.00     0.031 C 
ATOM     54  C   UNL A   1      46.875  29.835  27.120  1.00  0.00     0.029 A 
ATOM     55  C   UNL A   1      45.874  28.877  27.169  1.00  0.00     0.049 A 
ATOM     56  H   UNL A   1      43.941  29.014  28.002  1.00  0.00     0.167 HD
ATOM     57  C   UNL A   1      44.883  26.638  26.779  1.00  0.00     0.074 A 
ATOM     58  C   UNL A   1      44.919  25.288  26.256  1.00  0.00     0.031 C 
ATOM     59  C   UNL A   1      45.892  27.533  26.650  1.00  0.00     0.037 A 
BRANCH  46  60
ATOM     60  C   UNL A   1      44.703  33.045  29.162  1.00  0.00     0.057 A 
ATOM     61  C   UNL A   1      44.518  34.107  28.267  1.00  0.00     0.134 A 
ATOM     62  C   UNL A   1      45.323  33.328  30.385  1.00  0.00     0.134 A 
ATOM     63  F   UNL A   1      43.946  33.896  27.072  1.00  0.00    -0.206 F 
ATOM     64  C   UNL A   1      44.945  35.400  28.574  1.00  0.00     0.040 A 
ATOM     65  C   UNL A   1      45.735  34.622  30.711  1.00  0.00     0.040 A 
ATOM     66  F   UNL A   1      45.528  32.356  31.286  1.00  0.00    -0.206 F 
ATOM     67  C   UNL A   1      45.548  35.661  29.803  1.00  0.00     0.006 A 
ENDBRANCH  46  60
BRANCH  47  68
ATOM     68  C   UNL A   1      41.145  23.878  27.496  1.00  0.00     0.057 A 
ATOM     69  C   UNL A   1      40.157  23.631  26.535  1.00  0.00     0.134 A 
ATOM     70  C   UNL A   1      41.625  22.782  28.224  1.00  0.00     0.134 A 
ATOM     71  F   UNL A   1      39.641  24.644  25.824  1.00  0.00    -0.206 F 
ATOM     72  C   UNL A   1      39.661  22.346  26.311  1.00  0.00     0.040 A 
ATOM     73  C   UNL A   1      41.154  21.489  27.995  1.00  0.00     0.040 A 
ATOM     74  F   UNL A   1      42.568  22.954  29.161  1.00  0.00    -0.206 F 
ATOM     75  C   UNL A   1      40.165  21.269  27.038  1.00  0.00     0.006 A 
ENDBRANCH  47  68
BRANCH  59  76
ATOM     76  C   UNL A   1      47.127  27.087  25.923  1.00  0.00     0.057 A 
ATOM     77  C   UNL A   1      47.309  27.347  24.559  1.00  0.00     0.134 A 
ATOM     78  C   UNL A   1      48.171  26.452  26.607  1.00  0.00     0.134 A 
ATOM     79  F   UNL A   1      46.342  27.944  23.845  1.00  0.00    -0.206 F 
ATOM     80  C   UNL A   1      48.483  26.980  23.898  1.00  0.00     0.040 A 
ATOM     81  C   UNL A   1      49.358  26.101  25.963  1.00  0.00     0.040 A 
ATOM     82  F   UNL A   1      48.063  26.184  27.917  1.00  0.00    -0.206 F 
ATOM     83  C   UNL A   1      49.514  26.362  24.603  1.00  0.00     0.006 A 
ENDBRANCH  59  76
ENDBRANCH  33  34
ENDBRANCH  26  28
ENDBRANCH  25  26
ENDBRANCH  24  25
ENDBRANCH   1  24
TORSDOF 15
ENDMDL
