MODEL 1
REMARK VINA RESULT:     -11.3      0.000      0.000
REMARK SMILES Cc1nccn1CCC[NH+]1CCC2(CC1)[C@@H](C(=O)OCCOCCOC(=O)c1ccc(-c3c4nc(c(-c5c(F)cccc5F)c5ccc([nH]5)c(-c5c(F)cccc5F)c5nc(c(-c6c(F)cccc6F)c6ccc3[nH]6)C=C5)C=C4)cc1)CC(=O)N2C
REMARK SMILES IDX 21 1 20 2 19 3 17 4 18 5 16 6 10 7 11 8 15 9 12 11 14 12
REMARK SMILES IDX 13 13 85 14 82 15 83 16 86 17 84 18 9 19 8 20 7 21 6 22 1 23
REMARK SMILES IDX 2 24 3 25 4 26 5 27 22 28 23 29 24 30 25 31 26 32 27 33
REMARK SMILES IDX 28 34 29 35 81 36 30 37 80 38 31 39 32 40 33 41 74 42 34 43
REMARK SMILES IDX 79 44 73 45 75 46 35 47 78 48 72 49 71 50 36 52 62 53 45 54
REMARK SMILES IDX 61 55 46 56 49 57 60 58 76 59 47 60 48 61 59 63 77 64 50 65
REMARK SMILES IDX 37 66 38 67 43 68 39 69 40 70 42 71 44 72 41 73 63 74 64 75
REMARK SMILES IDX 69 76 65 77 66 78 68 79 70 80 67 81 51 82 52 83 57 84 53 85
REMARK SMILES IDX 54 86 56 87 58 88 55 89
REMARK H PARENT 10 10 75 51 49 62
REMARK Flexibility Score: inf
ROOT
ATOM      1  C   UNL A   1      32.150  28.226  27.627  1.00  0.00     0.202 C 
ENDROOT
BRANCH   1   2
ATOM      2  C   UNL A   1      32.212  27.045  26.651  1.00  0.00     0.261 C 
BRANCH   2   3
ATOM      3  O   UNL A   1      31.299  25.970  26.966  1.00  0.00    -0.463 OA
BRANCH   3   4
ATOM      4  C   UNL A   1      31.761  24.697  26.759  1.00  0.00     0.311 C 
ATOM      5  O   UNL A   1      31.277  23.687  27.246  1.00  0.00    -0.252 OA
BRANCH   4   6
ATOM      6  C   UNL A   1      33.000  24.714  25.885  1.00  0.00     0.134 C 
ATOM      7  N   UNL A   1      32.176  26.300  21.889  1.00  0.00    -0.335 N 
ATOM      8  C   UNL A   1      33.535  25.887  22.225  1.00  0.00     0.264 C 
ATOM      9  C   UNL A   1      31.169  25.373  22.420  1.00  0.00     0.264 C 
ATOM     10  H   UNL A   1      32.132  26.231  20.872  1.00  0.00     0.348 HD
ATOM     11  C   UNL A   1      33.751  25.670  23.714  1.00  0.00     0.091 C 
ATOM     12  C   UNL A   1      31.357  24.911  23.876  1.00  0.00     0.091 C 
ATOM     13  C   UNL A   1      32.795  24.624  24.336  1.00  0.00     0.067 C 
ATOM     14  N   UNL A   1      33.232  23.255  24.032  1.00  0.00    -0.339 N 
ATOM     15  C   UNL A   1      33.894  23.532  26.271  1.00  0.00     0.118 C 
ATOM     16  C   UNL A   1      33.866  22.619  25.085  1.00  0.00     0.223 C 
ATOM     17  C   UNL A   1      32.907  22.508  22.831  1.00  0.00     0.147 C 
ATOM     18  O   UNL A   1      34.347  21.496  25.068  1.00  0.00    -0.275 OA
BRANCH   7  19
ATOM     19  C   UNL A   1      31.863  27.716  22.112  1.00  0.00     0.264 C 
BRANCH  19  20
ATOM     20  C   UNL A   1      30.369  28.031  22.329  1.00  0.00     0.083 C 
BRANCH  20  21
ATOM     21  C   UNL A   1      30.019  28.744  23.642  1.00  0.00     0.129 C 
BRANCH  21  22
ATOM     22  N   UNL A   1      29.124  29.875  23.501  1.00  0.00    -0.335 N 
ATOM     23  C   UNL A   1      26.965  28.597  23.135  1.00  0.00     0.087 C 
ATOM     24  C   UNL A   1      27.766  29.840  23.268  1.00  0.00     0.105 A 
ATOM     25  N   UNL A   1      27.280  31.064  23.199  1.00  0.00    -0.242 NA
ATOM     26  C   UNL A   1      28.329  31.903  23.458  1.00  0.00     0.131 A 
ATOM     27  C   UNL A   1      29.476  31.184  23.686  1.00  0.00     0.107 A 
ENDBRANCH  21  22
ENDBRANCH  20  21
ENDBRANCH  19  20
ENDBRANCH   7  19
ENDBRANCH   4   6
ENDBRANCH   3   4
ENDBRANCH   2   3
ENDBRANCH   1   2
BRANCH   1  28
ATOM     28  O   UNL A   1      31.485  29.412  27.197  1.00  0.00    -0.374 OA
BRANCH  28  29
ATOM     29  C   UNL A   1      32.243  30.431  26.567  1.00  0.00     0.202 C 
BRANCH  29  30
ATOM     30  C   UNL A   1      33.126  31.308  27.447  1.00  0.00     0.261 C 
BRANCH  30  31
ATOM     31  O   UNL A   1      34.513  31.122  27.252  1.00  0.00    -0.460 OA
BRANCH  31  32
ATOM     32  C   UNL A   1      35.241  31.930  28.062  1.00  0.00     0.338 C 
ATOM     33  O   UNL A   1      35.243  33.145  28.081  1.00  0.00    -0.246 OA
BRANCH  32  34
ATOM     34  C   UNL A   1      36.250  31.100  28.723  1.00  0.00     0.060 A 
ATOM     35  C   UNL A   1      37.412  31.767  29.113  1.00  0.00     0.016 A 
ATOM     36  C   UNL A   1      36.170  29.697  28.676  1.00  0.00     0.016 A 
ATOM     37  C   UNL A   1      38.555  31.028  29.285  1.00  0.00     0.010 A 
ATOM     38  C   UNL A   1      37.318  28.960  28.838  1.00  0.00     0.010 A 
ATOM     39  C   UNL A   1      38.505  29.645  29.077  1.00  0.00    -0.014 A 
BRANCH  39  40
ATOM     40  C   UNL A   1      39.743  28.927  29.248  1.00  0.00     0.031 A 
ATOM     41  C   UNL A   1      40.074  28.684  30.667  1.00  0.00     0.074 A 
ATOM     42  C   UNL A   1      40.485  28.488  28.221  1.00  0.00     0.049 A 
ATOM     43  N   UNL A   1      41.032  29.208  31.354  1.00  0.00    -0.248 NA
ATOM     44  C   UNL A   1      39.117  27.894  31.454  1.00  0.00     0.031 C 
ATOM     45  C   UNL A   1      40.138  28.398  26.804  1.00  0.00     0.029 A 
ATOM     46  N   UNL A   1      41.720  27.932  28.278  1.00  0.00    -0.354 N 
ATOM     47  C   UNL A   1      40.907  28.670  32.630  1.00  0.00     0.074 A 
ATOM     48  C   UNL A   1      39.626  28.016  32.679  1.00  0.00     0.031 C 
ATOM     49  C   UNL A   1      41.053  27.621  26.179  1.00  0.00     0.029 A 
ATOM     50  C   UNL A   1      42.101  27.270  27.127  1.00  0.00     0.049 A 
ATOM     51  H   UNL A   1      42.297  27.994  29.074  1.00  0.00     0.167 HD
ATOM     52  C   UNL A   1      41.969  28.601  33.474  1.00  0.00     0.037 A 
ATOM     53  C   UNL A   1      43.152  26.423  27.024  1.00  0.00     0.037 A 
ATOM     54  C   UNL A   1      43.012  29.516  33.090  1.00  0.00     0.049 A 
ATOM     55  C   UNL A   1      44.065  26.693  28.170  1.00  0.00     0.074 A 
ATOM     56  C   UNL A   1      43.085  30.887  32.934  1.00  0.00     0.029 A 
ATOM     57  N   UNL A   1      44.113  29.010  32.441  1.00  0.00    -0.354 N 
ATOM     58  N   UNL A   1      44.776  27.780  28.295  1.00  0.00    -0.248 NA
ATOM     59  C   UNL A   1      43.846  25.954  29.408  1.00  0.00     0.031 C 
ATOM     60  C   UNL A   1      43.937  31.088  31.808  1.00  0.00     0.029 A 
ATOM     61  C   UNL A   1      44.362  29.832  31.372  1.00  0.00     0.049 A 
ATOM     62  H   UNL A   1      44.626  28.210  32.697  1.00  0.00     0.167 HD
ATOM     63  C   UNL A   1      44.741  28.081  29.650  1.00  0.00     0.074 A 
ATOM     64  C   UNL A   1      44.233  26.874  30.296  1.00  0.00     0.031 C 
ATOM     65  C   UNL A   1      44.852  29.368  30.096  1.00  0.00     0.037 A 
BRANCH  52  66
ATOM     66  C   UNL A   1      42.197  27.445  34.409  1.00  0.00     0.057 A 
ATOM     67  C   UNL A   1      41.885  27.592  35.770  1.00  0.00     0.134 A 
ATOM     68  C   UNL A   1      42.970  26.307  34.089  1.00  0.00     0.134 A 
ATOM     69  F   UNL A   1      41.173  28.644  36.203  1.00  0.00    -0.206 F 
ATOM     70  C   UNL A   1      42.366  26.712  36.746  1.00  0.00     0.040 A 
ATOM     71  C   UNL A   1      43.406  25.393  35.047  1.00  0.00     0.040 A 
ATOM     72  F   UNL A   1      43.432  26.073  32.855  1.00  0.00    -0.206 F 
ATOM     73  C   UNL A   1      43.134  25.611  36.386  1.00  0.00     0.006 A 
ENDBRANCH  52  66
BRANCH  53  74
ATOM     74  C   UNL A   1      43.252  25.204  26.192  1.00  0.00     0.057 A 
ATOM     75  C   UNL A   1      44.300  25.036  25.279  1.00  0.00     0.134 A 
ATOM     76  C   UNL A   1      42.468  24.065  26.448  1.00  0.00     0.134 A 
ATOM     77  F   UNL A   1      45.132  26.050  25.003  1.00  0.00    -0.206 F 
ATOM     78  C   UNL A   1      44.563  23.803  24.668  1.00  0.00     0.040 A 
ATOM     79  C   UNL A   1      42.712  22.831  25.838  1.00  0.00     0.040 A 
ATOM     80  F   UNL A   1      41.489  24.082  27.366  1.00  0.00    -0.206 F 
ATOM     81  C   UNL A   1      43.773  22.693  24.953  1.00  0.00     0.006 A 
ENDBRANCH  53  74
BRANCH  65  82
ATOM     82  C   UNL A   1      45.258  30.421  29.103  1.00  0.00     0.057 A 
ATOM     83  C   UNL A   1      44.351  31.094  28.269  1.00  0.00     0.134 A 
ATOM     84  C   UNL A   1      46.579  30.878  29.098  1.00  0.00     0.134 A 
ATOM     85  F   UNL A   1      43.044  30.801  28.289  1.00  0.00    -0.206 F 
ATOM     86  C   UNL A   1      44.754  32.136  27.431  1.00  0.00     0.040 A 
ATOM     87  C   UNL A   1      46.988  31.943  28.291  1.00  0.00     0.040 A 
ATOM     88  F   UNL A   1      47.489  30.327  29.917  1.00  0.00    -0.206 F 
ATOM     89  C   UNL A   1      46.076  32.567  27.444  1.00  0.00     0.006 A 
ENDBRANCH  65  82
ENDBRANCH  39  40
ENDBRANCH  32  34
ENDBRANCH  31  32
ENDBRANCH  30  31
ENDBRANCH  29  30
ENDBRANCH  28  29
ENDBRANCH   1  28
TORSDOF 18
ENDMDL
MODEL 2
REMARK VINA RESULT:     -11.1      2.716      7.323
REMARK SMILES Cc1nccn1CCC[NH+]1CCC2(CC1)[C@@H](C(=O)OCCOCCOC(=O)c1ccc(-c3c4nc(c(-c5c(F)cccc5F)c5ccc([nH]5)c(-c5c(F)cccc5F)c5nc(c(-c6c(F)cccc6F)c6ccc3[nH]6)C=C5)C=C4)cc1)CC(=O)N2C
REMARK SMILES IDX 21 1 20 2 19 3 17 4 18 5 16 6 10 7 11 8 15 9 12 11 14 12
REMARK SMILES IDX 13 13 85 14 82 15 83 16 86 17 84 18 9 19 8 20 7 21 6 22 1 23
REMARK SMILES IDX 2 24 3 25 4 26 5 27 22 28 23 29 24 30 25 31 26 32 27 33
REMARK SMILES IDX 28 34 29 35 81 36 30 37 80 38 31 39 32 40 33 41 74 42 34 43
REMARK SMILES IDX 79 44 73 45 75 46 35 47 78 48 72 49 71 50 36 52 62 53 45 54
REMARK SMILES IDX 61 55 46 56 49 57 60 58 76 59 47 60 48 61 59 63 77 64 50 65
REMARK SMILES IDX 37 66 38 67 43 68 39 69 40 70 42 71 44 72 41 73 63 74 64 75
REMARK SMILES IDX 69 76 65 77 66 78 68 79 70 80 67 81 51 82 52 83 57 84 53 85
REMARK SMILES IDX 54 86 56 87 58 88 55 89
REMARK H PARENT 10 10 75 51 49 62
REMARK Flexibility Score: inf
ROOT
ATOM      1  C   UNL A   1      33.681  30.331  27.276  1.00  0.00     0.202 C 
ENDROOT
BRANCH   1   2
ATOM      2  C   UNL A   1      34.427  29.183  26.588  1.00  0.00     0.261 C 
BRANCH   2   3
ATOM      3  O   UNL A   1      33.835  27.881  26.800  1.00  0.00    -0.463 OA
BRANCH   3   4
ATOM      4  C   UNL A   1      33.418  27.211  25.682  1.00  0.00     0.311 C 
ATOM      5  O   UNL A   1      33.663  27.543  24.532  1.00  0.00    -0.252 OA
BRANCH   4   6
ATOM      6  C   UNL A   1      32.554  26.023  26.062  1.00  0.00     0.134 C 
ATOM      7  N   UNL A   1      33.974  22.304  24.242  1.00  0.00    -0.335 N 
ATOM      8  C   UNL A   1      32.803  22.269  25.113  1.00  0.00     0.264 C 
ATOM      9  C   UNL A   1      33.972  23.478  23.361  1.00  0.00     0.264 C 
ATOM     10  H   UNL A   1      33.871  21.485  23.642  1.00  0.00     0.348 HD
ATOM     11  C   UNL A   1      32.616  23.540  25.926  1.00  0.00     0.091 C 
ATOM     12  C   UNL A   1      33.616  24.827  24.009  1.00  0.00     0.091 C 
ATOM     13  C   UNL A   1      32.498  24.820  25.064  1.00  0.00     0.067 C 
ATOM     14  N   UNL A   1      31.157  24.947  24.479  1.00  0.00    -0.339 N 
ATOM     15  C   UNL A   1      31.110  26.500  26.243  1.00  0.00     0.118 C 
ATOM     16  C   UNL A   1      30.346  25.866  25.123  1.00  0.00     0.223 C 
ATOM     17  C   UNL A   1      30.711  24.340  23.238  1.00  0.00     0.147 C 
ATOM     18  O   UNL A   1      29.185  26.124  24.847  1.00  0.00    -0.275 OA
BRANCH   7  19
ATOM     19  C   UNL A   1      35.264  22.045  24.892  1.00  0.00     0.264 C 
BRANCH  19  20
ATOM     20  C   UNL A   1      36.410  22.986  24.472  1.00  0.00     0.083 C 
BRANCH  20  21
ATOM     21  C   UNL A   1      37.124  23.723  25.614  1.00  0.00     0.129 C 
BRANCH  21  22
ATOM     22  N   UNL A   1      38.306  23.057  26.123  1.00  0.00    -0.335 N 
ATOM     23  C   UNL A   1      39.006  24.798  27.829  1.00  0.00     0.087 C 
ATOM     24  C   UNL A   1      39.165  23.514  27.100  1.00  0.00     0.105 A 
ATOM     25  N   UNL A   1      40.132  22.642  27.306  1.00  0.00    -0.242 NA
ATOM     26  C   UNL A   1      39.858  21.574  26.496  1.00  0.00     0.131 A 
ATOM     27  C   UNL A   1      38.708  21.795  25.780  1.00  0.00     0.107 A 
ENDBRANCH  21  22
ENDBRANCH  20  21
ENDBRANCH  19  20
ENDBRANCH   7  19
ENDBRANCH   4   6
ENDBRANCH   3   4
ENDBRANCH   2   3
ENDBRANCH   1   2
BRANCH   1  28
ATOM     28  O   UNL A   1      34.320  31.606  27.326  1.00  0.00    -0.374 OA
BRANCH  28  29
ATOM     29  C   UNL A   1      34.511  32.226  28.587  1.00  0.00     0.202 C 
BRANCH  29  30
ATOM     30  C   UNL A   1      35.643  31.712  29.468  1.00  0.00     0.261 C 
BRANCH  30  31
ATOM     31  O   UNL A   1      36.537  30.832  28.817  1.00  0.00    -0.460 OA
BRANCH  31  32
ATOM     32  C   UNL A   1      36.703  29.684  29.520  1.00  0.00     0.338 C 
ATOM     33  O   UNL A   1      36.119  29.348  30.531  1.00  0.00    -0.246 OA
BRANCH  32  34
ATOM     34  C   UNL A   1      37.918  29.034  29.022  1.00  0.00     0.060 A 
ATOM     35  C   UNL A   1      38.557  28.188  29.929  1.00  0.00     0.016 A 
ATOM     36  C   UNL A   1      38.541  29.480  27.844  1.00  0.00     0.016 A 
ATOM     37  C   UNL A   1      39.892  27.930  29.741  1.00  0.00     0.010 A 
ATOM     38  C   UNL A   1      39.880  29.230  27.664  1.00  0.00     0.010 A 
ATOM     39  C   UNL A   1      40.548  28.513  28.651  1.00  0.00    -0.014 A 
BRANCH  39  40
ATOM     40  C   UNL A   1      41.954  28.226  28.523  1.00  0.00     0.031 A 
ATOM     41  C   UNL A   1      42.219  26.961  27.806  1.00  0.00     0.074 A 
ATOM     42  C   UNL A   1      42.915  29.049  28.967  1.00  0.00     0.049 A 
ATOM     43  N   UNL A   1      42.699  25.866  28.289  1.00  0.00    -0.248 NA
ATOM     44  C   UNL A   1      41.728  26.857  26.424  1.00  0.00     0.031 C 
ATOM     45  C   UNL A   1      42.807  30.436  29.415  1.00  0.00     0.029 A 
ATOM     46  N   UNL A   1      44.248  28.805  29.016  1.00  0.00    -0.354 N 
ATOM     47  C   UNL A   1      42.741  24.978  27.221  1.00  0.00     0.074 A 
ATOM     48  C   UNL A   1      41.978  25.576  26.158  1.00  0.00     0.031 C 
ATOM     49  C   UNL A   1      44.048  30.972  29.480  1.00  0.00     0.029 A 
ATOM     50  C   UNL A   1      45.026  29.932  29.196  1.00  0.00     0.049 A 
ATOM     51  H   UNL A   1      44.628  27.901  28.932  1.00  0.00     0.167 HD
ATOM     52  C   UNL A   1      43.597  23.924  27.211  1.00  0.00     0.037 A 
ATOM     53  C   UNL A   1      46.368  29.991  29.017  1.00  0.00     0.037 A 
ATOM     54  C   UNL A   1      44.057  23.602  28.537  1.00  0.00     0.049 A 
ATOM     55  C   UNL A   1      46.893  28.598  29.070  1.00  0.00     0.074 A 
ATOM     56  C   UNL A   1      43.433  23.226  29.711  1.00  0.00     0.029 A 
ATOM     57  N   UNL A   1      45.320  24.003  28.901  1.00  0.00    -0.354 N 
ATOM     58  N   UNL A   1      46.931  27.874  30.154  1.00  0.00    -0.248 NA
ATOM     59  C   UNL A   1      46.961  27.845  27.823  1.00  0.00     0.031 C 
ATOM     60  C   UNL A   1      44.169  23.872  30.748  1.00  0.00     0.029 A 
ATOM     61  C   UNL A   1      45.219  24.569  30.146  1.00  0.00     0.049 A 
ATOM     62  H   UNL A   1      46.142  23.902  28.369  1.00  0.00     0.167 HD
ATOM     63  C   UNL A   1      46.611  26.587  29.741  1.00  0.00     0.074 A 
ATOM     64  C   UNL A   1      46.731  26.613  28.286  1.00  0.00     0.031 C 
ATOM     65  C   UNL A   1      46.003  25.700  30.583  1.00  0.00     0.037 A 
BRANCH  52  66
ATOM     66  C   UNL A   1      44.290  23.444  25.965  1.00  0.00     0.057 A 
ATOM     67  C   UNL A   1      44.132  22.107  25.566  1.00  0.00     0.134 A 
ATOM     68  C   UNL A   1      45.323  24.150  25.312  1.00  0.00     0.134 A 
ATOM     69  F   UNL A   1      43.197  21.327  26.128  1.00  0.00    -0.206 F 
ATOM     70  C   UNL A   1      44.984  21.501  24.636  1.00  0.00     0.040 A 
ATOM     71  C   UNL A   1      46.142  23.570  24.342  1.00  0.00     0.040 A 
ATOM     72  F   UNL A   1      45.666  25.400  25.645  1.00  0.00    -0.206 F 
ATOM     73  C   UNL A   1      45.997  22.231  24.025  1.00  0.00     0.006 A 
ENDBRANCH  52  66
BRANCH  53  74
ATOM     74  C   UNL A   1      47.159  31.126  28.496  1.00  0.00     0.057 A 
ATOM     75  C   UNL A   1      47.093  31.493  27.145  1.00  0.00     0.134 A 
ATOM     76  C   UNL A   1      47.806  32.036  29.351  1.00  0.00     0.134 A 
ATOM     77  F   UNL A   1      46.458  30.715  26.259  1.00  0.00    -0.206 F 
ATOM     78  C   UNL A   1      47.626  32.701  26.677  1.00  0.00     0.040 A 
ATOM     79  C   UNL A   1      48.351  33.240  28.895  1.00  0.00     0.040 A 
ATOM     80  F   UNL A   1      47.858  31.832  30.676  1.00  0.00    -0.206 F 
ATOM     81  C   UNL A   1      48.251  33.582  27.554  1.00  0.00     0.006 A 
ENDBRANCH  53  74
BRANCH  65  82
ATOM     82  C   UNL A   1      45.909  26.066  32.038  1.00  0.00     0.057 A 
ATOM     83  C   UNL A   1      46.942  25.847  32.963  1.00  0.00     0.134 A 
ATOM     84  C   UNL A   1      44.806  26.800  32.485  1.00  0.00     0.134 A 
ATOM     85  F   UNL A   1      48.084  25.253  32.598  1.00  0.00    -0.206 F 
ATOM     86  C   UNL A   1      46.854  26.292  34.286  1.00  0.00     0.040 A 
ATOM     87  C   UNL A   1      44.721  27.282  33.794  1.00  0.00     0.040 A 
ATOM     88  F   UNL A   1      43.808  27.105  31.639  1.00  0.00    -0.206 F 
ATOM     89  C   UNL A   1      45.743  27.017  34.702  1.00  0.00     0.006 A 
ENDBRANCH  65  82
ENDBRANCH  39  40
ENDBRANCH  32  34
ENDBRANCH  31  32
ENDBRANCH  30  31
ENDBRANCH  29  30
ENDBRANCH  28  29
ENDBRANCH   1  28
TORSDOF 18
ENDMDL
MODEL 3
REMARK VINA RESULT:     -11.0      2.757      7.358
REMARK SMILES Cc1nccn1CCC[NH+]1CCC2(CC1)[C@@H](C(=O)OCCOCCOC(=O)c1ccc(-c3c4nc(c(-c5c(F)cccc5F)c5ccc([nH]5)c(-c5c(F)cccc5F)c5nc(c(-c6c(F)cccc6F)c6ccc3[nH]6)C=C5)C=C4)cc1)CC(=O)N2C
REMARK SMILES IDX 21 1 20 2 19 3 17 4 18 5 16 6 10 7 11 8 15 9 12 11 14 12
REMARK SMILES IDX 13 13 85 14 82 15 83 16 86 17 84 18 9 19 8 20 7 21 6 22 1 23
REMARK SMILES IDX 2 24 3 25 4 26 5 27 22 28 23 29 24 30 25 31 26 32 27 33
REMARK SMILES IDX 28 34 29 35 81 36 30 37 80 38 31 39 32 40 33 41 74 42 34 43
REMARK SMILES IDX 79 44 73 45 75 46 35 47 78 48 72 49 71 50 36 52 62 53 45 54
REMARK SMILES IDX 61 55 46 56 49 57 60 58 76 59 47 60 48 61 59 63 77 64 50 65
REMARK SMILES IDX 37 66 38 67 43 68 39 69 40 70 42 71 44 72 41 73 63 74 64 75
REMARK SMILES IDX 69 76 65 77 66 78 68 79 70 80 67 81 51 82 52 83 57 84 53 85
REMARK SMILES IDX 54 86 56 87 58 88 55 89
REMARK H PARENT 10 10 75 51 49 62
REMARK Flexibility Score: inf
ROOT
ATOM      1  C   UNL A   1      37.567  22.247  25.665  1.00  0.00     0.202 C 
ENDROOT
BRANCH   1   2
ATOM      2  C   UNL A   1      36.653  21.658  24.584  1.00  0.00     0.261 C 
BRANCH   2   3
ATOM      3  O   UNL A   1      35.318  22.213  24.571  1.00  0.00    -0.463 OA
BRANCH   3   4
ATOM      4  C   UNL A   1      34.929  22.838  23.417  1.00  0.00     0.311 C 
ATOM      5  O   UNL A   1      35.672  23.449  22.664  1.00  0.00    -0.252 OA
BRANCH   4   6
ATOM      6  C   UNL A   1      33.429  22.720  23.225  1.00  0.00     0.134 C 
ATOM      7  N   UNL A   1      31.385  26.544  23.826  1.00  0.00    -0.335 N 
ATOM      8  C   UNL A   1      30.602  25.367  23.465  1.00  0.00     0.264 C 
ATOM      9  C   UNL A   1      32.437  26.230  24.801  1.00  0.00     0.264 C 
ATOM     10  H   UNL A   1      30.721  27.159  24.297  1.00  0.00     0.348 HD
ATOM     11  C   UNL A   1      31.448  24.205  22.972  1.00  0.00     0.091 C 
ATOM     12  C   UNL A   1      33.270  24.964  24.534  1.00  0.00     0.091 C 
ATOM     13  C   UNL A   1      32.519  23.739  23.988  1.00  0.00     0.067 C 
ATOM     14  N   UNL A   1      31.925  22.912  25.046  1.00  0.00    -0.339 N 
ATOM     15  C   UNL A   1      32.982  21.325  23.670  1.00  0.00     0.118 C 
ATOM     16  C   UNL A   1      32.149  21.554  24.893  1.00  0.00     0.223 C 
ATOM     17  C   UNL A   1      31.307  23.405  26.263  1.00  0.00     0.147 C 
ATOM     18  O   UNL A   1      31.731  20.666  25.619  1.00  0.00    -0.275 OA
BRANCH   7  19
ATOM     19  C   UNL A   1      31.836  27.382  22.709  1.00  0.00     0.264 C 
BRANCH  19  20
ATOM     20  C   UNL A   1      31.683  28.901  22.925  1.00  0.00     0.083 C 
BRANCH  20  21
ATOM     21  C   UNL A   1      30.673  29.326  24.000  1.00  0.00     0.129 C 
BRANCH  21  22
ATOM     22  N   UNL A   1      29.311  29.480  23.530  1.00  0.00    -0.335 N 
ATOM     23  C   UNL A   1      29.125  32.000  23.744  1.00  0.00     0.087 C 
ATOM     24  C   UNL A   1      28.596  30.652  23.414  1.00  0.00     0.105 A 
ATOM     25  N   UNL A   1      27.385  30.408  22.951  1.00  0.00    -0.242 NA
ATOM     26  C   UNL A   1      27.339  29.064  22.701  1.00  0.00     0.131 A 
ATOM     27  C   UNL A   1      28.537  28.473  23.019  1.00  0.00     0.107 A 
ENDBRANCH  21  22
ENDBRANCH  20  21
ENDBRANCH  19  20
ENDBRANCH   7  19
ENDBRANCH   4   6
ENDBRANCH   3   4
ENDBRANCH   2   3
ENDBRANCH   1   2
BRANCH   1  28
ATOM     28  O   UNL A   1      38.861  21.671  25.830  1.00  0.00    -0.374 OA
BRANCH  28  29
ATOM     29  C   UNL A   1      39.742  22.232  26.790  1.00  0.00     0.202 C 
BRANCH  29  30
ATOM     30  C   UNL A   1      41.124  21.607  26.938  1.00  0.00     0.261 C 
BRANCH  30  31
ATOM     31  O   UNL A   1      42.175  22.540  27.084  1.00  0.00    -0.460 OA
BRANCH  31  32
ATOM     32  C   UNL A   1      42.388  23.232  25.938  1.00  0.00     0.338 C 
ATOM     33  O   UNL A   1      42.724  22.785  24.859  1.00  0.00    -0.246 OA
BRANCH  32  34
ATOM     34  C   UNL A   1      42.427  24.656  26.281  1.00  0.00     0.060 A 
ATOM     35  C   UNL A   1      43.215  24.983  27.384  1.00  0.00     0.016 A 
ATOM     36  C   UNL A   1      41.495  25.553  25.731  1.00  0.00     0.016 A 
ATOM     37  C   UNL A   1      42.943  26.152  28.049  1.00  0.00     0.010 A 
ATOM     38  C   UNL A   1      41.216  26.718  26.405  1.00  0.00     0.010 A 
ATOM     39  C   UNL A   1      41.901  26.966  27.590  1.00  0.00    -0.014 A 
BRANCH  39  40
ATOM     40  C   UNL A   1      41.647  28.166  28.345  1.00  0.00     0.031 A 
ATOM     41  C   UNL A   1      42.719  29.173  28.202  1.00  0.00     0.074 A 
ATOM     42  C   UNL A   1      40.530  28.361  29.061  1.00  0.00     0.049 A 
ATOM     43  N   UNL A   1      43.562  29.561  29.098  1.00  0.00    -0.248 NA
ATOM     44  C   UNL A   1      42.988  29.679  26.848  1.00  0.00     0.031 C 
ATOM     45  C   UNL A   1      39.284  27.596  29.053  1.00  0.00     0.029 A 
ATOM     46  N   UNL A   1      40.264  29.386  29.907  1.00  0.00    -0.354 N 
ATOM     47  C   UNL A   1      44.364  30.503  28.466  1.00  0.00     0.074 A 
ATOM     48  C   UNL A   1      44.084  30.407  27.057  1.00  0.00     0.031 C 
ATOM     49  C   UNL A   1      38.327  28.312  29.688  1.00  0.00     0.029 A 
ATOM     50  C   UNL A   1      38.930  29.516  30.243  1.00  0.00     0.049 A 
ATOM     51  H   UNL A   1      40.962  29.987  30.253  1.00  0.00     0.167 HD
ATOM     52  C   UNL A   1      45.026  31.455  29.173  1.00  0.00     0.037 A 
ATOM     53  C   UNL A   1      38.377  30.596  30.845  1.00  0.00     0.037 A 
ATOM     54  C   UNL A   1      45.164  31.087  30.558  1.00  0.00     0.049 A 
ATOM     55  C   UNL A   1      39.478  31.366  31.489  1.00  0.00     0.074 A 
ATOM     56  C   UNL A   1      45.753  30.027  31.222  1.00  0.00     0.029 A 
ATOM     57  N   UNL A   1      44.327  31.679  31.473  1.00  0.00    -0.354 N 
ATOM     58  N   UNL A   1      40.144  30.953  32.532  1.00  0.00    -0.248 NA
ATOM     59  C   UNL A   1      40.144  32.396  30.700  1.00  0.00     0.031 C 
ATOM     60  C   UNL A   1      44.887  29.750  32.320  1.00  0.00     0.029 A 
ATOM     61  C   UNL A   1      43.848  30.680  32.282  1.00  0.00     0.049 A 
ATOM     62  H   UNL A   1      44.113  32.637  31.536  1.00  0.00     0.167 HD
ATOM     63  C   UNL A   1      41.455  31.351  32.305  1.00  0.00     0.074 A 
ATOM     64  C   UNL A   1      41.376  32.314  31.209  1.00  0.00     0.031 C 
ATOM     65  C   UNL A   1      42.510  30.657  32.825  1.00  0.00     0.037 A 
BRANCH  52  66
ATOM     66  C   UNL A   1      45.208  32.864  28.678  1.00  0.00     0.057 A 
ATOM     67  C   UNL A   1      44.074  33.649  28.412  1.00  0.00     0.134 A 
ATOM     68  C   UNL A   1      46.425  33.379  28.182  1.00  0.00     0.134 A 
ATOM     69  F   UNL A   1      42.856  33.256  28.815  1.00  0.00    -0.206 F 
ATOM     70  C   UNL A   1      44.139  34.820  27.651  1.00  0.00     0.040 A 
ATOM     71  C   UNL A   1      46.509  34.575  27.470  1.00  0.00     0.040 A 
ATOM     72  F   UNL A   1      47.580  32.707  28.267  1.00  0.00    -0.206 F 
ATOM     73  C   UNL A   1      45.358  35.284  27.172  1.00  0.00     0.006 A 
ENDBRANCH  52  66
BRANCH  53  74
ATOM     74  C   UNL A   1      37.027  31.157  30.629  1.00  0.00     0.057 A 
ATOM     75  C   UNL A   1      36.183  31.446  31.710  1.00  0.00     0.134 A 
ATOM     76  C   UNL A   1      36.624  31.661  29.379  1.00  0.00     0.134 A 
ATOM     77  F   UNL A   1      36.503  31.049  32.949  1.00  0.00    -0.206 F 
ATOM     78  C   UNL A   1      35.014  32.204  31.558  1.00  0.00     0.040 A 
ATOM     79  C   UNL A   1      35.454  32.410  29.212  1.00  0.00     0.040 A 
ATOM     80  F   UNL A   1      37.392  31.521  28.289  1.00  0.00    -0.206 F 
ATOM     81  C   UNL A   1      34.651  32.695  30.307  1.00  0.00     0.006 A 
ENDBRANCH  53  74
BRANCH  65  82
ATOM     82  C   UNL A   1      42.214  29.597  33.849  1.00  0.00     0.057 A 
ATOM     83  C   UNL A   1      41.878  28.273  33.524  1.00  0.00     0.134 A 
ATOM     84  C   UNL A   1      42.426  29.880  35.202  1.00  0.00     0.134 A 
ATOM     85  F   UNL A   1      41.765  27.881  32.248  1.00  0.00    -0.206 F 
ATOM     86  C   UNL A   1      41.707  27.293  34.505  1.00  0.00     0.040 A 
ATOM     87  C   UNL A   1      42.294  28.901  36.190  1.00  0.00     0.040 A 
ATOM     88  F   UNL A   1      42.814  31.108  35.584  1.00  0.00    -0.206 F 
ATOM     89  C   UNL A   1      41.921  27.605  35.843  1.00  0.00     0.006 A 
ENDBRANCH  65  82
ENDBRANCH  39  40
ENDBRANCH  32  34
ENDBRANCH  31  32
ENDBRANCH  30  31
ENDBRANCH  29  30
ENDBRANCH  28  29
ENDBRANCH   1  28
TORSDOF 18
ENDMDL
