MODEL 1
REMARK VINA RESULT:     -11.1      0.000      0.000
REMARK SMILES O=C(OCCOCCOC(=O)c1cccnc1-c1ccccn1)c1ccc(-c2c3nc(c(-c4c(F)cccc4F)c4ccc([nH]4)c(-c4c(F)cccc4F)c4nc(c(-c5c(F)cccc5F)c5ccc2[nH]5)C=C4)C=C3)cc1
REMARK SMILES IDX 5 1 4 2 3 3 2 4 1 5 24 6 25 7 77 8 26 9 76 10 27 11 28 12
REMARK SMILES IDX 29 13 70 14 30 15 75 16 69 17 71 18 31 19 74 20 68 21 67 22
REMARK SMILES IDX 32 24 58 25 41 26 57 27 42 28 45 29 56 30 72 31 43 32 44 33
REMARK SMILES IDX 55 35 73 36 46 37 33 38 34 39 39 40 35 41 36 42 38 43 40 44
REMARK SMILES IDX 37 45 59 46 60 47 65 48 61 49 62 50 64 51 66 52 63 53 47 54
REMARK SMILES IDX 48 55 53 56 49 57 50 58 52 59 54 60 51 61 6 62 7 63 8 64
REMARK SMILES IDX 9 65 10 66 11 67 12 68 13 69 17 70 14 71 16 72 15 73 18 74
REMARK SMILES IDX 19 75 23 76 20 77 22 78 21 79
REMARK H PARENT 71 23 45 34
REMARK Flexibility Score: inf
ROOT
ATOM      1  C   UNL A   1      31.411  32.005  26.862  1.00  0.00     0.202 C 
ENDROOT
BRANCH   1   2
ATOM      2  C   UNL A   1      32.637  32.646  27.513  1.00  0.00     0.261 C 
BRANCH   2   3
ATOM      3  O   UNL A   1      32.475  34.068  27.639  1.00  0.00    -0.460 OA
BRANCH   3   4
ATOM      4  C   UNL A   1      32.999  34.829  28.635  1.00  0.00     0.338 C 
ATOM      5  O   UNL A   1      32.464  35.892  28.939  1.00  0.00    -0.246 OA
BRANCH   4   6
ATOM      6  C   UNL A   1      34.215  34.406  29.388  1.00  0.00     0.060 A 
ATOM      7  C   UNL A   1      34.151  33.700  30.585  1.00  0.00     0.016 A 
ATOM      8  C   UNL A   1      35.476  34.622  28.822  1.00  0.00     0.016 A 
ATOM      9  C   UNL A   1      35.278  33.281  31.260  1.00  0.00     0.010 A 
ATOM     10  C   UNL A   1      36.624  34.110  29.442  1.00  0.00     0.010 A 
ATOM     11  C   UNL A   1      36.518  33.419  30.659  1.00  0.00    -0.014 A 
BRANCH  11  12
ATOM     12  C   UNL A   1      37.667  32.792  31.333  1.00  0.00     0.031 A 
ATOM     13  C   UNL A   1      38.371  31.661  30.663  1.00  0.00     0.074 A 
ATOM     14  C   UNL A   1      38.116  33.326  32.487  1.00  0.00     0.049 A 
ATOM     15  N   UNL A   1      39.307  30.884  31.132  1.00  0.00    -0.248 NA
ATOM     16  C   UNL A   1      37.969  31.364  29.279  1.00  0.00     0.031 C 
ATOM     17  C   UNL A   1      37.560  34.514  33.146  1.00  0.00     0.029 A 
ATOM     18  N   UNL A   1      39.158  32.964  33.297  1.00  0.00    -0.354 N 
ATOM     19  C   UNL A   1      39.566  29.968  30.125  1.00  0.00     0.074 A 
ATOM     20  C   UNL A   1      38.706  30.295  29.010  1.00  0.00     0.031 C 
ATOM     21  C   UNL A   1      38.288  34.801  34.234  1.00  0.00     0.029 A 
ATOM     22  C   UNL A   1      39.291  33.762  34.409  1.00  0.00     0.049 A 
ATOM     23  H   UNL A   1      39.756  32.206  33.102  1.00  0.00     0.167 HD
ATOM     24  C   UNL A   1      40.437  28.934  30.157  1.00  0.00     0.037 A 
ATOM     25  C   UNL A   1      40.098  33.627  35.477  1.00  0.00     0.037 A 
ATOM     26  C   UNL A   1      41.289  28.659  31.281  1.00  0.00     0.049 A 
ATOM     27  C   UNL A   1      41.005  32.430  35.511  1.00  0.00     0.074 A 
ATOM     28  C   UNL A   1      42.175  27.614  31.461  1.00  0.00     0.029 A 
ATOM     29  N   UNL A   1      41.364  29.455  32.417  1.00  0.00    -0.354 N 
ATOM     30  N   UNL A   1      41.185  31.506  34.597  1.00  0.00    -0.248 NA
ATOM     31  C   UNL A   1      41.795  32.235  36.731  1.00  0.00     0.031 C 
ATOM     32  C   UNL A   1      42.761  27.759  32.724  1.00  0.00     0.029 A 
ATOM     33  C   UNL A   1      42.273  28.918  33.311  1.00  0.00     0.049 A 
ATOM     34  H   UNL A   1      40.846  30.279  32.564  1.00  0.00     0.167 HD
ATOM     35  C   UNL A   1      42.114  30.623  35.125  1.00  0.00     0.074 A 
ATOM     36  C   UNL A   1      42.480  31.141  36.430  1.00  0.00     0.031 C 
ATOM     37  C   UNL A   1      42.613  29.481  34.594  1.00  0.00     0.037 A 
BRANCH  24  38
ATOM     38  C   UNL A   1      40.434  28.003  28.984  1.00  0.00     0.057 A 
ATOM     39  C   UNL A   1      39.652  26.842  28.950  1.00  0.00     0.134 A 
ATOM     40  C   UNL A   1      41.252  28.264  27.877  1.00  0.00     0.134 A 
ATOM     41  F   UNL A   1      38.872  26.516  29.992  1.00  0.00    -0.206 F 
ATOM     42  C   UNL A   1      39.699  25.964  27.864  1.00  0.00     0.040 A 
ATOM     43  C   UNL A   1      41.292  27.406  26.778  1.00  0.00     0.040 A 
ATOM     44  F   UNL A   1      42.034  29.354  27.852  1.00  0.00    -0.206 F 
ATOM     45  C   UNL A   1      40.517  26.248  26.772  1.00  0.00     0.006 A 
ENDBRANCH  24  38
BRANCH  25  46
ATOM     46  C   UNL A   1      40.024  34.579  36.617  1.00  0.00     0.057 A 
ATOM     47  C   UNL A   1      40.821  35.728  36.661  1.00  0.00     0.134 A 
ATOM     48  C   UNL A   1      39.174  34.349  37.709  1.00  0.00     0.134 A 
ATOM     49  F   UNL A   1      41.672  35.998  35.660  1.00  0.00    -0.206 F 
ATOM     50  C   UNL A   1      40.796  36.597  37.755  1.00  0.00     0.040 A 
ATOM     51  C   UNL A   1      39.115  35.226  38.793  1.00  0.00     0.040 A 
ATOM     52  F   UNL A   1      38.380  33.268  37.735  1.00  0.00    -0.206 F 
ATOM     53  C   UNL A   1      39.938  36.349  38.824  1.00  0.00     0.006 A 
ENDBRANCH  25  46
BRANCH  37  54
ATOM     54  C   UNL A   1      43.628  28.750  35.415  1.00  0.00     0.057 A 
ATOM     55  C   UNL A   1      43.253  27.789  36.361  1.00  0.00     0.134 A 
ATOM     56  C   UNL A   1      44.994  28.985  35.224  1.00  0.00     0.134 A 
ATOM     57  F   UNL A   1      41.957  27.537  36.597  1.00  0.00    -0.206 F 
ATOM     58  C   UNL A   1      44.207  27.095  37.104  1.00  0.00     0.040 A 
ATOM     59  C   UNL A   1      45.957  28.279  35.944  1.00  0.00     0.040 A 
ATOM     60  F   UNL A   1      45.412  29.890  34.327  1.00  0.00    -0.206 F 
ATOM     61  C   UNL A   1      45.564  27.334  36.889  1.00  0.00     0.006 A 
ENDBRANCH  37  54
ENDBRANCH  11  12
ENDBRANCH   4   6
ENDBRANCH   3   4
ENDBRANCH   2   3
ENDBRANCH   1   2
BRANCH   1  62
ATOM     62  O   UNL A   1      31.538  30.606  26.659  1.00  0.00    -0.374 OA
BRANCH  62  63
ATOM     63  C   UNL A   1      32.852  30.076  26.687  1.00  0.00     0.202 C 
BRANCH  63  64
ATOM     64  C   UNL A   1      33.115  29.425  25.333  1.00  0.00     0.261 C 
BRANCH  64  65
ATOM     65  O   UNL A   1      32.017  29.745  24.458  1.00  0.00    -0.460 OA
BRANCH  65  66
ATOM     66  C   UNL A   1      31.840  28.956  23.356  1.00  0.00     0.340 C 
ATOM     67  O   UNL A   1      32.570  28.898  22.386  1.00  0.00    -0.246 OA
BRANCH  66  68
ATOM     68  C   UNL A   1      30.621  28.152  23.616  1.00  0.00     0.088 A 
ATOM     69  C   UNL A   1      30.807  26.833  24.072  1.00  0.00     0.019 A 
ATOM     70  C   UNL A   1      29.321  28.571  23.312  1.00  0.00     0.103 A 
ATOM     71  C   UNL A   1      29.728  25.969  24.187  1.00  0.00     0.021 A 
ATOM     72  N   UNL A   1      28.259  27.705  23.414  1.00  0.00    -0.254 NA
ATOM     73  C   UNL A   1      28.482  26.448  23.849  1.00  0.00     0.112 A 
BRANCH  70  74
ATOM     74  C   UNL A   1      28.923  29.881  22.761  1.00  0.00     0.089 A 
ATOM     75  C   UNL A   1      28.797  30.998  23.598  1.00  0.00     0.031 A 
ATOM     76  N   UNL A   1      28.746  29.980  21.423  1.00  0.00    -0.255 NA
ATOM     77  C   UNL A   1      28.421  32.227  23.060  1.00  0.00     0.004 A 
ATOM     78  C   UNL A   1      28.402  31.191  20.922  1.00  0.00     0.112 A 
ATOM     79  C   UNL A   1      28.219  32.328  21.692  1.00  0.00     0.020 A 
ENDBRANCH  70  74
ENDBRANCH  66  68
ENDBRANCH  65  66
ENDBRANCH  64  65
ENDBRANCH  63  64
ENDBRANCH  62  63
ENDBRANCH   1  62
TORSDOF 15
ENDMDL
MODEL 2
REMARK VINA RESULT:     -11.0      6.638     10.804
REMARK SMILES O=C(OCCOCCOC(=O)c1cccnc1-c1ccccn1)c1ccc(-c2c3nc(c(-c4c(F)cccc4F)c4ccc([nH]4)c(-c4c(F)cccc4F)c4nc(c(-c5c(F)cccc5F)c5ccc2[nH]5)C=C4)C=C3)cc1
REMARK SMILES IDX 5 1 4 2 3 3 2 4 1 5 24 6 25 7 77 8 26 9 76 10 27 11 28 12
REMARK SMILES IDX 29 13 70 14 30 15 75 16 69 17 71 18 31 19 74 20 68 21 67 22
REMARK SMILES IDX 32 24 58 25 41 26 57 27 42 28 45 29 56 30 72 31 43 32 44 33
REMARK SMILES IDX 55 35 73 36 46 37 33 38 34 39 39 40 35 41 36 42 38 43 40 44
REMARK SMILES IDX 37 45 59 46 60 47 65 48 61 49 62 50 64 51 66 52 63 53 47 54
REMARK SMILES IDX 48 55 53 56 49 57 50 58 52 59 54 60 51 61 6 62 7 63 8 64
REMARK SMILES IDX 9 65 10 66 11 67 12 68 13 69 17 70 14 71 16 72 15 73 18 74
REMARK SMILES IDX 19 75 23 76 20 77 22 78 21 79
REMARK H PARENT 71 23 45 34
REMARK Flexibility Score: inf
ROOT
ATOM      1  C   UNL A   1      38.145  19.565  24.899  1.00  0.00     0.202 C 
ENDROOT
BRANCH   1   2
ATOM      2  C   UNL A   1      39.387  19.982  25.687  1.00  0.00     0.261 C 
BRANCH   2   3
ATOM      3  O   UNL A   1      40.372  18.936  25.697  1.00  0.00    -0.460 OA
BRANCH   3   4
ATOM      4  C   UNL A   1      41.692  19.108  25.969  1.00  0.00     0.338 C 
ATOM      5  O   UNL A   1      42.457  18.149  25.914  1.00  0.00    -0.246 OA
BRANCH   4   6
ATOM      6  C   UNL A   1      42.251  20.443  26.327  1.00  0.00     0.060 A 
ATOM      7  C   UNL A   1      42.663  21.368  25.373  1.00  0.00     0.016 A 
ATOM      8  C   UNL A   1      42.263  20.839  27.670  1.00  0.00     0.016 A 
ATOM      9  C   UNL A   1      43.148  22.614  25.708  1.00  0.00     0.010 A 
ATOM     10  C   UNL A   1      42.652  22.139  28.018  1.00  0.00     0.010 A 
ATOM     11  C   UNL A   1      43.079  23.036  27.026  1.00  0.00    -0.014 A 
BRANCH  11  12
ATOM     12  C   UNL A   1      43.434  24.437  27.305  1.00  0.00     0.031 A 
ATOM     13  C   UNL A   1      44.841  24.884  27.091  1.00  0.00     0.074 A 
ATOM     14  C   UNL A   1      42.457  25.302  27.644  1.00  0.00     0.049 A 
ATOM     15  N   UNL A   1      45.396  26.022  27.399  1.00  0.00    -0.248 NA
ATOM     16  C   UNL A   1      45.745  23.921  26.441  1.00  0.00     0.031 C 
ATOM     17  C   UNL A   1      41.030  24.972  27.752  1.00  0.00     0.029 A 
ATOM     18  N   UNL A   1      42.502  26.640  27.931  1.00  0.00    -0.354 N 
ATOM     19  C   UNL A   1      46.727  25.895  27.038  1.00  0.00     0.074 A 
ATOM     20  C   UNL A   1      46.896  24.577  26.467  1.00  0.00     0.031 C 
ATOM     21  C   UNL A   1      40.338  26.082  28.044  1.00  0.00     0.029 A 
ATOM     22  C   UNL A   1      41.276  27.174  28.248  1.00  0.00     0.049 A 
ATOM     23  H   UNL A   1      43.333  27.168  27.911  1.00  0.00     0.167 HD
ATOM     24  C   UNL A   1      47.715  26.804  27.198  1.00  0.00     0.037 A 
ATOM     25  C   UNL A   1      40.962  28.398  28.710  1.00  0.00     0.037 A 
ATOM     26  C   UNL A   1      47.497  28.112  27.752  1.00  0.00     0.049 A 
ATOM     27  C   UNL A   1      42.090  29.361  28.941  1.00  0.00     0.074 A 
ATOM     28  C   UNL A   1      48.418  29.106  28.018  1.00  0.00     0.029 A 
ATOM     29  N   UNL A   1      46.251  28.607  28.115  1.00  0.00    -0.354 N 
ATOM     30  N   UNL A   1      43.369  29.209  28.686  1.00  0.00    -0.248 NA
ATOM     31  C   UNL A   1      41.745  30.650  29.551  1.00  0.00     0.031 C 
ATOM     32  C   UNL A   1      47.734  30.192  28.575  1.00  0.00     0.029 A 
ATOM     33  C   UNL A   1      46.379  29.891  28.615  1.00  0.00     0.049 A 
ATOM     34  H   UNL A   1      45.401  28.118  28.029  1.00  0.00     0.167 HD
ATOM     35  C   UNL A   1      43.981  30.383  29.096  1.00  0.00     0.074 A 
ATOM     36  C   UNL A   1      42.927  31.248  29.589  1.00  0.00     0.031 C 
ATOM     37  C   UNL A   1      45.294  30.717  29.082  1.00  0.00     0.037 A 
BRANCH  24  38
ATOM     38  C   UNL A   1      49.105  26.371  26.847  1.00  0.00     0.057 A 
ATOM     39  C   UNL A   1      49.939  25.714  27.759  1.00  0.00     0.134 A 
ATOM     40  C   UNL A   1      49.625  26.643  25.575  1.00  0.00     0.134 A 
ATOM     41  F   UNL A   1      49.514  25.454  29.005  1.00  0.00    -0.206 F 
ATOM     42  C   UNL A   1      51.249  25.360  27.424  1.00  0.00     0.040 A 
ATOM     43  C   UNL A   1      50.924  26.275  25.222  1.00  0.00     0.040 A 
ATOM     44  F   UNL A   1      48.881  27.280  24.658  1.00  0.00    -0.206 F 
ATOM     45  C   UNL A   1      51.742  25.636  26.151  1.00  0.00     0.006 A 
ENDBRANCH  24  38
BRANCH  25  46
ATOM     46  C   UNL A   1      39.559  28.745  29.063  1.00  0.00     0.057 A 
ATOM     47  C   UNL A   1      39.052  28.517  30.347  1.00  0.00     0.134 A 
ATOM     48  C   UNL A   1      38.678  29.285  28.115  1.00  0.00     0.134 A 
ATOM     49  F   UNL A   1      39.834  27.983  31.297  1.00  0.00    -0.206 F 
ATOM     50  C   UNL A   1      37.720  28.789  30.670  1.00  0.00     0.040 A 
ATOM     51  C   UNL A   1      37.353  29.593  28.432  1.00  0.00     0.040 A 
ATOM     52  F   UNL A   1      39.094  29.532  26.864  1.00  0.00    -0.206 F 
ATOM     53  C   UNL A   1      36.867  29.333  29.711  1.00  0.00     0.006 A 
ENDBRANCH  25  46
BRANCH  37  54
ATOM     54  C   UNL A   1      45.641  32.084  29.582  1.00  0.00     0.057 A 
ATOM     55  C   UNL A   1      45.997  32.309  30.917  1.00  0.00     0.134 A 
ATOM     56  C   UNL A   1      45.656  33.175  28.706  1.00  0.00     0.134 A 
ATOM     57  F   UNL A   1      45.982  31.302  31.804  1.00  0.00    -0.206 F 
ATOM     58  C   UNL A   1      46.343  33.582  31.368  1.00  0.00     0.040 A 
ATOM     59  C   UNL A   1      46.024  34.448  29.141  1.00  0.00     0.040 A 
ATOM     60  F   UNL A   1      45.330  33.018  27.415  1.00  0.00    -0.206 F 
ATOM     61  C   UNL A   1      46.365  34.653  30.477  1.00  0.00     0.006 A 
ENDBRANCH  37  54
ENDBRANCH  11  12
ENDBRANCH   4   6
ENDBRANCH   3   4
ENDBRANCH   2   3
ENDBRANCH   1   2
BRANCH   1  62
ATOM     62  O   UNL A   1      37.276  20.644  24.590  1.00  0.00    -0.374 OA
BRANCH  62  63
ATOM     63  C   UNL A   1      37.518  21.869  25.262  1.00  0.00     0.202 C 
BRANCH  63  64
ATOM     64  C   UNL A   1      36.246  22.239  26.017  1.00  0.00     0.261 C 
BRANCH  64  65
ATOM     65  O   UNL A   1      35.377  21.091  26.029  1.00  0.00    -0.460 OA
BRANCH  65  66
ATOM     66  C   UNL A   1      34.044  21.313  26.227  1.00  0.00     0.340 C 
ATOM     67  O   UNL A   1      33.497  21.518  27.294  1.00  0.00    -0.246 OA
BRANCH  66  68
ATOM     68  C   UNL A   1      33.420  21.312  24.882  1.00  0.00     0.088 A 
ATOM     69  C   UNL A   1      33.052  22.560  24.344  1.00  0.00     0.019 A 
ATOM     70  C   UNL A   1      33.058  20.155  24.181  1.00  0.00     0.103 A 
ATOM     71  C   UNL A   1      32.324  22.631  23.165  1.00  0.00     0.021 A 
ATOM     72  N   UNL A   1      32.324  20.234  23.023  1.00  0.00    -0.254 NA
ATOM     73  C   UNL A   1      31.986  21.449  22.545  1.00  0.00     0.112 A 
BRANCH  70  74
ATOM     74  C   UNL A   1      33.287  18.760  24.605  1.00  0.00     0.089 A 
ATOM     75  C   UNL A   1      34.477  18.101  24.271  1.00  0.00     0.031 A 
ATOM     76  N   UNL A   1      32.343  18.166  25.372  1.00  0.00    -0.255 NA
ATOM     77  C   UNL A   1      34.677  16.784  24.680  1.00  0.00     0.004 A 
ATOM     78  C   UNL A   1      32.570  16.892  25.775  1.00  0.00     0.112 A 
ATOM     79  C   UNL A   1      33.703  16.164  25.449  1.00  0.00     0.020 A 
ENDBRANCH  70  74
ENDBRANCH  66  68
ENDBRANCH  65  66
ENDBRANCH  64  65
ENDBRANCH  63  64
ENDBRANCH  62  63
ENDBRANCH   1  62
TORSDOF 15
ENDMDL
MODEL 3
REMARK VINA RESULT:     -10.9      1.165      6.548
REMARK SMILES O=C(OCCOCCOC(=O)c1cccnc1-c1ccccn1)c1ccc(-c2c3nc(c(-c4c(F)cccc4F)c4ccc([nH]4)c(-c4c(F)cccc4F)c4nc(c(-c5c(F)cccc5F)c5ccc2[nH]5)C=C4)C=C3)cc1
REMARK SMILES IDX 5 1 4 2 3 3 2 4 1 5 24 6 25 7 77 8 26 9 76 10 27 11 28 12
REMARK SMILES IDX 29 13 70 14 30 15 75 16 69 17 71 18 31 19 74 20 68 21 67 22
REMARK SMILES IDX 32 24 58 25 41 26 57 27 42 28 45 29 56 30 72 31 43 32 44 33
REMARK SMILES IDX 55 35 73 36 46 37 33 38 34 39 39 40 35 41 36 42 38 43 40 44
REMARK SMILES IDX 37 45 59 46 60 47 65 48 61 49 62 50 64 51 66 52 63 53 47 54
REMARK SMILES IDX 48 55 53 56 49 57 50 58 52 59 54 60 51 61 6 62 7 63 8 64
REMARK SMILES IDX 9 65 10 66 11 67 12 68 13 69 17 70 14 71 16 72 15 73 18 74
REMARK SMILES IDX 19 75 23 76 20 77 22 78 21 79
REMARK H PARENT 71 23 45 34
REMARK Flexibility Score: inf
ROOT
ATOM      1  C   UNL A   1      31.437  32.146  26.705  1.00  0.00     0.202 C 
ENDROOT
BRANCH   1   2
ATOM      2  C   UNL A   1      32.630  32.881  27.317  1.00  0.00     0.261 C 
BRANCH   2   3
ATOM      3  O   UNL A   1      32.255  34.191  27.774  1.00  0.00    -0.460 OA
BRANCH   3   4
ATOM      4  C   UNL A   1      32.939  34.925  28.690  1.00  0.00     0.338 C 
ATOM      5  O   UNL A   1      32.554  36.054  28.979  1.00  0.00    -0.246 OA
BRANCH   4   6
ATOM      6  C   UNL A   1      34.152  34.392  29.374  1.00  0.00     0.060 A 
ATOM      7  C   UNL A   1      34.087  33.609  30.523  1.00  0.00     0.016 A 
ATOM      8  C   UNL A   1      35.406  34.585  28.784  1.00  0.00     0.016 A 
ATOM      9  C   UNL A   1      35.210  33.090  31.131  1.00  0.00     0.010 A 
ATOM     10  C   UNL A   1      36.544  33.976  29.331  1.00  0.00     0.010 A 
ATOM     11  C   UNL A   1      36.438  33.209  30.501  1.00  0.00    -0.014 A 
BRANCH  11  12
ATOM     12  C   UNL A   1      37.572  32.482  31.095  1.00  0.00     0.031 A 
ATOM     13  C   UNL A   1      38.080  32.899  32.433  1.00  0.00     0.074 A 
ATOM     14  C   UNL A   1      38.051  31.392  30.460  1.00  0.00     0.049 A 
ATOM     15  N   UNL A   1      39.141  32.491  33.071  1.00  0.00    -0.248 NA
ATOM     16  C   UNL A   1      37.288  33.910  33.151  1.00  0.00     0.031 C 
ATOM     17  C   UNL A   1      37.526  30.841  29.205  1.00  0.00     0.029 A 
ATOM     18  N   UNL A   1      39.065  30.534  30.791  1.00  0.00    -0.354 N 
ATOM     19  C   UNL A   1      39.180  33.237  34.238  1.00  0.00     0.074 A 
ATOM     20  C   UNL A   1      38.026  34.108  34.234  1.00  0.00     0.031 C 
ATOM     21  C   UNL A   1      38.194  29.722  28.896  1.00  0.00     0.029 A 
ATOM     22  C   UNL A   1      39.261  29.535  29.867  1.00  0.00     0.049 A 
ATOM     23  H   UNL A   1      39.600  30.623  31.613  1.00  0.00     0.167 HD
ATOM     24  C   UNL A   1      40.120  33.200  35.209  1.00  0.00     0.037 A 
ATOM     25  C   UNL A   1      40.236  28.611  29.790  1.00  0.00     0.037 A 
ATOM     26  C   UNL A   1      41.242  32.301  35.182  1.00  0.00     0.049 A 
ATOM     27  C   UNL A   1      41.302  28.640  30.846  1.00  0.00     0.074 A 
ATOM     28  C   UNL A   1      42.293  32.199  36.073  1.00  0.00     0.029 A 
ATOM     29  N   UNL A   1      41.445  31.335  34.204  1.00  0.00    -0.354 N 
ATOM     30  N   UNL A   1      41.392  29.409  31.906  1.00  0.00    -0.248 NA
ATOM     31  C   UNL A   1      42.418  27.702  30.685  1.00  0.00     0.031 C 
ATOM     32  C   UNL A   1      43.151  31.193  35.614  1.00  0.00     0.029 A 
ATOM     33  C   UNL A   1      42.612  30.639  34.462  1.00  0.00     0.049 A 
ATOM     34  H   UNL A   1      40.846  31.171  33.440  1.00  0.00     0.167 HD
ATOM     35  C   UNL A   1      42.567  29.045  32.543  1.00  0.00     0.074 A 
ATOM     36  C   UNL A   1      43.141  27.964  31.765  1.00  0.00     0.031 C 
ATOM     37  C   UNL A   1      43.133  29.559  33.661  1.00  0.00     0.037 A 
BRANCH  24  38
ATOM     38  C   UNL A   1      40.005  34.207  36.311  1.00  0.00     0.057 A 
ATOM     39  C   UNL A   1      39.325  33.938  37.505  1.00  0.00     0.134 A 
ATOM     40  C   UNL A   1      40.567  35.481  36.160  1.00  0.00     0.134 A 
ATOM     41  F   UNL A   1      38.735  32.749  37.699  1.00  0.00    -0.206 F 
ATOM     42  C   UNL A   1      39.192  34.908  38.501  1.00  0.00     0.040 A 
ATOM     43  C   UNL A   1      40.459  36.451  37.156  1.00  0.00     0.040 A 
ATOM     44  F   UNL A   1      41.222  35.806  35.035  1.00  0.00    -0.206 F 
ATOM     45  C   UNL A   1      39.764  36.167  38.330  1.00  0.00     0.006 A 
ENDBRANCH  24  38
BRANCH  25  46
ATOM     46  C   UNL A   1      40.298  27.660  28.648  1.00  0.00     0.057 A 
ATOM     47  C   UNL A   1      40.991  27.974  27.474  1.00  0.00     0.134 A 
ATOM     48  C   UNL A   1      39.639  26.423  28.688  1.00  0.00     0.134 A 
ATOM     49  F   UNL A   1      41.627  29.150  27.359  1.00  0.00    -0.206 F 
ATOM     50  C   UNL A   1      41.008  27.109  26.376  1.00  0.00     0.040 A 
ATOM     51  C   UNL A   1      39.674  25.534  27.612  1.00  0.00     0.040 A 
ATOM     52  F   UNL A   1      38.955  26.053  29.782  1.00  0.00    -0.206 F 
ATOM     53  C   UNL A   1      40.351  25.882  26.446  1.00  0.00     0.006 A 
ENDBRANCH  25  46
BRANCH  37  54
ATOM     54  C   UNL A   1      44.413  28.929  34.113  1.00  0.00     0.057 A 
ATOM     55  C   UNL A   1      45.658  29.423  33.707  1.00  0.00     0.134 A 
ATOM     56  C   UNL A   1      44.393  27.842  34.995  1.00  0.00     0.134 A 
ATOM     57  F   UNL A   1      45.735  30.451  32.850  1.00  0.00    -0.206 F 
ATOM     58  C   UNL A   1      46.846  28.844  34.153  1.00  0.00     0.040 A 
ATOM     59  C   UNL A   1      45.575  27.271  35.466  1.00  0.00     0.040 A 
ATOM     60  F   UNL A   1      43.230  27.331  35.421  1.00  0.00    -0.206 F 
ATOM     61  C   UNL A   1      46.805  27.770  35.042  1.00  0.00     0.006 A 
ENDBRANCH  37  54
ENDBRANCH  11  12
ENDBRANCH   4   6
ENDBRANCH   3   4
ENDBRANCH   2   3
ENDBRANCH   1   2
BRANCH   1  62
ATOM     62  O   UNL A   1      31.700  30.785  26.401  1.00  0.00    -0.374 OA
BRANCH  62  63
ATOM     63  C   UNL A   1      32.943  30.264  26.842  1.00  0.00     0.202 C 
BRANCH  63  64
ATOM     64  C   UNL A   1      33.403  29.238  25.811  1.00  0.00     0.261 C 
BRANCH  64  65
ATOM     65  O   UNL A   1      32.287  28.923  24.958  1.00  0.00    -0.460 OA
BRANCH  65  66
ATOM     66  C   UNL A   1      31.705  27.696  25.111  1.00  0.00     0.340 C 
ATOM     67  O   UNL A   1      31.123  27.292  26.100  1.00  0.00    -0.246 OA
BRANCH  66  68
ATOM     68  C   UNL A   1      31.876  26.993  23.816  1.00  0.00     0.088 A 
ATOM     69  C   UNL A   1      32.992  26.145  23.690  1.00  0.00     0.019 A 
ATOM     70  C   UNL A   1      31.084  27.221  22.685  1.00  0.00     0.103 A 
ATOM     71  C   UNL A   1      33.308  25.576  22.464  1.00  0.00     0.021 A 
ATOM     72  N   UNL A   1      31.412  26.667  21.472  1.00  0.00    -0.254 NA
ATOM     73  C   UNL A   1      32.493  25.864  21.392  1.00  0.00     0.112 A 
BRANCH  70  74
ATOM     74  C   UNL A   1      29.919  28.123  22.591  1.00  0.00     0.089 A 
ATOM     75  C   UNL A   1      28.713  27.798  23.227  1.00  0.00     0.031 A 
ATOM     76  N   UNL A   1      30.073  29.292  21.928  1.00  0.00    -0.255 NA
ATOM     77  C   UNL A   1      27.624  28.662  23.128  1.00  0.00     0.004 A 
ATOM     78  C   UNL A   1      29.006  30.125  21.864  1.00  0.00     0.112 A 
ATOM     79  C   UNL A   1      27.772  29.852  22.432  1.00  0.00     0.020 A 
ENDBRANCH  70  74
ENDBRANCH  66  68
ENDBRANCH  65  66
ENDBRANCH  64  65
ENDBRANCH  63  64
ENDBRANCH  62  63
ENDBRANCH   1  62
TORSDOF 15
ENDMDL
