MODEL 1
REMARK VINA RESULT:     -11.2      0.000      0.000
REMARK SMILES Cc1ccc(C(=O)N[C@@H]2C=C[C@H](C(=O)OCCOCCOC(=O)c3ccc(-c4c5nc(c(-c6c(F)cccc6F)c6ccc([nH]6)c(-c6c(F)cccc6F)c6nc(c(-c7c(F)cccc7F)c7ccc4[nH]7)C=C6)C=C5)cc3)C2)c(F)c1
REMARK SMILES IDX 18 1 17 2 16 3 15 4 13 5 14 6 12 7 9 8 10 9 78 10 11 11 8 12
REMARK SMILES IDX 6 13 7 14 5 16 1 17 2 18 3 19 81 20 4 21 79 22 80 23 19 24
REMARK SMILES IDX 20 25 21 26 22 27 23 28 24 29 25 30 77 31 26 32 76 33 27 34
REMARK SMILES IDX 28 35 29 36 70 37 30 38 75 39 69 40 71 41 31 42 74 43 68 44
REMARK SMILES IDX 67 45 32 47 58 48 41 49 57 50 42 51 45 52 56 53 72 54 43 55
REMARK SMILES IDX 44 56 55 58 73 59 46 60 33 61 34 62 39 63 35 64 36 65 38 66
REMARK SMILES IDX 40 67 37 68 59 69 60 70 65 71 61 72 62 73 64 74 66 75 63 76
REMARK SMILES IDX 47 77 48 78 53 79 49 80 50 81 52 82 54 83 51 84
REMARK H PARENT 8 15 71 46 45 57
REMARK Flexibility Score: inf
ROOT
ATOM      1  O   UNL A   1      34.751  33.168  29.198  1.00  0.00    -0.374 OA
ENDROOT
BRANCH   1   2
ATOM      2  C   UNL A   1      33.739  32.768  28.281  1.00  0.00     0.202 C 
BRANCH   2   3
ATOM      3  C   UNL A   1      33.804  31.357  27.677  1.00  0.00     0.261 C 
BRANCH   3   4
ATOM      4  O   UNL A   1      32.677  30.969  26.868  1.00  0.00    -0.463 OA
BRANCH   4   5
ATOM      5  C   UNL A   1      32.867  29.831  26.130  1.00  0.00     0.312 C 
ATOM      6  O   UNL A   1      32.907  29.800  24.905  1.00  0.00    -0.252 OA
BRANCH   5   7
ATOM      7  C   UNL A   1      32.910  28.586  27.019  1.00  0.00     0.124 C 
ATOM      8  C   UNL A   1      32.947  26.296  26.057  1.00  0.00     0.106 C 
ATOM      9  C   UNL A   1      31.580  26.710  26.483  1.00  0.00    -0.006 C 
ATOM     10  C   UNL A   1      33.836  27.458  26.537  1.00  0.00     0.048 C 
ATOM     11  C   UNL A   1      31.563  27.925  27.038  1.00  0.00    -0.014 C 
BRANCH   8  12
ATOM     12  N   UNL A   1      32.938  26.046  24.631  1.00  0.00    -0.346 N 
ATOM     13  C   UNL A   1      33.318  24.949  23.887  1.00  0.00     0.254 C 
ATOM     14  O   UNL A   1      33.007  24.917  22.699  1.00  0.00    -0.269 OA
ATOM     15  H   UNL A   1      32.598  26.797  24.093  1.00  0.00     0.164 HD
BRANCH  13  16
ATOM     16  C   UNL A   1      34.168  23.874  24.455  1.00  0.00     0.075 A 
ATOM     17  C   UNL A   1      36.793  20.513  24.990  1.00  0.00     0.044 C 
ATOM     18  C   UNL A   1      35.855  21.681  24.947  1.00  0.00    -0.048 A 
ATOM     19  C   UNL A   1      36.329  22.988  25.097  1.00  0.00     0.004 A 
ATOM     20  C   UNL A   1      34.490  21.481  24.728  1.00  0.00     0.043 A 
ATOM     21  C   UNL A   1      35.482  24.080  24.881  1.00  0.00     0.017 A 
ATOM     22  C   UNL A   1      33.658  22.572  24.470  1.00  0.00     0.136 A 
ATOM     23  F   UNL A   1      32.398  22.311  24.094  1.00  0.00    -0.206 F 
ENDBRANCH  13  16
ENDBRANCH   8  12
ENDBRANCH   5   7
ENDBRANCH   4   5
ENDBRANCH   3   4
ENDBRANCH   2   3
ENDBRANCH   1   2
BRANCH   1  24
ATOM     24  C   UNL A   1      34.397  34.113  30.198  1.00  0.00     0.202 C 
BRANCH  24  25
ATOM     25  C   UNL A   1      34.624  33.715  31.660  1.00  0.00     0.261 C 
BRANCH  25  26
ATOM     26  O   UNL A   1      34.874  32.323  31.867  1.00  0.00    -0.460 OA
BRANCH  26  27
ATOM     27  C   UNL A   1      35.861  32.062  32.754  1.00  0.00     0.338 C 
ATOM     28  O   UNL A   1      35.905  32.339  33.938  1.00  0.00    -0.246 OA
BRANCH  27  29
ATOM     29  C   UNL A   1      36.936  31.353  32.053  1.00  0.00     0.060 A 
ATOM     30  C   UNL A   1      38.051  30.908  32.771  1.00  0.00     0.016 A 
ATOM     31  C   UNL A   1      36.872  31.225  30.665  1.00  0.00     0.016 A 
ATOM     32  C   UNL A   1      39.128  30.348  32.083  1.00  0.00     0.010 A 
ATOM     33  C   UNL A   1      37.945  30.655  29.982  1.00  0.00     0.010 A 
ATOM     34  C   UNL A   1      39.089  30.241  30.685  1.00  0.00    -0.014 A 
BRANCH  34  35
ATOM     35  C   UNL A   1      40.290  29.783  29.947  1.00  0.00     0.031 A 
ATOM     36  C   UNL A   1      41.413  30.748  29.693  1.00  0.00     0.074 A 
ATOM     37  C   UNL A   1      40.368  28.513  29.514  1.00  0.00     0.049 A 
ATOM     38  N   UNL A   1      42.549  30.551  29.075  1.00  0.00    -0.248 NA
ATOM     39  C   UNL A   1      41.230  32.120  30.194  1.00  0.00     0.031 C 
ATOM     40  C   UNL A   1      39.336  27.495  29.698  1.00  0.00     0.029 A 
ATOM     41  N   UNL A   1      41.360  27.867  28.822  1.00  0.00    -0.354 N 
ATOM     42  C   UNL A   1      43.214  31.770  29.111  1.00  0.00     0.074 A 
ATOM     43  C   UNL A   1      42.343  32.709  29.785  1.00  0.00     0.031 C 
ATOM     44  C   UNL A   1      39.746  26.350  29.124  1.00  0.00     0.029 A 
ATOM     45  C   UNL A   1      41.059  26.563  28.521  1.00  0.00     0.049 A 
ATOM     46  H   UNL A   1      42.207  28.298  28.565  1.00  0.00     0.167 HD
ATOM     47  C   UNL A   1      44.444  32.073  28.635  1.00  0.00     0.037 A 
ATOM     48  C   UNL A   1      41.762  25.648  27.826  1.00  0.00     0.037 A 
ATOM     49  C   UNL A   1      45.310  31.132  27.973  1.00  0.00     0.049 A 
ATOM     50  C   UNL A   1      43.120  26.014  27.295  1.00  0.00     0.074 A 
ATOM     51  C   UNL A   1      46.594  31.328  27.496  1.00  0.00     0.029 A 
ATOM     52  N   UNL A   1      44.973  29.817  27.690  1.00  0.00    -0.354 N 
ATOM     53  N   UNL A   1      43.765  27.153  27.390  1.00  0.00    -0.248 NA
ATOM     54  C   UNL A   1      43.854  24.969  26.568  1.00  0.00     0.031 C 
ATOM     55  C   UNL A   1      47.018  30.141  26.887  1.00  0.00     0.029 A 
ATOM     56  C   UNL A   1      46.014  29.197  27.022  1.00  0.00     0.049 A 
ATOM     57  H   UNL A   1      44.119  29.388  27.928  1.00  0.00     0.167 HD
ATOM     58  C   UNL A   1      44.984  26.954  26.756  1.00  0.00     0.074 A 
ATOM     59  C   UNL A   1      44.997  25.581  26.294  1.00  0.00     0.031 C 
ATOM     60  C   UNL A   1      46.004  27.829  26.570  1.00  0.00     0.037 A 
BRANCH  47  61
ATOM     61  C   UNL A   1      44.924  33.484  28.800  1.00  0.00     0.057 A 
ATOM     62  C   UNL A   1      45.662  33.887  29.920  1.00  0.00     0.134 A 
ATOM     63  C   UNL A   1      44.682  34.440  27.805  1.00  0.00     0.134 A 
ATOM     64  F   UNL A   1      45.917  33.021  30.913  1.00  0.00    -0.206 F 
ATOM     65  C   UNL A   1      46.128  35.196  30.053  1.00  0.00     0.040 A 
ATOM     66  C   UNL A   1      45.160  35.747  27.918  1.00  0.00     0.040 A 
ATOM     67  F   UNL A   1      43.984  34.118  26.706  1.00  0.00    -0.206 F 
ATOM     68  C   UNL A   1      45.883  36.128  29.047  1.00  0.00     0.006 A 
ENDBRANCH  47  61
BRANCH  48  69
ATOM     69  C   UNL A   1      41.194  24.297  27.595  1.00  0.00     0.057 A 
ATOM     70  C   UNL A   1      41.663  23.180  28.294  1.00  0.00     0.134 A 
ATOM     71  C   UNL A   1      40.173  24.092  26.659  1.00  0.00     0.134 A 
ATOM     72  F   UNL A   1      42.653  23.311  29.189  1.00  0.00    -0.206 F 
ATOM     73  C   UNL A   1      41.149  21.903  28.060  1.00  0.00     0.040 A 
ATOM     74  C   UNL A   1      39.635  22.824  26.430  1.00  0.00     0.040 A 
ATOM     75  F   UNL A   1      39.678  25.123  25.959  1.00  0.00    -0.206 F 
ATOM     76  C   UNL A   1      40.128  21.724  27.129  1.00  0.00     0.006 A 
ENDBRANCH  48  69
BRANCH  60  77
ATOM     77  C   UNL A   1      47.219  27.319  25.854  1.00  0.00     0.057 A 
ATOM     78  C   UNL A   1      48.239  26.640  26.530  1.00  0.00     0.134 A 
ATOM     79  C   UNL A   1      47.350  27.481  24.469  1.00  0.00     0.134 A 
ATOM     80  F   UNL A   1      48.175  26.465  27.859  1.00  0.00    -0.206 F 
ATOM     81  C   UNL A   1      49.360  26.156  25.855  1.00  0.00     0.040 A 
ATOM     82  C   UNL A   1      48.456  26.981  23.781  1.00  0.00     0.040 A 
ATOM     83  F   UNL A   1      46.403  28.115  23.763  1.00  0.00    -0.206 F 
ATOM     84  C   UNL A   1      49.468  26.321  24.475  1.00  0.00     0.006 A 
ENDBRANCH  60  77
ENDBRANCH  34  35
ENDBRANCH  27  29
ENDBRANCH  26  27
ENDBRANCH  25  26
ENDBRANCH  24  25
ENDBRANCH   1  24
TORSDOF 16
ENDMDL
MODEL 2
REMARK VINA RESULT:     -11.1      5.033      7.507
REMARK SMILES Cc1ccc(C(=O)N[C@@H]2C=C[C@H](C(=O)OCCOCCOC(=O)c3ccc(-c4c5nc(c(-c6c(F)cccc6F)c6ccc([nH]6)c(-c6c(F)cccc6F)c6nc(c(-c7c(F)cccc7F)c7ccc4[nH]7)C=C6)C=C5)cc3)C2)c(F)c1
REMARK SMILES IDX 18 1 17 2 16 3 15 4 13 5 14 6 12 7 9 8 10 9 78 10 11 11 8 12
REMARK SMILES IDX 6 13 7 14 5 16 1 17 2 18 3 19 81 20 4 21 79 22 80 23 19 24
REMARK SMILES IDX 20 25 21 26 22 27 23 28 24 29 25 30 77 31 26 32 76 33 27 34
REMARK SMILES IDX 28 35 29 36 70 37 30 38 75 39 69 40 71 41 31 42 74 43 68 44
REMARK SMILES IDX 67 45 32 47 58 48 41 49 57 50 42 51 45 52 56 53 72 54 43 55
REMARK SMILES IDX 44 56 55 58 73 59 46 60 33 61 34 62 39 63 35 64 36 65 38 66
REMARK SMILES IDX 40 67 37 68 59 69 60 70 65 71 61 72 62 73 64 74 66 75 63 76
REMARK SMILES IDX 47 77 48 78 53 79 49 80 50 81 52 82 54 83 51 84
REMARK H PARENT 8 15 71 46 45 57
REMARK Flexibility Score: inf
ROOT
ATOM      1  O   UNL A   1      33.975  33.862  29.082  1.00  0.00    -0.374 OA
ENDROOT
BRANCH   1   2
ATOM      2  C   UNL A   1      35.373  33.805  29.336  1.00  0.00     0.202 C 
BRANCH   2   3
ATOM      3  C   UNL A   1      36.267  33.002  28.379  1.00  0.00     0.261 C 
BRANCH   3   4
ATOM      4  O   UNL A   1      35.579  32.133  27.459  1.00  0.00    -0.463 OA
BRANCH   4   5
ATOM      5  C   UNL A   1      35.783  30.795  27.672  1.00  0.00     0.312 C 
ATOM      6  O   UNL A   1      36.881  30.250  27.640  1.00  0.00    -0.252 OA
BRANCH   5   7
ATOM      7  C   UNL A   1      34.460  30.046  27.843  1.00  0.00     0.124 C 
ATOM      8  C   UNL A   1      33.362  28.888  25.939  1.00  0.00     0.106 C 
ATOM      9  C   UNL A   1      32.779  30.235  26.195  1.00  0.00    -0.006 C 
ATOM     10  C   UNL A   1      34.357  28.705  27.100  1.00  0.00     0.048 C 
ATOM     11  C   UNL A   1      33.340  30.845  27.243  1.00  0.00    -0.014 C 
BRANCH   8  12
ATOM     12  N   UNL A   1      33.926  28.865  24.606  1.00  0.00    -0.346 N 
ATOM     13  C   UNL A   1      33.345  28.715  23.364  1.00  0.00     0.254 C 
ATOM     14  O   UNL A   1      34.031  28.948  22.372  1.00  0.00    -0.269 OA
ATOM     15  H   UNL A   1      34.904  28.977  24.581  1.00  0.00     0.164 HD
BRANCH  13  16
ATOM     16  C   UNL A   1      31.968  28.190  23.202  1.00  0.00     0.075 A 
ATOM     17  C   UNL A   1      27.992  26.704  23.877  1.00  0.00     0.044 C 
ATOM     18  C   UNL A   1      29.360  27.187  23.502  1.00  0.00    -0.048 A 
ATOM     19  C   UNL A   1      29.569  28.510  23.098  1.00  0.00     0.004 A 
ATOM     20  C   UNL A   1      30.456  26.324  23.575  1.00  0.00     0.043 A 
ATOM     21  C   UNL A   1      30.866  29.001  22.920  1.00  0.00     0.017 A 
ATOM     22  C   UNL A   1      31.751  26.830  23.440  1.00  0.00     0.136 A 
ATOM     23  F   UNL A   1      32.768  25.994  23.694  1.00  0.00    -0.206 F 
ENDBRANCH  13  16
ENDBRANCH   8  12
ENDBRANCH   5   7
ENDBRANCH   4   5
ENDBRANCH   3   4
ENDBRANCH   2   3
ENDBRANCH   1   2
BRANCH   1  24
ATOM     24  C   UNL A   1      33.415  35.127  28.757  1.00  0.00     0.202 C 
BRANCH  24  25
ATOM     25  C   UNL A   1      32.870  35.977  29.909  1.00  0.00     0.261 C 
BRANCH  25  26
ATOM     26  O   UNL A   1      32.382  35.228  31.023  1.00  0.00    -0.460 OA
BRANCH  26  27
ATOM     27  C   UNL A   1      32.691  35.760  32.228  1.00  0.00     0.338 C 
ATOM     28  O   UNL A   1      32.113  36.642  32.835  1.00  0.00    -0.246 OA
BRANCH  27  29
ATOM     29  C   UNL A   1      33.890  35.086  32.737  1.00  0.00     0.060 A 
ATOM     30  C   UNL A   1      35.136  35.708  32.611  1.00  0.00     0.016 A 
ATOM     31  C   UNL A   1      33.777  33.792  33.247  1.00  0.00     0.016 A 
ATOM     32  C   UNL A   1      36.288  35.013  32.979  1.00  0.00     0.010 A 
ATOM     33  C   UNL A   1      34.929  33.105  33.625  1.00  0.00     0.010 A 
ATOM     34  C   UNL A   1      36.191  33.701  33.465  1.00  0.00    -0.014 A 
BRANCH  34  35
ATOM     35  C   UNL A   1      37.422  32.915  33.717  1.00  0.00     0.031 A 
ATOM     36  C   UNL A   1      38.219  33.171  34.965  1.00  0.00     0.074 A 
ATOM     37  C   UNL A   1      37.816  31.983  32.833  1.00  0.00     0.049 A 
ATOM     38  N   UNL A   1      39.317  32.594  35.378  1.00  0.00    -0.248 NA
ATOM     39  C   UNL A   1      37.715  34.221  35.865  1.00  0.00     0.031 C 
ATOM     40  C   UNL A   1      37.125  31.657  31.587  1.00  0.00     0.029 A 
ATOM     41  N   UNL A   1      38.900  31.143  32.847  1.00  0.00    -0.354 N 
ATOM     42  C   UNL A   1      39.638  33.209  36.581  1.00  0.00     0.074 A 
ATOM     43  C   UNL A   1      38.636  34.225  36.818  1.00  0.00     0.031 C 
ATOM     44  C   UNL A   1      37.807  30.689  30.950  1.00  0.00     0.029 A 
ATOM     45  C   UNL A   1      38.989  30.343  31.736  1.00  0.00     0.049 A 
ATOM     46  H   UNL A   1      39.552  31.116  33.585  1.00  0.00     0.167 HD
ATOM     47  C   UNL A   1      40.670  32.942  37.415  1.00  0.00     0.037 A 
ATOM     48  C   UNL A   1      39.927  29.441  31.389  1.00  0.00     0.037 A 
ATOM     49  C   UNL A   1      41.659  31.924  37.178  1.00  0.00     0.049 A 
ATOM     50  C   UNL A   1      41.071  29.173  32.327  1.00  0.00     0.074 A 
ATOM     51  C   UNL A   1      42.717  31.543  37.985  1.00  0.00     0.029 A 
ATOM     52  N   UNL A   1      41.715  31.130  36.042  1.00  0.00    -0.354 N 
ATOM     53  N   UNL A   1      41.328  29.718  33.492  1.00  0.00    -0.248 NA
ATOM     54  C   UNL A   1      42.049  28.159  31.909  1.00  0.00     0.031 C 
ATOM     55  C   UNL A   1      43.437  30.545  37.318  1.00  0.00     0.029 A 
ATOM     56  C   UNL A   1      42.804  30.278  36.116  1.00  0.00     0.049 A 
ATOM     57  H   UNL A   1      41.076  31.167  35.295  1.00  0.00     0.167 HD
ATOM     58  C   UNL A   1      42.483  29.101  33.954  1.00  0.00     0.074 A 
ATOM     59  C   UNL A   1      42.867  28.127  32.952  1.00  0.00     0.031 C 
ATOM     60  C   UNL A   1      43.167  29.318  35.105  1.00  0.00     0.037 A 
BRANCH  47  61
ATOM     61  C   UNL A   1      40.789  33.772  38.659  1.00  0.00     0.057 A 
ATOM     62  C   UNL A   1      40.112  33.437  39.837  1.00  0.00     0.134 A 
ATOM     63  C   UNL A   1      41.626  34.895  38.688  1.00  0.00     0.134 A 
ATOM     64  F   UNL A   1      39.286  32.380  39.870  1.00  0.00    -0.206 F 
ATOM     65  C   UNL A   1      40.250  34.200  40.999  1.00  0.00     0.040 A 
ATOM     66  C   UNL A   1      41.787  35.654  39.849  1.00  0.00     0.040 A 
ATOM     67  F   UNL A   1      42.305  35.268  37.593  1.00  0.00    -0.206 F 
ATOM     68  C   UNL A   1      41.095  35.308  41.008  1.00  0.00     0.006 A 
ENDBRANCH  47  61
BRANCH  48  69
ATOM     69  C   UNL A   1      39.821  28.725  30.094  1.00  0.00     0.057 A 
ATOM     70  C   UNL A   1      39.119  27.520  29.982  1.00  0.00     0.134 A 
ATOM     71  C   UNL A   1      40.432  29.226  28.938  1.00  0.00     0.134 A 
ATOM     72  F   UNL A   1      38.529  26.981  31.060  1.00  0.00    -0.206 F 
ATOM     73  C   UNL A   1      39.040  26.830  28.772  1.00  0.00     0.040 A 
ATOM     74  C   UNL A   1      40.343  28.557  27.716  1.00  0.00     0.040 A 
ATOM     75  F   UNL A   1      41.117  30.378  28.978  1.00  0.00    -0.206 F 
ATOM     76  C   UNL A   1      39.650  27.352  27.632  1.00  0.00     0.006 A 
ENDBRANCH  48  69
BRANCH  60  77
ATOM     77  C   UNL A   1      44.386  28.477  35.344  1.00  0.00     0.057 A 
ATOM     78  C   UNL A   1      45.660  28.902  34.952  1.00  0.00     0.134 A 
ATOM     79  C   UNL A   1      44.284  27.246  36.004  1.00  0.00     0.134 A 
ATOM     80  F   UNL A   1      45.819  30.067  34.304  1.00  0.00    -0.206 F 
ATOM     81  C   UNL A   1      46.792  28.121  35.189  1.00  0.00     0.040 A 
ATOM     82  C   UNL A   1      45.412  26.467  36.267  1.00  0.00     0.040 A 
ATOM     83  F   UNL A   1      43.092  26.787  36.412  1.00  0.00    -0.206 F 
ATOM     84  C   UNL A   1      46.670  26.902  35.854  1.00  0.00     0.006 A 
ENDBRANCH  60  77
ENDBRANCH  34  35
ENDBRANCH  27  29
ENDBRANCH  26  27
ENDBRANCH  25  26
ENDBRANCH  24  25
ENDBRANCH   1  24
TORSDOF 16
ENDMDL
MODEL 3
REMARK VINA RESULT:     -11.0      4.506      9.885
REMARK SMILES Cc1ccc(C(=O)N[C@@H]2C=C[C@H](C(=O)OCCOCCOC(=O)c3ccc(-c4c5nc(c(-c6c(F)cccc6F)c6ccc([nH]6)c(-c6c(F)cccc6F)c6nc(c(-c7c(F)cccc7F)c7ccc4[nH]7)C=C6)C=C5)cc3)C2)c(F)c1
REMARK SMILES IDX 18 1 17 2 16 3 15 4 13 5 14 6 12 7 9 8 10 9 78 10 11 11 8 12
REMARK SMILES IDX 6 13 7 14 5 16 1 17 2 18 3 19 81 20 4 21 79 22 80 23 19 24
REMARK SMILES IDX 20 25 21 26 22 27 23 28 24 29 25 30 77 31 26 32 76 33 27 34
REMARK SMILES IDX 28 35 29 36 70 37 30 38 75 39 69 40 71 41 31 42 74 43 68 44
REMARK SMILES IDX 67 45 32 47 58 48 41 49 57 50 42 51 45 52 56 53 72 54 43 55
REMARK SMILES IDX 44 56 55 58 73 59 46 60 33 61 34 62 39 63 35 64 36 65 38 66
REMARK SMILES IDX 40 67 37 68 59 69 60 70 65 71 61 72 62 73 64 74 66 75 63 76
REMARK SMILES IDX 47 77 48 78 53 79 49 80 50 81 52 82 54 83 51 84
REMARK H PARENT 8 15 71 46 45 57
REMARK Flexibility Score: inf
ROOT
ATOM      1  O   UNL A   1      41.187  21.343  26.826  1.00  0.00    -0.374 OA
ENDROOT
BRANCH   1   2
ATOM      2  C   UNL A   1      40.011  20.815  26.224  1.00  0.00     0.202 C 
BRANCH   2   3
ATOM      3  C   UNL A   1      38.883  21.781  25.830  1.00  0.00     0.261 C 
BRANCH   3   4
ATOM      4  O   UNL A   1      37.754  21.187  25.162  1.00  0.00    -0.463 OA
BRANCH   4   5
ATOM      5  C   UNL A   1      36.560  21.821  25.383  1.00  0.00     0.312 C 
ATOM      6  O   UNL A   1      35.656  21.367  26.076  1.00  0.00    -0.252 OA
BRANCH   5   7
ATOM      7  C   UNL A   1      36.449  23.110  24.568  1.00  0.00     0.124 C 
ATOM      8  C   UNL A   1      34.520  24.655  24.827  1.00  0.00     0.106 C 
ATOM      9  C   UNL A   1      34.368  23.750  23.653  1.00  0.00    -0.006 C 
ATOM     10  C   UNL A   1      35.938  24.339  25.337  1.00  0.00     0.048 C 
ATOM     11  C   UNL A   1      35.421  22.946  23.487  1.00  0.00    -0.014 C 
BRANCH   8  12
ATOM     12  N   UNL A   1      33.437  24.407  25.755  1.00  0.00    -0.346 N 
ATOM     13  C   UNL A   1      32.408  25.208  26.203  1.00  0.00     0.254 C 
ATOM     14  O   UNL A   1      31.495  24.680  26.832  1.00  0.00    -0.269 OA
ATOM     15  H   UNL A   1      33.435  23.499  26.137  1.00  0.00     0.164 HD
BRANCH  13  16
ATOM     16  C   UNL A   1      32.431  26.681  26.033  1.00  0.00     0.075 A 
ATOM     17  C   UNL A   1      31.518  30.880  26.139  1.00  0.00     0.044 C 
ATOM     18  C   UNL A   1      31.943  29.448  26.008  1.00  0.00    -0.048 A 
ATOM     19  C   UNL A   1      32.917  28.908  26.853  1.00  0.00     0.004 A 
ATOM     20  C   UNL A   1      31.347  28.622  25.051  1.00  0.00     0.043 A 
ATOM     21  C   UNL A   1      33.182  27.535  26.845  1.00  0.00     0.017 A 
ATOM     22  C   UNL A   1      31.582  27.246  25.077  1.00  0.00     0.136 A 
ATOM     23  F   UNL A   1      30.851  26.481  24.253  1.00  0.00    -0.206 F 
ENDBRANCH  13  16
ENDBRANCH   8  12
ENDBRANCH   5   7
ENDBRANCH   4   5
ENDBRANCH   3   4
ENDBRANCH   2   3
ENDBRANCH   1   2
BRANCH   1  24
ATOM     24  C   UNL A   1      42.440  20.886  26.336  1.00  0.00     0.202 C 
BRANCH  24  25
ATOM     25  C   UNL A   1      43.273  21.864  25.500  1.00  0.00     0.261 C 
BRANCH  25  26
ATOM     26  O   UNL A   1      42.655  23.133  25.276  1.00  0.00    -0.460 OA
BRANCH  26  27
ATOM     27  C   UNL A   1      43.494  24.188  25.390  1.00  0.00     0.338 C 
ATOM     28  O   UNL A   1      44.544  24.383  24.807  1.00  0.00    -0.246 OA
BRANCH  27  29
ATOM     29  C   UNL A   1      42.932  25.121  26.371  1.00  0.00     0.060 A 
ATOM     30  C   UNL A   1      43.438  26.422  26.454  1.00  0.00     0.016 A 
ATOM     31  C   UNL A   1      41.968  24.663  27.270  1.00  0.00     0.016 A 
ATOM     32  C   UNL A   1      42.991  27.267  27.470  1.00  0.00     0.010 A 
ATOM     33  C   UNL A   1      41.514  25.513  28.276  1.00  0.00     0.010 A 
ATOM     34  C   UNL A   1      42.044  26.808  28.398  1.00  0.00    -0.014 A 
BRANCH  34  35
ATOM     35  C   UNL A   1      41.681  27.654  29.559  1.00  0.00     0.031 A 
ATOM     36  C   UNL A   1      40.510  28.591  29.452  1.00  0.00     0.074 A 
ATOM     37  C   UNL A   1      42.394  27.580  30.695  1.00  0.00     0.049 A 
ATOM     38  N   UNL A   1      40.022  29.410  30.346  1.00  0.00    -0.248 NA
ATOM     39  C   UNL A   1      39.799  28.612  28.163  1.00  0.00     0.031 C 
ATOM     40  C   UNL A   1      43.552  26.713  30.907  1.00  0.00     0.029 A 
ATOM     41  N   UNL A   1      42.252  28.250  31.883  1.00  0.00    -0.354 N 
ATOM     42  C   UNL A   1      38.950  30.045  29.731  1.00  0.00     0.074 A 
ATOM     43  C   UNL A   1      38.877  29.539  28.378  1.00  0.00     0.031 C 
ATOM     44  C   UNL A   1      44.022  26.911  32.152  1.00  0.00     0.029 A 
ATOM     45  C   UNL A   1      43.208  27.928  32.813  1.00  0.00     0.049 A 
ATOM     46  H   UNL A   1      41.533  28.900  32.052  1.00  0.00     0.167 HD
ATOM     47  C   UNL A   1      38.099  30.959  30.254  1.00  0.00     0.037 A 
ATOM     48  C   UNL A   1      43.408  28.409  34.054  1.00  0.00     0.037 A 
ATOM     49  C   UNL A   1      38.172  31.452  31.605  1.00  0.00     0.049 A 
ATOM     50  C   UNL A   1      42.457  29.434  34.607  1.00  0.00     0.074 A 
ATOM     51  C   UNL A   1      37.329  32.343  32.245  1.00  0.00     0.029 A 
ATOM     52  N   UNL A   1      39.152  31.100  32.519  1.00  0.00    -0.354 N 
ATOM     53  N   UNL A   1      41.410  29.981  34.036  1.00  0.00    -0.248 NA
ATOM     54  C   UNL A   1      42.708  29.904  35.976  1.00  0.00     0.031 C 
ATOM     55  C   UNL A   1      37.823  32.561  33.536  1.00  0.00     0.029 A 
ATOM     56  C   UNL A   1      38.950  31.774  33.711  1.00  0.00     0.049 A 
ATOM     57  H   UNL A   1      39.884  30.464  32.348  1.00  0.00     0.167 HD
ATOM     58  C   UNL A   1      40.867  30.841  34.982  1.00  0.00     0.074 A 
ATOM     59  C   UNL A   1      41.690  30.731  36.169  1.00  0.00     0.031 C 
ATOM     60  C   UNL A   1      39.783  31.650  34.879  1.00  0.00     0.037 A 
BRANCH  47  61
ATOM     61  C   UNL A   1      37.022  31.496  29.360  1.00  0.00     0.057 A 
ATOM     62  C   UNL A   1      35.854  30.772  29.095  1.00  0.00     0.134 A 
ATOM     63  C   UNL A   1      37.138  32.770  28.790  1.00  0.00     0.134 A 
ATOM     64  F   UNL A   1      35.688  29.540  29.600  1.00  0.00    -0.206 F 
ATOM     65  C   UNL A   1      34.843  31.290  28.282  1.00  0.00     0.040 A 
ATOM     66  C   UNL A   1      36.126  33.307  27.992  1.00  0.00     0.040 A 
ATOM     67  F   UNL A   1      38.232  33.516  29.007  1.00  0.00    -0.206 F 
ATOM     68  C   UNL A   1      34.976  32.564  27.734  1.00  0.00     0.006 A 
ENDBRANCH  47  61
BRANCH  48  69
ATOM     69  C   UNL A   1      44.556  27.925  34.860  1.00  0.00     0.057 A 
ATOM     70  C   UNL A   1      45.836  28.467  34.703  1.00  0.00     0.134 A 
ATOM     71  C   UNL A   1      44.400  26.899  35.800  1.00  0.00     0.134 A 
ATOM     72  F   UNL A   1      46.052  29.439  33.804  1.00  0.00    -0.206 F 
ATOM     73  C   UNL A   1      46.924  27.996  35.440  1.00  0.00     0.040 A 
ATOM     74  C   UNL A   1      45.474  26.433  36.559  1.00  0.00     0.040 A 
ATOM     75  F   UNL A   1      43.197  26.341  35.999  1.00  0.00    -0.206 F 
ATOM     76  C   UNL A   1      46.743  26.978  36.375  1.00  0.00     0.006 A 
ENDBRANCH  48  69
BRANCH  60  77
ATOM     77  C   UNL A   1      39.422  32.463  36.087  1.00  0.00     0.057 A 
ATOM     78  C   UNL A   1      39.979  33.726  36.316  1.00  0.00     0.134 A 
ATOM     79  C   UNL A   1      38.481  31.989  37.010  1.00  0.00     0.134 A 
ATOM     80  F   UNL A   1      40.896  34.228  35.474  1.00  0.00    -0.206 F 
ATOM     81  C   UNL A   1      39.629  34.483  37.435  1.00  0.00     0.040 A 
ATOM     82  C   UNL A   1      38.106  32.747  38.120  1.00  0.00     0.040 A 
ATOM     83  F   UNL A   1      37.905  30.790  36.842  1.00  0.00    -0.206 F 
ATOM     84  C   UNL A   1      38.685  33.995  38.338  1.00  0.00     0.006 A 
ENDBRANCH  60  77
ENDBRANCH  34  35
ENDBRANCH  27  29
ENDBRANCH  26  27
ENDBRANCH  25  26
ENDBRANCH  24  25
ENDBRANCH   1  24
TORSDOF 16
ENDMDL
