MODEL 1
REMARK VINA RESULT:      -9.2      0.000      0.000
REMARK SMILES O=C(OCCOCCOC(=O)c1cccc(Nc2ccc([N+](=O)[O-])cc2)c1)c1ccc(-c2c3nc(c(-c4c(F)cccc4F)c4ccc([nH]4)c(-c4c(F)cccc4F)c4nc(c(-c5c(F)cccc5F)c5ccc2[nH]5)C=C4)C=C3)cc1
REMARK SMILES IDX 7 1 6 2 5 3 4 4 3 5 2 6 1 7 28 8 29 9 81 10 30 11 80 12
REMARK SMILES IDX 31 13 32 14 33 15 74 16 34 17 79 18 73 19 75 20 35 21 78 22
REMARK SMILES IDX 72 23 71 24 36 26 62 27 45 28 61 29 46 30 49 31 60 32 76 33
REMARK SMILES IDX 47 34 48 35 59 37 77 38 50 39 37 40 38 41 43 42 39 43 40 44
REMARK SMILES IDX 42 45 44 46 41 47 63 48 64 49 69 50 65 51 66 52 68 53 70 54
REMARK SMILES IDX 67 55 51 56 52 57 57 58 53 59 54 60 56 61 58 62 55 63 8 64
REMARK SMILES IDX 9 65 10 66 11 67 12 68 13 69 27 70 14 71 16 72 15 73 17 74
REMARK SMILES IDX 18 76 19 77 26 78 20 79 25 80 21 81 22 82 23 83 24 84
REMARK H PARENT 75 25 49 36 17 75
REMARK Flexibility Score: inf
ROOT
ATOM      1  C   UNL A   1      34.339  35.186  32.720  1.00  0.00     0.202 C 
ENDROOT
BRANCH   1   2
ATOM      2  O   UNL A   1      33.140  34.970  31.967  1.00  0.00    -0.374 OA
BRANCH   2   3
ATOM      3  C   UNL A   1      32.619  36.105  31.275  1.00  0.00     0.202 C 
BRANCH   3   4
ATOM      4  C   UNL A   1      33.128  36.260  29.839  1.00  0.00     0.261 C 
BRANCH   4   5
ATOM      5  O   UNL A   1      32.513  35.287  28.981  1.00  0.00    -0.460 OA
BRANCH   5   6
ATOM      6  C   UNL A   1      33.071  34.184  28.428  1.00  0.00     0.338 C 
ATOM      7  O   UNL A   1      32.480  33.624  27.507  1.00  0.00    -0.246 OA
BRANCH   6   8
ATOM      8  C   UNL A   1      34.376  33.606  28.869  1.00  0.00     0.060 A 
ATOM      9  C   UNL A   1      34.532  32.694  29.912  1.00  0.00     0.016 A 
ATOM     10  C   UNL A   1      35.514  33.941  28.114  1.00  0.00     0.016 A 
ATOM     11  C   UNL A   1      35.769  32.172  30.246  1.00  0.00     0.010 A 
ATOM     12  C   UNL A   1      36.762  33.388  28.414  1.00  0.00     0.010 A 
ATOM     13  C   UNL A   1      36.888  32.511  29.495  1.00  0.00    -0.014 A 
BRANCH  13  14
ATOM     14  C   UNL A   1      38.184  31.998  29.965  1.00  0.00     0.031 A 
ATOM     15  C   UNL A   1      38.668  30.696  29.414  1.00  0.00     0.074 A 
ATOM     16  C   UNL A   1      38.966  32.789  30.721  1.00  0.00     0.049 A 
ATOM     17  N   UNL A   1      39.775  30.053  29.663  1.00  0.00    -0.248 NA
ATOM     18  C   UNL A   1      37.792  30.037  28.429  1.00  0.00     0.031 C 
ATOM     19  C   UNL A   1      38.614  34.140  31.170  1.00  0.00     0.029 A 
ATOM     20  N   UNL A   1      40.229  32.597  31.204  1.00  0.00    -0.354 N 
ATOM     21  C   UNL A   1      39.716  28.901  28.891  1.00  0.00     0.074 A 
ATOM     22  C   UNL A   1      38.467  28.931  28.165  1.00  0.00     0.031 C 
ATOM     23  C   UNL A   1      39.655  34.667  31.833  1.00  0.00     0.029 A 
ATOM     24  C   UNL A   1      40.711  33.667  31.920  1.00  0.00     0.049 A 
ATOM     25  H   UNL A   1      40.746  31.773  31.053  1.00  0.00     0.167 HD
ATOM     26  C   UNL A   1      40.629  27.908  28.810  1.00  0.00     0.037 A 
ATOM     27  C   UNL A   1      41.868  33.796  32.593  1.00  0.00     0.037 A 
ATOM     28  C   UNL A   1      41.861  27.915  29.552  1.00  0.00     0.049 A 
ATOM     29  C   UNL A   1      42.816  32.628  32.577  1.00  0.00     0.074 A 
ATOM     30  C   UNL A   1      42.838  26.942  29.626  1.00  0.00     0.029 A 
ATOM     31  N   UNL A   1      42.278  28.970  30.356  1.00  0.00    -0.354 N 
ATOM     32  N   UNL A   1      42.723  31.498  31.914  1.00  0.00    -0.248 NA
ATOM     33  C   UNL A   1      44.014  32.739  33.416  1.00  0.00     0.031 C 
ATOM     34  C   UNL A   1      43.825  27.389  30.512  1.00  0.00     0.029 A 
ATOM     35  C   UNL A   1      43.490  28.664  30.948  1.00  0.00     0.049 A 
ATOM     36  H   UNL A   1      41.785  29.812  30.486  1.00  0.00     0.167 HD
ATOM     37  C   UNL A   1      43.857  30.770  32.239  1.00  0.00     0.074 A 
ATOM     38  C   UNL A   1      44.633  31.598  33.143  1.00  0.00     0.031 C 
ATOM     39  C   UNL A   1      44.229  29.529  31.836  1.00  0.00     0.037 A 
BRANCH  26  40
ATOM     40  C   UNL A   1      40.265  26.720  27.970  1.00  0.00     0.057 A 
ATOM     41  C   UNL A   1      39.431  25.696  28.438  1.00  0.00     0.134 A 
ATOM     42  C   UNL A   1      40.817  26.568  26.692  1.00  0.00     0.134 A 
ATOM     43  F   UNL A   1      38.896  25.761  29.666  1.00  0.00    -0.206 F 
ATOM     44  C   UNL A   1      39.187  24.548  27.679  1.00  0.00     0.040 A 
ATOM     45  C   UNL A   1      40.561  25.439  25.913  1.00  0.00     0.040 A 
ATOM     46  F   UNL A   1      41.633  27.506  26.187  1.00  0.00    -0.206 F 
ATOM     47  C   UNL A   1      39.752  24.419  26.411  1.00  0.00     0.006 A 
ENDBRANCH  26  40
BRANCH  27  48
ATOM     48  C   UNL A   1      42.163  35.031  33.365  1.00  0.00     0.057 A 
ATOM     49  C   UNL A   1      41.625  35.244  34.639  1.00  0.00     0.134 A 
ATOM     50  C   UNL A   1      42.977  36.043  32.838  1.00  0.00     0.134 A 
ATOM     51  F   UNL A   1      40.821  34.325  35.195  1.00  0.00    -0.206 F 
ATOM     52  C   UNL A   1      41.872  36.420  35.353  1.00  0.00     0.040 A 
ATOM     53  C   UNL A   1      43.257  37.210  33.552  1.00  0.00     0.040 A 
ATOM     54  F   UNL A   1      43.526  35.908  31.622  1.00  0.00    -0.206 F 
ATOM     55  C   UNL A   1      42.695  37.405  34.810  1.00  0.00     0.006 A 
ENDBRANCH  27  48
BRANCH  39  56
ATOM     56  C   UNL A   1      45.545  29.026  32.344  1.00  0.00     0.057 A 
ATOM     57  C   UNL A   1      46.712  29.102  31.575  1.00  0.00     0.134 A 
ATOM     58  C   UNL A   1      45.647  28.495  33.636  1.00  0.00     0.134 A 
ATOM     59  F   UNL A   1      46.673  29.587  30.325  1.00  0.00    -0.206 F 
ATOM     60  C   UNL A   1      47.934  28.644  32.066  1.00  0.00     0.040 A 
ATOM     61  C   UNL A   1      46.868  28.061  34.148  1.00  0.00     0.040 A 
ATOM     62  F   UNL A   1      44.564  28.404  34.423  1.00  0.00    -0.206 F 
ATOM     63  C   UNL A   1      48.016  28.130  33.360  1.00  0.00     0.006 A 
ENDBRANCH  39  56
ENDBRANCH  13  14
ENDBRANCH   6   8
ENDBRANCH   5   6
ENDBRANCH   4   5
ENDBRANCH   3   4
ENDBRANCH   2   3
ENDBRANCH   1   2
BRANCH   1  64
ATOM     64  C   UNL A   1      34.659  33.928  33.531  1.00  0.00     0.261 C 
BRANCH  64  65
ATOM     65  O   UNL A   1      36.036  33.588  33.311  1.00  0.00    -0.460 OA
BRANCH  65  66
ATOM     66  C   UNL A   1      36.677  33.079  34.394  1.00  0.00     0.338 C 
ATOM     67  O   UNL A   1      36.583  33.442  35.554  1.00  0.00    -0.246 OA
BRANCH  66  68
ATOM     68  C   UNL A   1      37.348  31.837  33.962  1.00  0.00     0.062 A 
ATOM     69  C   UNL A   1      36.640  30.928  33.172  1.00  0.00     0.016 A 
ATOM     70  C   UNL A   1      38.693  31.612  34.265  1.00  0.00     0.041 A 
ATOM     71  C   UNL A   1      37.296  29.822  32.642  1.00  0.00     0.003 A 
ATOM     72  C   UNL A   1      39.343  30.469  33.800  1.00  0.00     0.039 A 
ATOM     73  C   UNL A   1      38.639  29.597  32.955  1.00  0.00     0.026 A 
BRANCH  72  74
ATOM     74  N   UNL A   1      40.678  30.247  34.193  1.00  0.00    -0.355 N 
ATOM     75  H   UNL A   1      41.288  31.019  34.160  1.00  0.00     0.167 HD
BRANCH  74  76
ATOM     76  C   UNL A   1      41.217  29.026  34.627  1.00  0.00     0.039 A 
ATOM     77  C   UNL A   1      41.510  28.854  35.986  1.00  0.00     0.033 A 
ATOM     78  C   UNL A   1      41.381  27.955  33.743  1.00  0.00     0.033 A 
ATOM     79  C   UNL A   1      41.950  27.621  36.466  1.00  0.00     0.088 A 
ATOM     80  C   UNL A   1      41.829  26.717  34.209  1.00  0.00     0.088 A 
ATOM     81  C   UNL A   1      42.104  26.554  35.573  1.00  0.00     0.269 A 
BRANCH  81  82
ATOM     82  N   UNL A   1      42.541  25.246  36.075  1.00  0.00     0.062 N 
ATOM     83  O   UNL A   1      43.146  25.218  37.156  1.00  0.00    -0.258 OA
ATOM     84  O   UNL A   1      42.274  24.248  35.392  1.00  0.00    -0.258 OA
ENDBRANCH  81  82
ENDBRANCH  74  76
ENDBRANCH  72  74
ENDBRANCH  66  68
ENDBRANCH  65  66
ENDBRANCH  64  65
ENDBRANCH   1  64
TORSDOF 17
ENDMDL
MODEL 2
REMARK VINA RESULT:      -8.9      0.450      6.421
REMARK SMILES O=C(OCCOCCOC(=O)c1cccc(Nc2ccc([N+](=O)[O-])cc2)c1)c1ccc(-c2c3nc(c(-c4c(F)cccc4F)c4ccc([nH]4)c(-c4c(F)cccc4F)c4nc(c(-c5c(F)cccc5F)c5ccc2[nH]5)C=C4)C=C3)cc1
REMARK SMILES IDX 7 1 6 2 5 3 4 4 3 5 2 6 1 7 28 8 29 9 81 10 30 11 80 12
REMARK SMILES IDX 31 13 32 14 33 15 74 16 34 17 79 18 73 19 75 20 35 21 78 22
REMARK SMILES IDX 72 23 71 24 36 26 62 27 45 28 61 29 46 30 49 31 60 32 76 33
REMARK SMILES IDX 47 34 48 35 59 37 77 38 50 39 37 40 38 41 43 42 39 43 40 44
REMARK SMILES IDX 42 45 44 46 41 47 63 48 64 49 69 50 65 51 66 52 68 53 70 54
REMARK SMILES IDX 67 55 51 56 52 57 57 58 53 59 54 60 56 61 58 62 55 63 8 64
REMARK SMILES IDX 9 65 10 66 11 67 12 68 13 69 27 70 14 71 16 72 15 73 17 74
REMARK SMILES IDX 18 76 19 77 26 78 20 79 25 80 21 81 22 82 23 83 24 84
REMARK H PARENT 75 25 49 36 17 75
REMARK Flexibility Score: inf
ROOT
ATOM      1  C   UNL A   1      34.676  35.364  32.660  1.00  0.00     0.202 C 
ENDROOT
BRANCH   1   2
ATOM      2  O   UNL A   1      33.356  34.934  32.313  1.00  0.00    -0.374 OA
BRANCH   2   3
ATOM      3  C   UNL A   1      32.569  35.859  31.562  1.00  0.00     0.202 C 
BRANCH   3   4
ATOM      4  C   UNL A   1      33.128  36.184  30.174  1.00  0.00     0.261 C 
BRANCH   4   5
ATOM      5  O   UNL A   1      32.537  35.330  29.182  1.00  0.00    -0.460 OA
BRANCH   5   6
ATOM      6  C   UNL A   1      33.100  34.286  28.531  1.00  0.00     0.338 C 
ATOM      7  O   UNL A   1      32.463  33.739  27.633  1.00  0.00    -0.246 OA
BRANCH   6   8
ATOM      8  C   UNL A   1      34.464  33.758  28.834  1.00  0.00     0.060 A 
ATOM      9  C   UNL A   1      35.637  34.170  28.201  1.00  0.00     0.016 A 
ATOM     10  C   UNL A   1      34.579  32.846  29.897  1.00  0.00     0.016 A 
ATOM     11  C   UNL A   1      36.874  33.663  28.555  1.00  0.00     0.010 A 
ATOM     12  C   UNL A   1      35.827  32.358  30.293  1.00  0.00     0.010 A 
ATOM     13  C   UNL A   1      36.976  32.761  29.606  1.00  0.00    -0.014 A 
BRANCH  13  14
ATOM     14  C   UNL A   1      38.306  32.187  29.864  1.00  0.00     0.031 A 
ATOM     15  C   UNL A   1      39.205  32.897  30.824  1.00  0.00     0.074 A 
ATOM     16  C   UNL A   1      38.599  30.967  29.380  1.00  0.00     0.049 A 
ATOM     17  N   UNL A   1      40.407  32.583  31.221  1.00  0.00    -0.248 NA
ATOM     18  C   UNL A   1      38.665  34.122  31.441  1.00  0.00     0.031 C 
ATOM     19  C   UNL A   1      37.701  30.150  28.557  1.00  0.00     0.029 A 
ATOM     20  N   UNL A   1      39.704  30.182  29.548  1.00  0.00    -0.354 N 
ATOM     21  C   UNL A   1      40.779  33.583  32.107  1.00  0.00     0.074 A 
ATOM     22  C   UNL A   1      39.679  34.516  32.193  1.00  0.00     0.031 C 
ATOM     23  C   UNL A   1      38.281  28.963  28.322  1.00  0.00     0.029 A 
ATOM     24  C   UNL A   1      39.614  28.967  28.911  1.00  0.00     0.049 A 
ATOM     25  H   UNL A   1      40.489  30.458  30.074  1.00  0.00     0.167 HD
ATOM     26  C   UNL A   1      41.946  33.705  32.779  1.00  0.00     0.037 A 
ATOM     27  C   UNL A   1      40.530  27.989  28.799  1.00  0.00     0.037 A 
ATOM     28  C   UNL A   1      43.018  32.754  32.664  1.00  0.00     0.049 A 
ATOM     29  C   UNL A   1      41.862  28.204  29.465  1.00  0.00     0.074 A 
ATOM     30  C   UNL A   1      44.279  32.794  33.225  1.00  0.00     0.029 A 
ATOM     31  N   UNL A   1      42.939  31.578  31.926  1.00  0.00    -0.354 N 
ATOM     32  N   UNL A   1      42.249  29.194  30.237  1.00  0.00    -0.248 NA
ATOM     33  C   UNL A   1      42.890  27.185  29.230  1.00  0.00     0.031 C 
ATOM     34  C   UNL A   1      44.981  31.664  32.787  1.00  0.00     0.029 A 
ATOM     35  C   UNL A   1      44.138  30.892  31.998  1.00  0.00     0.049 A 
ATOM     36  H   UNL A   1      42.148  31.277  31.424  1.00  0.00     0.167 HD
ATOM     37  C   UNL A   1      43.558  28.910  30.596  1.00  0.00     0.074 A 
ATOM     38  C   UNL A   1      43.889  27.642  29.971  1.00  0.00     0.031 C 
ATOM     39  C   UNL A   1      44.415  29.626  31.364  1.00  0.00     0.037 A 
BRANCH  26  40
ATOM     40  C   UNL A   1      42.127  34.947  33.600  1.00  0.00     0.057 A 
ATOM     41  C   UNL A   1      42.793  36.080  33.112  1.00  0.00     0.134 A 
ATOM     42  C   UNL A   1      41.686  34.982  34.929  1.00  0.00     0.134 A 
ATOM     43  F   UNL A   1      43.272  36.101  31.859  1.00  0.00    -0.206 F 
ATOM     44  C   UNL A   1      43.042  37.188  33.926  1.00  0.00     0.040 A 
ATOM     45  C   UNL A   1      41.906  36.093  35.744  1.00  0.00     0.040 A 
ATOM     46  F   UNL A   1      41.051  33.928  35.463  1.00  0.00    -0.206 F 
ATOM     47  C   UNL A   1      42.597  37.195  35.247  1.00  0.00     0.006 A 
ENDBRANCH  26  40
BRANCH  27  48
ATOM     48  C   UNL A   1      40.245  26.770  27.998  1.00  0.00     0.057 A 
ATOM     49  C   UNL A   1      40.734  26.619  26.696  1.00  0.00     0.134 A 
ATOM     50  C   UNL A   1      39.456  25.731  28.509  1.00  0.00     0.134 A 
ATOM     51  F   UNL A   1      41.480  27.585  26.138  1.00  0.00    -0.206 F 
ATOM     52  C   UNL A   1      40.439  25.489  25.928  1.00  0.00     0.040 A 
ATOM     53  C   UNL A   1      39.176  24.583  27.764  1.00  0.00     0.040 A 
ATOM     54  F   UNL A   1      38.952  25.808  29.749  1.00  0.00    -0.206 F 
ATOM     55  C   UNL A   1      39.661  24.465  26.464  1.00  0.00     0.006 A 
ENDBRANCH  27  48
BRANCH  39  56
ATOM     56  C   UNL A   1      45.768  29.027  31.596  1.00  0.00     0.057 A 
ATOM     57  C   UNL A   1      46.042  28.227  32.711  1.00  0.00     0.134 A 
ATOM     58  C   UNL A   1      46.797  29.225  30.667  1.00  0.00     0.134 A 
ATOM     59  F   UNL A   1      45.100  28.013  33.643  1.00  0.00    -0.206 F 
ATOM     60  C   UNL A   1      47.302  27.661  32.906  1.00  0.00     0.040 A 
ATOM     61  C   UNL A   1      48.051  28.642  30.836  1.00  0.00     0.040 A 
ATOM     62  F   UNL A   1      46.593  29.976  29.573  1.00  0.00    -0.206 F 
ATOM     63  C   UNL A   1      48.308  27.862  31.963  1.00  0.00     0.006 A 
ENDBRANCH  39  56
ENDBRANCH  13  14
ENDBRANCH   6   8
ENDBRANCH   5   6
ENDBRANCH   4   5
ENDBRANCH   3   4
ENDBRANCH   2   3
ENDBRANCH   1   2
BRANCH   1  64
ATOM     64  C   UNL A   1      35.121  34.650  33.940  1.00  0.00     0.261 C 
BRANCH  64  65
ATOM     65  O   UNL A   1      35.951  33.539  33.571  1.00  0.00    -0.460 OA
BRANCH  65  66
ATOM     66  C   UNL A   1      36.710  33.036  34.579  1.00  0.00     0.338 C 
ATOM     67  O   UNL A   1      36.704  33.367  35.752  1.00  0.00    -0.246 OA
BRANCH  66  68
ATOM     68  C   UNL A   1      37.396  31.839  34.054  1.00  0.00     0.062 A 
ATOM     69  C   UNL A   1      36.708  30.998  33.175  1.00  0.00     0.016 A 
ATOM     70  C   UNL A   1      38.736  31.594  34.363  1.00  0.00     0.041 A 
ATOM     71  C   UNL A   1      37.380  29.944  32.566  1.00  0.00     0.003 A 
ATOM     72  C   UNL A   1      39.401  30.497  33.814  1.00  0.00     0.039 A 
ATOM     73  C   UNL A   1      38.718  29.699  32.884  1.00  0.00     0.026 A 
BRANCH  72  74
ATOM     74  N   UNL A   1      40.730  30.248  34.212  1.00  0.00    -0.355 N 
ATOM     75  H   UNL A   1      41.355  31.009  34.187  1.00  0.00     0.167 HD
BRANCH  74  76
ATOM     76  C   UNL A   1      41.244  29.014  34.641  1.00  0.00     0.039 A 
ATOM     77  C   UNL A   1      41.697  28.095  33.686  1.00  0.00     0.033 A 
ATOM     78  C   UNL A   1      41.392  28.729  36.001  1.00  0.00     0.033 A 
ATOM     79  C   UNL A   1      42.305  26.904  34.082  1.00  0.00     0.088 A 
ATOM     80  C   UNL A   1      41.992  27.536  36.411  1.00  0.00     0.088 A 
ATOM     81  C   UNL A   1      42.455  26.632  35.446  1.00  0.00     0.269 A 
BRANCH  81  82
ATOM     82  N   UNL A   1      43.119  25.394  35.869  1.00  0.00     0.062 N 
ATOM     83  O   UNL A   1      42.809  24.346  35.284  1.00  0.00    -0.258 OA
ATOM     84  O   UNL A   1      43.953  25.470  36.782  1.00  0.00    -0.258 OA
ENDBRANCH  81  82
ENDBRANCH  74  76
ENDBRANCH  72  74
ENDBRANCH  66  68
ENDBRANCH  65  66
ENDBRANCH  64  65
ENDBRANCH   1  64
TORSDOF 17
ENDMDL
MODEL 3
REMARK VINA RESULT:      -8.7      4.454     10.884
REMARK SMILES O=C(OCCOCCOC(=O)c1cccc(Nc2ccc([N+](=O)[O-])cc2)c1)c1ccc(-c2c3nc(c(-c4c(F)cccc4F)c4ccc([nH]4)c(-c4c(F)cccc4F)c4nc(c(-c5c(F)cccc5F)c5ccc2[nH]5)C=C4)C=C3)cc1
REMARK SMILES IDX 7 1 6 2 5 3 4 4 3 5 2 6 1 7 28 8 29 9 81 10 30 11 80 12
REMARK SMILES IDX 31 13 32 14 33 15 74 16 34 17 79 18 73 19 75 20 35 21 78 22
REMARK SMILES IDX 72 23 71 24 36 26 62 27 45 28 61 29 46 30 49 31 60 32 76 33
REMARK SMILES IDX 47 34 48 35 59 37 77 38 50 39 37 40 38 41 43 42 39 43 40 44
REMARK SMILES IDX 42 45 44 46 41 47 63 48 64 49 69 50 65 51 66 52 68 53 70 54
REMARK SMILES IDX 67 55 51 56 52 57 57 58 53 59 54 60 56 61 58 62 55 63 8 64
REMARK SMILES IDX 9 65 10 66 11 67 12 68 13 69 27 70 14 71 16 72 15 73 17 74
REMARK SMILES IDX 18 76 19 77 26 78 20 79 25 80 21 81 22 82 23 83 24 84
REMARK H PARENT 75 25 49 36 17 75
REMARK Flexibility Score: inf
ROOT
ATOM      1  C   UNL A   1      43.601  19.478  25.683  1.00  0.00     0.202 C 
ENDROOT
BRANCH   1   2
ATOM      2  O   UNL A   1      43.318  20.700  24.992  1.00  0.00    -0.374 OA
BRANCH   2   3
ATOM      3  C   UNL A   1      43.945  21.874  25.508  1.00  0.00     0.202 C 
BRANCH   3   4
ATOM      4  C   UNL A   1      44.595  22.764  24.445  1.00  0.00     0.261 C 
BRANCH   4   5
ATOM      5  O   UNL A   1      44.082  24.103  24.529  1.00  0.00    -0.460 OA
BRANCH   5   6
ATOM      6  C   UNL A   1      44.646  25.182  25.119  1.00  0.00     0.338 C 
ATOM      7  O   UNL A   1      45.738  25.573  24.712  1.00  0.00    -0.246 OA
BRANCH   6   8
ATOM      8  C   UNL A   1      44.013  25.939  26.242  1.00  0.00     0.060 A 
ATOM      9  C   UNL A   1      44.065  27.324  26.398  1.00  0.00     0.016 A 
ATOM     10  C   UNL A   1      43.234  25.204  27.153  1.00  0.00     0.016 A 
ATOM     11  C   UNL A   1      43.427  27.964  27.445  1.00  0.00     0.010 A 
ATOM     12  C   UNL A   1      42.549  25.843  28.190  1.00  0.00     0.010 A 
ATOM     13  C   UNL A   1      42.661  27.228  28.341  1.00  0.00    -0.014 A 
BRANCH  13  14
ATOM     14  C   UNL A   1      42.092  27.958  29.485  1.00  0.00     0.031 A 
ATOM     15  C   UNL A   1      42.890  28.022  30.747  1.00  0.00     0.074 A 
ATOM     16  C   UNL A   1      40.977  28.688  29.307  1.00  0.00     0.049 A 
ATOM     17  N   UNL A   1      42.608  28.612  31.876  1.00  0.00    -0.248 NA
ATOM     18  C   UNL A   1      44.198  27.343  30.728  1.00  0.00     0.031 C 
ATOM     19  C   UNL A   1      40.229  28.791  28.050  1.00  0.00     0.029 A 
ATOM     20  N   UNL A   1      40.306  29.517  30.162  1.00  0.00    -0.354 N 
ATOM     21  C   UNL A   1      43.687  28.352  32.709  1.00  0.00     0.074 A 
ATOM     22  C   UNL A   1      44.629  27.551  31.961  1.00  0.00     0.031 C 
ATOM     23  C   UNL A   1      39.222  29.664  28.208  1.00  0.00     0.029 A 
ATOM     24  C   UNL A   1      39.210  30.120  29.593  1.00  0.00     0.049 A 
ATOM     25  H   UNL A   1      40.581  29.668  31.095  1.00  0.00     0.167 HD
ATOM     26  C   UNL A   1      43.859  28.746  33.991  1.00  0.00     0.037 A 
ATOM     27  C   UNL A   1      38.289  30.925  30.151  1.00  0.00     0.037 A 
ATOM     28  C   UNL A   1      42.895  29.541  34.701  1.00  0.00     0.049 A 
ATOM     29  C   UNL A   1      38.447  31.256  31.610  1.00  0.00     0.074 A 
ATOM     30  C   UNL A   1      42.905  29.946  36.021  1.00  0.00     0.029 A 
ATOM     31  N   UNL A   1      41.736  30.055  34.129  1.00  0.00    -0.354 N 
ATOM     32  N   UNL A   1      39.426  30.939  32.428  1.00  0.00    -0.248 NA
ATOM     33  C   UNL A   1      37.370  32.032  32.232  1.00  0.00     0.031 C 
ATOM     34  C   UNL A   1      41.727  30.665  36.260  1.00  0.00     0.029 A 
ATOM     35  C   UNL A   1      41.011  30.756  35.074  1.00  0.00     0.049 A 
ATOM     36  H   UNL A   1      41.470  29.937  33.189  1.00  0.00     0.167 HD
ATOM     37  C   UNL A   1      39.094  31.492  33.655  1.00  0.00     0.074 A 
ATOM     38  C   UNL A   1      37.831  32.182  33.466  1.00  0.00     0.031 C 
ATOM     39  C   UNL A   1      39.761  31.435  34.834  1.00  0.00     0.037 A 
BRANCH  26  40
ATOM     40  C   UNL A   1      45.080  28.236  34.697  1.00  0.00     0.057 A 
ATOM     41  C   UNL A   1      46.306  28.915  34.665  1.00  0.00     0.134 A 
ATOM     42  C   UNL A   1      45.043  27.006  35.366  1.00  0.00     0.134 A 
ATOM     43  F   UNL A   1      46.420  30.082  34.013  1.00  0.00    -0.206 F 
ATOM     44  C   UNL A   1      47.456  28.373  35.242  1.00  0.00     0.040 A 
ATOM     45  C   UNL A   1      46.179  26.466  35.969  1.00  0.00     0.040 A 
ATOM     46  F   UNL A   1      43.904  26.299  35.427  1.00  0.00    -0.206 F 
ATOM     47  C   UNL A   1      47.394  27.144  35.898  1.00  0.00     0.006 A 
ENDBRANCH  26  40
BRANCH  27  48
ATOM     48  C   UNL A   1      37.133  31.419  29.359  1.00  0.00     0.057 A 
ATOM     49  C   UNL A   1      36.016  30.613  29.113  1.00  0.00     0.134 A 
ATOM     50  C   UNL A   1      37.124  32.709  28.810  1.00  0.00     0.134 A 
ATOM     51  F   UNL A   1      35.968  29.361  29.592  1.00  0.00    -0.206 F 
ATOM     52  C   UNL A   1      34.943  31.063  28.339  1.00  0.00     0.040 A 
ATOM     53  C   UNL A   1      36.045  33.183  28.059  1.00  0.00     0.040 A 
ATOM     54  F   UNL A   1      38.161  33.537  29.004  1.00  0.00    -0.206 F 
ATOM     55  C   UNL A   1      34.954  32.353  27.814  1.00  0.00     0.006 A 
ENDBRANCH  27  48
BRANCH  39  56
ATOM     56  C   UNL A   1      39.150  32.172  35.986  1.00  0.00     0.057 A 
ATOM     57  C   UNL A   1      39.431  33.521  36.233  1.00  0.00     0.134 A 
ATOM     58  C   UNL A   1      38.239  31.529  36.832  1.00  0.00     0.134 A 
ATOM     59  F   UNL A   1      40.307  34.186  35.464  1.00  0.00    -0.206 F 
ATOM     60  C   UNL A   1      38.842  34.200  37.300  1.00  0.00     0.040 A 
ATOM     61  C   UNL A   1      37.622  32.205  37.884  1.00  0.00     0.040 A 
ATOM     62  F   UNL A   1      37.923  30.239  36.641  1.00  0.00    -0.206 F 
ATOM     63  C   UNL A   1      37.929  33.543  38.123  1.00  0.00     0.006 A 
ENDBRANCH  39  56
ENDBRANCH  13  14
ENDBRANCH   6   8
ENDBRANCH   5   6
ENDBRANCH   4   5
ENDBRANCH   3   4
ENDBRANCH   2   3
ENDBRANCH   1   2
BRANCH   1  64
ATOM     64  C   UNL A   1      42.332  18.989  26.385  1.00  0.00     0.261 C 
BRANCH  64  65
ATOM     65  O   UNL A   1      41.506  20.128  26.670  1.00  0.00    -0.460 OA
BRANCH  65  66
ATOM     66  C   UNL A   1      40.262  20.078  26.129  1.00  0.00     0.338 C 
ATOM     67  O   UNL A   1      39.663  19.096  25.727  1.00  0.00    -0.246 OA
BRANCH  66  68
ATOM     68  C   UNL A   1      39.648  21.407  26.322  1.00  0.00     0.062 A 
ATOM     69  C   UNL A   1      40.254  22.309  27.200  1.00  0.00     0.016 A 
ATOM     70  C   UNL A   1      38.530  21.789  25.576  1.00  0.00     0.041 A 
ATOM     71  C   UNL A   1      39.771  23.610  27.291  1.00  0.00     0.003 A 
ATOM     72  C   UNL A   1      37.991  23.069  25.712  1.00  0.00     0.039 A 
ATOM     73  C   UNL A   1      38.646  23.984  26.549  1.00  0.00     0.026 A 
BRANCH  72  74
ATOM     74  N   UNL A   1      36.819  23.385  24.996  1.00  0.00    -0.355 N 
ATOM     75  H   UNL A   1      36.893  23.433  24.015  1.00  0.00     0.167 HD
BRANCH  74  76
ATOM     76  C   UNL A   1      35.556  23.638  25.554  1.00  0.00     0.039 A 
ATOM     77  C   UNL A   1      34.902  24.837  25.245  1.00  0.00     0.033 A 
ATOM     78  C   UNL A   1      34.907  22.677  26.335  1.00  0.00     0.033 A 
ATOM     79  C   UNL A   1      33.605  25.074  25.700  1.00  0.00     0.088 A 
ATOM     80  C   UNL A   1      33.612  22.905  26.804  1.00  0.00     0.088 A 
ATOM     81  C   UNL A   1      32.963  24.102  26.476  1.00  0.00     0.269 A 
BRANCH  81  82
ATOM     82  N   UNL A   1      31.588  24.334  26.934  1.00  0.00     0.062 N 
ATOM     83  O   UNL A   1      30.959  23.364  27.381  1.00  0.00    -0.258 OA
ATOM     84  O   UNL A   1      31.140  25.486  26.852  1.00  0.00    -0.258 OA
ENDBRANCH  81  82
ENDBRANCH  74  76
ENDBRANCH  72  74
ENDBRANCH  66  68
ENDBRANCH  65  66
ENDBRANCH  64  65
ENDBRANCH   1  64
TORSDOF 17
ENDMDL
