MODEL 1
REMARK VINA RESULT:     -11.3      0.000      0.000
REMARK SMILES O=C(OCCOCCOC(=O)[C@H]1CC=CC[C@H]1c1nc2ccccc2s1)c1ccc(-c2c3nc(c(-c4c(F)cccc4F)c4ccc([nH]4)c(-c4c(F)cccc4F)c4nc(c(-c5c(F)cccc5F)c5ccc2[nH]5)C=C4)C=C3)cc1
REMARK SMILES IDX 5 1 4 2 3 3 2 4 1 5 27 6 28 7 80 8 29 9 79 10 30 11 31 12
REMARK SMILES IDX 32 13 73 14 33 15 78 16 72 17 74 18 34 19 77 20 71 21 70 22
REMARK SMILES IDX 35 24 61 25 44 26 60 27 45 28 48 29 59 30 75 31 46 32 47 33
REMARK SMILES IDX 58 35 76 36 49 37 36 38 37 39 42 40 38 41 39 42 41 43 43 44
REMARK SMILES IDX 40 45 62 46 63 47 68 48 64 49 65 50 67 51 69 52 66 53 50 54
REMARK SMILES IDX 51 55 56 56 52 57 53 58 55 59 57 60 54 61 6 62 7 63 8 64
REMARK SMILES IDX 9 65 10 66 11 67 12 68 13 69 17 70 14 71 16 72 15 73 18 74
REMARK SMILES IDX 19 75 26 76 20 77 25 78 21 79 24 80 22 81 23 82
REMARK H PARENT 74 23 48 34
REMARK Flexibility Score: inf
ROOT
ATOM      1  C   UNL A   1      31.358  31.572  26.375  1.00  0.00     0.202 C 
ENDROOT
BRANCH   1   2
ATOM      2  C   UNL A   1      31.755  33.048  26.530  1.00  0.00     0.261 C 
BRANCH   2   3
ATOM      3  O   UNL A   1      32.010  33.412  27.911  1.00  0.00    -0.460 OA
BRANCH   3   4
ATOM      4  C   UNL A   1      33.013  34.218  28.368  1.00  0.00     0.338 C 
ATOM      5  O   UNL A   1      32.856  35.417  28.509  1.00  0.00    -0.246 OA
BRANCH   4   6
ATOM      6  C   UNL A   1      34.308  33.594  28.728  1.00  0.00     0.060 A 
ATOM      7  C   UNL A   1      34.341  32.254  29.058  1.00  0.00     0.016 A 
ATOM      8  C   UNL A   1      35.498  34.315  28.764  1.00  0.00     0.016 A 
ATOM      9  C   UNL A   1      35.392  31.715  29.745  1.00  0.00     0.010 A 
ATOM     10  C   UNL A   1      36.665  33.686  29.228  1.00  0.00     0.010 A 
ATOM     11  C   UNL A   1      36.601  32.390  29.770  1.00  0.00    -0.014 A 
BRANCH  11  12
ATOM     12  C   UNL A   1      37.729  31.679  30.407  1.00  0.00     0.031 A 
ATOM     13  C   UNL A   1      37.947  31.825  31.879  1.00  0.00     0.074 A 
ATOM     14  C   UNL A   1      38.421  30.772  29.681  1.00  0.00     0.049 A 
ATOM     15  N   UNL A   1      38.919  31.361  32.613  1.00  0.00    -0.248 NA
ATOM     16  C   UNL A   1      36.942  32.599  32.629  1.00  0.00     0.031 C 
ATOM     17  C   UNL A   1      38.196  30.470  28.258  1.00  0.00     0.029 A 
ATOM     18  N   UNL A   1      39.398  29.884  30.041  1.00  0.00    -0.354 N 
ATOM     19  C   UNL A   1      38.681  31.838  33.894  1.00  0.00     0.074 A 
ATOM     20  C   UNL A   1      37.469  32.623  33.843  1.00  0.00     0.031 C 
ATOM     21  C   UNL A   1      38.927  29.407  27.904  1.00  0.00     0.029 A 
ATOM     22  C   UNL A   1      39.792  29.056  29.016  1.00  0.00     0.049 A 
ATOM     23  H   UNL A   1      39.781  29.841  30.947  1.00  0.00     0.167 HD
ATOM     24  C   UNL A   1      39.427  31.636  35.004  1.00  0.00     0.037 A 
ATOM     25  C   UNL A   1      40.792  28.159  28.959  1.00  0.00     0.037 A 
ATOM     26  C   UNL A   1      40.611  30.821  35.013  1.00  0.00     0.049 A 
ATOM     27  C   UNL A   1      41.642  28.009  30.184  1.00  0.00     0.074 A 
ATOM     28  C   UNL A   1      41.515  30.610  36.036  1.00  0.00     0.029 A 
ATOM     29  N   UNL A   1      41.040  30.060  33.931  1.00  0.00    -0.354 N 
ATOM     30  N   UNL A   1      41.500  28.578  31.358  1.00  0.00    -0.248 NA
ATOM     31  C   UNL A   1      42.811  27.132  30.072  1.00  0.00     0.031 C 
ATOM     32  C   UNL A   1      42.507  29.743  35.563  1.00  0.00     0.029 A 
ATOM     33  C   UNL A   1      42.197  29.377  34.261  1.00  0.00     0.049 A 
ATOM     34  H   UNL A   1      40.587  30.012  33.058  1.00  0.00     0.167 HD
ATOM     35  C   UNL A   1      42.563  28.135  32.126  1.00  0.00     0.074 A 
ATOM     36  C   UNL A   1      43.316  27.213  31.295  1.00  0.00     0.031 C 
ATOM     37  C   UNL A   1      42.906  28.469  33.395  1.00  0.00     0.037 A 
BRANCH  24  38
ATOM     38  C   UNL A   1      39.014  32.369  36.245  1.00  0.00     0.057 A 
ATOM     39  C   UNL A   1      38.145  31.810  37.190  1.00  0.00     0.134 A 
ATOM     40  C   UNL A   1      39.466  33.675  36.477  1.00  0.00     0.134 A 
ATOM     41  F   UNL A   1      37.647  30.577  37.012  1.00  0.00    -0.206 F 
ATOM     42  C   UNL A   1      37.721  32.532  38.308  1.00  0.00     0.040 A 
ATOM     43  C   UNL A   1      39.068  34.398  37.603  1.00  0.00     0.040 A 
ATOM     44  F   UNL A   1      40.291  34.274  35.605  1.00  0.00    -0.206 F 
ATOM     45  C   UNL A   1      38.187  33.830  38.519  1.00  0.00     0.006 A 
ENDBRANCH  24  38
BRANCH  25  46
ATOM     46  C   UNL A   1      41.101  27.441  27.692  1.00  0.00     0.057 A 
ATOM     47  C   UNL A   1      40.592  26.166  27.425  1.00  0.00     0.134 A 
ATOM     48  C   UNL A   1      41.935  28.011  26.717  1.00  0.00     0.134 A 
ATOM     49  F   UNL A   1      39.805  25.552  28.320  1.00  0.00    -0.206 F 
ATOM     50  C   UNL A   1      40.911  25.480  26.249  1.00  0.00     0.040 A 
ATOM     51  C   UNL A   1      42.232  27.353  25.523  1.00  0.00     0.040 A 
ATOM     52  F   UNL A   1      42.462  29.230  26.902  1.00  0.00    -0.206 F 
ATOM     53  C   UNL A   1      41.728  26.077  25.292  1.00  0.00     0.006 A 
ENDBRANCH  25  46
BRANCH  37  54
ATOM     54  C   UNL A   1      44.130  27.804  33.941  1.00  0.00     0.057 A 
ATOM     55  C   UNL A   1      45.395  28.397  33.841  1.00  0.00     0.134 A 
ATOM     56  C   UNL A   1      44.036  26.561  34.577  1.00  0.00     0.134 A 
ATOM     57  F   UNL A   1      45.546  29.579  33.223  1.00  0.00    -0.206 F 
ATOM     58  C   UNL A   1      46.532  27.761  34.333  1.00  0.00     0.040 A 
ATOM     59  C   UNL A   1      45.164  25.929  35.098  1.00  0.00     0.040 A 
ATOM     60  F   UNL A   1      42.850  25.949  34.705  1.00  0.00    -0.206 F 
ATOM     61  C   UNL A   1      46.417  26.525  34.968  1.00  0.00     0.006 A 
ENDBRANCH  37  54
ENDBRANCH  11  12
ENDBRANCH   4   6
ENDBRANCH   3   4
ENDBRANCH   2   3
ENDBRANCH   1   2
BRANCH   1  62
ATOM     62  O   UNL A   1      32.403  30.605  26.390  1.00  0.00    -0.374 OA
BRANCH  62  63
ATOM     63  C   UNL A   1      32.235  29.546  27.341  1.00  0.00     0.202 C 
BRANCH  63  64
ATOM     64  C   UNL A   1      33.035  28.326  26.899  1.00  0.00     0.261 C 
BRANCH  64  65
ATOM     65  O   UNL A   1      32.234  27.156  27.120  1.00  0.00    -0.463 OA
BRANCH  65  66
ATOM     66  C   UNL A   1      32.378  26.154  26.222  1.00  0.00     0.310 C 
ATOM     67  O   UNL A   1      31.877  25.044  26.365  1.00  0.00    -0.252 OA
BRANCH  66  68
ATOM     68  C   UNL A   1      33.344  26.517  25.088  1.00  0.00     0.113 C 
ATOM     69  C   UNL A   1      34.521  25.507  25.094  1.00  0.00     0.043 C 
ATOM     70  C   UNL A   1      32.817  26.805  23.643  1.00  0.00     0.067 C 
ATOM     71  C   UNL A   1      34.454  24.407  24.082  1.00  0.00    -0.030 C 
ATOM     72  C   UNL A   1      32.819  25.614  22.641  1.00  0.00     0.038 C 
ATOM     73  C   UNL A   1      33.699  24.459  22.983  1.00  0.00    -0.031 C 
BRANCH  70  74
ATOM     74  C   UNL A   1      31.487  27.540  23.555  1.00  0.00     0.098 A 
ATOM     75  N   UNL A   1      31.365  28.851  23.627  1.00  0.00    -0.241 NA
ATOM     76  S   UNL A   1      30.006  26.686  23.355  1.00  0.00    -0.118 S 
ATOM     77  C   UNL A   1      30.043  29.231  23.471  1.00  0.00     0.082 A 
ATOM     78  C   UNL A   1      29.148  28.181  23.270  1.00  0.00     0.055 A 
ATOM     79  C   UNL A   1      29.551  30.554  23.488  1.00  0.00     0.030 A 
ATOM     80  C   UNL A   1      27.778  28.411  23.053  1.00  0.00     0.021 A 
ATOM     81  C   UNL A   1      28.187  30.791  23.296  1.00  0.00     0.002 A 
ATOM     82  C   UNL A   1      27.314  29.730  23.073  1.00  0.00     0.002 A 
ENDBRANCH  70  74
ENDBRANCH  66  68
ENDBRANCH  65  66
ENDBRANCH  64  65
ENDBRANCH  63  64
ENDBRANCH  62  63
ENDBRANCH   1  62
TORSDOF 15
ENDMDL
MODEL 2
REMARK VINA RESULT:     -11.1      2.562      7.503
REMARK SMILES O=C(OCCOCCOC(=O)[C@H]1CC=CC[C@H]1c1nc2ccccc2s1)c1ccc(-c2c3nc(c(-c4c(F)cccc4F)c4ccc([nH]4)c(-c4c(F)cccc4F)c4nc(c(-c5c(F)cccc5F)c5ccc2[nH]5)C=C4)C=C3)cc1
REMARK SMILES IDX 5 1 4 2 3 3 2 4 1 5 27 6 28 7 80 8 29 9 79 10 30 11 31 12
REMARK SMILES IDX 32 13 73 14 33 15 78 16 72 17 74 18 34 19 77 20 71 21 70 22
REMARK SMILES IDX 35 24 61 25 44 26 60 27 45 28 48 29 59 30 75 31 46 32 47 33
REMARK SMILES IDX 58 35 76 36 49 37 36 38 37 39 42 40 38 41 39 42 41 43 43 44
REMARK SMILES IDX 40 45 62 46 63 47 68 48 64 49 65 50 67 51 69 52 66 53 50 54
REMARK SMILES IDX 51 55 56 56 52 57 53 58 55 59 57 60 54 61 6 62 7 63 8 64
REMARK SMILES IDX 9 65 10 66 11 67 12 68 13 69 17 70 14 71 16 72 15 73 18 74
REMARK SMILES IDX 19 75 26 76 20 77 25 78 21 79 24 80 22 81 23 82
REMARK H PARENT 74 23 48 34
REMARK Flexibility Score: inf
ROOT
ATOM      1  C   UNL A   1      31.517  28.940  23.819  1.00  0.00     0.202 C 
ENDROOT
BRANCH   1   2
ATOM      2  C   UNL A   1      31.624  29.371  25.290  1.00  0.00     0.261 C 
BRANCH   2   3
ATOM      3  O   UNL A   1      32.857  30.079  25.572  1.00  0.00    -0.460 OA
BRANCH   3   4
ATOM      4  C   UNL A   1      33.152  30.782  26.705  1.00  0.00     0.338 C 
ATOM      5  O   UNL A   1      32.338  31.520  27.230  1.00  0.00    -0.246 OA
BRANCH   4   6
ATOM      6  C   UNL A   1      34.490  30.602  27.316  1.00  0.00     0.060 A 
ATOM      7  C   UNL A   1      34.939  29.328  27.593  1.00  0.00     0.016 A 
ATOM      8  C   UNL A   1      35.311  31.679  27.641  1.00  0.00     0.016 A 
ATOM      9  C   UNL A   1      35.961  29.106  28.473  1.00  0.00     0.010 A 
ATOM     10  C   UNL A   1      36.514  31.440  28.324  1.00  0.00     0.010 A 
ATOM     11  C   UNL A   1      36.817  30.148  28.788  1.00  0.00    -0.014 A 
BRANCH  11  12
ATOM     12  C   UNL A   1      37.981  29.799  29.629  1.00  0.00     0.031 A 
ATOM     13  C   UNL A   1      39.115  29.033  29.026  1.00  0.00     0.074 A 
ATOM     14  C   UNL A   1      38.077  30.336  30.867  1.00  0.00     0.049 A 
ATOM     15  N   UNL A   1      40.180  28.554  29.606  1.00  0.00    -0.248 NA
ATOM     16  C   UNL A   1      39.043  28.763  27.579  1.00  0.00     0.031 C 
ATOM     17  C   UNL A   1      37.068  31.203  31.498  1.00  0.00     0.029 A 
ATOM     18  N   UNL A   1      39.087  30.303  31.789  1.00  0.00    -0.354 N 
ATOM     19  C   UNL A   1      40.872  27.874  28.613  1.00  0.00     0.074 A 
ATOM     20  C   UNL A   1      40.111  28.004  27.392  1.00  0.00     0.031 C 
ATOM     21  C   UNL A   1      37.555  31.699  32.641  1.00  0.00     0.029 A 
ATOM     22  C   UNL A   1      38.832  31.061  32.909  1.00  0.00     0.049 A 
ATOM     23  H   UNL A   1      39.916  29.788  31.663  1.00  0.00     0.167 HD
ATOM     24  C   UNL A   1      42.035  27.195  28.733  1.00  0.00     0.037 A 
ATOM     25  C   UNL A   1      39.521  31.174  34.057  1.00  0.00     0.037 A 
ATOM     26  C   UNL A   1      42.773  27.118  29.965  1.00  0.00     0.049 A 
ATOM     27  C   UNL A   1      40.771  30.355  34.183  1.00  0.00     0.074 A 
ATOM     28  C   UNL A   1      43.908  26.387  30.255  1.00  0.00     0.029 A 
ATOM     29  N   UNL A   1      42.444  27.827  31.115  1.00  0.00    -0.354 N 
ATOM     30  N   UNL A   1      41.347  29.591  33.285  1.00  0.00    -0.248 NA
ATOM     31  C   UNL A   1      41.444  30.376  35.485  1.00  0.00     0.031 C 
ATOM     32  C   UNL A   1      44.250  26.633  31.590  1.00  0.00     0.029 A 
ATOM     33  C   UNL A   1      43.355  27.551  32.119  1.00  0.00     0.049 A 
ATOM     34  H   UNL A   1      41.676  28.437  31.202  1.00  0.00     0.167 HD
ATOM     35  C   UNL A   1      42.448  29.033  33.912  1.00  0.00     0.074 A 
ATOM     36  C   UNL A   1      42.482  29.585  35.255  1.00  0.00     0.031 C 
ATOM     37  C   UNL A   1      43.343  28.131  33.438  1.00  0.00     0.037 A 
BRANCH  24  38
ATOM     38  C   UNL A   1      42.510  26.440  27.529  1.00  0.00     0.057 A 
ATOM     39  C   UNL A   1      42.149  25.108  27.289  1.00  0.00     0.134 A 
ATOM     40  C   UNL A   1      43.379  27.048  26.612  1.00  0.00     0.134 A 
ATOM     41  F   UNL A   1      41.348  24.455  28.144  1.00  0.00    -0.206 F 
ATOM     42  C   UNL A   1      42.653  24.401  26.194  1.00  0.00     0.040 A 
ATOM     43  C   UNL A   1      43.871  26.358  25.502  1.00  0.00     0.040 A 
ATOM     44  F   UNL A   1      43.774  28.317  26.789  1.00  0.00    -0.206 F 
ATOM     45  C   UNL A   1      43.514  25.028  25.294  1.00  0.00     0.006 A 
ENDBRANCH  24  38
BRANCH  25  46
ATOM     46  C   UNL A   1      38.994  31.986  35.188  1.00  0.00     0.057 A 
ATOM     47  C   UNL A   1      38.301  31.402  36.254  1.00  0.00     0.134 A 
ATOM     48  C   UNL A   1      39.157  33.380  35.221  1.00  0.00     0.134 A 
ATOM     49  F   UNL A   1      38.090  30.078  36.278  1.00  0.00    -0.206 F 
ATOM     50  C   UNL A   1      37.777  32.171  37.297  1.00  0.00     0.040 A 
ATOM     51  C   UNL A   1      38.672  34.155  36.275  1.00  0.00     0.040 A 
ATOM     52  F   UNL A   1      39.810  34.011  34.234  1.00  0.00    -0.206 F 
ATOM     53  C   UNL A   1      37.969  33.551  37.312  1.00  0.00     0.006 A 
ENDBRANCH  25  46
BRANCH  37  54
ATOM     54  C   UNL A   1      44.430  27.725  34.383  1.00  0.00     0.057 A 
ATOM     55  C   UNL A   1      45.634  28.436  34.467  1.00  0.00     0.134 A 
ATOM     56  C   UNL A   1      44.263  26.615  35.218  1.00  0.00     0.134 A 
ATOM     57  F   UNL A   1      45.856  29.496  33.674  1.00  0.00    -0.206 F 
ATOM     58  C   UNL A   1      46.649  28.037  35.334  1.00  0.00     0.040 A 
ATOM     59  C   UNL A   1      45.261  26.225  36.109  1.00  0.00     0.040 A 
ATOM     60  F   UNL A   1      43.129  25.900  35.183  1.00  0.00    -0.206 F 
ATOM     61  C   UNL A   1      46.462  26.931  36.162  1.00  0.00     0.006 A 
ENDBRANCH  37  54
ENDBRANCH  11  12
ENDBRANCH   4   6
ENDBRANCH   3   4
ENDBRANCH   2   3
ENDBRANCH   1   2
BRANCH   1  62
ATOM     62  O   UNL A   1      32.532  28.081  23.310  1.00  0.00    -0.374 OA
BRANCH  62  63
ATOM     63  C   UNL A   1      32.053  26.878  22.694  1.00  0.00     0.202 C 
BRANCH  63  64
ATOM     64  C   UNL A   1      33.231  25.979  22.337  1.00  0.00     0.261 C 
BRANCH  64  65
ATOM     65  O   UNL A   1      33.102  24.752  23.071  1.00  0.00    -0.463 OA
BRANCH  65  66
ATOM     66  C   UNL A   1      34.253  24.205  23.529  1.00  0.00     0.310 C 
ATOM     67  O   UNL A   1      35.107  23.723  22.794  1.00  0.00    -0.252 OA
BRANCH  66  68
ATOM     68  C   UNL A   1      34.301  24.134  25.060  1.00  0.00     0.113 C 
ATOM     69  C   UNL A   1      34.027  25.549  25.633  1.00  0.00     0.043 C 
ATOM     70  C   UNL A   1      33.528  23.018  25.838  1.00  0.00     0.067 C 
ATOM     71  C   UNL A   1      32.640  25.801  26.134  1.00  0.00    -0.030 C 
ATOM     72  C   UNL A   1      32.107  23.378  26.360  1.00  0.00     0.038 C 
ATOM     73  C   UNL A   1      31.786  24.831  26.466  1.00  0.00    -0.031 C 
BRANCH  70  74
ATOM     74  C   UNL A   1      33.494  21.648  25.175  1.00  0.00     0.098 A 
ATOM     75  N   UNL A   1      34.426  20.730  25.334  1.00  0.00    -0.241 NA
ATOM     76  S   UNL A   1      32.198  21.191  24.137  1.00  0.00    -0.118 S 
ATOM     77  C   UNL A   1      34.100  19.573  24.647  1.00  0.00     0.082 A 
ATOM     78  C   UNL A   1      32.889  19.620  23.957  1.00  0.00     0.055 A 
ATOM     79  C   UNL A   1      34.868  18.390  24.601  1.00  0.00     0.030 A 
ATOM     80  C   UNL A   1      32.402  18.509  23.247  1.00  0.00     0.021 A 
ATOM     81  C   UNL A   1      34.403  17.287  23.878  1.00  0.00     0.002 A 
ATOM     82  C   UNL A   1      33.179  17.346  23.217  1.00  0.00     0.002 A 
ENDBRANCH  70  74
ENDBRANCH  66  68
ENDBRANCH  65  66
ENDBRANCH  64  65
ENDBRANCH  63  64
ENDBRANCH  62  63
ENDBRANCH   1  62
TORSDOF 15
ENDMDL
MODEL 3
REMARK VINA RESULT:     -11.1      5.246      9.356
REMARK SMILES O=C(OCCOCCOC(=O)[C@H]1CC=CC[C@H]1c1nc2ccccc2s1)c1ccc(-c2c3nc(c(-c4c(F)cccc4F)c4ccc([nH]4)c(-c4c(F)cccc4F)c4nc(c(-c5c(F)cccc5F)c5ccc2[nH]5)C=C4)C=C3)cc1
REMARK SMILES IDX 5 1 4 2 3 3 2 4 1 5 27 6 28 7 80 8 29 9 79 10 30 11 31 12
REMARK SMILES IDX 32 13 73 14 33 15 78 16 72 17 74 18 34 19 77 20 71 21 70 22
REMARK SMILES IDX 35 24 61 25 44 26 60 27 45 28 48 29 59 30 75 31 46 32 47 33
REMARK SMILES IDX 58 35 76 36 49 37 36 38 37 39 42 40 38 41 39 42 41 43 43 44
REMARK SMILES IDX 40 45 62 46 63 47 68 48 64 49 65 50 67 51 69 52 66 53 50 54
REMARK SMILES IDX 51 55 56 56 52 57 53 58 55 59 57 60 54 61 6 62 7 63 8 64
REMARK SMILES IDX 9 65 10 66 11 67 12 68 13 69 17 70 14 71 16 72 15 73 18 74
REMARK SMILES IDX 19 75 26 76 20 77 25 78 21 79 24 80 22 81 23 82
REMARK H PARENT 74 23 48 34
REMARK Flexibility Score: inf
ROOT
ATOM      1  C   UNL A   1      38.124  19.841  24.689  1.00  0.00     0.202 C 
ENDROOT
BRANCH   1   2
ATOM      2  C   UNL A   1      39.083  19.631  25.871  1.00  0.00     0.261 C 
BRANCH   2   3
ATOM      3  O   UNL A   1      40.320  18.986  25.473  1.00  0.00    -0.460 OA
BRANCH   3   4
ATOM      4  C   UNL A   1      41.573  19.275  25.933  1.00  0.00     0.338 C 
ATOM      5  O   UNL A   1      42.477  18.461  25.882  1.00  0.00    -0.246 OA
BRANCH   4   6
ATOM      6  C   UNL A   1      41.828  20.631  26.473  1.00  0.00     0.060 A 
ATOM      7  C   UNL A   1      41.746  21.719  25.629  1.00  0.00     0.016 A 
ATOM      8  C   UNL A   1      42.168  20.851  27.805  1.00  0.00     0.016 A 
ATOM      9  C   UNL A   1      42.319  22.917  25.951  1.00  0.00     0.010 A 
ATOM     10  C   UNL A   1      42.510  22.148  28.219  1.00  0.00     0.010 A 
ATOM     11  C   UNL A   1      42.635  23.180  27.273  1.00  0.00    -0.014 A 
BRANCH  11  12
ATOM     12  C   UNL A   1      43.116  24.548  27.565  1.00  0.00     0.031 A 
ATOM     13  C   UNL A   1      42.160  25.555  28.119  1.00  0.00     0.074 A 
ATOM     14  C   UNL A   1      44.442  24.801  27.499  1.00  0.00     0.049 A 
ATOM     15  N   UNL A   1      42.353  26.821  28.360  1.00  0.00    -0.248 NA
ATOM     16  C   UNL A   1      40.802  25.080  28.441  1.00  0.00     0.031 C 
ATOM     17  C   UNL A   1      45.473  23.835  27.084  1.00  0.00     0.029 A 
ATOM     18  N   UNL A   1      45.167  25.908  27.845  1.00  0.00    -0.354 N 
ATOM     19  C   UNL A   1      41.131  27.309  28.801  1.00  0.00     0.074 A 
ATOM     20  C   UNL A   1      40.200  26.203  28.800  1.00  0.00     0.031 C 
ATOM     21  C   UNL A   1      46.687  24.354  27.303  1.00  0.00     0.029 A 
ATOM     22  C   UNL A   1      46.526  25.738  27.711  1.00  0.00     0.049 A 
ATOM     23  H   UNL A   1      44.757  26.745  28.161  1.00  0.00     0.167 HD
ATOM     24  C   UNL A   1      40.826  28.576  29.160  1.00  0.00     0.037 A 
ATOM     25  C   UNL A   1      47.530  26.623  27.837  1.00  0.00     0.037 A 
ATOM     26  C   UNL A   1      41.794  29.639  29.173  1.00  0.00     0.049 A 
ATOM     27  C   UNL A   1      47.152  28.036  28.170  1.00  0.00     0.074 A 
ATOM     28  C   UNL A   1      41.606  30.986  29.418  1.00  0.00     0.029 A 
ATOM     29  N   UNL A   1      43.154  29.456  28.947  1.00  0.00    -0.354 N 
ATOM     30  N   UNL A   1      45.966  28.527  28.443  1.00  0.00    -0.248 NA
ATOM     31  C   UNL A   1      48.235  29.024  28.172  1.00  0.00     0.031 C 
ATOM     32  C   UNL A   1      42.849  31.621  29.312  1.00  0.00     0.029 A 
ATOM     33  C   UNL A   1      43.818  30.666  29.046  1.00  0.00     0.049 A 
ATOM     34  H   UNL A   1      43.582  28.593  28.746  1.00  0.00     0.167 HD
ATOM     35  C   UNL A   1      46.155  29.884  28.644  1.00  0.00     0.074 A 
ATOM     36  C   UNL A   1      47.580  30.127  28.505  1.00  0.00     0.031 C 
ATOM     37  C   UNL A   1      45.240  30.851  28.900  1.00  0.00     0.037 A 
BRANCH  24  38
ATOM     38  C   UNL A   1      39.392  28.868  29.482  1.00  0.00     0.057 A 
ATOM     39  C   UNL A   1      38.485  29.322  28.516  1.00  0.00     0.134 A 
ATOM     40  C   UNL A   1      38.921  28.729  30.794  1.00  0.00     0.134 A 
ATOM     41  F   UNL A   1      38.879  29.510  27.248  1.00  0.00    -0.206 F 
ATOM     42  C   UNL A   1      37.168  29.649  28.848  1.00  0.00     0.040 A 
ATOM     43  C   UNL A   1      37.600  29.031  31.134  1.00  0.00     0.040 A 
ATOM     44  F   UNL A   1      39.740  28.310  31.770  1.00  0.00    -0.206 F 
ATOM     45  C   UNL A   1      36.721  29.500  30.161  1.00  0.00     0.006 A 
ENDBRANCH  24  38
BRANCH  25  46
ATOM     46  C   UNL A   1      48.935  26.232  27.541  1.00  0.00     0.057 A 
ATOM     47  C   UNL A   1      49.819  25.842  28.553  1.00  0.00     0.134 A 
ATOM     48  C   UNL A   1      49.436  26.255  26.231  1.00  0.00     0.134 A 
ATOM     49  F   UNL A   1      49.415  25.816  29.831  1.00  0.00    -0.206 F 
ATOM     50  C   UNL A   1      51.148  25.507  28.276  1.00  0.00     0.040 A 
ATOM     51  C   UNL A   1      50.750  25.887  25.936  1.00  0.00     0.040 A 
ATOM     52  F   UNL A   1      48.649  26.619  25.208  1.00  0.00    -0.206 F 
ATOM     53  C   UNL A   1      51.614  25.523  26.964  1.00  0.00     0.006 A 
ENDBRANCH  25  46
BRANCH  37  54
ATOM     54  C   UNL A   1      45.778  32.238  29.065  1.00  0.00     0.057 A 
ATOM     55  C   UNL A   1      45.895  33.115  27.981  1.00  0.00     0.134 A 
ATOM     56  C   UNL A   1      46.176  32.696  30.326  1.00  0.00     0.134 A 
ATOM     57  F   UNL A   1      45.548  32.721  26.745  1.00  0.00    -0.206 F 
ATOM     58  C   UNL A   1      46.418  34.397  28.141  1.00  0.00     0.040 A 
ATOM     59  C   UNL A   1      46.674  33.986  30.502  1.00  0.00     0.040 A 
ATOM     60  F   UNL A   1      46.082  31.900  31.402  1.00  0.00    -0.206 F 
ATOM     61  C   UNL A   1      46.805  34.837  29.406  1.00  0.00     0.006 A 
ENDBRANCH  37  54
ENDBRANCH  11  12
ENDBRANCH   4   6
ENDBRANCH   3   4
ENDBRANCH   2   3
ENDBRANCH   1   2
BRANCH   1  62
ATOM     62  O   UNL A   1      37.471  21.103  24.588  1.00  0.00    -0.374 OA
BRANCH  62  63
ATOM     63  C   UNL A   1      37.884  22.077  25.555  1.00  0.00     0.202 C 
BRANCH  63  64
ATOM     64  C   UNL A   1      37.210  23.412  25.261  1.00  0.00     0.261 C 
BRANCH  64  65
ATOM     65  O   UNL A   1      36.587  23.328  23.971  1.00  0.00    -0.463 OA
BRANCH  65  66
ATOM     66  C   UNL A   1      35.302  23.750  23.899  1.00  0.00     0.310 C 
ATOM     67  O   UNL A   1      34.783  24.151  22.864  1.00  0.00    -0.252 OA
BRANCH  66  68
ATOM     68  C   UNL A   1      34.623  23.799  25.272  1.00  0.00     0.113 C 
ATOM     69  C   UNL A   1      34.390  25.283  25.659  1.00  0.00     0.043 C 
ATOM     70  C   UNL A   1      33.381  22.901  25.590  1.00  0.00     0.067 C 
ATOM     71  C   UNL A   1      33.005  25.810  25.453  1.00  0.00    -0.030 C 
ATOM     72  C   UNL A   1      31.977  23.541  25.385  1.00  0.00     0.038 C 
ATOM     73  C   UNL A   1      31.927  25.032  25.338  1.00  0.00    -0.031 C 
BRANCH  70  74
ATOM     74  C   UNL A   1      33.397  21.507  24.979  1.00  0.00     0.098 A 
ATOM     75  N   UNL A   1      34.301  20.590  25.261  1.00  0.00    -0.241 NA
ATOM     76  S   UNL A   1      32.203  21.018  23.839  1.00  0.00    -0.118 S 
ATOM     77  C   UNL A   1      34.032  19.410  24.590  1.00  0.00     0.082 A 
ATOM     78  C   UNL A   1      32.892  19.436  23.786  1.00  0.00     0.055 A 
ATOM     79  C   UNL A   1      34.789  18.221  24.663  1.00  0.00     0.030 A 
ATOM     80  C   UNL A   1      32.466  18.301  23.075  1.00  0.00     0.021 A 
ATOM     81  C   UNL A   1      34.385  17.094  23.941  1.00  0.00     0.002 A 
ATOM     82  C   UNL A   1      33.231  17.134  23.164  1.00  0.00     0.002 A 
ENDBRANCH  70  74
ENDBRANCH  66  68
ENDBRANCH  65  66
ENDBRANCH  64  65
ENDBRANCH  63  64
ENDBRANCH  62  63
ENDBRANCH   1  62
TORSDOF 15
ENDMDL
