MODEL 1
REMARK VINA RESULT:      -8.6      0.000      0.000
REMARK SMILES CCOc1ccc2[nH]c(=O)c(C(=O)OCCOCCOC(=O)c3ccc(-c4c5nc(c(-c6c(F)cccc6F)c6ccc([nH]6)c(-c6c(F)cccc6F)c6nc(c(-c7c(F)cccc7F)c7ccc4[nH]7)C=C6)C=C5)cc3)cc2c1
REMARK SMILES IDX 17 1 16 2 15 3 14 4 12 5 13 6 11 7 4 8 5 9 79 10 6 11 78 12
REMARK SMILES IDX 7 13 77 14 8 15 9 16 10 18 3 19 2 20 1 21 18 22 19 23 20 24
REMARK SMILES IDX 21 25 22 26 23 27 24 28 76 29 25 30 75 31 26 32 27 33 28 34
REMARK SMILES IDX 69 35 29 36 74 37 68 38 70 39 30 40 73 41 67 42 66 43 31 45
REMARK SMILES IDX 57 46 40 47 56 48 41 49 44 50 55 51 71 52 42 53 43 54 54 56
REMARK SMILES IDX 72 57 45 58 32 59 33 60 38 61 34 62 35 63 37 64 39 65 36 66
REMARK SMILES IDX 58 67 59 68 64 69 60 70 61 71 63 72 65 73 62 74 46 75 47 76
REMARK SMILES IDX 52 77 48 78 49 79 51 80 53 81 50 82
REMARK H PARENT 8 17 70 44 44 55
REMARK Flexibility Score: inf
ROOT
ATOM      1  O   UNL A   1      33.246  36.232  32.954  1.00  0.00    -0.374 OA
ENDROOT
BRANCH   1   2
ATOM      2  C   UNL A   1      34.464  36.117  33.693  1.00  0.00     0.202 C 
BRANCH   2   3
ATOM      3  C   UNL A   1      35.548  35.270  33.023  1.00  0.00     0.261 C 
BRANCH   3   4
ATOM      4  O   UNL A   1      36.402  34.682  34.017  1.00  0.00    -0.459 OA
BRANCH   4   5
ATOM      5  C   UNL A   1      36.225  33.362  34.254  1.00  0.00     0.343 C 
ATOM      6  O   UNL A   1      35.280  32.686  33.870  1.00  0.00    -0.246 OA
BRANCH   5   7
ATOM      7  C   UNL A   1      37.419  32.781  34.904  1.00  0.00     0.125 A 
ATOM      8  C   UNL A   1      41.351  29.976  34.412  1.00  0.00     0.120 A 
ATOM      9  C   UNL A   1      41.708  30.224  35.736  1.00  0.00     0.048 A 
ATOM     10  C   UNL A   1      40.216  30.566  33.855  1.00  0.00     0.056 A 
ATOM     11  C   UNL A   1      40.905  31.039  36.534  1.00  0.00     0.030 A 
ATOM     12  C   UNL A   1      39.407  31.381  34.651  1.00  0.00     0.003 A 
ATOM     13  C   UNL A   1      39.761  31.616  35.986  1.00  0.00     0.049 A 
ATOM     14  C   UNL A   1      38.192  32.000  34.125  1.00  0.00     0.032 A 
ATOM     15  N   UNL A   1      38.955  32.451  36.769  1.00  0.00    -0.321 N 
ATOM     16  C   UNL A   1      37.806  33.055  36.315  1.00  0.00     0.263 A 
ATOM     17  H   UNL A   1      39.227  32.616  37.701  1.00  0.00     0.170 HD
ATOM     18  O   UNL A   1      37.145  33.762  37.067  1.00  0.00    -0.269 OA
BRANCH   8  19
ATOM     19  O   UNL A   1      42.177  29.236  33.611  1.00  0.00    -0.494 OA
BRANCH  19  20
ATOM     20  C   UNL A   1      41.686  27.906  33.407  1.00  0.00     0.226 C 
ATOM     21  C   UNL A   1      42.272  26.945  34.430  1.00  0.00     0.049 C 
ENDBRANCH  19  20
ENDBRANCH   8  19
ENDBRANCH   5   7
ENDBRANCH   4   5
ENDBRANCH   3   4
ENDBRANCH   2   3
ENDBRANCH   1   2
BRANCH   1  22
ATOM     22  C   UNL A   1      33.221  37.207  31.908  1.00  0.00     0.202 C 
BRANCH  22  23
ATOM     23  C   UNL A   1      32.925  36.665  30.504  1.00  0.00     0.261 C 
BRANCH  23  24
ATOM     24  O   UNL A   1      32.938  35.226  30.478  1.00  0.00    -0.460 OA
BRANCH  24  25
ATOM     25  C   UNL A   1      33.157  34.679  29.260  1.00  0.00     0.338 C 
ATOM     26  O   UNL A   1      32.530  34.886  28.230  1.00  0.00    -0.246 OA
BRANCH  25  27
ATOM     27  C   UNL A   1      34.400  33.885  29.279  1.00  0.00     0.060 A 
ATOM     28  C   UNL A   1      34.584  32.997  30.346  1.00  0.00     0.016 A 
ATOM     29  C   UNL A   1      35.398  34.051  28.315  1.00  0.00     0.016 A 
ATOM     30  C   UNL A   1      35.786  32.307  30.483  1.00  0.00     0.010 A 
ATOM     31  C   UNL A   1      36.608  33.364  28.458  1.00  0.00     0.010 A 
ATOM     32  C   UNL A   1      36.821  32.517  29.560  1.00  0.00    -0.014 A 
BRANCH  32  33
ATOM     33  C   UNL A   1      38.166  31.957  29.832  1.00  0.00     0.031 A 
ATOM     34  C   UNL A   1      39.138  32.754  30.656  1.00  0.00     0.074 A 
ATOM     35  C   UNL A   1      38.509  30.740  29.374  1.00  0.00     0.049 A 
ATOM     36  N   UNL A   1      40.369  32.468  30.997  1.00  0.00    -0.248 NA
ATOM     37  C   UNL A   1      38.658  34.049  31.163  1.00  0.00     0.031 C 
ATOM     38  C   UNL A   1      37.646  29.858  28.592  1.00  0.00     0.029 A 
ATOM     39  N   UNL A   1      39.684  30.043  29.499  1.00  0.00    -0.354 N 
ATOM     40  C   UNL A   1      40.812  33.547  31.751  1.00  0.00     0.074 A 
ATOM     41  C   UNL A   1      39.728  34.506  31.793  1.00  0.00     0.031 C 
ATOM     42  C   UNL A   1      38.325  28.735  28.298  1.00  0.00     0.029 A 
ATOM     43  C   UNL A   1      39.677  28.835  28.846  1.00  0.00     0.049 A 
ATOM     44  H   UNL A   1      40.457  30.375  30.008  1.00  0.00     0.167 HD
ATOM     45  C   UNL A   1      42.008  33.719  32.362  1.00  0.00     0.037 A 
ATOM     46  C   UNL A   1      40.657  27.924  28.692  1.00  0.00     0.037 A 
ATOM     47  C   UNL A   1      43.085  32.765  32.319  1.00  0.00     0.049 A 
ATOM     48  C   UNL A   1      42.001  28.166  29.325  1.00  0.00     0.074 A 
ATOM     49  C   UNL A   1      44.327  32.838  32.927  1.00  0.00     0.029 A 
ATOM     50  N   UNL A   1      43.050  31.567  31.622  1.00  0.00    -0.354 N 
ATOM     51  N   UNL A   1      42.400  29.175  30.060  1.00  0.00    -0.248 NA
ATOM     52  C   UNL A   1      43.031  27.140  29.105  1.00  0.00     0.031 C 
ATOM     53  C   UNL A   1      45.060  31.705  32.556  1.00  0.00     0.029 A 
ATOM     54  C   UNL A   1      44.258  30.904  31.761  1.00  0.00     0.049 A 
ATOM     55  H   UNL A   1      42.280  31.237  31.104  1.00  0.00     0.167 HD
ATOM     56  C   UNL A   1      43.714  28.894  30.414  1.00  0.00     0.074 A 
ATOM     57  C   UNL A   1      44.042  27.615  29.819  1.00  0.00     0.031 C 
ATOM     58  C   UNL A   1      44.571  29.630  31.165  1.00  0.00     0.037 A 
BRANCH  45  59
ATOM     59  C   UNL A   1      42.221  35.003  33.108  1.00  0.00     0.057 A 
ATOM     60  C   UNL A   1      41.679  35.218  34.382  1.00  0.00     0.134 A 
ATOM     61  C   UNL A   1      42.992  36.032  32.553  1.00  0.00     0.134 A 
ATOM     62  F   UNL A   1      40.918  34.279  34.965  1.00  0.00    -0.206 F 
ATOM     63  C   UNL A   1      41.875  36.420  35.065  1.00  0.00     0.040 A 
ATOM     64  C   UNL A   1      43.216  37.227  33.236  1.00  0.00     0.040 A 
ATOM     65  F   UNL A   1      43.542  35.890  31.338  1.00  0.00    -0.206 F 
ATOM     66  C   UNL A   1      42.651  37.427  34.494  1.00  0.00     0.006 A 
ENDBRANCH  45  59
BRANCH  46  67
ATOM     67  C   UNL A   1      40.406  26.698  27.894  1.00  0.00     0.057 A 
ATOM     68  C   UNL A   1      39.617  25.656  28.394  1.00  0.00     0.134 A 
ATOM     69  C   UNL A   1      40.956  26.536  26.617  1.00  0.00     0.134 A 
ATOM     70  F   UNL A   1      39.083  25.743  29.622  1.00  0.00    -0.206 F 
ATOM     71  C   UNL A   1      39.391  24.492  27.658  1.00  0.00     0.040 A 
ATOM     72  C   UNL A   1      40.719  25.388  25.859  1.00  0.00     0.040 A 
ATOM     73  F   UNL A   1      41.723  27.497  26.083  1.00  0.00    -0.206 F 
ATOM     74  C   UNL A   1      39.939  24.360  26.383  1.00  0.00     0.006 A 
ENDBRANCH  46  67
BRANCH  58  75
ATOM     75  C   UNL A   1      45.935  29.056  31.413  1.00  0.00     0.057 A 
ATOM     76  C   UNL A   1      46.214  28.270  32.538  1.00  0.00     0.134 A 
ATOM     77  C   UNL A   1      46.971  29.259  30.492  1.00  0.00     0.134 A 
ATOM     78  F   UNL A   1      45.270  28.048  33.463  1.00  0.00    -0.206 F 
ATOM     79  C   UNL A   1      47.483  27.724  32.748  1.00  0.00     0.040 A 
ATOM     80  C   UNL A   1      48.235  28.697  30.678  1.00  0.00     0.040 A 
ATOM     81  F   UNL A   1      46.769  29.995  29.389  1.00  0.00    -0.206 F 
ATOM     82  C   UNL A   1      48.494  27.931  31.813  1.00  0.00     0.006 A 
ENDBRANCH  58  75
ENDBRANCH  32  33
ENDBRANCH  25  27
ENDBRANCH  24  25
ENDBRANCH  23  24
ENDBRANCH  22  23
ENDBRANCH   1  22
TORSDOF 16
ENDMDL
MODEL 2
REMARK VINA RESULT:      -8.6      0.422      6.319
REMARK SMILES CCOc1ccc2[nH]c(=O)c(C(=O)OCCOCCOC(=O)c3ccc(-c4c5nc(c(-c6c(F)cccc6F)c6ccc([nH]6)c(-c6c(F)cccc6F)c6nc(c(-c7c(F)cccc7F)c7ccc4[nH]7)C=C6)C=C5)cc3)cc2c1
REMARK SMILES IDX 17 1 16 2 15 3 14 4 12 5 13 6 11 7 4 8 5 9 79 10 6 11 78 12
REMARK SMILES IDX 7 13 77 14 8 15 9 16 10 18 3 19 2 20 1 21 18 22 19 23 20 24
REMARK SMILES IDX 21 25 22 26 23 27 24 28 76 29 25 30 75 31 26 32 27 33 28 34
REMARK SMILES IDX 69 35 29 36 74 37 68 38 70 39 30 40 73 41 67 42 66 43 31 45
REMARK SMILES IDX 57 46 40 47 56 48 41 49 44 50 55 51 71 52 42 53 43 54 54 56
REMARK SMILES IDX 72 57 45 58 32 59 33 60 38 61 34 62 35 63 37 64 39 65 36 66
REMARK SMILES IDX 58 67 59 68 64 69 60 70 61 71 63 72 65 73 62 74 46 75 47 76
REMARK SMILES IDX 52 77 48 78 49 79 51 80 53 81 50 82
REMARK H PARENT 8 17 70 44 44 55
REMARK Flexibility Score: inf
ROOT
ATOM      1  O   UNL A   1      33.161  36.290  32.784  1.00  0.00    -0.374 OA
ENDROOT
BRANCH   1   2
ATOM      2  C   UNL A   1      34.368  36.170  33.540  1.00  0.00     0.202 C 
BRANCH   2   3
ATOM      3  C   UNL A   1      35.468  35.342  32.873  1.00  0.00     0.261 C 
BRANCH   3   4
ATOM      4  O   UNL A   1      36.319  34.756  33.870  1.00  0.00    -0.459 OA
BRANCH   4   5
ATOM      5  C   UNL A   1      36.052  33.472  34.206  1.00  0.00     0.343 C 
ATOM      6  O   UNL A   1      35.019  32.867  33.955  1.00  0.00    -0.246 OA
BRANCH   5   7
ATOM      7  C   UNL A   1      37.249  32.821  34.779  1.00  0.00     0.125 A 
ATOM      8  C   UNL A   1      40.894  29.690  34.083  1.00  0.00     0.120 A 
ATOM      9  C   UNL A   1      41.382  29.956  35.362  1.00  0.00     0.048 A 
ATOM     10  C   UNL A   1      39.765  30.350  33.598  1.00  0.00     0.056 A 
ATOM     11  C   UNL A   1      40.716  30.861  36.188  1.00  0.00     0.030 A 
ATOM     12  C   UNL A   1      39.093  31.256  34.422  1.00  0.00     0.003 A 
ATOM     13  C   UNL A   1      39.577  31.509  35.713  1.00  0.00     0.049 A 
ATOM     14  C   UNL A   1      37.889  31.952  33.973  1.00  0.00     0.032 A 
ATOM     15  N   UNL A   1      38.909  32.435  36.524  1.00  0.00    -0.321 N 
ATOM     16  C   UNL A   1      37.776  33.112  36.141  1.00  0.00     0.263 A 
ATOM     17  H   UNL A   1      39.272  32.610  37.422  1.00  0.00     0.170 HD
ATOM     18  O   UNL A   1      37.238  33.897  36.914  1.00  0.00    -0.269 OA
BRANCH   8  19
ATOM     19  O   UNL A   1      41.588  28.858  33.250  1.00  0.00    -0.494 OA
BRANCH  19  20
ATOM     20  C   UNL A   1      42.159  27.743  33.946  1.00  0.00     0.226 C 
ATOM     21  C   UNL A   1      42.761  26.742  32.973  1.00  0.00     0.049 C 
ENDBRANCH  19  20
ENDBRANCH   8  19
ENDBRANCH   5   7
ENDBRANCH   4   5
ENDBRANCH   3   4
ENDBRANCH   2   3
ENDBRANCH   1   2
BRANCH   1  22
ATOM     22  C   UNL A   1      33.213  37.117  31.619  1.00  0.00     0.202 C 
BRANCH  22  23
ATOM     23  C   UNL A   1      32.761  36.451  30.313  1.00  0.00     0.261 C 
BRANCH  23  24
ATOM     24  O   UNL A   1      32.857  35.016  30.389  1.00  0.00    -0.460 OA
BRANCH  24  25
ATOM     25  C   UNL A   1      33.123  34.399  29.215  1.00  0.00     0.338 C 
ATOM     26  O   UNL A   1      32.485  34.478  28.174  1.00  0.00    -0.246 OA
BRANCH  25  27
ATOM     27  C   UNL A   1      34.426  33.711  29.289  1.00  0.00     0.060 A 
ATOM     28  C   UNL A   1      34.656  32.881  30.394  1.00  0.00     0.016 A 
ATOM     29  C   UNL A   1      35.428  33.921  28.340  1.00  0.00     0.016 A 
ATOM     30  C   UNL A   1      35.907  32.298  30.582  1.00  0.00     0.010 A 
ATOM     31  C   UNL A   1      36.687  33.341  28.533  1.00  0.00     0.010 A 
ATOM     32  C   UNL A   1      36.941  32.556  29.673  1.00  0.00    -0.014 A 
BRANCH  32  33
ATOM     33  C   UNL A   1      38.321  32.118  29.992  1.00  0.00     0.031 A 
ATOM     34  C   UNL A   1      38.813  30.802  29.461  1.00  0.00     0.074 A 
ATOM     35  C   UNL A   1      39.137  32.897  30.724  1.00  0.00     0.049 A 
ATOM     36  N   UNL A   1      39.971  30.216  29.633  1.00  0.00    -0.248 NA
ATOM     37  C   UNL A   1      37.873  30.042  28.621  1.00  0.00     0.031 C 
ATOM     38  C   UNL A   1      38.788  34.207  31.270  1.00  0.00     0.029 A 
ATOM     39  N   UNL A   1      40.428  32.689  31.139  1.00  0.00    -0.354 N 
ATOM     40  C   UNL A   1      39.896  29.019  28.931  1.00  0.00     0.074 A 
ATOM     41  C   UNL A   1      38.570  28.949  28.355  1.00  0.00     0.031 C 
ATOM     42  C   UNL A   1      39.841  34.684  31.958  1.00  0.00     0.029 A 
ATOM     43  C   UNL A   1      40.922  33.702  31.924  1.00  0.00     0.049 A 
ATOM     44  H   UNL A   1      40.950  31.891  30.897  1.00  0.00     0.167 HD
ATOM     45  C   UNL A   1      40.849  28.070  28.772  1.00  0.00     0.037 A 
ATOM     46  C   UNL A   1      42.105  33.812  32.558  1.00  0.00     0.037 A 
ATOM     47  C   UNL A   1      42.167  28.140  29.346  1.00  0.00     0.049 A 
ATOM     48  C   UNL A   1      43.125  32.714  32.421  1.00  0.00     0.074 A 
ATOM     49  C   UNL A   1      43.211  27.240  29.222  1.00  0.00     0.029 A 
ATOM     50  N   UNL A   1      42.619  29.167  30.160  1.00  0.00    -0.354 N 
ATOM     51  N   UNL A   1      43.056  31.601  31.732  1.00  0.00    -0.248 NA
ATOM     52  C   UNL A   1      44.389  32.889  33.151  1.00  0.00     0.031 C 
ATOM     53  C   UNL A   1      44.279  27.700  30.000  1.00  0.00     0.029 A 
ATOM     54  C   UNL A   1      43.918  28.911  30.568  1.00  0.00     0.049 A 
ATOM     55  H   UNL A   1      42.095  29.963  30.410  1.00  0.00     0.167 HD
ATOM     56  C   UNL A   1      44.273  30.958  31.922  1.00  0.00     0.074 A 
ATOM     57  C   UNL A   1      45.065  31.810  32.784  1.00  0.00     0.031 C 
ATOM     58  C   UNL A   1      44.696  29.769  31.425  1.00  0.00     0.037 A 
BRANCH  45  59
ATOM     59  C   UNL A   1      40.485  26.860  27.964  1.00  0.00     0.057 A 
ATOM     60  C   UNL A   1      40.956  26.672  26.658  1.00  0.00     0.134 A 
ATOM     61  C   UNL A   1      39.667  25.860  28.505  1.00  0.00     0.134 A 
ATOM     62  F   UNL A   1      41.732  27.599  26.075  1.00  0.00    -0.206 F 
ATOM     63  C   UNL A   1      40.605  25.546  25.910  1.00  0.00     0.040 A 
ATOM     64  C   UNL A   1      39.330  24.718  27.778  1.00  0.00     0.040 A 
ATOM     65  F   UNL A   1      39.186  25.975  29.752  1.00  0.00    -0.206 F 
ATOM     66  C   UNL A   1      39.794  24.562  26.473  1.00  0.00     0.006 A 
ENDBRANCH  45  59
BRANCH  46  67
ATOM     67  C   UNL A   1      42.387  35.007  33.391  1.00  0.00     0.057 A 
ATOM     68  C   UNL A   1      42.028  35.051  34.743  1.00  0.00     0.134 A 
ATOM     69  C   UNL A   1      43.014  36.137  32.852  1.00  0.00     0.134 A 
ATOM     70  F   UNL A   1      41.402  34.008  35.309  1.00  0.00    -0.206 F 
ATOM     71  C   UNL A   1      42.273  36.179  35.527  1.00  0.00     0.040 A 
ATOM     72  C   UNL A   1      43.287  37.263  33.630  1.00  0.00     0.040 A 
ATOM     73  F   UNL A   1      43.380  36.158  31.562  1.00  0.00    -0.206 F 
ATOM     74  C   UNL A   1      42.911  37.287  34.971  1.00  0.00     0.006 A 
ENDBRANCH  46  67
BRANCH  58  75
ATOM     75  C   UNL A   1      46.088  29.333  31.776  1.00  0.00     0.057 A 
ATOM     76  C   UNL A   1      47.181  29.603  30.942  1.00  0.00     0.134 A 
ATOM     77  C   UNL A   1      46.344  28.670  32.983  1.00  0.00     0.134 A 
ATOM     78  F   UNL A   1      47.001  30.223  29.767  1.00  0.00    -0.206 F 
ATOM     79  C   UNL A   1      48.476  29.211  31.288  1.00  0.00     0.040 A 
ATOM     80  C   UNL A   1      47.637  28.295  33.351  1.00  0.00     0.040 A 
ATOM     81  F   UNL A   1      45.345  28.387  33.831  1.00  0.00    -0.206 F 
ATOM     82  C   UNL A   1      48.707  28.562  32.498  1.00  0.00     0.006 A 
ENDBRANCH  58  75
ENDBRANCH  32  33
ENDBRANCH  25  27
ENDBRANCH  24  25
ENDBRANCH  23  24
ENDBRANCH  22  23
ENDBRANCH   1  22
TORSDOF 16
ENDMDL
MODEL 3
REMARK VINA RESULT:      -8.5      4.940     11.197
REMARK SMILES CCOc1ccc2[nH]c(=O)c(C(=O)OCCOCCOC(=O)c3ccc(-c4c5nc(c(-c6c(F)cccc6F)c6ccc([nH]6)c(-c6c(F)cccc6F)c6nc(c(-c7c(F)cccc7F)c7ccc4[nH]7)C=C6)C=C5)cc3)cc2c1
REMARK SMILES IDX 17 1 16 2 15 3 14 4 12 5 13 6 11 7 4 8 5 9 79 10 6 11 78 12
REMARK SMILES IDX 7 13 77 14 8 15 9 16 10 18 3 19 2 20 1 21 18 22 19 23 20 24
REMARK SMILES IDX 21 25 22 26 23 27 24 28 76 29 25 30 75 31 26 32 27 33 28 34
REMARK SMILES IDX 69 35 29 36 74 37 68 38 70 39 30 40 73 41 67 42 66 43 31 45
REMARK SMILES IDX 57 46 40 47 56 48 41 49 44 50 55 51 71 52 42 53 43 54 54 56
REMARK SMILES IDX 72 57 45 58 32 59 33 60 38 61 34 62 35 63 37 64 39 65 36 66
REMARK SMILES IDX 58 67 59 68 64 69 60 70 61 71 63 72 65 73 62 74 46 75 47 76
REMARK SMILES IDX 52 77 48 78 49 79 51 80 53 81 50 82
REMARK H PARENT 8 17 70 44 44 55
REMARK Flexibility Score: inf
ROOT
ATOM      1  O   UNL A   1      42.027  20.849  26.736  1.00  0.00    -0.374 OA
ENDROOT
BRANCH   1   2
ATOM      2  C   UNL A   1      40.662  20.790  26.316  1.00  0.00     0.202 C 
BRANCH   2   3
ATOM      3  C   UNL A   1      39.810  21.996  26.718  1.00  0.00     0.261 C 
BRANCH   3   4
ATOM      4  O   UNL A   1      38.630  22.062  25.902  1.00  0.00    -0.459 OA
BRANCH   4   5
ATOM      5  C   UNL A   1      37.958  23.236  25.914  1.00  0.00     0.343 C 
ATOM      6  O   UNL A   1      38.442  24.336  26.144  1.00  0.00    -0.246 OA
BRANCH   5   7
ATOM      7  C   UNL A   1      36.569  23.051  25.442  1.00  0.00     0.125 A 
ATOM      8  C   UNL A   1      31.859  22.953  26.614  1.00  0.00     0.120 A 
ATOM      9  C   UNL A   1      31.521  22.706  25.284  1.00  0.00     0.048 A 
ATOM     10  C   UNL A   1      33.190  23.131  26.992  1.00  0.00     0.056 A 
ATOM     11  C   UNL A   1      32.523  22.593  24.320  1.00  0.00     0.030 A 
ATOM     12  C   UNL A   1      34.197  23.017  26.030  1.00  0.00     0.003 A 
ATOM     13  C   UNL A   1      33.855  22.753  24.697  1.00  0.00     0.049 A 
ATOM     14  C   UNL A   1      35.609  23.166  26.378  1.00  0.00     0.032 A 
ATOM     15  N   UNL A   1      34.870  22.662  23.737  1.00  0.00    -0.321 N 
ATOM     16  C   UNL A   1      36.208  22.797  24.020  1.00  0.00     0.263 A 
ATOM     17  H   UNL A   1      34.609  22.490  22.803  1.00  0.00     0.170 HD
ATOM     18  O   UNL A   1      37.040  22.689  23.126  1.00  0.00    -0.269 OA
BRANCH   8  19
ATOM     19  O   UNL A   1      30.873  23.134  27.544  1.00  0.00    -0.494 OA
BRANCH  19  20
ATOM     20  C   UNL A   1      29.579  23.274  26.944  1.00  0.00     0.226 C 
ATOM     21  C   UNL A   1      28.586  22.300  27.558  1.00  0.00     0.049 C 
ENDBRANCH  19  20
ENDBRANCH   8  19
ENDBRANCH   5   7
ENDBRANCH   4   5
ENDBRANCH   3   4
ENDBRANCH   2   3
ENDBRANCH   1   2
BRANCH   1  22
ATOM     22  C   UNL A   1      43.016  20.569  25.743  1.00  0.00     0.202 C 
BRANCH  22  23
ATOM     23  C   UNL A   1      43.940  21.738  25.379  1.00  0.00     0.261 C 
BRANCH  23  24
ATOM     24  O   UNL A   1      43.191  22.919  25.036  1.00  0.00    -0.460 OA
BRANCH  24  25
ATOM     25  C   UNL A   1      43.873  24.081  25.150  1.00  0.00     0.338 C 
ATOM     26  O   UNL A   1      44.859  24.428  24.514  1.00  0.00    -0.246 OA
BRANCH  25  27
ATOM     27  C   UNL A   1      43.161  24.998  26.060  1.00  0.00     0.060 A 
ATOM     28  C   UNL A   1      43.679  26.290  26.209  1.00  0.00     0.016 A 
ATOM     29  C   UNL A   1      42.053  24.588  26.806  1.00  0.00     0.016 A 
ATOM     30  C   UNL A   1      43.123  27.163  27.142  1.00  0.00     0.010 A 
ATOM     31  C   UNL A   1      41.500  25.462  27.748  1.00  0.00     0.010 A 
ATOM     32  C   UNL A   1      42.054  26.740  27.944  1.00  0.00    -0.014 A 
BRANCH  32  33
ATOM     33  C   UNL A   1      41.614  27.586  29.079  1.00  0.00     0.031 A 
ATOM     34  C   UNL A   1      42.353  27.501  30.385  1.00  0.00     0.074 A 
ATOM     35  C   UNL A   1      40.585  28.440  28.941  1.00  0.00     0.049 A 
ATOM     36  N   UNL A   1      42.128  28.130  31.511  1.00  0.00    -0.248 NA
ATOM     37  C   UNL A   1      43.501  26.581  30.428  1.00  0.00     0.031 C 
ATOM     38  C   UNL A   1      39.809  28.637  27.718  1.00  0.00     0.029 A 
ATOM     39  N   UNL A   1      40.014  29.298  29.847  1.00  0.00    -0.354 N 
ATOM     40  C   UNL A   1      43.099  27.680  32.396  1.00  0.00     0.074 A 
ATOM     41  C   UNL A   1      43.897  26.702  31.686  1.00  0.00     0.031 C 
ATOM     42  C   UNL A   1      38.854  29.554  27.954  1.00  0.00     0.029 A 
ATOM     43  C   UNL A   1      38.934  29.984  29.349  1.00  0.00     0.049 A 
ATOM     44  H   UNL A   1      40.346  29.410  30.767  1.00  0.00     0.167 HD
ATOM     45  C   UNL A   1      43.313  28.053  33.680  1.00  0.00     0.037 A 
ATOM     46  C   UNL A   1      38.096  30.845  29.956  1.00  0.00     0.037 A 
ATOM     47  C   UNL A   1      42.519  29.025  34.385  1.00  0.00     0.049 A 
ATOM     48  C   UNL A   1      38.314  31.197  31.403  1.00  0.00     0.074 A 
ATOM     49  C   UNL A   1      42.672  29.488  35.680  1.00  0.00     0.029 A 
ATOM     50  N   UNL A   1      41.415  29.675  33.855  1.00  0.00    -0.354 N 
ATOM     51  N   UNL A   1      39.251  30.789  32.222  1.00  0.00    -0.248 NA
ATOM     52  C   UNL A   1      37.354  32.132  32.009  1.00  0.00     0.031 C 
ATOM     53  C   UNL A   1      41.631  30.385  35.948  1.00  0.00     0.029 A 
ATOM     54  C   UNL A   1      40.861  30.517  34.805  1.00  0.00     0.049 A 
ATOM     55  H   UNL A   1      41.076  29.558  32.938  1.00  0.00     0.167 HD
ATOM     56  C   UNL A   1      39.013  31.434  33.429  1.00  0.00     0.074 A 
ATOM     57  C   UNL A   1      37.846  32.269  33.232  1.00  0.00     0.031 C 
ATOM     58  C   UNL A   1      39.700  31.344  34.595  1.00  0.00     0.037 A 
BRANCH  45  59
ATOM     59  C   UNL A   1      44.439  27.385  34.411  1.00  0.00     0.057 A 
ATOM     60  C   UNL A   1      45.714  27.960  34.492  1.00  0.00     0.134 A 
ATOM     61  C   UNL A   1      44.242  26.159  35.058  1.00  0.00     0.134 A 
ATOM     62  F   UNL A   1      45.974  29.127  33.882  1.00  0.00    -0.206 F 
ATOM     63  C   UNL A   1      46.759  27.327  35.168  1.00  0.00     0.040 A 
ATOM     64  C   UNL A   1      45.271  25.529  35.758  1.00  0.00     0.040 A 
ATOM     65  F   UNL A   1      43.045  25.556  35.023  1.00  0.00    -0.206 F 
ATOM     66  C   UNL A   1      46.537  26.110  35.809  1.00  0.00     0.006 A 
ENDBRANCH  45  59
BRANCH  46  67
ATOM     67  C   UNL A   1      36.964  31.432  29.196  1.00  0.00     0.057 A 
ATOM     68  C   UNL A   1      37.022  32.739  28.701  1.00  0.00     0.134 A 
ATOM     69  C   UNL A   1      35.794  30.701  28.955  1.00  0.00     0.134 A 
ATOM     70  F   UNL A   1      38.107  33.497  28.922  1.00  0.00    -0.206 F 
ATOM     71  C   UNL A   1      35.954  33.304  28.002  1.00  0.00     0.040 A 
ATOM     72  C   UNL A   1      34.728  31.244  28.237  1.00  0.00     0.040 A 
ATOM     73  F   UNL A   1      35.677  29.444  29.405  1.00  0.00    -0.206 F 
ATOM     74  C   UNL A   1      34.805  32.552  27.763  1.00  0.00     0.006 A 
ENDBRANCH  46  67
BRANCH  58  75
ATOM     75  C   UNL A   1      39.228  32.193  35.739  1.00  0.00     0.057 A 
ATOM     76  C   UNL A   1      39.638  33.523  35.894  1.00  0.00     0.134 A 
ATOM     77  C   UNL A   1      38.318  31.684  36.675  1.00  0.00     0.134 A 
ATOM     78  F   UNL A   1      40.517  34.066  35.039  1.00  0.00    -0.206 F 
ATOM     79  C   UNL A   1      39.175  34.310  36.951  1.00  0.00     0.040 A 
ATOM     80  C   UNL A   1      37.829  32.468  37.721  1.00  0.00     0.040 A 
ATOM     81  F   UNL A   1      37.877  30.420  36.580  1.00  0.00    -0.206 F 
ATOM     82  C   UNL A   1      38.264  33.785  37.863  1.00  0.00     0.006 A 
ENDBRANCH  58  75
ENDBRANCH  32  33
ENDBRANCH  25  27
ENDBRANCH  24  25
ENDBRANCH  23  24
ENDBRANCH  22  23
ENDBRANCH   1  22
TORSDOF 16
ENDMDL
