MODEL 1
REMARK VINA RESULT:     -10.2      0.000      0.000
REMARK SMILES CC(C)[C@@](C)(CC(=O)NC[C@@H]1C[N@@H+](C)CCO1)C(=O)OCCOCCOC(=O)c1ccc(-c2c3nc(c(-c4c(F)cccc4F)c4ccc([nH]4)c(-c4c(F)cccc4F)c4nc(c(-c5c(F)cccc5F)c5ccc2[nH]5)C=C4)C=C3)cc1
REMARK SMILES IDX 22 1 21 2 20 3 18 4 19 5 4 6 5 7 2 8 1 9 3 10 6 11 7 12 8 13
REMARK SMILES IDX 9 14 10 16 11 17 12 18 17 19 13 20 16 21 14 22 15 23 23 25
REMARK SMILES IDX 24 26 25 27 26 28 27 29 28 30 29 31 30 32 82 33 31 34 81 35
REMARK SMILES IDX 32 36 33 37 34 38 75 39 35 40 80 41 74 42 76 43 36 44 79 45
REMARK SMILES IDX 73 46 72 47 37 49 63 50 46 51 62 52 47 53 50 54 61 55 77 56
REMARK SMILES IDX 48 57 49 58 60 60 78 61 51 62 38 63 39 64 44 65 40 66 41 67
REMARK SMILES IDX 43 68 45 69 42 70 64 71 65 72 70 73 66 74 67 75 69 76 71 77
REMARK SMILES IDX 68 78 52 79 53 80 58 81 54 82 55 83 57 84 59 85 56 86
REMARK H PARENT 9 15 13 24 76 48 50 59
REMARK Flexibility Score: inf
ROOT
ATOM      1  C   UNL A   1      32.935  29.356  26.895  1.00  0.00     0.202 C 
ENDROOT
BRANCH   1   2
ATOM      2  C   UNL A   1      32.988  27.943  26.315  1.00  0.00     0.261 C 
BRANCH   2   3
ATOM      3  O   UNL A   1      32.523  27.870  24.947  1.00  0.00    -0.463 OA
BRANCH   3   4
ATOM      4  C   UNL A   1      31.600  26.890  24.776  1.00  0.00     0.312 C 
ATOM      5  O   UNL A   1      31.366  26.047  25.640  1.00  0.00    -0.252 OA
BRANCH   4   6
ATOM      6  C   UNL A   1      30.759  27.003  23.486  1.00  0.00     0.076 C 
ATOM      7  C   UNL A   1      29.560  26.037  23.759  1.00  0.00     0.024 C 
BRANCH   6   8
ATOM      8  C   UNL A   1      30.256  28.474  23.329  1.00  0.00     0.000 C 
ATOM      9  C   UNL A   1      30.946  29.310  22.243  1.00  0.00     0.008 C 
ATOM     10  C   UNL A   1      28.754  28.580  23.055  1.00  0.00     0.008 C 
ENDBRANCH   6   8
BRANCH   6  11
ATOM     11  C   UNL A   1      31.382  26.400  22.190  1.00  0.00     0.118 C 
BRANCH  11  12
ATOM     12  C   UNL A   1      32.681  25.622  22.123  1.00  0.00     0.221 C 
ATOM     13  O   UNL A   1      33.718  26.215  21.805  1.00  0.00    -0.275 OA
ATOM     14  N   UNL A   1      32.836  24.337  22.519  1.00  0.00    -0.353 N 
ATOM     15  H   UNL A   1      33.749  24.005  22.353  1.00  0.00     0.163 HD
BRANCH  14  16
ATOM     16  C   UNL A   1      31.985  23.321  23.132  1.00  0.00     0.153 C 
BRANCH  16  17
ATOM     17  C   UNL A   1      32.315  22.944  24.614  1.00  0.00     0.192 C 
ATOM     18  C   UNL A   1      33.829  22.935  24.928  1.00  0.00     0.296 C 
ATOM     19  O   UNL A   1      31.706  21.731  25.098  1.00  0.00    -0.365 OA
ATOM     20  N   UNL A   1      34.484  21.756  24.329  1.00  0.00    -0.333 N 
ATOM     21  C   UNL A   1      32.353  20.529  24.675  1.00  0.00     0.222 C 
ATOM     22  C   UNL A   1      35.923  21.764  24.586  1.00  0.00     0.332 C 
ATOM     23  C   UNL A   1      33.868  20.545  24.906  1.00  0.00     0.290 C 
ATOM     24  H   UNL A   1      34.357  21.774  23.317  1.00  0.00     0.348 HD
ENDBRANCH  16  17
ENDBRANCH  14  16
ENDBRANCH  11  12
ENDBRANCH   6  11
ENDBRANCH   4   6
ENDBRANCH   3   4
ENDBRANCH   2   3
ENDBRANCH   1   2
BRANCH   1  25
ATOM     25  O   UNL A   1      32.611  30.419  25.996  1.00  0.00    -0.374 OA
BRANCH  25  26
ATOM     26  C   UNL A   1      31.387  31.108  26.243  1.00  0.00     0.202 C 
BRANCH  26  27
ATOM     27  C   UNL A   1      31.478  32.443  26.984  1.00  0.00     0.261 C 
BRANCH  27  28
ATOM     28  O   UNL A   1      32.772  33.046  26.853  1.00  0.00    -0.460 OA
BRANCH  28  29
ATOM     29  C   UNL A   1      33.289  33.521  28.007  1.00  0.00     0.338 C 
ATOM     30  O   UNL A   1      32.746  34.236  28.830  1.00  0.00    -0.246 OA
BRANCH  29  31
ATOM     31  C   UNL A   1      34.583  32.869  28.263  1.00  0.00     0.060 A 
ATOM     32  C   UNL A   1      34.541  31.523  28.652  1.00  0.00     0.016 A 
ATOM     33  C   UNL A   1      35.796  33.557  28.188  1.00  0.00     0.016 A 
ATOM     34  C   UNL A   1      35.710  30.873  29.026  1.00  0.00     0.010 A 
ATOM     35  C   UNL A   1      36.968  32.908  28.588  1.00  0.00     0.010 A 
ATOM     36  C   UNL A   1      36.919  31.579  29.048  1.00  0.00    -0.014 A 
BRANCH  36  37
ATOM     37  C   UNL A   1      38.071  30.967  29.748  1.00  0.00     0.031 A 
ATOM     38  C   UNL A   1      38.280  31.297  31.200  1.00  0.00     0.074 A 
ATOM     39  C   UNL A   1      38.859  30.071  29.129  1.00  0.00     0.049 A 
ATOM     40  N   UNL A   1      39.189  30.857  32.031  1.00  0.00    -0.248 NA
ATOM     41  C   UNL A   1      37.326  32.245  31.799  1.00  0.00     0.031 C 
ATOM     42  C   UNL A   1      38.710  29.632  27.742  1.00  0.00     0.029 A 
ATOM     43  N   UNL A   1      39.935  29.361  29.596  1.00  0.00    -0.354 N 
ATOM     44  C   UNL A   1      38.918  31.474  33.246  1.00  0.00     0.074 A 
ATOM     45  C   UNL A   1      37.779  32.340  33.041  1.00  0.00     0.031 C 
ATOM     46  C   UNL A   1      39.666  28.728  27.469  1.00  0.00     0.029 A 
ATOM     47  C   UNL A   1      40.507  28.547  28.650  1.00  0.00     0.049 A 
ATOM     48  H   UNL A   1      40.266  29.430  30.520  1.00  0.00     0.167 HD
ATOM     49  C   UNL A   1      39.558  31.324  34.428  1.00  0.00     0.037 A 
ATOM     50  C   UNL A   1      41.596  27.760  28.732  1.00  0.00     0.037 A 
ATOM     51  C   UNL A   1      40.693  30.461  34.623  1.00  0.00     0.049 A 
ATOM     52  C   UNL A   1      42.341  27.673  30.038  1.00  0.00     0.074 A 
ATOM     53  C   UNL A   1      41.412  30.230  35.783  1.00  0.00     0.029 A 
ATOM     54  N   UNL A   1      41.279  29.694  33.627  1.00  0.00    -0.354 N 
ATOM     55  N   UNL A   1      42.068  28.245  31.187  1.00  0.00    -0.248 NA
ATOM     56  C   UNL A   1      43.545  26.831  30.060  1.00  0.00     0.031 C 
ATOM     57  C   UNL A   1      42.465  29.364  35.475  1.00  0.00     0.029 A 
ATOM     58  C   UNL A   1      42.369  29.011  34.138  1.00  0.00     0.049 A 
ATOM     59  H   UNL A   1      40.966  29.644  32.696  1.00  0.00     0.167 HD
ATOM     60  C   UNL A   1      43.045  27.810  32.074  1.00  0.00     0.074 A 
ATOM     61  C   UNL A   1      43.910  26.915  31.332  1.00  0.00     0.031 C 
ATOM     62  C   UNL A   1      43.212  28.119  33.383  1.00  0.00     0.037 A 
BRANCH  49  63
ATOM     63  C   UNL A   1      39.067  32.137  35.590  1.00  0.00     0.057 A 
ATOM     64  C   UNL A   1      38.239  31.594  36.580  1.00  0.00     0.134 A 
ATOM     65  C   UNL A   1      39.450  33.477  35.731  1.00  0.00     0.134 A 
ATOM     66  F   UNL A   1      37.822  30.321  36.496  1.00  0.00    -0.206 F 
ATOM     67  C   UNL A   1      37.792  32.360  37.658  1.00  0.00     0.040 A 
ATOM     68  C   UNL A   1      39.031  34.246  36.817  1.00  0.00     0.040 A 
ATOM     69  F   UNL A   1      40.243  34.059  34.818  1.00  0.00    -0.206 F 
ATOM     70  C   UNL A   1      38.195  33.689  37.783  1.00  0.00     0.006 A 
ENDBRANCH  49  63
BRANCH  50  71
ATOM     71  C   UNL A   1      42.062  27.003  27.541  1.00  0.00     0.057 A 
ATOM     72  C   UNL A   1      42.876  27.598  26.570  1.00  0.00     0.134 A 
ATOM     73  C   UNL A   1      41.681  25.671  27.333  1.00  0.00     0.134 A 
ATOM     74  F   UNL A   1      43.255  28.878  26.699  1.00  0.00    -0.206 F 
ATOM     75  C   UNL A   1      43.280  26.902  25.428  1.00  0.00     0.040 A 
ATOM     76  C   UNL A   1      42.099  24.956  26.210  1.00  0.00     0.040 A 
ATOM     77  F   UNL A   1      40.900  25.043  28.225  1.00  0.00    -0.206 F 
ATOM     78  C   UNL A   1      42.895  25.575  25.249  1.00  0.00     0.006 A 
ENDBRANCH  50  71
BRANCH  62  79
ATOM     79  C   UNL A   1      44.349  27.459  34.105  1.00  0.00     0.057 A 
ATOM     80  C   UNL A   1      45.599  28.075  34.242  1.00  0.00     0.134 A 
ATOM     81  C   UNL A   1      44.177  26.206  34.710  1.00  0.00     0.134 A 
ATOM     82  F   UNL A   1      45.833  29.270  33.679  1.00  0.00    -0.206 F 
ATOM     83  C   UNL A   1      46.643  27.460  34.935  1.00  0.00     0.040 A 
ATOM     84  C   UNL A   1      45.204  25.594  35.428  1.00  0.00     0.040 A 
ATOM     85  F   UNL A   1      43.000  25.565  34.626  1.00  0.00    -0.206 F 
ATOM     86  C   UNL A   1      46.444  26.218  35.536  1.00  0.00     0.006 A 
ENDBRANCH  62  79
ENDBRANCH  36  37
ENDBRANCH  29  31
ENDBRANCH  28  29
ENDBRANCH  27  28
ENDBRANCH  26  27
ENDBRANCH  25  26
ENDBRANCH   1  25
TORSDOF 19
ENDMDL
MODEL 2
REMARK VINA RESULT:     -10.0      3.870      9.390
REMARK SMILES CC(C)[C@@](C)(CC(=O)NC[C@@H]1C[N@@H+](C)CCO1)C(=O)OCCOCCOC(=O)c1ccc(-c2c3nc(c(-c4c(F)cccc4F)c4ccc([nH]4)c(-c4c(F)cccc4F)c4nc(c(-c5c(F)cccc5F)c5ccc2[nH]5)C=C4)C=C3)cc1
REMARK SMILES IDX 22 1 21 2 20 3 18 4 19 5 4 6 5 7 2 8 1 9 3 10 6 11 7 12 8 13
REMARK SMILES IDX 9 14 10 16 11 17 12 18 17 19 13 20 16 21 14 22 15 23 23 25
REMARK SMILES IDX 24 26 25 27 26 28 27 29 28 30 29 31 30 32 82 33 31 34 81 35
REMARK SMILES IDX 32 36 33 37 34 38 75 39 35 40 80 41 74 42 76 43 36 44 79 45
REMARK SMILES IDX 73 46 72 47 37 49 63 50 46 51 62 52 47 53 50 54 61 55 77 56
REMARK SMILES IDX 48 57 49 58 60 60 78 61 51 62 38 63 39 64 44 65 40 66 41 67
REMARK SMILES IDX 43 68 45 69 42 70 64 71 65 72 70 73 66 74 67 75 69 76 71 77
REMARK SMILES IDX 68 78 52 79 53 80 58 81 54 82 55 83 57 84 59 85 56 86
REMARK H PARENT 9 15 13 24 76 48 50 59
REMARK Flexibility Score: inf
ROOT
ATOM      1  C   UNL A   1      34.240  18.673  24.594  1.00  0.00     0.202 C 
ENDROOT
BRANCH   1   2
ATOM      2  C   UNL A   1      33.587  19.390  25.775  1.00  0.00     0.261 C 
BRANCH   2   3
ATOM      3  O   UNL A   1      32.705  20.465  25.374  1.00  0.00    -0.463 OA
BRANCH   3   4
ATOM      4  C   UNL A   1      32.978  21.619  26.033  1.00  0.00     0.312 C 
ATOM      5  O   UNL A   1      33.384  21.635  27.193  1.00  0.00    -0.252 OA
BRANCH   4   6
ATOM      6  C   UNL A   1      32.891  22.898  25.172  1.00  0.00     0.076 C 
ATOM      7  C   UNL A   1      33.762  23.923  25.972  1.00  0.00     0.024 C 
BRANCH   6   8
ATOM      8  C   UNL A   1      33.521  22.618  23.770  1.00  0.00     0.000 C 
ATOM      9  C   UNL A   1      32.809  23.258  22.572  1.00  0.00     0.008 C 
ATOM     10  C   UNL A   1      34.989  23.036  23.665  1.00  0.00     0.008 C 
ENDBRANCH   6   8
BRANCH   6  11
ATOM     11  C   UNL A   1      31.505  23.611  25.118  1.00  0.00     0.118 C 
BRANCH  11  12
ATOM     12  C   UNL A   1      30.802  24.249  26.300  1.00  0.00     0.221 C 
ATOM     13  O   UNL A   1      30.456  23.537  27.248  1.00  0.00    -0.275 OA
ATOM     14  N   UNL A   1      30.635  25.582  26.474  1.00  0.00    -0.353 N 
ATOM     15  H   UNL A   1      30.115  25.788  27.285  1.00  0.00     0.163 HD
BRANCH  14  16
ATOM     16  C   UNL A   1      31.035  26.790  25.757  1.00  0.00     0.153 C 
BRANCH  16  17
ATOM     17  C   UNL A   1      30.522  26.923  24.285  1.00  0.00     0.192 C 
ATOM     18  C   UNL A   1      31.605  26.621  23.223  1.00  0.00     0.296 C 
ATOM     19  O   UNL A   1      29.855  28.161  23.969  1.00  0.00    -0.365 OA
ATOM     20  N   UNL A   1      32.582  27.725  23.138  1.00  0.00    -0.333 N 
ATOM     21  C   UNL A   1      30.730  29.267  23.738  1.00  0.00     0.222 C 
ATOM     22  C   UNL A   1      33.632  27.426  22.167  1.00  0.00     0.332 C 
ATOM     23  C   UNL A   1      31.858  28.951  22.750  1.00  0.00     0.290 C 
ATOM     24  H   UNL A   1      33.033  27.850  24.044  1.00  0.00     0.348 HD
ENDBRANCH  16  17
ENDBRANCH  14  16
ENDBRANCH  11  12
ENDBRANCH   6  11
ENDBRANCH   4   6
ENDBRANCH   3   4
ENDBRANCH   2   3
ENDBRANCH   1   2
BRANCH   1  25
ATOM     25  O   UNL A   1      35.667  18.590  24.587  1.00  0.00    -0.374 OA
BRANCH  25  26
ATOM     26  C   UNL A   1      36.373  19.775  24.944  1.00  0.00     0.202 C 
BRANCH  26  27
ATOM     27  C   UNL A   1      37.900  19.684  25.000  1.00  0.00     0.261 C 
BRANCH  27  28
ATOM     28  O   UNL A   1      38.495  20.896  25.480  1.00  0.00    -0.460 OA
BRANCH  28  29
ATOM     29  C   UNL A   1      39.665  20.727  26.134  1.00  0.00     0.338 C 
ATOM     30  O   UNL A   1      40.424  19.777  26.072  1.00  0.00    -0.246 OA
BRANCH  29  31
ATOM     31  C   UNL A   1      40.032  21.985  26.804  1.00  0.00     0.060 A 
ATOM     32  C   UNL A   1      39.350  23.137  26.392  1.00  0.00     0.016 A 
ATOM     33  C   UNL A   1      41.049  22.055  27.758  1.00  0.00     0.016 A 
ATOM     34  C   UNL A   1      39.722  24.378  26.891  1.00  0.00     0.010 A 
ATOM     35  C   UNL A   1      41.438  23.307  28.242  1.00  0.00     0.010 A 
ATOM     36  C   UNL A   1      40.804  24.473  27.776  1.00  0.00    -0.014 A 
BRANCH  36  37
ATOM     37  C   UNL A   1      41.377  25.813  28.035  1.00  0.00     0.031 A 
ATOM     38  C   UNL A   1      42.755  26.113  27.511  1.00  0.00     0.074 A 
ATOM     39  C   UNL A   1      40.653  26.769  28.643  1.00  0.00     0.049 A 
ATOM     40  N   UNL A   1      43.447  27.220  27.577  1.00  0.00    -0.248 NA
ATOM     41  C   UNL A   1      43.440  25.015  26.807  1.00  0.00     0.031 C 
ATOM     42  C   UNL A   1      39.287  26.606  29.136  1.00  0.00     0.029 A 
ATOM     43  N   UNL A   1      40.968  28.070  28.938  1.00  0.00    -0.354 N 
ATOM     44  C   UNL A   1      44.646  26.952  26.927  1.00  0.00     0.074 A 
ATOM     45  C   UNL A   1      44.601  25.573  26.498  1.00  0.00     0.031 C 
ATOM     46  C   UNL A   1      38.880  27.768  29.678  1.00  0.00     0.029 A 
ATOM     47  C   UNL A   1      39.966  28.742  29.594  1.00  0.00     0.049 A 
ATOM     48  H   UNL A   1      41.830  28.483  28.702  1.00  0.00     0.167 HD
ATOM     49  C   UNL A   1      45.688  27.787  26.703  1.00  0.00     0.037 A 
ATOM     50  C   UNL A   1      39.942  29.996  30.083  1.00  0.00     0.037 A 
ATOM     51  C   UNL A   1      45.725  29.158  27.137  1.00  0.00     0.049 A 
ATOM     52  C   UNL A   1      41.147  30.880  29.892  1.00  0.00     0.074 A 
ATOM     53  C   UNL A   1      46.729  30.093  26.955  1.00  0.00     0.029 A 
ATOM     54  N   UNL A   1      44.714  29.787  27.847  1.00  0.00    -0.354 N 
ATOM     55  N   UNL A   1      42.269  30.626  29.260  1.00  0.00    -0.248 NA
ATOM     56  C   UNL A   1      41.083  32.225  30.479  1.00  0.00     0.031 C 
ATOM     57  C   UNL A   1      46.347  31.272  27.602  1.00  0.00     0.029 A 
ATOM     58  C   UNL A   1      45.082  31.090  28.138  1.00  0.00     0.049 A 
ATOM     59  H   UNL A   1      43.862  29.369  28.107  1.00  0.00     0.167 HD
ATOM     60  C   UNL A   1      43.030  31.785  29.349  1.00  0.00     0.074 A 
ATOM     61  C   UNL A   1      42.235  32.748  30.084  1.00  0.00     0.031 C 
ATOM     62  C   UNL A   1      44.271  32.033  28.865  1.00  0.00     0.037 A 
BRANCH  49  63
ATOM     63  C   UNL A   1      46.882  27.227  25.989  1.00  0.00     0.057 A 
ATOM     64  C   UNL A   1      47.032  27.327  24.599  1.00  0.00     0.134 A 
ATOM     65  C   UNL A   1      47.909  26.600  26.706  1.00  0.00     0.134 A 
ATOM     66  F   UNL A   1      46.077  27.902  23.852  1.00  0.00    -0.206 F 
ATOM     67  C   UNL A   1      48.151  26.806  23.947  1.00  0.00     0.040 A 
ATOM     68  C   UNL A   1      49.043  26.097  26.068  1.00  0.00     0.040 A 
ATOM     69  F   UNL A   1      47.829  26.470  28.039  1.00  0.00    -0.206 F 
ATOM     70  C   UNL A   1      49.165  26.195  24.683  1.00  0.00     0.006 A 
ENDBRANCH  49  63
BRANCH  50  71
ATOM     71  C   UNL A   1      38.747  30.490  30.815  1.00  0.00     0.057 A 
ATOM     72  C   UNL A   1      38.608  30.304  32.195  1.00  0.00     0.134 A 
ATOM     73  C   UNL A   1      37.703  31.139  30.144  1.00  0.00     0.134 A 
ATOM     74  F   UNL A   1      39.563  29.668  32.890  1.00  0.00    -0.206 F 
ATOM     75  C   UNL A   1      37.467  30.729  32.879  1.00  0.00     0.040 A 
ATOM     76  C   UNL A   1      36.568  31.592  30.819  1.00  0.00     0.040 A 
ATOM     77  F   UNL A   1      37.773  31.347  28.821  1.00  0.00    -0.206 F 
ATOM     78  C   UNL A   1      36.445  31.379  32.190  1.00  0.00     0.006 A 
ENDBRANCH  50  71
BRANCH  62  79
ATOM     79  C   UNL A   1      44.831  33.409  29.083  1.00  0.00     0.057 A 
ATOM     80  C   UNL A   1      44.629  34.446  28.164  1.00  0.00     0.134 A 
ATOM     81  C   UNL A   1      45.546  33.708  30.250  1.00  0.00     0.134 A 
ATOM     82  F   UNL A   1      43.962  34.223  27.021  1.00  0.00    -0.206 F 
ATOM     83  C   UNL A   1      45.138  35.727  28.388  1.00  0.00     0.040 A 
ATOM     84  C   UNL A   1      46.035  34.991  30.498  1.00  0.00     0.040 A 
ATOM     85  F   UNL A   1      45.766  32.763  31.177  1.00  0.00    -0.206 F 
ATOM     86  C   UNL A   1      45.837  36.003  29.562  1.00  0.00     0.006 A 
ENDBRANCH  62  79
ENDBRANCH  36  37
ENDBRANCH  29  31
ENDBRANCH  28  29
ENDBRANCH  27  28
ENDBRANCH  26  27
ENDBRANCH  25  26
ENDBRANCH   1  25
TORSDOF 19
ENDMDL
MODEL 3
REMARK VINA RESULT:      -9.9      3.939      7.723
REMARK SMILES CC(C)[C@@](C)(CC(=O)NC[C@@H]1C[N@@H+](C)CCO1)C(=O)OCCOCCOC(=O)c1ccc(-c2c3nc(c(-c4c(F)cccc4F)c4ccc([nH]4)c(-c4c(F)cccc4F)c4nc(c(-c5c(F)cccc5F)c5ccc2[nH]5)C=C4)C=C3)cc1
REMARK SMILES IDX 22 1 21 2 20 3 18 4 19 5 4 6 5 7 2 8 1 9 3 10 6 11 7 12 8 13
REMARK SMILES IDX 9 14 10 16 11 17 12 18 17 19 13 20 16 21 14 22 15 23 23 25
REMARK SMILES IDX 24 26 25 27 26 28 27 29 28 30 29 31 30 32 82 33 31 34 81 35
REMARK SMILES IDX 32 36 33 37 34 38 75 39 35 40 80 41 74 42 76 43 36 44 79 45
REMARK SMILES IDX 73 46 72 47 37 49 63 50 46 51 62 52 47 53 50 54 61 55 77 56
REMARK SMILES IDX 48 57 49 58 60 60 78 61 51 62 38 63 39 64 44 65 40 66 41 67
REMARK SMILES IDX 43 68 45 69 42 70 64 71 65 72 70 73 66 74 67 75 69 76 71 77
REMARK SMILES IDX 68 78 52 79 53 80 58 81 54 82 55 83 57 84 59 85 56 86
REMARK H PARENT 9 15 13 24 76 48 50 59
REMARK Flexibility Score: inf
ROOT
ATOM      1  C   UNL A   1      34.065  18.595  24.566  1.00  0.00     0.202 C 
ENDROOT
BRANCH   1   2
ATOM      2  C   UNL A   1      33.470  19.329  25.767  1.00  0.00     0.261 C 
BRANCH   2   3
ATOM      3  O   UNL A   1      32.779  20.549  25.406  1.00  0.00    -0.463 OA
BRANCH   3   4
ATOM      4  C   UNL A   1      33.255  21.622  26.086  1.00  0.00     0.312 C 
ATOM      5  O   UNL A   1      33.724  21.530  27.218  1.00  0.00    -0.252 OA
BRANCH   4   6
ATOM      6  C   UNL A   1      33.307  22.936  25.277  1.00  0.00     0.076 C 
ATOM      7  C   UNL A   1      34.213  23.859  26.158  1.00  0.00     0.024 C 
BRANCH   6   8
ATOM      8  C   UNL A   1      33.981  22.662  23.895  1.00  0.00     0.000 C 
ATOM      9  C   UNL A   1      33.309  23.309  22.677  1.00  0.00     0.008 C 
ATOM     10  C   UNL A   1      35.452  23.079  23.838  1.00  0.00     0.008 C 
ENDBRANCH   6   8
BRANCH   6  11
ATOM     11  C   UNL A   1      31.984  23.757  25.190  1.00  0.00     0.118 C 
BRANCH  11  12
ATOM     12  C   UNL A   1      31.243  24.352  26.370  1.00  0.00     0.221 C 
ATOM     13  O   UNL A   1      30.997  23.636  27.347  1.00  0.00    -0.275 OA
ATOM     14  N   UNL A   1      30.938  25.664  26.512  1.00  0.00    -0.353 N 
ATOM     15  H   UNL A   1      30.417  25.838  27.329  1.00  0.00     0.163 HD
BRANCH  14  16
ATOM     16  C   UNL A   1      31.190  26.885  25.751  1.00  0.00     0.153 C 
BRANCH  16  17
ATOM     17  C   UNL A   1      30.721  26.880  24.259  1.00  0.00     0.192 C 
ATOM     18  C   UNL A   1      31.885  26.784  23.245  1.00  0.00     0.296 C 
ATOM     19  O   UNL A   1      29.829  27.948  23.883  1.00  0.00    -0.365 OA
ATOM     20  N   UNL A   1      32.619  28.062  23.163  1.00  0.00    -0.333 N 
ATOM     21  C   UNL A   1      30.469  29.205  23.652  1.00  0.00     0.222 C 
ATOM     22  C   UNL A   1      33.747  27.965  22.239  1.00  0.00     0.332 C 
ATOM     23  C   UNL A   1      31.677  29.106  22.714  1.00  0.00     0.290 C 
ATOM     24  H   UNL A   1      32.998  28.295  24.081  1.00  0.00     0.348 HD
ENDBRANCH  16  17
ENDBRANCH  14  16
ENDBRANCH  11  12
ENDBRANCH   6  11
ENDBRANCH   4   6
ENDBRANCH   3   4
ENDBRANCH   2   3
ENDBRANCH   1   2
BRANCH   1  25
ATOM     25  O   UNL A   1      35.489  18.496  24.500  1.00  0.00    -0.374 OA
BRANCH  25  26
ATOM     26  C   UNL A   1      36.223  19.669  24.845  1.00  0.00     0.202 C 
BRANCH  26  27
ATOM     27  C   UNL A   1      37.741  19.526  24.972  1.00  0.00     0.261 C 
BRANCH  27  28
ATOM     28  O   UNL A   1      38.360  20.730  25.442  1.00  0.00    -0.460 OA
BRANCH  28  29
ATOM     29  C   UNL A   1      39.536  20.546  26.079  1.00  0.00     0.338 C 
ATOM     30  O   UNL A   1      40.253  19.563  26.054  1.00  0.00    -0.246 OA
BRANCH  29  31
ATOM     31  C   UNL A   1      39.971  21.822  26.671  1.00  0.00     0.060 A 
ATOM     32  C   UNL A   1      39.380  22.985  26.160  1.00  0.00     0.016 A 
ATOM     33  C   UNL A   1      40.964  21.892  27.650  1.00  0.00     0.016 A 
ATOM     34  C   UNL A   1      39.824  24.231  26.583  1.00  0.00     0.010 A 
ATOM     35  C   UNL A   1      41.426  23.147  28.057  1.00  0.00     0.010 A 
ATOM     36  C   UNL A   1      40.886  24.317  27.492  1.00  0.00    -0.014 A 
BRANCH  36  37
ATOM     37  C   UNL A   1      41.542  25.631  27.674  1.00  0.00     0.031 A 
ATOM     38  C   UNL A   1      40.802  26.699  28.431  1.00  0.00     0.074 A 
ATOM     39  C   UNL A   1      42.802  25.838  27.254  1.00  0.00     0.049 A 
ATOM     40  N   UNL A   1      41.184  27.908  28.751  1.00  0.00    -0.248 NA
ATOM     41  C   UNL A   1      39.450  26.350  28.901  1.00  0.00     0.031 C 
ATOM     42  C   UNL A   1      43.634  24.853  26.564  1.00  0.00     0.029 A 
ATOM     43  N   UNL A   1      43.603  26.946  27.358  1.00  0.00    -0.354 N 
ATOM     44  C   UNL A   1      40.122  28.463  29.455  1.00  0.00     0.074 A 
ATOM     45  C   UNL A   1      39.070  27.472  29.493  1.00  0.00     0.031 C 
ATOM     46  C   UNL A   1      44.832  25.405  26.302  1.00  0.00     0.029 A 
ATOM     47  C   UNL A   1      44.839  26.785  26.781  1.00  0.00     0.049 A 
ATOM     48  H   UNL A   1      43.320  27.776  27.804  1.00  0.00     0.167 HD
ATOM     49  C   UNL A   1      40.037  29.687  30.025  1.00  0.00     0.037 A 
ATOM     50  C   UNL A   1      45.849  27.664  26.644  1.00  0.00     0.037 A 
ATOM     51  C   UNL A   1      41.088  30.669  29.980  1.00  0.00     0.049 A 
ATOM     52  C   UNL A   1      45.699  29.049  27.216  1.00  0.00     0.074 A 
ATOM     53  C   UNL A   1      41.108  31.937  30.531  1.00  0.00     0.029 A 
ATOM     54  N   UNL A   1      42.304  30.490  29.338  1.00  0.00    -0.354 N 
ATOM     55  N   UNL A   1      44.699  29.560  27.896  1.00  0.00    -0.248 NA
ATOM     56  C   UNL A   1      46.816  29.980  27.004  1.00  0.00     0.031 C 
ATOM     57  C   UNL A   1      42.315  32.546  30.177  1.00  0.00     0.029 A 
ATOM     58  C   UNL A   1      43.071  31.637  29.453  1.00  0.00     0.049 A 
ATOM     59  H   UNL A   1      42.581  29.670  28.869  1.00  0.00     0.167 HD
ATOM     60  C   UNL A   1      45.078  30.858  28.217  1.00  0.00     0.074 A 
ATOM     61  C   UNL A   1      46.405  31.051  27.668  1.00  0.00     0.031 C 
ATOM     62  C   UNL A   1      44.393  31.804  28.906  1.00  0.00     0.037 A 
BRANCH  49  63
ATOM     63  C   UNL A   1      38.752  30.043  30.713  1.00  0.00     0.057 A 
ATOM     64  C   UNL A   1      38.527  29.753  32.064  1.00  0.00     0.134 A 
ATOM     65  C   UNL A   1      37.735  30.709  30.016  1.00  0.00     0.134 A 
ATOM     66  F   UNL A   1      39.454  29.103  32.784  1.00  0.00    -0.206 F 
ATOM     67  C   UNL A   1      37.328  30.094  32.694  1.00  0.00     0.040 A 
ATOM     68  C   UNL A   1      36.543  31.077  30.640  1.00  0.00     0.040 A 
ATOM     69  F   UNL A   1      37.885  31.017  28.719  1.00  0.00    -0.206 F 
ATOM     70  C   UNL A   1      36.334  30.765  31.983  1.00  0.00     0.006 A 
ENDBRANCH  49  63
BRANCH  50  71
ATOM     71  C   UNL A   1      47.088  27.272  25.922  1.00  0.00     0.057 A 
ATOM     72  C   UNL A   1      47.215  27.454  24.540  1.00  0.00     0.134 A 
ATOM     73  C   UNL A   1      48.164  26.682  26.596  1.00  0.00     0.134 A 
ATOM     74  F   UNL A   1      46.210  27.991  23.834  1.00  0.00    -0.206 F 
ATOM     75  C   UNL A   1      48.361  27.047  23.852  1.00  0.00     0.040 A 
ATOM     76  C   UNL A   1      49.325  26.295  25.925  1.00  0.00     0.040 A 
ATOM     77  F   UNL A   1      48.105  26.478  27.921  1.00  0.00    -0.206 F 
ATOM     78  C   UNL A   1      49.422  26.470  24.546  1.00  0.00     0.006 A 
ENDBRANCH  50  71
BRANCH  62  79
ATOM     79  C   UNL A   1      45.080  33.119  29.135  1.00  0.00     0.057 A 
ATOM     80  C   UNL A   1      45.918  33.336  30.235  1.00  0.00     0.134 A 
ATOM     81  C   UNL A   1      44.933  34.167  28.216  1.00  0.00     0.134 A 
ATOM     82  F   UNL A   1      46.093  32.377  31.157  1.00  0.00    -0.206 F 
ATOM     83  C   UNL A   1      46.568  34.557  30.426  1.00  0.00     0.040 A 
ATOM     84  C   UNL A   1      45.599  35.382  28.382  1.00  0.00     0.040 A 
ATOM     85  F   UNL A   1      44.153  34.021  27.134  1.00  0.00    -0.206 F 
ATOM     86  C   UNL A   1      46.414  35.581  29.493  1.00  0.00     0.006 A 
ENDBRANCH  62  79
ENDBRANCH  36  37
ENDBRANCH  29  31
ENDBRANCH  28  29
ENDBRANCH  27  28
ENDBRANCH  26  27
ENDBRANCH  25  26
ENDBRANCH   1  25
TORSDOF 19
ENDMDL
