MODEL 1
REMARK VINA RESULT:     -10.7      0.000      0.000
REMARK SMILES COc1ccc(-c2sc(N)nc2C(=O)OCCOCCOC(=O)c2ccc(-c3c4nc(c(-c5c(F)cccc5F)c5ccc([nH]5)c(-c5c(F)cccc5F)c5nc(c(-c6c(F)cccc6F)c6ccc3[nH]6)C=C5)C=C4)cc2)cc1OC
REMARK SMILES IDX 18 1 17 2 16 3 15 4 13 5 14 6 12 7 7 8 8 9 9 10 11 11 6 12
REMARK SMILES IDX 3 13 4 14 79 15 5 16 78 17 2 18 1 19 80 20 81 21 10 22 19 25
REMARK SMILES IDX 20 26 21 27 22 28 23 29 24 30 25 31 77 32 26 33 76 34 27 35
REMARK SMILES IDX 28 36 29 37 70 38 30 39 75 40 69 41 71 42 31 43 74 44 68 45
REMARK SMILES IDX 67 46 32 48 58 49 41 50 57 51 42 52 45 53 56 54 72 55 43 56
REMARK SMILES IDX 44 57 55 59 73 60 46 61 33 62 34 63 39 64 35 65 36 66 38 67
REMARK SMILES IDX 40 68 37 69 59 70 60 71 65 72 61 73 62 74 64 75 66 76 63 77
REMARK SMILES IDX 47 78 48 79 53 80 49 81 50 82 52 83 54 84 51 85
REMARK H PARENT 10 23 10 24 71 47 45 58
REMARK Flexibility Score: inf
ROOT
ATOM      1  O   UNL A   1      33.661  32.353  28.729  1.00  0.00    -0.374 OA
ENDROOT
BRANCH   1   2
ATOM      2  C   UNL A   1      34.351  31.713  27.659  1.00  0.00     0.202 C 
BRANCH   2   3
ATOM      3  C   UNL A   1      34.127  30.209  27.468  1.00  0.00     0.261 C 
BRANCH   3   4
ATOM      4  O   UNL A   1      33.477  29.929  26.217  1.00  0.00    -0.458 OA
BRANCH   4   5
ATOM      5  C   UNL A   1      32.351  29.156  26.287  1.00  0.00     0.358 C 
ATOM      6  O   UNL A   1      31.790  28.844  27.331  1.00  0.00    -0.244 OA
BRANCH   5   7
ATOM      7  C   UNL A   1      31.819  28.833  24.959  1.00  0.00     0.169 A 
ATOM      8  C   UNL A   1      31.940  27.585  24.357  1.00  0.00     0.071 A 
ATOM      9  S   UNL A   1      31.196  27.614  22.814  1.00  0.00    -0.096 S 
ATOM     10  C   UNL A   1      30.711  29.238  23.079  1.00  0.00     0.181 A 
ATOM     11  N   UNL A   1      31.071  29.756  24.224  1.00  0.00    -0.213 NA
BRANCH   8  12
ATOM     12  C   UNL A   1      32.489  26.339  24.890  1.00  0.00    -0.002 A 
ATOM     13  C   UNL A   1      33.578  24.136  26.260  1.00  0.00     0.160 A 
ATOM     14  C   UNL A   1      34.363  24.888  25.374  1.00  0.00     0.051 A 
ATOM     15  C   UNL A   1      32.232  24.462  26.449  1.00  0.00     0.161 A 
ATOM     16  C   UNL A   1      33.825  25.988  24.696  1.00  0.00     0.014 A 
ATOM     17  C   UNL A   1      31.696  25.538  25.724  1.00  0.00     0.060 A 
BRANCH  13  18
ATOM     18  O   UNL A   1      34.229  23.189  27.004  1.00  0.00    -0.493 OA
ATOM     19  C   UNL A   1      35.245  22.521  26.261  1.00  0.00     0.278 C 
ENDBRANCH  13  18
BRANCH  15  20
ATOM     20  O   UNL A   1      31.313  23.897  27.289  1.00  0.00    -0.493 OA
ATOM     21  C   UNL A   1      30.354  22.992  26.763  1.00  0.00     0.278 C 
ENDBRANCH  15  20
ENDBRANCH   8  12
BRANCH  10  22
ATOM     22  N   UNL A   1      30.005  29.911  22.166  1.00  0.00    -0.375 N 
ATOM     23  H   UNL A   1      30.117  29.710  21.208  1.00  0.00     0.159 HD
ATOM     24  H   UNL A   1      29.372  30.610  22.450  1.00  0.00     0.159 HD
ENDBRANCH  10  22
ENDBRANCH   5   7
ENDBRANCH   4   5
ENDBRANCH   3   4
ENDBRANCH   2   3
ENDBRANCH   1   2
BRANCH   1  25
ATOM     25  C   UNL A   1      34.221  33.553  29.254  1.00  0.00     0.202 C 
BRANCH  25  26
ATOM     26  C   UNL A   1      34.512  33.627  30.758  1.00  0.00     0.261 C 
BRANCH  26  27
ATOM     27  O   UNL A   1      34.563  32.342  31.387  1.00  0.00    -0.460 OA
BRANCH  27  28
ATOM     28  C   UNL A   1      35.594  32.197  32.252  1.00  0.00     0.338 C 
ATOM     29  O   UNL A   1      35.645  32.546  33.421  1.00  0.00    -0.246 OA
BRANCH  28  30
ATOM     30  C   UNL A   1      36.643  31.385  31.618  1.00  0.00     0.060 A 
ATOM     31  C   UNL A   1      37.617  30.817  32.449  1.00  0.00     0.016 A 
ATOM     32  C   UNL A   1      36.699  31.228  30.232  1.00  0.00     0.016 A 
ATOM     33  C   UNL A   1      38.686  30.126  31.889  1.00  0.00     0.010 A 
ATOM     34  C   UNL A   1      37.776  30.542  29.673  1.00  0.00     0.010 A 
ATOM     35  C   UNL A   1      38.792  30.023  30.497  1.00  0.00    -0.014 A 
BRANCH  35  36
ATOM     36  C   UNL A   1      40.047  29.532  29.886  1.00  0.00     0.031 A 
ATOM     37  C   UNL A   1      41.195  30.490  29.741  1.00  0.00     0.074 A 
ATOM     38  C   UNL A   1      40.161  28.259  29.472  1.00  0.00     0.049 A 
ATOM     39  N   UNL A   1      42.351  30.320  29.153  1.00  0.00    -0.248 NA
ATOM     40  C   UNL A   1      41.008  31.825  30.331  1.00  0.00     0.031 C 
ATOM     41  C   UNL A   1      39.132  27.231  29.608  1.00  0.00     0.029 A 
ATOM     42  N   UNL A   1      41.197  27.623  28.839  1.00  0.00    -0.354 N 
ATOM     43  C   UNL A   1      43.022  31.528  29.291  1.00  0.00     0.074 A 
ATOM     44  C   UNL A   1      42.131  32.433  29.984  1.00  0.00     0.031 C 
ATOM     45  C   UNL A   1      39.585  26.090  29.061  1.00  0.00     0.029 A 
ATOM     46  C   UNL A   1      40.916  26.323  28.502  1.00  0.00     0.049 A 
ATOM     47  H   UNL A   1      42.059  28.056  28.644  1.00  0.00     0.167 HD
ATOM     48  C   UNL A   1      44.272  31.851  28.882  1.00  0.00     0.037 A 
ATOM     49  C   UNL A   1      41.641  25.435  27.796  1.00  0.00     0.037 A 
ATOM     50  C   UNL A   1      45.147  30.943  28.188  1.00  0.00     0.049 A 
ATOM     51  C   UNL A   1      42.994  25.843  27.274  1.00  0.00     0.074 A 
ATOM     52  C   UNL A   1      46.435  31.163  27.735  1.00  0.00     0.029 A 
ATOM     53  N   UNL A   1      44.816  29.641  27.838  1.00  0.00    -0.354 N 
ATOM     54  N   UNL A   1      43.629  26.981  27.415  1.00  0.00    -0.248 NA
ATOM     55  C   UNL A   1      43.732  24.840  26.493  1.00  0.00     0.031 C 
ATOM     56  C   UNL A   1      46.861  30.015  27.060  1.00  0.00     0.029 A 
ATOM     57  C   UNL A   1      45.866  29.055  27.152  1.00  0.00     0.049 A 
ATOM     58  H   UNL A   1      43.960  29.200  28.047  1.00  0.00     0.167 HD
ATOM     59  C   UNL A   1      44.854  26.819  26.779  1.00  0.00     0.074 A 
ATOM     60  C   UNL A   1      44.873  25.470  26.252  1.00  0.00     0.031 C 
ATOM     61  C   UNL A   1      45.874  27.703  26.649  1.00  0.00     0.037 A 
BRANCH  48  62
ATOM     62  C   UNL A   1      44.745  33.251  29.147  1.00  0.00     0.057 A 
ATOM     63  C   UNL A   1      44.507  34.299  28.249  1.00  0.00     0.134 A 
ATOM     64  C   UNL A   1      45.445  33.556  30.322  1.00  0.00     0.134 A 
ATOM     65  F   UNL A   1      43.856  34.075  27.098  1.00  0.00    -0.206 F 
ATOM     66  C   UNL A   1      44.975  35.592  28.494  1.00  0.00     0.040 A 
ATOM     67  C   UNL A   1      45.888  34.851  30.594  1.00  0.00     0.040 A 
ATOM     68  F   UNL A   1      45.704  32.601  31.229  1.00  0.00    -0.206 F 
ATOM     69  C   UNL A   1      45.663  35.871  29.673  1.00  0.00     0.006 A 
ENDBRANCH  48  62
BRANCH  49  70
ATOM     70  C   UNL A   1      41.105  24.075  27.537  1.00  0.00     0.057 A 
ATOM     71  C   UNL A   1      40.093  23.865  26.595  1.00  0.00     0.134 A 
ATOM     72  C   UNL A   1      41.582  22.956  28.231  1.00  0.00     0.134 A 
ATOM     73  F   UNL A   1      39.580  24.900  25.913  1.00  0.00    -0.206 F 
ATOM     74  C   UNL A   1      39.560  22.595  26.362  1.00  0.00     0.040 A 
ATOM     75  C   UNL A   1      41.079  21.676  27.990  1.00  0.00     0.040 A 
ATOM     76  F   UNL A   1      42.553  23.088  29.146  1.00  0.00    -0.206 F 
ATOM     77  C   UNL A   1      40.058  21.495  27.058  1.00  0.00     0.006 A 
ENDBRANCH  49  70
BRANCH  61  78
ATOM     78  C   UNL A   1      47.123  27.227  25.964  1.00  0.00     0.057 A 
ATOM     79  C   UNL A   1      47.346  27.423  24.596  1.00  0.00     0.134 A 
ATOM     80  C   UNL A   1      48.142  26.611  26.703  1.00  0.00     0.134 A 
ATOM     81  F   UNL A   1      46.407  27.996  23.828  1.00  0.00    -0.206 F 
ATOM     82  C   UNL A   1      48.529  27.005  23.983  1.00  0.00     0.040 A 
ATOM     83  C   UNL A   1      49.342  26.217  26.108  1.00  0.00     0.040 A 
ATOM     84  F   UNL A   1      47.999  26.402  28.020  1.00  0.00    -0.206 F 
ATOM     85  C   UNL A   1      49.535  26.408  24.741  1.00  0.00     0.006 A 
ENDBRANCH  61  78
ENDBRANCH  35  36
ENDBRANCH  28  30
ENDBRANCH  27  28
ENDBRANCH  26  27
ENDBRANCH  25  26
ENDBRANCH   1  25
TORSDOF 18
ENDMDL
MODEL 2
REMARK VINA RESULT:     -10.6      4.592      9.666
REMARK SMILES COc1ccc(-c2sc(N)nc2C(=O)OCCOCCOC(=O)c2ccc(-c3c4nc(c(-c5c(F)cccc5F)c5ccc([nH]5)c(-c5c(F)cccc5F)c5nc(c(-c6c(F)cccc6F)c6ccc3[nH]6)C=C5)C=C4)cc2)cc1OC
REMARK SMILES IDX 18 1 17 2 16 3 15 4 13 5 14 6 12 7 7 8 8 9 9 10 11 11 6 12
REMARK SMILES IDX 3 13 4 14 79 15 5 16 78 17 2 18 1 19 80 20 81 21 10 22 19 25
REMARK SMILES IDX 20 26 21 27 22 28 23 29 24 30 25 31 77 32 26 33 76 34 27 35
REMARK SMILES IDX 28 36 29 37 70 38 30 39 75 40 69 41 71 42 31 43 74 44 68 45
REMARK SMILES IDX 67 46 32 48 58 49 41 50 57 51 42 52 45 53 56 54 72 55 43 56
REMARK SMILES IDX 44 57 55 59 73 60 46 61 33 62 34 63 39 64 35 65 36 66 38 67
REMARK SMILES IDX 40 68 37 69 59 70 60 71 65 72 61 73 62 74 64 75 66 76 63 77
REMARK SMILES IDX 47 78 48 79 53 80 49 81 50 82 52 83 54 84 51 85
REMARK H PARENT 10 23 10 24 71 47 45 58
REMARK Flexibility Score: inf
ROOT
ATOM      1  O   UNL A   1      40.350  20.386  26.426  1.00  0.00    -0.374 OA
ENDROOT
BRANCH   1   2
ATOM      2  C   UNL A   1      39.352  20.959  25.584  1.00  0.00     0.202 C 
BRANCH   2   3
ATOM      3  C   UNL A   1      38.739  22.296  26.017  1.00  0.00     0.261 C 
BRANCH   3   4
ATOM      4  O   UNL A   1      37.306  22.218  26.086  1.00  0.00    -0.458 OA
BRANCH   4   5
ATOM      5  C   UNL A   1      36.642  22.337  24.896  1.00  0.00     0.358 C 
ATOM      6  O   UNL A   1      37.114  22.854  23.889  1.00  0.00    -0.244 OA
BRANCH   5   7
ATOM      7  C   UNL A   1      35.335  21.672  24.923  1.00  0.00     0.169 A 
ATOM      8  C   UNL A   1      34.120  22.346  24.854  1.00  0.00     0.071 A 
ATOM      9  S   UNL A   1      32.831  21.220  24.922  1.00  0.00    -0.096 S 
ATOM     10  C   UNL A   1      33.960  19.930  24.966  1.00  0.00     0.181 A 
ATOM     11  N   UNL A   1      35.220  20.280  24.944  1.00  0.00    -0.213 NA
BRANCH   8  12
ATOM     12  C   UNL A   1      33.850  23.768  24.645  1.00  0.00    -0.002 A 
ATOM     13  C   UNL A   1      33.713  26.533  24.142  1.00  0.00     0.160 A 
ATOM     14  C   UNL A   1      33.741  26.044  25.456  1.00  0.00     0.051 A 
ATOM     15  C   UNL A   1      33.725  25.642  23.066  1.00  0.00     0.161 A 
ATOM     16  C   UNL A   1      33.815  24.669  25.709  1.00  0.00     0.014 A 
ATOM     17  C   UNL A   1      33.751  24.265  23.337  1.00  0.00     0.060 A 
BRANCH  13  18
ATOM     18  O   UNL A   1      33.812  27.889  23.990  1.00  0.00    -0.493 OA
ATOM     19  C   UNL A   1      33.834  28.575  25.240  1.00  0.00     0.278 C 
ENDBRANCH  13  18
BRANCH  15  20
ATOM     20  O   UNL A   1      33.750  25.904  21.724  1.00  0.00    -0.493 OA
ATOM     21  C   UNL A   1      32.553  25.786  20.970  1.00  0.00     0.278 C 
ENDBRANCH  15  20
ENDBRANCH   8  12
BRANCH  10  22
ATOM     22  N   UNL A   1      33.561  18.656  25.013  1.00  0.00    -0.375 N 
ATOM     23  H   UNL A   1      33.028  18.279  24.275  1.00  0.00     0.159 HD
ATOM     24  H   UNL A   1      33.798  18.094  25.785  1.00  0.00     0.159 HD
ENDBRANCH  10  22
ENDBRANCH   5   7
ENDBRANCH   4   5
ENDBRANCH   3   4
ENDBRANCH   2   3
ENDBRANCH   1   2
BRANCH   1  25
ATOM     25  C   UNL A   1      41.358  21.250  26.939  1.00  0.00     0.202 C 
BRANCH  25  26
ATOM     26  C   UNL A   1      42.568  21.568  26.052  1.00  0.00     0.261 C 
BRANCH  26  27
ATOM     27  O   UNL A   1      42.313  22.604  25.099  1.00  0.00    -0.460 OA
BRANCH  27  28
ATOM     28  C   UNL A   1      43.209  23.618  25.140  1.00  0.00     0.338 C 
ATOM     29  O   UNL A   1      44.246  23.727  24.505  1.00  0.00    -0.246 OA
BRANCH  28  30
ATOM     30  C   UNL A   1      42.669  24.701  25.974  1.00  0.00     0.060 A 
ATOM     31  C   UNL A   1      43.528  25.758  26.304  1.00  0.00     0.016 A 
ATOM     32  C   UNL A   1      41.363  24.655  26.466  1.00  0.00     0.016 A 
ATOM     33  C   UNL A   1      43.097  26.754  27.173  1.00  0.00     0.010 A 
ATOM     34  C   UNL A   1      40.937  25.651  27.344  1.00  0.00     0.010 A 
ATOM     35  C   UNL A   1      41.815  26.681  27.730  1.00  0.00    -0.014 A 
BRANCH  35  36
ATOM     36  C   UNL A   1      41.444  27.574  28.850  1.00  0.00     0.031 A 
ATOM     37  C   UNL A   1      42.224  27.479  30.130  1.00  0.00     0.074 A 
ATOM     38  C   UNL A   1      40.435  28.453  28.727  1.00  0.00     0.049 A 
ATOM     39  N   UNL A   1      42.024  28.082  31.273  1.00  0.00    -0.248 NA
ATOM     40  C   UNL A   1      43.380  26.568  30.122  1.00  0.00     0.031 C 
ATOM     41  C   UNL A   1      39.644  28.668  27.517  1.00  0.00     0.029 A 
ATOM     42  N   UNL A   1      39.899  29.320  29.643  1.00  0.00    -0.354 N 
ATOM     43  C   UNL A   1      43.020  27.616  32.121  1.00  0.00     0.074 A 
ATOM     44  C   UNL A   1      43.799  26.652  31.375  1.00  0.00     0.031 C 
ATOM     45  C   UNL A   1      38.711  29.601  27.771  1.00  0.00     0.029 A 
ATOM     46  C   UNL A   1      38.815  30.015  29.168  1.00  0.00     0.049 A 
ATOM     47  H   UNL A   1      40.256  29.433  30.554  1.00  0.00     0.167 HD
ATOM     48  C   UNL A   1      43.266  27.966  33.406  1.00  0.00     0.037 A 
ATOM     49  C   UNL A   1      37.987  30.866  29.803  1.00  0.00     0.037 A 
ATOM     50  C   UNL A   1      42.480  28.922  34.141  1.00  0.00     0.049 A 
ATOM     51  C   UNL A   1      38.226  31.175  31.258  1.00  0.00     0.074 A 
ATOM     52  C   UNL A   1      42.646  29.357  35.444  1.00  0.00     0.029 A 
ATOM     53  N   UNL A   1      41.371  29.585  33.635  1.00  0.00    -0.354 N 
ATOM     54  N   UNL A   1      39.174  30.741  32.053  1.00  0.00    -0.248 NA
ATOM     55  C   UNL A   1      37.278  32.094  31.904  1.00  0.00     0.031 C 
ATOM     56  C   UNL A   1      41.603  30.237  35.745  1.00  0.00     0.029 A 
ATOM     57  C   UNL A   1      40.827  30.406  34.609  1.00  0.00     0.049 A 
ATOM     58  H   UNL A   1      41.022  29.486  32.719  1.00  0.00     0.167 HD
ATOM     59  C   UNL A   1      38.963  31.363  33.278  1.00  0.00     0.074 A 
ATOM     60  C   UNL A   1      37.796  32.207  33.119  1.00  0.00     0.031 C 
ATOM     61  C   UNL A   1      39.673  31.253  34.427  1.00  0.00     0.037 A 
BRANCH  48  62
ATOM     62  C   UNL A   1      44.410  27.284  34.100  1.00  0.00     0.057 A 
ATOM     63  C   UNL A   1      44.242  26.088  34.810  1.00  0.00     0.134 A 
ATOM     64  C   UNL A   1      45.699  27.829  34.053  1.00  0.00     0.134 A 
ATOM     65  F   UNL A   1      43.031  25.519  34.909  1.00  0.00    -0.206 F 
ATOM     66  C   UNL A   1      45.308  25.477  35.474  1.00  0.00     0.040 A 
ATOM     67  C   UNL A   1      46.779  27.210  34.684  1.00  0.00     0.040 A 
ATOM     68  F   UNL A   1      45.933  28.971  33.387  1.00  0.00    -0.206 F 
ATOM     69  C   UNL A   1      46.583  26.035  35.407  1.00  0.00     0.006 A 
ENDBRANCH  48  62
BRANCH  49  70
ATOM     70  C   UNL A   1      36.853  31.484  29.072  1.00  0.00     0.057 A 
ATOM     71  C   UNL A   1      36.904  32.817  28.651  1.00  0.00     0.134 A 
ATOM     72  C   UNL A   1      35.686  30.763  28.785  1.00  0.00     0.134 A 
ATOM     73  F   UNL A   1      37.985  33.567  28.915  1.00  0.00    -0.206 F 
ATOM     74  C   UNL A   1      35.832  33.418  27.988  1.00  0.00     0.040 A 
ATOM     75  C   UNL A   1      34.618  31.342  28.098  1.00  0.00     0.040 A 
ATOM     76  F   UNL A   1      35.574  29.480  29.158  1.00  0.00    -0.206 F 
ATOM     77  C   UNL A   1      34.687  32.677  27.705  1.00  0.00     0.006 A 
ENDBRANCH  49  70
BRANCH  61  78
ATOM     78  C   UNL A   1      39.253  32.108  35.589  1.00  0.00     0.057 A 
ATOM     79  C   UNL A   1      38.407  31.632  36.598  1.00  0.00     0.134 A 
ATOM     80  C   UNL A   1      39.751  33.410  35.724  1.00  0.00     0.134 A 
ATOM     81  F   UNL A   1      37.885  30.398  36.524  1.00  0.00    -0.206 F 
ATOM     82  C   UNL A   1      38.054  32.429  37.689  1.00  0.00     0.040 A 
ATOM     83  C   UNL A   1      39.432  34.205  36.826  1.00  0.00     0.040 A 
ATOM     84  F   UNL A   1      40.575  33.925  34.799  1.00  0.00    -0.206 F 
ATOM     85  C   UNL A   1      38.575  33.717  37.810  1.00  0.00     0.006 A 
ENDBRANCH  61  78
ENDBRANCH  35  36
ENDBRANCH  28  30
ENDBRANCH  27  28
ENDBRANCH  26  27
ENDBRANCH  25  26
ENDBRANCH   1  25
TORSDOF 18
ENDMDL
MODEL 3
REMARK VINA RESULT:     -10.5      2.108      7.601
REMARK SMILES COc1ccc(-c2sc(N)nc2C(=O)OCCOCCOC(=O)c2ccc(-c3c4nc(c(-c5c(F)cccc5F)c5ccc([nH]5)c(-c5c(F)cccc5F)c5nc(c(-c6c(F)cccc6F)c6ccc3[nH]6)C=C5)C=C4)cc2)cc1OC
REMARK SMILES IDX 18 1 17 2 16 3 15 4 13 5 14 6 12 7 7 8 8 9 9 10 11 11 6 12
REMARK SMILES IDX 3 13 4 14 79 15 5 16 78 17 2 18 1 19 80 20 81 21 10 22 19 25
REMARK SMILES IDX 20 26 21 27 22 28 23 29 24 30 25 31 77 32 26 33 76 34 27 35
REMARK SMILES IDX 28 36 29 37 70 38 30 39 75 40 69 41 71 42 31 43 74 44 68 45
REMARK SMILES IDX 67 46 32 48 58 49 41 50 57 51 42 52 45 53 56 54 72 55 43 56
REMARK SMILES IDX 44 57 55 59 73 60 46 61 33 62 34 63 39 64 35 65 36 66 38 67
REMARK SMILES IDX 40 68 37 69 59 70 60 71 65 72 61 73 62 74 64 75 66 76 63 77
REMARK SMILES IDX 47 78 48 79 53 80 49 81 50 82 52 83 54 84 51 85
REMARK H PARENT 10 23 10 24 71 47 45 58
REMARK Flexibility Score: inf
ROOT
ATOM      1  O   UNL A   1      34.966  21.816  25.539  1.00  0.00    -0.374 OA
ENDROOT
BRANCH   1   2
ATOM      2  C   UNL A   1      34.663  21.849  26.931  1.00  0.00     0.202 C 
BRANCH   2   3
ATOM      3  C   UNL A   1      33.576  22.824  27.399  1.00  0.00     0.261 C 
BRANCH   3   4
ATOM      4  O   UNL A   1      32.380  22.693  26.613  1.00  0.00    -0.458 OA
BRANCH   4   5
ATOM      5  C   UNL A   1      31.823  23.861  26.171  1.00  0.00     0.358 C 
ATOM      6  O   UNL A   1      31.141  24.608  26.865  1.00  0.00    -0.244 OA
BRANCH   5   7
ATOM      7  C   UNL A   1      32.227  24.183  24.799  1.00  0.00     0.169 A 
ATOM      8  C   UNL A   1      32.575  25.460  24.372  1.00  0.00     0.071 A 
ATOM      9  S   UNL A   1      32.977  25.423  22.708  1.00  0.00    -0.096 S 
ATOM     10  C   UNL A   1      32.731  23.726  22.686  1.00  0.00     0.181 A 
ATOM     11  N   UNL A   1      32.365  23.193  23.823  1.00  0.00    -0.213 NA
BRANCH   8  12
ATOM     12  C   UNL A   1      32.723  26.696  25.141  1.00  0.00    -0.002 A 
ATOM     13  C   UNL A   1      33.156  29.228  26.288  1.00  0.00     0.160 A 
ATOM     14  C   UNL A   1      34.014  28.156  26.573  1.00  0.00     0.051 A 
ATOM     15  C   UNL A   1      32.056  29.037  25.448  1.00  0.00     0.161 A 
ATOM     16  C   UNL A   1      33.804  26.897  25.999  1.00  0.00     0.014 A 
ATOM     17  C   UNL A   1      31.832  27.755  24.919  1.00  0.00     0.060 A 
BRANCH  13  18
ATOM     18  O   UNL A   1      33.534  30.457  26.755  1.00  0.00    -0.493 OA
ATOM     19  C   UNL A   1      34.738  30.402  27.516  1.00  0.00     0.278 C 
ENDBRANCH  13  18
BRANCH  15  20
ATOM     20  O   UNL A   1      31.133  29.945  25.008  1.00  0.00    -0.493 OA
ATOM     21  C   UNL A   1      30.328  29.628  23.883  1.00  0.00     0.278 C 
ENDBRANCH  15  20
ENDBRANCH   8  12
BRANCH  10  22
ATOM     22  N   UNL A   1      32.915  23.009  21.573  1.00  0.00    -0.375 N 
ATOM     23  H   UNL A   1      32.695  23.397  20.695  1.00  0.00     0.159 HD
ATOM     24  H   UNL A   1      33.268  22.093  21.631  1.00  0.00     0.159 HD
ENDBRANCH  10  22
ENDBRANCH   5   7
ENDBRANCH   4   5
ENDBRANCH   3   4
ENDBRANCH   2   3
ENDBRANCH   1   2
BRANCH   1  25
ATOM     25  C   UNL A   1      35.372  20.571  24.979  1.00  0.00     0.202 C 
BRANCH  25  26
ATOM     26  C   UNL A   1      36.870  20.248  24.924  1.00  0.00     0.261 C 
BRANCH  26  27
ATOM     27  O   UNL A   1      37.701  21.369  25.240  1.00  0.00    -0.460 OA
BRANCH  27  28
ATOM     28  C   UNL A   1      38.856  21.037  25.863  1.00  0.00     0.338 C 
ATOM     29  O   UNL A   1      39.442  19.966  25.831  1.00  0.00    -0.246 OA
BRANCH  28  30
ATOM     30  C   UNL A   1      39.425  22.237  26.491  1.00  0.00     0.060 A 
ATOM     31  C   UNL A   1      38.880  23.478  26.137  1.00  0.00     0.016 A 
ATOM     32  C   UNL A   1      40.507  22.151  27.370  1.00  0.00     0.016 A 
ATOM     33  C   UNL A   1      39.450  24.649  26.625  1.00  0.00     0.010 A 
ATOM     34  C   UNL A   1      41.081  23.327  27.850  1.00  0.00     0.010 A 
ATOM     35  C   UNL A   1      40.579  24.579  27.449  1.00  0.00    -0.014 A 
BRANCH  35  36
ATOM     36  C   UNL A   1      41.349  25.806  27.753  1.00  0.00     0.031 A 
ATOM     37  C   UNL A   1      40.676  26.896  28.537  1.00  0.00     0.074 A 
ATOM     38  C   UNL A   1      42.620  25.943  27.341  1.00  0.00     0.049 A 
ATOM     39  N   UNL A   1      41.110  28.093  28.839  1.00  0.00    -0.248 NA
ATOM     40  C   UNL A   1      39.325  26.599  29.040  1.00  0.00     0.031 C 
ATOM     41  C   UNL A   1      43.388  24.932  26.619  1.00  0.00     0.029 A 
ATOM     42  N   UNL A   1      43.482  27.002  27.464  1.00  0.00    -0.354 N 
ATOM     43  C   UNL A   1      40.082  28.694  29.554  1.00  0.00     0.074 A 
ATOM     44  C   UNL A   1      38.990  27.746  29.609  1.00  0.00     0.031 C 
ATOM     45  C   UNL A   1      44.609  25.426  26.350  1.00  0.00     0.029 A 
ATOM     46  C   UNL A   1      44.690  26.799  26.845  1.00  0.00     0.049 A 
ATOM     47  H   UNL A   1      43.256  27.829  27.950  1.00  0.00     0.167 HD
ATOM     48  C   UNL A   1      40.055  29.923  30.120  1.00  0.00     0.037 A 
ATOM     49  C   UNL A   1      45.727  27.640  26.675  1.00  0.00     0.037 A 
ATOM     50  C   UNL A   1      41.145  30.861  30.054  1.00  0.00     0.049 A 
ATOM     51  C   UNL A   1      45.642  29.034  27.237  1.00  0.00     0.074 A 
ATOM     52  C   UNL A   1      41.227  32.130  30.598  1.00  0.00     0.029 A 
ATOM     53  N   UNL A   1      42.344  30.630  29.393  1.00  0.00    -0.354 N 
ATOM     54  N   UNL A   1      44.674  29.595  27.921  1.00  0.00    -0.248 NA
ATOM     55  C   UNL A   1      46.795  29.915  27.003  1.00  0.00     0.031 C 
ATOM     56  C   UNL A   1      42.451  32.688  30.217  1.00  0.00     0.029 A 
ATOM     57  C   UNL A   1      43.161  31.743  29.493  1.00  0.00     0.049 A 
ATOM     58  H   UNL A   1      42.578  29.797  28.921  1.00  0.00     0.167 HD
ATOM     59  C   UNL A   1      45.116  30.875  28.234  1.00  0.00     0.074 A 
ATOM     60  C   UNL A   1      46.442  31.007  27.665  1.00  0.00     0.031 C 
ATOM     61  C   UNL A   1      44.486  31.850  28.935  1.00  0.00     0.037 A 
BRANCH  48  62
ATOM     62  C   UNL A   1      38.794  30.331  30.826  1.00  0.00     0.057 A 
ATOM     63  C   UNL A   1      37.771  31.034  30.177  1.00  0.00     0.134 A 
ATOM     64  C   UNL A   1      38.597  30.008  32.175  1.00  0.00     0.134 A 
ATOM     65  F   UNL A   1      37.900  31.389  28.889  1.00  0.00    -0.206 F 
ATOM     66  C   UNL A   1      36.614  31.431  30.851  1.00  0.00     0.040 A 
ATOM     67  C   UNL A   1      37.431  30.370  32.851  1.00  0.00     0.040 A 
ATOM     68  F   UNL A   1      39.533  29.331  32.859  1.00  0.00    -0.206 F 
ATOM     69  C   UNL A   1      36.439  31.092  32.191  1.00  0.00     0.006 A 
ENDBRANCH  48  62
BRANCH  49  70
ATOM     70  C   UNL A   1      46.935  27.190  25.938  1.00  0.00     0.057 A 
ATOM     71  C   UNL A   1      47.985  26.542  26.598  1.00  0.00     0.134 A 
ATOM     72  C   UNL A   1      47.075  27.407  24.561  1.00  0.00     0.134 A 
ATOM     73  F   UNL A   1      47.919  26.324  27.920  1.00  0.00    -0.206 F 
ATOM     74  C   UNL A   1      49.138  26.140  25.921  1.00  0.00     0.040 A 
ATOM     75  C   UNL A   1      48.210  26.986  23.866  1.00  0.00     0.040 A 
ATOM     76  F   UNL A   1      46.105  28.021  23.869  1.00  0.00    -0.206 F 
ATOM     77  C   UNL A   1      49.250  26.358  24.549  1.00  0.00     0.006 A 
ENDBRANCH  49  70
BRANCH  61  78
ATOM     78  C   UNL A   1      45.241  33.125  29.183  1.00  0.00     0.057 A 
ATOM     79  C   UNL A   1      46.094  33.287  30.281  1.00  0.00     0.134 A 
ATOM     80  C   UNL A   1      45.151  34.187  28.273  1.00  0.00     0.134 A 
ATOM     81  F   UNL A   1      46.217  32.314  31.197  1.00  0.00    -0.206 F 
ATOM     82  C   UNL A   1      46.815  34.467  30.477  1.00  0.00     0.040 A 
ATOM     83  C   UNL A   1      45.891  35.359  28.441  1.00  0.00     0.040 A 
ATOM     84  F   UNL A   1      44.361  34.095  27.193  1.00  0.00    -0.206 F 
ATOM     85  C   UNL A   1      46.721  35.503  29.550  1.00  0.00     0.006 A 
ENDBRANCH  61  78
ENDBRANCH  35  36
ENDBRANCH  28  30
ENDBRANCH  27  28
ENDBRANCH  26  27
ENDBRANCH  25  26
ENDBRANCH   1  25
TORSDOF 18
ENDMDL
