MODEL 1
REMARK VINA RESULT:     -10.2      0.000      0.000
REMARK SMILES C[C@@H](O)[C@@H](NC(=O)c1csc(-c2ccsc2)n1)C(=O)OCCOCCOC(=O)c1ccc(-c2c3nc(c(-c4c(F)cccc4F)c4ccc([nH]4)c(-c4c(F)cccc4F)c4nc(c(-c5c(F)cccc5F)c5ccc2[nH]5)C=C4)C=C3)cc1
REMARK SMILES IDX 22 1 21 2 20 3 18 4 19 5 4 6 2 7 1 8 3 9 5 11 6 12 7 14 8 15
REMARK SMILES IDX 9 16 17 17 10 18 11 19 12 20 13 21 16 22 14 23 15 24 23 25
REMARK SMILES IDX 24 26 25 27 26 28 27 29 28 30 29 31 30 32 82 33 31 34 81 35
REMARK SMILES IDX 32 36 33 37 34 38 75 39 35 40 80 41 74 42 76 43 36 44 79 45
REMARK SMILES IDX 73 46 72 47 37 49 63 50 46 51 62 52 47 53 50 54 61 55 77 56
REMARK SMILES IDX 48 57 49 58 60 60 78 61 51 62 38 63 39 64 44 65 40 66 41 67
REMARK SMILES IDX 43 68 45 69 42 70 64 71 65 72 70 73 66 74 67 75 69 76 71 77
REMARK SMILES IDX 68 78 52 79 53 80 58 81 54 82 55 83 57 84 59 85 56 86
REMARK H PARENT 3 10 5 13 76 48 50 59
REMARK Flexibility Score: inf
ROOT
ATOM      1  C   UNL A   1      32.223  29.193  26.942  1.00  0.00     0.202 C 
ENDROOT
BRANCH   1   2
ATOM      2  C   UNL A   1      32.591  27.837  26.371  1.00  0.00     0.261 C 
BRANCH   2   3
ATOM      3  O   UNL A   1      31.878  27.351  25.241  1.00  0.00    -0.462 OA
BRANCH   3   4
ATOM      4  C   UNL A   1      32.506  27.577  24.046  1.00  0.00     0.331 C 
ATOM      5  O   UNL A   1      33.641  28.015  23.911  1.00  0.00    -0.250 OA
BRANCH   4   6
ATOM      6  C   UNL A   1      31.581  27.286  22.874  1.00  0.00     0.221 C 
BRANCH   6   7
ATOM      7  C   UNL A   1      30.831  28.614  22.524  1.00  0.00     0.145 C 
ATOM      8  C   UNL A   1      29.325  28.564  22.757  1.00  0.00     0.041 C 
BRANCH   7   9
ATOM      9  O   UNL A   1      31.311  29.704  23.321  1.00  0.00    -0.391 OA
ATOM     10  H   UNL A   1      30.709  30.460  23.231  1.00  0.00     0.211 HD
ENDBRANCH   7   9
ENDBRANCH   6   7
BRANCH   6  11
ATOM     11  N   UNL A   1      32.244  26.714  21.678  1.00  0.00    -0.335 N 
ATOM     12  C   UNL A   1      32.840  25.514  21.363  1.00  0.00     0.271 C 
ATOM     13  H   UNL A   1      32.264  27.348  20.925  1.00  0.00     0.164 HD
ATOM     14  O   UNL A   1      33.153  25.371  20.178  1.00  0.00    -0.267 OA
BRANCH  12  15
ATOM     15  C   UNL A   1      33.269  24.530  22.364  1.00  0.00     0.139 A 
ATOM     16  C   UNL A   1      32.492  23.416  22.642  1.00  0.00     0.101 A 
ATOM     17  N   UNL A   1      34.408  24.632  23.166  1.00  0.00    -0.231 NA
ATOM     18  S   UNL A   1      33.246  22.422  23.808  1.00  0.00    -0.122 S 
ATOM     19  C   UNL A   1      34.579  23.516  23.862  1.00  0.00     0.125 A 
BRANCH  19  20
ATOM     20  C   UNL A   1      35.922  23.130  24.452  1.00  0.00     0.021 A 
ATOM     21  C   UNL A   1      36.582  21.881  24.260  1.00  0.00     0.023 A 
ATOM     22  C   UNL A   1      36.591  23.912  25.378  1.00  0.00     0.076 A 
ATOM     23  C   UNL A   1      37.722  21.765  25.027  1.00  0.00     0.065 A 
ATOM     24  S   UNL A   1      37.978  23.136  26.016  1.00  0.00    -0.152 S 
ENDBRANCH  19  20
ENDBRANCH  12  15
ENDBRANCH   6  11
ENDBRANCH   4   6
ENDBRANCH   3   4
ENDBRANCH   2   3
ENDBRANCH   1   2
BRANCH   1  25
ATOM     25  O   UNL A   1      32.326  30.349  26.134  1.00  0.00    -0.374 OA
BRANCH  25  26
ATOM     26  C   UNL A   1      31.219  31.246  26.150  1.00  0.00     0.202 C 
BRANCH  26  27
ATOM     27  C   UNL A   1      31.423  32.584  26.877  1.00  0.00     0.261 C 
BRANCH  27  28
ATOM     28  O   UNL A   1      32.795  33.034  26.829  1.00  0.00    -0.460 OA
BRANCH  28  29
ATOM     29  C   UNL A   1      33.294  33.512  27.998  1.00  0.00     0.338 C 
ATOM     30  O   UNL A   1      32.717  34.209  28.819  1.00  0.00    -0.246 OA
BRANCH  29  31
ATOM     31  C   UNL A   1      34.581  32.838  28.293  1.00  0.00     0.060 A 
ATOM     32  C   UNL A   1      34.550  31.528  28.808  1.00  0.00     0.016 A 
ATOM     33  C   UNL A   1      35.797  33.489  28.100  1.00  0.00     0.016 A 
ATOM     34  C   UNL A   1      35.729  30.887  29.190  1.00  0.00     0.010 A 
ATOM     35  C   UNL A   1      36.974  32.863  28.515  1.00  0.00     0.010 A 
ATOM     36  C   UNL A   1      36.938  31.585  29.110  1.00  0.00    -0.014 A 
BRANCH  36  37
ATOM     37  C   UNL A   1      38.106  31.156  29.917  1.00  0.00     0.031 A 
ATOM     38  C   UNL A   1      39.045  30.165  29.283  1.00  0.00     0.074 A 
ATOM     39  C   UNL A   1      38.319  31.586  31.172  1.00  0.00     0.049 A 
ATOM     40  N   UNL A   1      39.991  29.446  29.826  1.00  0.00    -0.248 NA
ATOM     41  C   UNL A   1      38.874  29.944  27.836  1.00  0.00     0.031 C 
ATOM     42  C   UNL A   1      37.542  32.607  31.867  1.00  0.00     0.029 A 
ATOM     43  N   UNL A   1      39.251  31.179  32.094  1.00  0.00    -0.354 N 
ATOM     44  C   UNL A   1      40.507  28.670  28.795  1.00  0.00     0.074 A 
ATOM     45  C   UNL A   1      39.756  28.986  27.601  1.00  0.00     0.031 C 
ATOM     46  C   UNL A   1      38.009  32.725  33.124  1.00  0.00     0.029 A 
ATOM     47  C   UNL A   1      39.080  31.749  33.332  1.00  0.00     0.049 A 
ATOM     48  H   UNL A   1      39.972  30.541  31.889  1.00  0.00     0.167 HD
ATOM     49  C   UNL A   1      41.518  27.771  28.839  1.00  0.00     0.037 A 
ATOM     50  C   UNL A   1      39.690  31.476  34.504  1.00  0.00     0.037 A 
ATOM     51  C   UNL A   1      42.259  27.459  30.029  1.00  0.00     0.049 A 
ATOM     52  C   UNL A   1      40.740  30.391  34.557  1.00  0.00     0.074 A 
ATOM     53  C   UNL A   1      43.291  26.553  30.189  1.00  0.00     0.029 A 
ATOM     54  N   UNL A   1      42.042  28.048  31.266  1.00  0.00    -0.354 N 
ATOM     55  N   UNL A   1      41.209  29.641  33.588  1.00  0.00    -0.248 NA
ATOM     56  C   UNL A   1      41.341  30.109  35.871  1.00  0.00     0.031 C 
ATOM     57  C   UNL A   1      43.667  26.558  31.535  1.00  0.00     0.029 A 
ATOM     58  C   UNL A   1      42.913  27.514  32.198  1.00  0.00     0.049 A 
ATOM     59  H   UNL A   1      41.369  28.743  31.452  1.00  0.00     0.167 HD
ATOM     60  C   UNL A   1      42.191  28.842  34.163  1.00  0.00     0.074 A 
ATOM     61  C   UNL A   1      42.247  29.191  35.566  1.00  0.00     0.031 C 
ATOM     62  C   UNL A   1      42.983  27.907  33.581  1.00  0.00     0.037 A 
BRANCH  49  63
ATOM     63  C   UNL A   1      41.852  27.042  27.572  1.00  0.00     0.057 A 
ATOM     64  C   UNL A   1      42.747  27.566  26.629  1.00  0.00     0.134 A 
ATOM     65  C   UNL A   1      41.290  25.788  27.302  1.00  0.00     0.134 A 
ATOM     66  F   UNL A   1      43.305  28.772  26.816  1.00  0.00    -0.206 F 
ATOM     67  C   UNL A   1      43.052  26.879  25.453  1.00  0.00     0.040 A 
ATOM     68  C   UNL A   1      41.611  25.077  26.145  1.00  0.00     0.040 A 
ATOM     69  F   UNL A   1      40.426  25.229  28.162  1.00  0.00    -0.206 F 
ATOM     70  C   UNL A   1      42.490  25.626  25.213  1.00  0.00     0.006 A 
ENDBRANCH  49  63
BRANCH  50  71
ATOM     71  C   UNL A   1      39.312  32.211  35.740  1.00  0.00     0.057 A 
ATOM     72  C   UNL A   1      38.359  31.691  36.625  1.00  0.00     0.134 A 
ATOM     73  C   UNL A   1      39.850  33.468  36.042  1.00  0.00     0.134 A 
ATOM     74  F   UNL A   1      37.785  30.504  36.379  1.00  0.00    -0.206 F 
ATOM     75  C   UNL A   1      37.938  32.403  37.750  1.00  0.00     0.040 A 
ATOM     76  C   UNL A   1      39.459  34.178  37.179  1.00  0.00     0.040 A 
ATOM     77  F   UNL A   1      40.766  34.025  35.236  1.00  0.00    -0.206 F 
ATOM     78  C   UNL A   1      38.491  33.650  38.031  1.00  0.00     0.006 A 
ENDBRANCH  50  71
BRANCH  62  79
ATOM     79  C   UNL A   1      44.041  27.254  34.424  1.00  0.00     0.057 A 
ATOM     80  C   UNL A   1      43.839  26.024  35.059  1.00  0.00     0.134 A 
ATOM     81  C   UNL A   1      45.313  27.834  34.523  1.00  0.00     0.134 A 
ATOM     82  F   UNL A   1      42.641  25.421  35.011  1.00  0.00    -0.206 F 
ATOM     83  C   UNL A   1      44.864  25.397  35.772  1.00  0.00     0.040 A 
ATOM     84  C   UNL A   1      46.353  27.203  35.208  1.00  0.00     0.040 A 
ATOM     85  F   UNL A   1      45.577  29.007  33.927  1.00  0.00    -0.206 F 
ATOM     86  C   UNL A   1      46.127  25.982  35.837  1.00  0.00     0.006 A 
ENDBRANCH  62  79
ENDBRANCH  36  37
ENDBRANCH  29  31
ENDBRANCH  28  29
ENDBRANCH  27  28
ENDBRANCH  26  27
ENDBRANCH  25  26
ENDBRANCH   1  25
TORSDOF 19
ENDMDL
MODEL 2
REMARK VINA RESULT:     -10.2      1.443      2.322
REMARK SMILES C[C@@H](O)[C@@H](NC(=O)c1csc(-c2ccsc2)n1)C(=O)OCCOCCOC(=O)c1ccc(-c2c3nc(c(-c4c(F)cccc4F)c4ccc([nH]4)c(-c4c(F)cccc4F)c4nc(c(-c5c(F)cccc5F)c5ccc2[nH]5)C=C4)C=C3)cc1
REMARK SMILES IDX 22 1 21 2 20 3 18 4 19 5 4 6 2 7 1 8 3 9 5 11 6 12 7 14 8 15
REMARK SMILES IDX 9 16 17 17 10 18 11 19 12 20 13 21 16 22 14 23 15 24 23 25
REMARK SMILES IDX 24 26 25 27 26 28 27 29 28 30 29 31 30 32 82 33 31 34 81 35
REMARK SMILES IDX 32 36 33 37 34 38 75 39 35 40 80 41 74 42 76 43 36 44 79 45
REMARK SMILES IDX 73 46 72 47 37 49 63 50 46 51 62 52 47 53 50 54 61 55 77 56
REMARK SMILES IDX 48 57 49 58 60 60 78 61 51 62 38 63 39 64 44 65 40 66 41 67
REMARK SMILES IDX 43 68 45 69 42 70 64 71 65 72 70 73 66 74 67 75 69 76 71 77
REMARK SMILES IDX 68 78 52 79 53 80 58 81 54 82 55 83 57 84 59 85 56 86
REMARK H PARENT 3 10 5 13 76 48 50 59
REMARK Flexibility Score: inf
ROOT
ATOM      1  C   UNL A   1      32.266  28.403  27.329  1.00  0.00     0.202 C 
ENDROOT
BRANCH   1   2
ATOM      2  C   UNL A   1      32.529  27.459  26.172  1.00  0.00     0.261 C 
BRANCH   2   3
ATOM      3  O   UNL A   1      31.606  27.425  25.090  1.00  0.00    -0.462 OA
BRANCH   3   4
ATOM      4  C   UNL A   1      32.069  28.016  23.945  1.00  0.00     0.331 C 
ATOM      5  O   UNL A   1      33.005  28.802  23.878  1.00  0.00    -0.250 OA
BRANCH   4   6
ATOM      6  C   UNL A   1      31.216  27.632  22.745  1.00  0.00     0.221 C 
BRANCH   6   7
ATOM      7  C   UNL A   1      30.466  28.920  22.269  1.00  0.00     0.145 C 
ATOM      8  C   UNL A   1      29.800  29.709  23.391  1.00  0.00     0.041 C 
BRANCH   7   9
ATOM      9  O   UNL A   1      31.365  29.836  21.632  1.00  0.00    -0.391 OA
ATOM     10  H   UNL A   1      31.340  30.688  22.094  1.00  0.00     0.211 HD
ENDBRANCH   7   9
ENDBRANCH   6   7
BRANCH   6  11
ATOM     11  N   UNL A   1      31.956  27.000  21.627  1.00  0.00    -0.335 N 
ATOM     12  C   UNL A   1      32.492  25.756  21.381  1.00  0.00     0.271 C 
ATOM     13  H   UNL A   1      32.099  27.621  20.877  1.00  0.00     0.164 HD
ATOM     14  O   UNL A   1      32.914  25.575  20.236  1.00  0.00    -0.267 OA
BRANCH  12  15
ATOM     15  C   UNL A   1      32.742  24.756  22.426  1.00  0.00     0.139 A 
ATOM     16  C   UNL A   1      31.708  23.984  22.932  1.00  0.00     0.101 A 
ATOM     17  N   UNL A   1      33.969  24.529  23.056  1.00  0.00    -0.231 NA
ATOM     18  S   UNL A   1      32.286  22.878  24.098  1.00  0.00    -0.122 S 
ATOM     19  C   UNL A   1      33.888  23.471  23.849  1.00  0.00     0.125 A 
BRANCH  19  20
ATOM     20  C   UNL A   1      35.116  22.704  24.300  1.00  0.00     0.021 A 
ATOM     21  C   UNL A   1      35.153  21.314  24.619  1.00  0.00     0.023 A 
ATOM     22  C   UNL A   1      36.321  23.316  24.598  1.00  0.00     0.076 A 
ATOM     23  C   UNL A   1      36.374  20.924  25.129  1.00  0.00     0.065 A 
ATOM     24  S   UNL A   1      37.464  22.233  25.270  1.00  0.00    -0.152 S 
ENDBRANCH  19  20
ENDBRANCH  12  15
ENDBRANCH   6  11
ENDBRANCH   4   6
ENDBRANCH   3   4
ENDBRANCH   2   3
ENDBRANCH   1   2
BRANCH   1  25
ATOM     25  O   UNL A   1      32.670  29.755  27.241  1.00  0.00    -0.374 OA
BRANCH  25  26
ATOM     26  C   UNL A   1      31.774  30.654  26.591  1.00  0.00     0.202 C 
BRANCH  26  27
ATOM     27  C   UNL A   1      31.967  32.151  26.877  1.00  0.00     0.261 C 
BRANCH  27  28
ATOM     28  O   UNL A   1      33.241  32.433  27.500  1.00  0.00    -0.460 OA
BRANCH  28  29
ATOM     29  C   UNL A   1      33.337  33.640  28.114  1.00  0.00     0.338 C 
ATOM     30  O   UNL A   1      32.528  34.556  28.075  1.00  0.00    -0.246 OA
BRANCH  29  31
ATOM     31  C   UNL A   1      34.453  33.607  29.088  1.00  0.00     0.060 A 
ATOM     32  C   UNL A   1      35.689  34.166  28.711  1.00  0.00     0.016 A 
ATOM     33  C   UNL A   1      34.302  33.012  30.338  1.00  0.00     0.016 A 
ATOM     34  C   UNL A   1      36.796  34.075  29.556  1.00  0.00     0.010 A 
ATOM     35  C   UNL A   1      35.417  32.889  31.168  1.00  0.00     0.010 A 
ATOM     36  C   UNL A   1      36.677  33.371  30.758  1.00  0.00    -0.014 A 
BRANCH  36  37
ATOM     37  C   UNL A   1      37.884  32.846  31.442  1.00  0.00     0.031 A 
ATOM     38  C   UNL A   1      38.553  31.649  30.819  1.00  0.00     0.074 A 
ATOM     39  C   UNL A   1      38.356  33.369  32.585  1.00  0.00     0.049 A 
ATOM     40  N   UNL A   1      39.457  30.847  31.314  1.00  0.00    -0.248 NA
ATOM     41  C   UNL A   1      38.120  31.303  29.453  1.00  0.00     0.031 C 
ATOM     42  C   UNL A   1      37.859  34.574  33.241  1.00  0.00     0.029 A 
ATOM     43  N   UNL A   1      39.354  32.916  33.413  1.00  0.00    -0.354 N 
ATOM     44  C   UNL A   1      39.680  29.888  30.333  1.00  0.00     0.074 A 
ATOM     45  C   UNL A   1      38.803  30.192  29.226  1.00  0.00     0.031 C 
ATOM     46  C   UNL A   1      38.534  34.749  34.393  1.00  0.00     0.029 A 
ATOM     47  C   UNL A   1      39.469  33.638  34.576  1.00  0.00     0.049 A 
ATOM     48  H   UNL A   1      39.931  32.149  33.195  1.00  0.00     0.167 HD
ATOM     49  C   UNL A   1      40.542  28.844  30.353  1.00  0.00     0.037 A 
ATOM     50  C   UNL A   1      40.212  33.398  35.676  1.00  0.00     0.037 A 
ATOM     51  C   UNL A   1      41.410  28.546  31.458  1.00  0.00     0.049 A 
ATOM     52  C   UNL A   1      41.086  32.166  35.724  1.00  0.00     0.074 A 
ATOM     53  C   UNL A   1      42.310  27.504  31.590  1.00  0.00     0.029 A 
ATOM     54  N   UNL A   1      41.484  29.294  32.623  1.00  0.00    -0.354 N 
ATOM     55  N   UNL A   1      41.277  31.247  34.807  1.00  0.00    -0.248 NA
ATOM     56  C   UNL A   1      41.842  31.933  36.965  1.00  0.00     0.031 C 
ATOM     57  C   UNL A   1      42.894  27.593  32.856  1.00  0.00     0.029 A 
ATOM     58  C   UNL A   1      42.405  28.728  33.486  1.00  0.00     0.049 A 
ATOM     59  H   UNL A   1      40.959  30.107  32.808  1.00  0.00     0.167 HD
ATOM     60  C   UNL A   1      42.211  30.364  35.339  1.00  0.00     0.074 A 
ATOM     61  C   UNL A   1      42.542  30.850  36.661  1.00  0.00     0.031 C 
ATOM     62  C   UNL A   1      42.752  29.253  34.781  1.00  0.00     0.037 A 
BRANCH  49  63
ATOM     63  C   UNL A   1      40.557  27.936  29.160  1.00  0.00     0.057 A 
ATOM     64  C   UNL A   1      39.721  26.816  29.070  1.00  0.00     0.134 A 
ATOM     65  C   UNL A   1      41.403  28.200  28.076  1.00  0.00     0.134 A 
ATOM     66  F   UNL A   1      38.901  26.495  30.082  1.00  0.00    -0.206 F 
ATOM     67  C   UNL A   1      39.743  25.978  27.953  1.00  0.00     0.040 A 
ATOM     68  C   UNL A   1      41.412  27.388  26.941  1.00  0.00     0.040 A 
ATOM     69  F   UNL A   1      42.230  29.257  28.097  1.00  0.00    -0.206 F 
ATOM     70  C   UNL A   1      40.584  26.268  26.881  1.00  0.00     0.006 A 
ENDBRANCH  49  63
BRANCH  50  71
ATOM     71  C   UNL A   1      40.150  34.316  36.844  1.00  0.00     0.057 A 
ATOM     72  C   UNL A   1      39.185  34.145  37.844  1.00  0.00     0.134 A 
ATOM     73  C   UNL A   1      41.013  35.411  36.965  1.00  0.00     0.134 A 
ATOM     74  F   UNL A   1      38.310  33.131  37.772  1.00  0.00    -0.206 F 
ATOM     75  C   UNL A   1      39.065  35.042  38.907  1.00  0.00     0.040 A 
ATOM     76  C   UNL A   1      40.923  36.300  38.038  1.00  0.00     0.040 A 
ATOM     77  F   UNL A   1      41.960  35.634  36.041  1.00  0.00    -0.206 F 
ATOM     78  C   UNL A   1      39.938  36.123  39.007  1.00  0.00     0.006 A 
ENDBRANCH  50  71
BRANCH  62  79
ATOM     79  C   UNL A   1      43.824  28.530  35.546  1.00  0.00     0.057 A 
ATOM     80  C   UNL A   1      45.180  28.850  35.419  1.00  0.00     0.134 A 
ATOM     81  C   UNL A   1      43.474  27.556  36.491  1.00  0.00     0.134 A 
ATOM     82  F   UNL A   1      45.583  29.767  34.526  1.00  0.00    -0.206 F 
ATOM     83  C   UNL A   1      46.152  28.220  36.200  1.00  0.00     0.040 A 
ATOM     84  C   UNL A   1      44.433  26.940  37.297  1.00  0.00     0.040 A 
ATOM     85  F   UNL A   1      42.190  27.211  36.671  1.00  0.00    -0.206 F 
ATOM     86  C   UNL A   1      45.777  27.272  37.150  1.00  0.00     0.006 A 
ENDBRANCH  62  79
ENDBRANCH  36  37
ENDBRANCH  29  31
ENDBRANCH  28  29
ENDBRANCH  27  28
ENDBRANCH  26  27
ENDBRANCH  25  26
ENDBRANCH   1  25
TORSDOF 19
ENDMDL
MODEL 3
REMARK VINA RESULT:     -10.0      1.224      6.213
REMARK SMILES C[C@@H](O)[C@@H](NC(=O)c1csc(-c2ccsc2)n1)C(=O)OCCOCCOC(=O)c1ccc(-c2c3nc(c(-c4c(F)cccc4F)c4ccc([nH]4)c(-c4c(F)cccc4F)c4nc(c(-c5c(F)cccc5F)c5ccc2[nH]5)C=C4)C=C3)cc1
REMARK SMILES IDX 22 1 21 2 20 3 18 4 19 5 4 6 2 7 1 8 3 9 5 11 6 12 7 14 8 15
REMARK SMILES IDX 9 16 17 17 10 18 11 19 12 20 13 21 16 22 14 23 15 24 23 25
REMARK SMILES IDX 24 26 25 27 26 28 27 29 28 30 29 31 30 32 82 33 31 34 81 35
REMARK SMILES IDX 32 36 33 37 34 38 75 39 35 40 80 41 74 42 76 43 36 44 79 45
REMARK SMILES IDX 73 46 72 47 37 49 63 50 46 51 62 52 47 53 50 54 61 55 77 56
REMARK SMILES IDX 48 57 49 58 60 60 78 61 51 62 38 63 39 64 44 65 40 66 41 67
REMARK SMILES IDX 43 68 45 69 42 70 64 71 65 72 70 73 66 74 67 75 69 76 71 77
REMARK SMILES IDX 68 78 52 79 53 80 58 81 54 82 55 83 57 84 59 85 56 86
REMARK H PARENT 3 10 5 13 76 48 50 59
REMARK Flexibility Score: inf
ROOT
ATOM      1  C   UNL A   1      32.417  29.353  26.972  1.00  0.00     0.202 C 
ENDROOT
BRANCH   1   2
ATOM      2  C   UNL A   1      32.852  28.755  25.648  1.00  0.00     0.261 C 
BRANCH   2   3
ATOM      3  O   UNL A   1      32.125  29.090  24.472  1.00  0.00    -0.462 OA
BRANCH   3   4
ATOM      4  C   UNL A   1      32.690  28.620  23.317  1.00  0.00     0.331 C 
ATOM      5  O   UNL A   1      33.800  28.918  22.895  1.00  0.00    -0.250 OA
BRANCH   4   6
ATOM      6  C   UNL A   1      31.724  27.722  22.559  1.00  0.00     0.221 C 
BRANCH   6   7
ATOM      7  C   UNL A   1      30.549  28.619  22.045  1.00  0.00     0.145 C 
ATOM      8  C   UNL A   1      29.329  28.637  22.959  1.00  0.00     0.041 C 
BRANCH   7   9
ATOM      9  O   UNL A   1      30.960  29.986  21.920  1.00  0.00    -0.391 OA
ATOM     10  H   UNL A   1      31.927  30.029  21.862  1.00  0.00     0.211 HD
ENDBRANCH   7   9
ENDBRANCH   6   7
BRANCH   6  11
ATOM     11  N   UNL A   1      32.329  26.946  21.449  1.00  0.00    -0.335 N 
ATOM     12  C   UNL A   1      32.744  25.646  21.270  1.00  0.00     0.271 C 
ATOM     13  H   UNL A   1      32.468  27.495  20.644  1.00  0.00     0.164 HD
ATOM     14  O   UNL A   1      33.067  25.344  20.119  1.00  0.00    -0.267 OA
BRANCH  12  15
ATOM     15  C   UNL A   1      32.986  24.709  22.374  1.00  0.00     0.139 A 
ATOM     16  C   UNL A   1      31.935  24.040  22.980  1.00  0.00     0.101 A 
ATOM     17  N   UNL A   1      34.227  24.453  22.963  1.00  0.00    -0.231 NA
ATOM     18  S   UNL A   1      32.503  22.986  24.198  1.00  0.00    -0.122 S 
ATOM     19  C   UNL A   1      34.123  23.460  23.835  1.00  0.00     0.125 A 
BRANCH  19  20
ATOM     20  C   UNL A   1      35.325  22.653  24.287  1.00  0.00     0.021 A 
ATOM     21  C   UNL A   1      35.303  21.280  24.670  1.00  0.00     0.023 A 
ATOM     22  C   UNL A   1      36.567  23.217  24.520  1.00  0.00     0.076 A 
ATOM     23  C   UNL A   1      36.518  20.851  25.162  1.00  0.00     0.065 A 
ATOM     24  S   UNL A   1      37.675  22.108  25.210  1.00  0.00    -0.152 S 
ENDBRANCH  19  20
ENDBRANCH  12  15
ENDBRANCH   6  11
ENDBRANCH   4   6
ENDBRANCH   3   4
ENDBRANCH   2   3
ENDBRANCH   1   2
BRANCH   1  25
ATOM     25  O   UNL A   1      32.606  30.733  27.218  1.00  0.00    -0.374 OA
BRANCH  25  26
ATOM     26  C   UNL A   1      31.617  31.621  26.702  1.00  0.00     0.202 C 
BRANCH  26  27
ATOM     27  C   UNL A   1      31.758  33.105  27.075  1.00  0.00     0.261 C 
BRANCH  27  28
ATOM     28  O   UNL A   1      33.128  33.475  27.351  1.00  0.00    -0.460 OA
BRANCH  28  29
ATOM     29  C   UNL A   1      33.301  34.350  28.375  1.00  0.00     0.338 C 
ATOM     30  O   UNL A   1      32.553  35.258  28.708  1.00  0.00    -0.246 OA
BRANCH  29  31
ATOM     31  C   UNL A   1      34.413  33.882  29.236  1.00  0.00     0.060 A 
ATOM     32  C   UNL A   1      35.733  34.181  28.848  1.00  0.00     0.016 A 
ATOM     33  C   UNL A   1      34.169  33.136  30.386  1.00  0.00     0.016 A 
ATOM     34  C   UNL A   1      36.816  33.682  29.573  1.00  0.00     0.010 A 
ATOM     35  C   UNL A   1      35.252  32.607  31.092  1.00  0.00     0.010 A 
ATOM     36  C   UNL A   1      36.575  32.833  30.657  1.00  0.00    -0.014 A 
BRANCH  36  37
ATOM     37  C   UNL A   1      37.637  31.923  31.148  1.00  0.00     0.031 A 
ATOM     38  C   UNL A   1      38.271  32.265  32.471  1.00  0.00     0.074 A 
ATOM     39  C   UNL A   1      38.062  30.859  30.447  1.00  0.00     0.049 A 
ATOM     40  N   UNL A   1      39.362  31.800  33.018  1.00  0.00    -0.248 NA
ATOM     41  C   UNL A   1      37.581  33.290  33.273  1.00  0.00     0.031 C 
ATOM     42  C   UNL A   1      37.477  30.367  29.203  1.00  0.00     0.029 A 
ATOM     43  N   UNL A   1      39.120  30.015  30.683  1.00  0.00    -0.354 N 
ATOM     44  C   UNL A   1      39.503  32.496  34.213  1.00  0.00     0.074 A 
ATOM     45  C   UNL A   1      38.402  33.428  34.301  1.00  0.00     0.031 C 
ATOM     46  C   UNL A   1      38.207  29.325  28.764  1.00  0.00     0.029 A 
ATOM     47  C   UNL A   1      39.338  29.115  29.669  1.00  0.00     0.049 A 
ATOM     48  H   UNL A   1      39.670  30.053  31.499  1.00  0.00     0.167 HD
ATOM     49  C   UNL A   1      40.466  32.369  35.155  1.00  0.00     0.037 A 
ATOM     50  C   UNL A   1      40.360  28.255  29.477  1.00  0.00     0.037 A 
ATOM     51  C   UNL A   1      41.558  31.441  35.061  1.00  0.00     0.049 A 
ATOM     52  C   UNL A   1      41.484  28.206  30.486  1.00  0.00     0.074 A 
ATOM     53  C   UNL A   1      42.599  31.241  35.950  1.00  0.00     0.029 A 
ATOM     54  N   UNL A   1      41.751  30.557  34.010  1.00  0.00    -0.354 N 
ATOM     55  N   UNL A   1      41.630  28.881  31.602  1.00  0.00    -0.248 NA
ATOM     56  C   UNL A   1      42.592  27.279  30.204  1.00  0.00     0.031 C 
ATOM     57  C   UNL A   1      43.448  30.270  35.413  1.00  0.00     0.029 A 
ATOM     58  C   UNL A   1      42.900  29.819  34.222  1.00  0.00     0.049 A 
ATOM     59  H   UNL A   1      41.156  30.469  33.229  1.00  0.00     0.167 HD
ATOM     60  C   UNL A   1      42.811  28.422  32.176  1.00  0.00     0.074 A 
ATOM     61  C   UNL A   1      43.348  27.418  31.283  1.00  0.00     0.031 C 
ATOM     62  C   UNL A   1      43.396  28.793  33.342  1.00  0.00     0.037 A 
BRANCH  49  63
ATOM     63  C   UNL A   1      40.394  33.277  36.346  1.00  0.00     0.057 A 
ATOM     64  C   UNL A   1      41.138  34.461  36.422  1.00  0.00     0.134 A 
ATOM     65  C   UNL A   1      39.549  32.975  37.422  1.00  0.00     0.134 A 
ATOM     66  F   UNL A   1      41.982  34.800  35.435  1.00  0.00    -0.206 F 
ATOM     67  C   UNL A   1      41.062  35.300  37.535  1.00  0.00     0.040 A 
ATOM     68  C   UNL A   1      39.441  33.821  38.527  1.00  0.00     0.040 A 
ATOM     69  F   UNL A   1      38.808  31.856  37.414  1.00  0.00    -0.206 F 
ATOM     70  C   UNL A   1      40.205  34.985  38.588  1.00  0.00     0.006 A 
ENDBRANCH  49  63
BRANCH  50  71
ATOM     71  C   UNL A   1      40.400  27.387  28.271  1.00  0.00     0.057 A 
ATOM     72  C   UNL A   1      39.783  26.130  28.268  1.00  0.00     0.134 A 
ATOM     73  C   UNL A   1      41.095  27.765  27.116  1.00  0.00     0.134 A 
ATOM     74  F   UNL A   1      39.125  25.697  29.353  1.00  0.00    -0.206 F 
ATOM     75  C   UNL A   1      39.877  25.271  27.171  1.00  0.00     0.040 A 
ATOM     76  C   UNL A   1      41.172  26.927  26.001  1.00  0.00     0.040 A 
ATOM     77  F   UNL A   1      41.710  28.955  27.053  1.00  0.00    -0.206 F 
ATOM     78  C   UNL A   1      40.571  25.671  26.031  1.00  0.00     0.006 A 
ENDBRANCH  50  71
BRANCH  62  79
ATOM     79  C   UNL A   1      44.631  28.058  33.777  1.00  0.00     0.057 A 
ATOM     80  C   UNL A   1      45.919  28.525  33.494  1.00  0.00     0.134 A 
ATOM     81  C   UNL A   1      44.518  26.908  34.570  1.00  0.00     0.134 A 
ATOM     82  F   UNL A   1      46.097  29.615  32.732  1.00  0.00    -0.206 F 
ATOM     83  C   UNL A   1      47.053  27.868  33.977  1.00  0.00     0.040 A 
ATOM     84  C   UNL A   1      45.643  26.260  35.083  1.00  0.00     0.040 A 
ATOM     85  F   UNL A   1      43.312  26.415  34.889  1.00  0.00    -0.206 F 
ATOM     86  C   UNL A   1      46.915  26.740  34.784  1.00  0.00     0.006 A 
ENDBRANCH  62  79
ENDBRANCH  36  37
ENDBRANCH  29  31
ENDBRANCH  28  29
ENDBRANCH  27  28
ENDBRANCH  26  27
ENDBRANCH  25  26
ENDBRANCH   1  25
TORSDOF 19
ENDMDL
