MODEL 1
REMARK VINA RESULT:     -10.3      0.000      0.000
REMARK SMILES CN(C)c1ccc(C(=O)NCCCC(=O)OCCOCCOC(=O)c2ccc(-c3c4nc(c(-c5c(F)cccc5F)c5ccc([nH]5)c(-c5c(F)cccc5F)c5nc(c(-c6c(F)cccc6F)c6ccc3[nH]6)C=C5)C=C4)cc2)cn1
REMARK SMILES IDX 17 1 16 2 14 3 15 4 13 5 12 6 11 7 10 8 8 9 9 10 7 12 4 13
REMARK SMILES IDX 5 14 80 15 6 16 79 17 2 18 1 19 3 20 18 21 19 22 20 23 21 24
REMARK SMILES IDX 22 25 23 26 24 27 25 28 26 29 78 30 27 31 77 32 28 33 29 34
REMARK SMILES IDX 30 35 71 36 31 37 76 38 70 39 72 40 32 41 75 42 69 43 68 44
REMARK SMILES IDX 33 46 59 47 42 48 58 49 43 50 46 51 57 52 73 53 44 54 45 55
REMARK SMILES IDX 56 57 74 58 47 59 34 60 35 61 40 62 36 63 37 64 39 65 41 66
REMARK SMILES IDX 38 67 60 68 61 69 66 70 62 71 63 72 65 73 67 74 64 75 48 76
REMARK SMILES IDX 49 77 54 78 50 79 51 80 53 81 55 82 52 83
REMARK H PARENT 10 11 72 45 46 56
REMARK Flexibility Score: inf
ROOT
ATOM      1  C   UNL A   1      33.033  29.476  26.002  1.00  0.00     0.261 C 
ENDROOT
BRANCH   1   2
ATOM      2  O   UNL A   1      33.166  28.279  26.797  1.00  0.00    -0.463 OA
BRANCH   2   3
ATOM      3  C   UNL A   1      32.035  27.629  27.165  1.00  0.00     0.305 C 
ATOM      4  O   UNL A   1      31.207  28.050  27.960  1.00  0.00    -0.252 OA
BRANCH   3   5
ATOM      5  C   UNL A   1      31.926  26.280  26.479  1.00  0.00     0.124 C 
BRANCH   5   6
ATOM      6  C   UNL A   1      33.233  25.729  25.887  1.00  0.00     0.033 C 
BRANCH   6   7
ATOM      7  C   UNL A   1      33.044  24.691  24.778  1.00  0.00     0.117 C 
BRANCH   7   8
ATOM      8  N   UNL A   1      33.531  25.200  23.514  1.00  0.00    -0.352 N 
ATOM      9  C   UNL A   1      33.109  26.126  22.601  1.00  0.00     0.252 C 
ATOM     10  O   UNL A   1      33.819  26.240  21.598  1.00  0.00    -0.269 OA
ATOM     11  H   UNL A   1      34.377  24.774  23.244  1.00  0.00     0.163 HD
BRANCH   9  12
ATOM     12  C   UNL A   1      31.915  27.004  22.725  1.00  0.00     0.058 A 
ATOM     13  C   UNL A   1      29.915  28.963  22.935  1.00  0.00     0.127 A 
ATOM     14  C   UNL A   1      29.610  27.619  23.122  1.00  0.00     0.048 A 
ATOM     15  N   UNL A   1      31.171  29.332  22.627  1.00  0.00    -0.239 NA
ATOM     16  C   UNL A   1      30.601  26.637  22.980  1.00  0.00     0.019 A 
ATOM     17  C   UNL A   1      32.130  28.369  22.552  1.00  0.00     0.127 A 
BRANCH  13  18
ATOM     18  N   UNL A   1      28.924  29.931  23.028  1.00  0.00    -0.363 N 
ATOM     19  C   UNL A   1      29.213  31.128  23.796  1.00  0.00     0.144 C 
ATOM     20  C   UNL A   1      27.999  30.015  21.911  1.00  0.00     0.144 C 
ENDBRANCH  13  18
ENDBRANCH   9  12
ENDBRANCH   7   8
ENDBRANCH   6   7
ENDBRANCH   5   6
ENDBRANCH   3   5
ENDBRANCH   2   3
ENDBRANCH   1   2
BRANCH   1  21
ATOM     21  C   UNL A   1      32.903  30.698  26.920  1.00  0.00     0.202 C 
BRANCH  21  22
ATOM     22  O   UNL A   1      31.655  31.389  26.823  1.00  0.00    -0.374 OA
BRANCH  22  23
ATOM     23  C   UNL A   1      31.727  32.809  26.726  1.00  0.00     0.202 C 
BRANCH  23  24
ATOM     24  C   UNL A   1      32.839  33.461  27.556  1.00  0.00     0.261 C 
BRANCH  24  25
ATOM     25  O   UNL A   1      32.368  34.632  28.249  1.00  0.00    -0.460 OA
BRANCH  25  26
ATOM     26  C   UNL A   1      33.264  35.165  29.114  1.00  0.00     0.338 C 
ATOM     27  O   UNL A   1      33.144  36.196  29.761  1.00  0.00    -0.246 OA
BRANCH  26  28
ATOM     28  C   UNL A   1      34.399  34.245  29.313  1.00  0.00     0.060 A 
ATOM     29  C   UNL A   1      34.169  33.106  30.093  1.00  0.00     0.016 A 
ATOM     30  C   UNL A   1      35.679  34.528  28.830  1.00  0.00     0.016 A 
ATOM     31  C   UNL A   1      35.228  32.271  30.438  1.00  0.00     0.010 A 
ATOM     32  C   UNL A   1      36.744  33.688  29.183  1.00  0.00     0.010 A 
ATOM     33  C   UNL A   1      36.529  32.577  30.019  1.00  0.00    -0.014 A 
BRANCH  33  34
ATOM     34  C   UNL A   1      37.671  31.807  30.572  1.00  0.00     0.031 A 
ATOM     35  C   UNL A   1      38.099  32.049  31.995  1.00  0.00     0.074 A 
ATOM     36  C   UNL A   1      38.287  30.865  29.837  1.00  0.00     0.049 A 
ATOM     37  N   UNL A   1      39.076  31.501  32.672  1.00  0.00    -0.248 NA
ATOM     38  C   UNL A   1      37.322  33.041  32.756  1.00  0.00     0.031 C 
ATOM     39  C   UNL A   1      37.939  30.503  28.463  1.00  0.00     0.029 A 
ATOM     40  N   UNL A   1      39.339  30.039  30.146  1.00  0.00    -0.354 N 
ATOM     41  C   UNL A   1      39.031  32.078  33.936  1.00  0.00     0.074 A 
ATOM     42  C   UNL A   1      37.951  33.041  33.923  1.00  0.00     0.031 C 
ATOM     43  C   UNL A   1      38.769  29.532  28.046  1.00  0.00     0.029 A 
ATOM     44  C   UNL A   1      39.724  29.226  29.109  1.00  0.00     0.049 A 
ATOM     45  H   UNL A   1      39.775  30.030  31.030  1.00  0.00     0.167 HD
ATOM     46  C   UNL A   1      39.808  31.818  35.013  1.00  0.00     0.037 A 
ATOM     47  C   UNL A   1      40.743  28.349  29.022  1.00  0.00     0.037 A 
ATOM     48  C   UNL A   1      40.880  30.857  35.032  1.00  0.00     0.049 A 
ATOM     49  C   UNL A   1      41.643  28.137  30.212  1.00  0.00     0.074 A 
ATOM     50  C   UNL A   1      41.720  30.521  36.081  1.00  0.00     0.029 A 
ATOM     51  N   UNL A   1      41.261  30.079  33.950  1.00  0.00    -0.354 N 
ATOM     52  N   UNL A   1      41.578  28.675  31.406  1.00  0.00    -0.248 NA
ATOM     53  C   UNL A   1      42.757  27.193  30.041  1.00  0.00     0.031 C 
ATOM     54  C   UNL A   1      42.635  29.571  35.621  1.00  0.00     0.029 A 
ATOM     55  C   UNL A   1      42.336  29.279  34.300  1.00  0.00     0.049 A 
ATOM     56  H   UNL A   1      40.831  30.093  33.064  1.00  0.00     0.167 HD
ATOM     57  C   UNL A   1      42.620  28.112  32.135  1.00  0.00     0.074 A 
ATOM     58  C   UNL A   1      43.292  27.182  31.253  1.00  0.00     0.031 C 
ATOM     59  C   UNL A   1      42.986  28.345  33.418  1.00  0.00     0.037 A 
BRANCH  46  60
ATOM     60  C   UNL A   1      39.539  32.595  36.268  1.00  0.00     0.057 A 
ATOM     61  C   UNL A   1      38.585  32.176  37.204  1.00  0.00     0.134 A 
ATOM     62  C   UNL A   1      40.278  33.746  36.568  1.00  0.00     0.134 A 
ATOM     63  F   UNL A   1      37.833  31.089  36.969  1.00  0.00    -0.206 F 
ATOM     64  C   UNL A   1      38.367  32.881  38.389  1.00  0.00     0.040 A 
ATOM     65  C   UNL A   1      40.086  34.446  37.761  1.00  0.00     0.040 A 
ATOM     66  F   UNL A   1      41.209  34.199  35.716  1.00  0.00    -0.206 F 
ATOM     67  C   UNL A   1      39.126  34.015  38.674  1.00  0.00     0.006 A 
ENDBRANCH  46  60
BRANCH  47  68
ATOM     68  C   UNL A   1      40.993  27.614  27.757  1.00  0.00     0.057 A 
ATOM     69  C   UNL A   1      40.479  26.330  27.547  1.00  0.00     0.134 A 
ATOM     70  C   UNL A   1      41.792  28.162  26.746  1.00  0.00     0.134 A 
ATOM     71  F   UNL A   1      39.728  25.741  28.489  1.00  0.00    -0.206 F 
ATOM     72  C   UNL A   1      40.769  25.606  26.390  1.00  0.00     0.040 A 
ATOM     73  C   UNL A   1      42.070  27.459  25.572  1.00  0.00     0.040 A 
ATOM     74  F   UNL A   1      42.317  29.388  26.886  1.00  0.00    -0.206 F 
ATOM     75  C   UNL A   1      41.566  26.173  25.396  1.00  0.00     0.006 A 
ENDBRANCH  47  68
BRANCH  59  76
ATOM     76  C   UNL A   1      44.138  27.552  33.962  1.00  0.00     0.057 A 
ATOM     77  C   UNL A   1      43.957  26.309  34.581  1.00  0.00     0.134 A 
ATOM     78  C   UNL A   1      45.452  28.023  33.829  1.00  0.00     0.134 A 
ATOM     79  F   UNL A   1      42.723  25.809  34.751  1.00  0.00    -0.206 F 
ATOM     80  C   UNL A   1      45.038  25.573  35.069  1.00  0.00     0.040 A 
ATOM     81  C   UNL A   1      46.542  27.283  34.289  1.00  0.00     0.040 A 
ATOM     82  F   UNL A   1      45.697  29.201  33.237  1.00  0.00    -0.206 F 
ATOM     83  C   UNL A   1      46.335  26.057  34.917  1.00  0.00     0.006 A 
ENDBRANCH  59  76
ENDBRANCH  33  34
ENDBRANCH  26  28
ENDBRANCH  25  26
ENDBRANCH  24  25
ENDBRANCH  23  24
ENDBRANCH  22  23
ENDBRANCH  21  22
ENDBRANCH   1  21
TORSDOF 19
ENDMDL
MODEL 2
REMARK VINA RESULT:     -10.1      1.883      3.713
REMARK SMILES CN(C)c1ccc(C(=O)NCCCC(=O)OCCOCCOC(=O)c2ccc(-c3c4nc(c(-c5c(F)cccc5F)c5ccc([nH]5)c(-c5c(F)cccc5F)c5nc(c(-c6c(F)cccc6F)c6ccc3[nH]6)C=C5)C=C4)cc2)cn1
REMARK SMILES IDX 17 1 16 2 14 3 15 4 13 5 12 6 11 7 10 8 8 9 9 10 7 12 4 13
REMARK SMILES IDX 5 14 80 15 6 16 79 17 2 18 1 19 3 20 18 21 19 22 20 23 21 24
REMARK SMILES IDX 22 25 23 26 24 27 25 28 26 29 78 30 27 31 77 32 28 33 29 34
REMARK SMILES IDX 30 35 71 36 31 37 76 38 70 39 72 40 32 41 75 42 69 43 68 44
REMARK SMILES IDX 33 46 59 47 42 48 58 49 43 50 46 51 57 52 73 53 44 54 45 55
REMARK SMILES IDX 56 57 74 58 47 59 34 60 35 61 40 62 36 63 37 64 39 65 41 66
REMARK SMILES IDX 38 67 60 68 61 69 66 70 62 71 63 72 65 73 67 74 64 75 48 76
REMARK SMILES IDX 49 77 54 78 50 79 51 80 53 81 55 82 52 83
REMARK H PARENT 10 11 72 45 46 56
REMARK Flexibility Score: inf
ROOT
ATOM      1  C   UNL A   1      33.625  29.275  26.266  1.00  0.00     0.261 C 
ENDROOT
BRANCH   1   2
ATOM      2  O   UNL A   1      33.193  27.960  26.673  1.00  0.00    -0.463 OA
BRANCH   2   3
ATOM      3  C   UNL A   1      31.906  27.608  26.432  1.00  0.00     0.305 C 
ATOM      4  O   UNL A   1      31.081  27.324  27.288  1.00  0.00    -0.252 OA
BRANCH   3   5
ATOM      5  C   UNL A   1      31.611  27.584  24.943  1.00  0.00     0.124 C 
BRANCH   5   6
ATOM      6  C   UNL A   1      30.230  27.035  24.550  1.00  0.00     0.033 C 
BRANCH   6   7
ATOM      7  C   UNL A   1      30.196  25.529  24.279  1.00  0.00     0.117 C 
BRANCH   7   8
ATOM      8  N   UNL A   1      30.034  24.791  25.513  1.00  0.00    -0.352 N 
ATOM      9  C   UNL A   1      30.794  23.919  26.242  1.00  0.00     0.252 C 
ATOM     10  O   UNL A   1      30.253  23.468  27.256  1.00  0.00    -0.269 OA
ATOM     11  H   UNL A   1      29.159  24.958  25.932  1.00  0.00     0.163 HD
BRANCH   9  12
ATOM     12  C   UNL A   1      32.189  23.503  25.941  1.00  0.00     0.058 A 
ATOM     13  C   UNL A   1      34.673  22.354  25.313  1.00  0.00     0.127 A 
ATOM     14  C   UNL A   1      34.597  23.660  25.783  1.00  0.00     0.048 A 
ATOM     15  N   UNL A   1      33.549  21.636  25.132  1.00  0.00    -0.239 NA
ATOM     16  C   UNL A   1      33.354  24.247  26.061  1.00  0.00     0.019 A 
ATOM     17  C   UNL A   1      32.357  22.204  25.463  1.00  0.00     0.127 A 
BRANCH  13  18
ATOM     18  N   UNL A   1      35.900  21.790  24.992  1.00  0.00    -0.363 N 
ATOM     19  C   UNL A   1      36.005  20.342  25.002  1.00  0.00     0.144 C 
ATOM     20  C   UNL A   1      36.743  22.553  24.089  1.00  0.00     0.144 C 
ENDBRANCH  13  18
ENDBRANCH   9  12
ENDBRANCH   7   8
ENDBRANCH   6   7
ENDBRANCH   5   6
ENDBRANCH   3   5
ENDBRANCH   2   3
ENDBRANCH   1   2
BRANCH   1  21
ATOM     21  C   UNL A   1      34.666  29.810  27.257  1.00  0.00     0.202 C 
BRANCH  21  22
ATOM     22  O   UNL A   1      34.227  30.919  28.046  1.00  0.00    -0.374 OA
BRANCH  22  23
ATOM     23  C   UNL A   1      33.058  31.593  27.591  1.00  0.00     0.202 C 
BRANCH  23  24
ATOM     24  C   UNL A   1      33.241  33.088  27.301  1.00  0.00     0.261 C 
BRANCH  24  25
ATOM     25  O   UNL A   1      32.336  33.894  28.078  1.00  0.00    -0.460 OA
BRANCH  25  26
ATOM     26  C   UNL A   1      32.921  34.949  28.694  1.00  0.00     0.338 C 
ATOM     27  O   UNL A   1      32.498  36.096  28.759  1.00  0.00    -0.246 OA
BRANCH  26  28
ATOM     28  C   UNL A   1      34.114  34.514  29.443  1.00  0.00     0.060 A 
ATOM     29  C   UNL A   1      35.344  34.585  28.781  1.00  0.00     0.016 A 
ATOM     30  C   UNL A   1      34.028  33.965  30.725  1.00  0.00     0.016 A 
ATOM     31  C   UNL A   1      36.489  34.061  29.376  1.00  0.00     0.010 A 
ATOM     32  C   UNL A   1      35.180  33.434  31.320  1.00  0.00     0.010 A 
ATOM     33  C   UNL A   1      36.407  33.446  30.632  1.00  0.00    -0.014 A 
BRANCH  33  34
ATOM     34  C   UNL A   1      37.580  32.701  31.154  1.00  0.00     0.031 A 
ATOM     35  C   UNL A   1      38.222  33.149  32.440  1.00  0.00     0.074 A 
ATOM     36  C   UNL A   1      38.038  31.605  30.521  1.00  0.00     0.049 A 
ATOM     37  N   UNL A   1      39.260  32.654  33.066  1.00  0.00    -0.248 NA
ATOM     38  C   UNL A   1      37.611  34.308  33.111  1.00  0.00     0.031 C 
ATOM     39  C   UNL A   1      37.477  31.043  29.294  1.00  0.00     0.029 A 
ATOM     40  N   UNL A   1      39.083  30.770  30.828  1.00  0.00    -0.354 N 
ATOM     41  C   UNL A   1      39.426  33.438  34.201  1.00  0.00     0.074 A 
ATOM     42  C   UNL A   1      38.403  34.460  34.163  1.00  0.00     0.031 C 
ATOM     43  C   UNL A   1      38.191  29.958  28.947  1.00  0.00     0.029 A 
ATOM     44  C   UNL A   1      39.274  29.768  29.909  1.00  0.00     0.049 A 
ATOM     45  H   UNL A   1      39.642  30.880  31.632  1.00  0.00     0.167 HD
ATOM     46  C   UNL A   1      40.339  33.309  35.193  1.00  0.00     0.037 A 
ATOM     47  C   UNL A   1      40.228  28.819  29.843  1.00  0.00     0.037 A 
ATOM     48  C   UNL A   1      41.356  32.291  35.237  1.00  0.00     0.049 A 
ATOM     49  C   UNL A   1      41.280  28.747  30.918  1.00  0.00     0.074 A 
ATOM     50  C   UNL A   1      42.322  32.078  36.205  1.00  0.00     0.029 A 
ATOM     51  N   UNL A   1      41.539  31.316  34.269  1.00  0.00    -0.354 N 
ATOM     52  N   UNL A   1      41.416  29.483  31.995  1.00  0.00    -0.248 NA
ATOM     53  C   UNL A   1      42.312  27.710  30.769  1.00  0.00     0.031 C 
ATOM     54  C   UNL A   1      43.116  31.001  35.802  1.00  0.00     0.029 A 
ATOM     55  C   UNL A   1      42.614  30.512  34.607  1.00  0.00     0.049 A 
ATOM     56  H   UNL A   1      40.985  31.211  33.461  1.00  0.00     0.167 HD
ATOM     57  C   UNL A   1      42.525  28.978  32.665  1.00  0.00     0.074 A 
ATOM     58  C   UNL A   1      43.017  27.866  31.880  1.00  0.00     0.031 C 
ATOM     59  C   UNL A   1      43.084  29.398  33.825  1.00  0.00     0.037 A 
BRANCH  46  60
ATOM     60  C   UNL A   1      40.292  34.305  36.314  1.00  0.00     0.057 A 
ATOM     61  C   UNL A   1      41.093  35.453  36.314  1.00  0.00     0.134 A 
ATOM     62  C   UNL A   1      39.397  34.140  37.378  1.00  0.00     0.134 A 
ATOM     63  F   UNL A   1      41.982  35.662  35.330  1.00  0.00    -0.206 F 
ATOM     64  C   UNL A   1      41.016  36.397  37.340  1.00  0.00     0.040 A 
ATOM     65  C   UNL A   1      39.293  35.088  38.398  1.00  0.00     0.040 A 
ATOM     66  F   UNL A   1      38.598  33.063  37.436  1.00  0.00    -0.206 F 
ATOM     67  C   UNL A   1      40.106  36.219  38.382  1.00  0.00     0.006 A 
ENDBRANCH  46  60
BRANCH  47  68
ATOM     68  C   UNL A   1      40.256  27.864  28.706  1.00  0.00     0.057 A 
ATOM     69  C   UNL A   1      39.606  26.627  28.778  1.00  0.00     0.134 A 
ATOM     70  C   UNL A   1      40.974  28.148  27.538  1.00  0.00     0.134 A 
ATOM     71  F   UNL A   1      38.924  26.286  29.881  1.00  0.00    -0.206 F 
ATOM     72  C   UNL A   1      39.689  25.696  27.741  1.00  0.00     0.040 A 
ATOM     73  C   UNL A   1      41.044  27.238  26.482  1.00  0.00     0.040 A 
ATOM     74  F   UNL A   1      41.621  29.316  27.407  1.00  0.00    -0.206 F 
ATOM     75  C   UNL A   1      40.408  26.004  26.587  1.00  0.00     0.006 A 
ENDBRANCH  47  68
BRANCH  59  76
ATOM     76  C   UNL A   1      44.265  28.628  34.341  1.00  0.00     0.057 A 
ATOM     77  C   UNL A   1      45.580  28.998  34.038  1.00  0.00     0.134 A 
ATOM     78  C   UNL A   1      44.081  27.523  35.184  1.00  0.00     0.134 A 
ATOM     79  F   UNL A   1      45.824  30.038  33.226  1.00  0.00    -0.206 F 
ATOM     80  C   UNL A   1      46.672  28.283  34.536  1.00  0.00     0.040 A 
ATOM     81  C   UNL A   1      45.165  26.818  35.709  1.00  0.00     0.040 A 
ATOM     82  F   UNL A   1      42.847  27.121  35.522  1.00  0.00    -0.206 F 
ATOM     83  C   UNL A   1      46.465  27.194  35.380  1.00  0.00     0.006 A 
ENDBRANCH  59  76
ENDBRANCH  33  34
ENDBRANCH  26  28
ENDBRANCH  25  26
ENDBRANCH  24  25
ENDBRANCH  23  24
ENDBRANCH  22  23
ENDBRANCH  21  22
ENDBRANCH   1  21
TORSDOF 19
ENDMDL
MODEL 3
REMARK VINA RESULT:      -9.9      3.753      8.814
REMARK SMILES CN(C)c1ccc(C(=O)NCCCC(=O)OCCOCCOC(=O)c2ccc(-c3c4nc(c(-c5c(F)cccc5F)c5ccc([nH]5)c(-c5c(F)cccc5F)c5nc(c(-c6c(F)cccc6F)c6ccc3[nH]6)C=C5)C=C4)cc2)cn1
REMARK SMILES IDX 17 1 16 2 14 3 15 4 13 5 12 6 11 7 10 8 8 9 9 10 7 12 4 13
REMARK SMILES IDX 5 14 80 15 6 16 79 17 2 18 1 19 3 20 18 21 19 22 20 23 21 24
REMARK SMILES IDX 22 25 23 26 24 27 25 28 26 29 78 30 27 31 77 32 28 33 29 34
REMARK SMILES IDX 30 35 71 36 31 37 76 38 70 39 72 40 32 41 75 42 69 43 68 44
REMARK SMILES IDX 33 46 59 47 42 48 58 49 43 50 46 51 57 52 73 53 44 54 45 55
REMARK SMILES IDX 56 57 74 58 47 59 34 60 35 61 40 62 36 63 37 64 39 65 41 66
REMARK SMILES IDX 38 67 60 68 61 69 66 70 62 71 63 72 65 73 67 74 64 75 48 76
REMARK SMILES IDX 49 77 54 78 50 79 51 80 53 81 55 82 52 83
REMARK H PARENT 10 11 72 45 46 56
REMARK Flexibility Score: inf
ROOT
ATOM      1  C   UNL A   1      38.098  21.584  25.366  1.00  0.00     0.261 C 
ENDROOT
BRANCH   1   2
ATOM      2  O   UNL A   1      37.278  22.716  25.010  1.00  0.00    -0.463 OA
BRANCH   2   3
ATOM      3  C   UNL A   1      35.959  22.502  24.781  1.00  0.00     0.305 C 
ATOM      4  O   UNL A   1      35.378  21.439  24.949  1.00  0.00    -0.252 OA
BRANCH   3   5
ATOM      5  C   UNL A   1      35.278  23.754  24.259  1.00  0.00     0.124 C 
BRANCH   5   6
ATOM      6  C   UNL A   1      34.701  24.691  25.332  1.00  0.00     0.033 C 
BRANCH   6   7
ATOM      7  C   UNL A   1      33.488  24.132  26.080  1.00  0.00     0.117 C 
BRANCH   7   8
ATOM      8  N   UNL A   1      32.304  24.190  25.250  1.00  0.00    -0.352 N 
ATOM      9  C   UNL A   1      31.633  23.320  24.436  1.00  0.00     0.252 C 
ATOM     10  O   UNL A   1      30.651  23.791  23.855  1.00  0.00    -0.269 OA
ATOM     11  H   UNL A   1      31.876  25.076  25.277  1.00  0.00     0.163 HD
BRANCH   9  12
ATOM     12  C   UNL A   1      31.960  21.885  24.221  1.00  0.00     0.058 A 
ATOM     13  C   UNL A   1      32.589  19.149  24.209  1.00  0.00     0.127 A 
ATOM     14  C   UNL A   1      32.575  19.876  23.024  1.00  0.00     0.048 A 
ATOM     15  N   UNL A   1      32.276  19.750  25.372  1.00  0.00    -0.239 NA
ATOM     16  C   UNL A   1      32.225  21.233  23.024  1.00  0.00     0.019 A 
ATOM     17  C   UNL A   1      31.995  21.082  25.358  1.00  0.00     0.127 A 
BRANCH  13  18
ATOM     18  N   UNL A   1      32.889  17.793  24.202  1.00  0.00    -0.363 N 
ATOM     19  C   UNL A   1      34.016  17.351  23.401  1.00  0.00     0.144 C 
ATOM     20  C   UNL A   1      32.538  17.050  25.399  1.00  0.00     0.144 C 
ENDBRANCH  13  18
ENDBRANCH   9  12
ENDBRANCH   7   8
ENDBRANCH   6   7
ENDBRANCH   5   6
ENDBRANCH   3   5
ENDBRANCH   2   3
ENDBRANCH   1   2
BRANCH   1  21
ATOM     21  C   UNL A   1      39.308  22.055  26.182  1.00  0.00     0.202 C 
BRANCH  21  22
ATOM     22  O   UNL A   1      40.134  21.004  26.690  1.00  0.00    -0.374 OA
BRANCH  22  23
ATOM     23  C   UNL A   1      41.519  21.304  26.832  1.00  0.00     0.202 C 
BRANCH  23  24
ATOM     24  C   UNL A   1      42.012  22.501  26.010  1.00  0.00     0.261 C 
BRANCH  24  25
ATOM     25  O   UNL A   1      42.421  23.593  26.854  1.00  0.00    -0.460 OA
BRANCH  25  26
ATOM     26  C   UNL A   1      42.373  24.807  26.255  1.00  0.00     0.338 C 
ATOM     27  O   UNL A   1      42.600  25.061  25.079  1.00  0.00    -0.246 OA
BRANCH  26  28
ATOM     28  C   UNL A   1      41.849  25.823  27.185  1.00  0.00     0.060 A 
ATOM     29  C   UNL A   1      42.479  27.072  27.189  1.00  0.00     0.016 A 
ATOM     30  C   UNL A   1      40.828  25.540  28.098  1.00  0.00     0.016 A 
ATOM     31  C   UNL A   1      42.129  28.028  28.138  1.00  0.00     0.010 A 
ATOM     32  C   UNL A   1      40.481  26.502  29.055  1.00  0.00     0.010 A 
ATOM     33  C   UNL A   1      41.155  27.736  29.103  1.00  0.00    -0.014 A 
BRANCH  33  34
ATOM     34  C   UNL A   1      40.949  28.674  30.235  1.00  0.00     0.031 A 
ATOM     35  C   UNL A   1      39.847  29.695  30.151  1.00  0.00     0.074 A 
ATOM     36  C   UNL A   1      41.699  28.584  31.348  1.00  0.00     0.049 A 
ATOM     37  N   UNL A   1      39.502  30.617  31.015  1.00  0.00    -0.248 NA
ATOM     38  C   UNL A   1      39.022  29.674  28.932  1.00  0.00     0.031 C 
ATOM     39  C   UNL A   1      42.767  27.610  31.572  1.00  0.00     0.029 A 
ATOM     40  N   UNL A   1      41.673  29.327  32.502  1.00  0.00    -0.354 N 
ATOM     41  C   UNL A   1      38.423  31.283  30.446  1.00  0.00     0.074 A 
ATOM     42  C   UNL A   1      38.190  30.682  29.151  1.00  0.00     0.031 C 
ATOM     43  C   UNL A   1      43.300  27.822  32.788  1.00  0.00     0.029 A 
ATOM     44  C   UNL A   1      42.633  28.962  33.413  1.00  0.00     0.049 A 
ATOM     45  H   UNL A   1      41.026  30.053  32.661  1.00  0.00     0.167 HD
ATOM     46  C   UNL A   1      37.685  32.294  30.963  1.00  0.00     0.037 A 
ATOM     47  C   UNL A   1      42.949  29.500  34.607  1.00  0.00     0.037 A 
ATOM     48  C   UNL A   1      37.911  32.891  32.253  1.00  0.00     0.049 A 
ATOM     49  C   UNL A   1      42.162  30.676  35.123  1.00  0.00     0.074 A 
ATOM     50  C   UNL A   1      37.210  33.917  32.863  1.00  0.00     0.029 A 
ATOM     51  N   UNL A   1      38.916  32.516  33.131  1.00  0.00    -0.354 N 
ATOM     52  N   UNL A   1      41.133  31.285  34.585  1.00  0.00    -0.248 NA
ATOM     53  C   UNL A   1      42.579  31.238  36.416  1.00  0.00     0.031 C 
ATOM     54  C   UNL A   1      37.817  34.191  34.092  1.00  0.00     0.029 A 
ATOM     55  C   UNL A   1      38.866  33.304  34.268  1.00  0.00     0.049 A 
ATOM     56  H   UNL A   1      39.568  31.796  32.969  1.00  0.00     0.167 HD
ATOM     57  C   UNL A   1      40.763  32.277  35.485  1.00  0.00     0.074 A 
ATOM     58  C   UNL A   1      41.669  32.180  36.610  1.00  0.00     0.031 C 
ATOM     59  C   UNL A   1      39.763  33.186  35.389  1.00  0.00     0.037 A 
BRANCH  46  60
ATOM     60  C   UNL A   1      36.564  32.833  30.125  1.00  0.00     0.057 A 
ATOM     61  C   UNL A   1      35.231  32.466  30.353  1.00  0.00     0.134 A 
ATOM     62  C   UNL A   1      36.813  33.769  29.114  1.00  0.00     0.134 A 
ATOM     63  F   UNL A   1      34.927  31.562  31.298  1.00  0.00    -0.206 F 
ATOM     64  C   UNL A   1      34.187  33.003  29.597  1.00  0.00     0.040 A 
ATOM     65  C   UNL A   1      35.776  34.330  28.367  1.00  0.00     0.040 A 
ATOM     66  F   UNL A   1      38.067  34.166  28.847  1.00  0.00    -0.206 F 
ATOM     67  C   UNL A   1      34.459  33.944  28.606  1.00  0.00     0.006 A 
ENDBRANCH  46  60
BRANCH  47  68
ATOM     68  C   UNL A   1      44.081  28.953  35.398  1.00  0.00     0.057 A 
ATOM     69  C   UNL A   1      45.394  29.384  35.183  1.00  0.00     0.134 A 
ATOM     70  C   UNL A   1      43.878  27.951  36.355  1.00  0.00     0.134 A 
ATOM     71  F   UNL A   1      45.655  30.322  34.262  1.00  0.00    -0.206 F 
ATOM     72  C   UNL A   1      46.470  28.822  35.873  1.00  0.00     0.040 A 
ATOM     73  C   UNL A   1      44.941  27.399  37.072  1.00  0.00     0.040 A 
ATOM     74  F   UNL A   1      42.643  27.494  36.607  1.00  0.00    -0.206 F 
ATOM     75  C   UNL A   1      46.243  27.828  36.824  1.00  0.00     0.006 A 
ENDBRANCH  47  68
BRANCH  59  76
ATOM     76  C   UNL A   1      39.566  34.121  36.546  1.00  0.00     0.057 A 
ATOM     77  C   UNL A   1      38.841  33.749  37.684  1.00  0.00     0.134 A 
ATOM     78  C   UNL A   1      40.144  35.398  36.536  1.00  0.00     0.134 A 
ATOM     79  F   UNL A   1      38.251  32.545  37.751  1.00  0.00    -0.206 F 
ATOM     80  C   UNL A   1      38.677  34.622  38.762  1.00  0.00     0.040 A 
ATOM     81  C   UNL A   1      40.010  36.268  37.619  1.00  0.00     0.040 A 
ATOM     82  F   UNL A   1      40.861  35.813  35.481  1.00  0.00    -0.206 F 
ATOM     83  C   UNL A   1      39.269  35.882  38.734  1.00  0.00     0.006 A 
ENDBRANCH  59  76
ENDBRANCH  33  34
ENDBRANCH  26  28
ENDBRANCH  25  26
ENDBRANCH  24  25
ENDBRANCH  23  24
ENDBRANCH  22  23
ENDBRANCH  21  22
ENDBRANCH   1  21
TORSDOF 19
ENDMDL
