MODEL 1
REMARK VINA RESULT:     -11.2      0.000      0.000
REMARK SMILES O=C(OCCOCCOC(=O)[C@@H]1[C@H](C(=O)Nc2ccccc2OC(F)F)[C@@H]2C=C[C@H]1C2)c1ccc(-c2c3nc(c(-c4c(F)cccc4F)c4ccc([nH]4)c(-c4c(F)cccc4F)c4nc(c(-c5c(F)cccc5F)c5ccc2[nH]5)C=C4)C=C3)cc1
REMARK SMILES IDX 7 1 6 2 5 3 4 4 3 5 2 6 1 7 32 8 33 9 85 10 34 11 84 12
REMARK SMILES IDX 35 13 36 14 37 15 78 16 38 17 83 18 77 19 79 20 39 21 82 22
REMARK SMILES IDX 76 23 75 24 40 26 66 27 49 28 65 29 50 30 53 31 64 32 80 33
REMARK SMILES IDX 51 34 52 35 63 37 81 38 54 39 41 40 42 41 47 42 43 43 44 44
REMARK SMILES IDX 46 45 48 46 45 47 67 48 68 49 73 50 69 51 70 52 72 53 74 54
REMARK SMILES IDX 71 55 55 56 56 57 61 58 57 59 58 60 60 61 62 62 59 63 8 64
REMARK SMILES IDX 9 65 10 66 11 67 12 68 13 69 30 70 27 71 29 72 31 73 28 74
REMARK SMILES IDX 14 75 15 76 16 77 17 79 18 80 22 81 19 82 21 83 20 84 23 85
REMARK SMILES IDX 24 86 25 87 26 88
REMARK H PARENT 79 25 53 36 16 78
REMARK Flexibility Score: inf
ROOT
ATOM      1  C   UNL A   1      37.401  22.189  24.829  1.00  0.00     0.202 C 
ENDROOT
BRANCH   1   2
ATOM      2  O   UNL A   1      37.673  21.030  25.608  1.00  0.00    -0.374 OA
BRANCH   2   3
ATOM      3  C   UNL A   1      38.274  19.974  24.875  1.00  0.00     0.202 C 
BRANCH   3   4
ATOM      4  C   UNL A   1      39.124  19.067  25.770  1.00  0.00     0.261 C 
BRANCH   4   5
ATOM      5  O   UNL A   1      40.537  19.333  25.653  1.00  0.00    -0.460 OA
BRANCH   5   6
ATOM      6  C   UNL A   1      41.406  19.912  26.518  1.00  0.00     0.338 C 
ATOM      7  O   UNL A   1      42.141  19.170  27.172  1.00  0.00    -0.246 OA
BRANCH   6   8
ATOM      8  C   UNL A   1      41.449  21.379  26.846  1.00  0.00     0.060 A 
ATOM      9  C   UNL A   1      40.870  22.402  26.093  1.00  0.00     0.016 A 
ATOM     10  C   UNL A   1      42.051  21.743  28.069  1.00  0.00     0.016 A 
ATOM     11  C   UNL A   1      40.779  23.706  26.564  1.00  0.00     0.010 A 
ATOM     12  C   UNL A   1      42.084  23.074  28.496  1.00  0.00     0.010 A 
ATOM     13  C   UNL A   1      41.457  24.057  27.725  1.00  0.00    -0.014 A 
BRANCH  13  14
ATOM     14  C   UNL A   1      41.825  25.475  27.861  1.00  0.00     0.031 A 
ATOM     15  C   UNL A   1      43.153  25.864  27.277  1.00  0.00     0.074 A 
ATOM     16  C   UNL A   1      40.980  26.372  28.385  1.00  0.00     0.049 A 
ATOM     17  N   UNL A   1      43.761  27.016  27.280  1.00  0.00    -0.248 NA
ATOM     18  C   UNL A   1      43.888  24.805  26.556  1.00  0.00     0.031 C 
ATOM     19  C   UNL A   1      39.617  26.091  28.835  1.00  0.00     0.029 A 
ATOM     20  N   UNL A   1      41.150  27.707  28.628  1.00  0.00    -0.354 N 
ATOM     21  C   UNL A   1      44.942  26.811  26.574  1.00  0.00     0.074 A 
ATOM     22  C   UNL A   1      44.952  25.439  26.131  1.00  0.00     0.031 C 
ATOM     23  C   UNL A   1      39.088  27.220  29.341  1.00  0.00     0.029 A 
ATOM     24  C   UNL A   1      40.095  28.277  29.294  1.00  0.00     0.049 A 
ATOM     25  H   UNL A   1      41.951  28.210  28.352  1.00  0.00     0.167 HD
ATOM     26  C   UNL A   1      45.948  27.683  26.358  1.00  0.00     0.037 A 
ATOM     27  C   UNL A   1      40.000  29.501  29.849  1.00  0.00     0.037 A 
ATOM     28  C   UNL A   1      45.942  29.008  26.903  1.00  0.00     0.049 A 
ATOM     29  C   UNL A   1      41.186  30.424  29.720  1.00  0.00     0.074 A 
ATOM     30  C   UNL A   1      46.932  29.966  26.870  1.00  0.00     0.029 A 
ATOM     31  N   UNL A   1      44.877  29.538  27.622  1.00  0.00    -0.354 N 
ATOM     32  N   UNL A   1      42.326  30.217  29.100  1.00  0.00    -0.248 NA
ATOM     33  C   UNL A   1      41.087  31.736  30.371  1.00  0.00     0.031 C 
ATOM     34  C   UNL A   1      46.485  31.062  27.617  1.00  0.00     0.029 A 
ATOM     35  C   UNL A   1      45.194  30.806  28.063  1.00  0.00     0.049 A 
ATOM     36  H   UNL A   1      44.024  29.078  27.792  1.00  0.00     0.167 HD
ATOM     37  C   UNL A   1      43.075  31.374  29.271  1.00  0.00     0.074 A 
ATOM     38  C   UNL A   1      42.254  32.281  30.050  1.00  0.00     0.031 C 
ATOM     39  C   UNL A   1      44.324  31.668  28.828  1.00  0.00     0.037 A 
BRANCH  26  40
ATOM     40  C   UNL A   1      47.150  27.146  25.637  1.00  0.00     0.057 A 
ATOM     41  C   UNL A   1      48.184  26.475  26.306  1.00  0.00     0.134 A 
ATOM     42  C   UNL A   1      47.336  27.426  24.278  1.00  0.00     0.134 A 
ATOM     43  F   UNL A   1      48.091  26.221  27.621  1.00  0.00    -0.206 F 
ATOM     44  C   UNL A   1      49.376  26.142  25.659  1.00  0.00     0.040 A 
ATOM     45  C   UNL A   1      48.513  27.075  23.615  1.00  0.00     0.040 A 
ATOM     46  F   UNL A   1      46.398  28.085  23.584  1.00  0.00    -0.206 F 
ATOM     47  C   UNL A   1      49.543  26.444  24.309  1.00  0.00     0.006 A 
ENDBRANCH  26  40
BRANCH  27  48
ATOM     48  C   UNL A   1      38.788  29.872  30.625  1.00  0.00     0.057 A 
ATOM     49  C   UNL A   1      37.746  30.613  30.058  1.00  0.00     0.134 A 
ATOM     50  C   UNL A   1      38.627  29.460  31.956  1.00  0.00     0.134 A 
ATOM     51  F   UNL A   1      37.843  31.058  28.797  1.00  0.00    -0.206 F 
ATOM     52  C   UNL A   1      36.591  30.927  30.781  1.00  0.00     0.040 A 
ATOM     53  C   UNL A   1      37.469  29.746  32.683  1.00  0.00     0.040 A 
ATOM     54  F   UNL A   1      39.587  28.746  32.565  1.00  0.00    -0.206 F 
ATOM     55  C   UNL A   1      36.446  30.484  32.095  1.00  0.00     0.006 A 
ENDBRANCH  27  48
BRANCH  39  56
ATOM     56  C   UNL A   1      44.859  33.031  29.136  1.00  0.00     0.057 A 
ATOM     57  C   UNL A   1      45.691  33.263  30.235  1.00  0.00     0.134 A 
ATOM     58  C   UNL A   1      44.639  34.087  28.244  1.00  0.00     0.134 A 
ATOM     59  F   UNL A   1      45.933  32.288  31.125  1.00  0.00    -0.206 F 
ATOM     60  C   UNL A   1      46.290  34.506  30.437  1.00  0.00     0.040 A 
ATOM     61  C   UNL A   1      45.251  35.325  28.422  1.00  0.00     0.040 A 
ATOM     62  F   UNL A   1      43.862  33.914  27.162  1.00  0.00    -0.206 F 
ATOM     63  C   UNL A   1      46.082  35.536  29.521  1.00  0.00     0.006 A 
ENDBRANCH  39  56
ENDBRANCH  13  14
ENDBRANCH   6   8
ENDBRANCH   5   6
ENDBRANCH   4   5
ENDBRANCH   3   4
ENDBRANCH   2   3
ENDBRANCH   1   2
BRANCH   1  64
ATOM     64  C   UNL A   1      37.210  23.321  25.782  1.00  0.00     0.261 C 
BRANCH  64  65
ATOM     65  O   UNL A   1      35.999  24.042  25.469  1.00  0.00    -0.463 OA
BRANCH  65  66
ATOM     66  C   UNL A   1      34.856  23.499  25.970  1.00  0.00     0.310 C 
ATOM     67  O   UNL A   1      34.705  23.158  27.140  1.00  0.00    -0.252 OA
BRANCH  66  68
ATOM     68  C   UNL A   1      33.748  23.369  24.964  1.00  0.00     0.119 C 
ATOM     69  C   UNL A   1      32.319  24.002  25.100  1.00  0.00     0.100 C 
ATOM     70  C   UNL A   1      33.464  21.967  24.364  1.00  0.00     0.027 C 
ATOM     71  C   UNL A   1      31.428  22.910  24.433  1.00  0.00     0.025 C 
ATOM     72  C   UNL A   1      32.609  21.135  25.286  1.00  0.00    -0.027 C 
ATOM     73  C   UNL A   1      32.370  22.353  23.352  1.00  0.00     0.017 C 
ATOM     74  C   UNL A   1      31.388  21.688  25.314  1.00  0.00    -0.027 C 
BRANCH  69  75
ATOM     75  C   UNL A   1      31.523  24.770  26.187  1.00  0.00     0.229 C 
ATOM     76  O   UNL A   1      31.427  24.213  27.299  1.00  0.00    -0.274 OA
ATOM     77  N   UNL A   1      31.111  26.069  26.202  1.00  0.00    -0.323 N 
ATOM     78  H   UNL A   1      30.921  26.408  27.107  1.00  0.00     0.170 HD
BRANCH  77  79
ATOM     79  C   UNL A   1      30.903  27.019  25.204  1.00  0.00     0.084 A 
ATOM     80  C   UNL A   1      29.998  26.735  24.175  1.00  0.00     0.030 A 
ATOM     81  C   UNL A   1      31.557  28.228  25.171  1.00  0.00     0.149 A 
ATOM     82  C   UNL A   1      29.526  27.760  23.346  1.00  0.00     0.002 A 
ATOM     83  C   UNL A   1      30.976  29.286  24.463  1.00  0.00     0.049 A 
ATOM     84  C   UNL A   1      29.942  29.063  23.566  1.00  0.00     0.004 A 
BRANCH  81  85
ATOM     85  O   UNL A   1      32.769  28.466  25.727  1.00  0.00    -0.433 OA
BRANCH  85  86
ATOM     86  C   UNL A   1      32.912  29.119  26.990  1.00  0.00     0.542 C 
ATOM     87  F   UNL A   1      31.787  28.970  27.721  1.00  0.00    -0.167 F 
ATOM     88  F   UNL A   1      33.955  28.613  27.684  1.00  0.00    -0.167 F 
ENDBRANCH  85  86
ENDBRANCH  81  85
ENDBRANCH  77  79
ENDBRANCH  69  75
ENDBRANCH  66  68
ENDBRANCH  65  66
ENDBRANCH  64  65
ENDBRANCH   1  64
TORSDOF 18
ENDMDL
MODEL 2
REMARK VINA RESULT:     -11.2      2.087      3.525
REMARK SMILES O=C(OCCOCCOC(=O)[C@@H]1[C@H](C(=O)Nc2ccccc2OC(F)F)[C@@H]2C=C[C@H]1C2)c1ccc(-c2c3nc(c(-c4c(F)cccc4F)c4ccc([nH]4)c(-c4c(F)cccc4F)c4nc(c(-c5c(F)cccc5F)c5ccc2[nH]5)C=C4)C=C3)cc1
REMARK SMILES IDX 7 1 6 2 5 3 4 4 3 5 2 6 1 7 32 8 33 9 85 10 34 11 84 12
REMARK SMILES IDX 35 13 36 14 37 15 78 16 38 17 83 18 77 19 79 20 39 21 82 22
REMARK SMILES IDX 76 23 75 24 40 26 66 27 49 28 65 29 50 30 53 31 64 32 80 33
REMARK SMILES IDX 51 34 52 35 63 37 81 38 54 39 41 40 42 41 47 42 43 43 44 44
REMARK SMILES IDX 46 45 48 46 45 47 67 48 68 49 73 50 69 51 70 52 72 53 74 54
REMARK SMILES IDX 71 55 55 56 56 57 61 58 57 59 58 60 60 61 62 62 59 63 8 64
REMARK SMILES IDX 9 65 10 66 11 67 12 68 13 69 30 70 27 71 29 72 31 73 28 74
REMARK SMILES IDX 14 75 15 76 16 77 17 79 18 80 22 81 19 82 21 83 20 84 23 85
REMARK SMILES IDX 24 86 25 87 26 88
REMARK H PARENT 79 25 53 36 16 78
REMARK Flexibility Score: inf
ROOT
ATOM      1  C   UNL A   1      36.023  22.261  25.373  1.00  0.00     0.202 C 
ENDROOT
BRANCH   1   2
ATOM      2  O   UNL A   1      37.332  22.138  24.830  1.00  0.00    -0.374 OA
BRANCH   2   3
ATOM      3  C   UNL A   1      38.219  21.377  25.636  1.00  0.00     0.202 C 
BRANCH   3   4
ATOM      4  C   UNL A   1      38.552  20.024  25.001  1.00  0.00     0.261 C 
BRANCH   4   5
ATOM      5  O   UNL A   1      39.533  19.280  25.754  1.00  0.00    -0.460 OA
BRANCH   5   6
ATOM      6  C   UNL A   1      40.861  19.489  25.932  1.00  0.00     0.338 C 
ATOM      7  O   UNL A   1      41.608  18.513  25.853  1.00  0.00    -0.246 OA
BRANCH   6   8
ATOM      8  C   UNL A   1      41.481  20.791  26.356  1.00  0.00     0.060 A 
ATOM      9  C   UNL A   1      41.476  21.315  27.650  1.00  0.00     0.016 A 
ATOM     10  C   UNL A   1      42.206  21.503  25.378  1.00  0.00     0.016 A 
ATOM     11  C   UNL A   1      42.240  22.421  28.003  1.00  0.00     0.010 A 
ATOM     12  C   UNL A   1      42.875  22.692  25.688  1.00  0.00     0.010 A 
ATOM     13  C   UNL A   1      42.871  23.156  27.007  1.00  0.00    -0.014 A 
BRANCH  13  14
ATOM     14  C   UNL A   1      43.146  24.568  27.313  1.00  0.00     0.031 A 
ATOM     15  C   UNL A   1      44.588  24.984  27.233  1.00  0.00     0.074 A 
ATOM     16  C   UNL A   1      42.158  25.440  27.548  1.00  0.00     0.049 A 
ATOM     17  N   UNL A   1      45.139  26.137  27.486  1.00  0.00    -0.248 NA
ATOM     18  C   UNL A   1      45.542  23.958  26.769  1.00  0.00     0.031 C 
ATOM     19  C   UNL A   1      40.728  25.138  27.494  1.00  0.00     0.029 A 
ATOM     20  N   UNL A   1      42.213  26.766  27.884  1.00  0.00    -0.354 N 
ATOM     21  C   UNL A   1      46.493  25.965  27.219  1.00  0.00     0.074 A 
ATOM     22  C   UNL A   1      46.677  24.612  26.757  1.00  0.00     0.031 C 
ATOM     23  C   UNL A   1      40.040  26.244  27.830  1.00  0.00     0.029 A 
ATOM     24  C   UNL A   1      40.984  27.305  28.169  1.00  0.00     0.049 A 
ATOM     25  H   UNL A   1      43.051  27.282  27.917  1.00  0.00     0.167 HD
ATOM     26  C   UNL A   1      47.497  26.848  27.394  1.00  0.00     0.037 A 
ATOM     27  C   UNL A   1      40.685  28.505  28.703  1.00  0.00     0.037 A 
ATOM     28  C   UNL A   1      47.283  28.150  27.952  1.00  0.00     0.049 A 
ATOM     29  C   UNL A   1      41.827  29.437  29.020  1.00  0.00     0.074 A 
ATOM     30  C   UNL A   1      48.209  29.112  28.294  1.00  0.00     0.029 A 
ATOM     31  N   UNL A   1      46.028  28.648  28.282  1.00  0.00    -0.354 N 
ATOM     32  N   UNL A   1      43.114  29.258  28.822  1.00  0.00    -0.248 NA
ATOM     33  C   UNL A   1      41.490  30.720  29.646  1.00  0.00     0.031 C 
ATOM     34  C   UNL A   1      47.515  30.175  28.884  1.00  0.00     0.029 A 
ATOM     35  C   UNL A   1      46.153  29.898  28.850  1.00  0.00     0.049 A 
ATOM     36  H   UNL A   1      45.176  28.178  28.133  1.00  0.00     0.167 HD
ATOM     37  C   UNL A   1      43.740  30.410  29.281  1.00  0.00     0.074 A 
ATOM     38  C   UNL A   1      42.687  31.282  29.764  1.00  0.00     0.031 C 
ATOM     39  C   UNL A   1      45.060  30.725  29.302  1.00  0.00     0.037 A 
BRANCH  26  40
ATOM     40  C   UNL A   1      48.882  26.344  27.108  1.00  0.00     0.057 A 
ATOM     41  C   UNL A   1      49.709  25.823  28.114  1.00  0.00     0.134 A 
ATOM     42  C   UNL A   1      49.441  26.511  25.835  1.00  0.00     0.134 A 
ATOM     43  F   UNL A   1      49.250  25.686  29.368  1.00  0.00    -0.206 F 
ATOM     44  C   UNL A   1      51.052  25.529  27.873  1.00  0.00     0.040 A 
ATOM     45  C   UNL A   1      50.776  26.194  25.577  1.00  0.00     0.040 A 
ATOM     46  F   UNL A   1      48.713  27.025  24.834  1.00  0.00    -0.206 F 
ATOM     47  C   UNL A   1      51.590  25.716  26.601  1.00  0.00     0.006 A 
ENDBRANCH  26  40
BRANCH  27  48
ATOM     48  C   UNL A   1      39.274  28.840  29.030  1.00  0.00     0.057 A 
ATOM     49  C   UNL A   1      38.733  28.601  30.297  1.00  0.00     0.134 A 
ATOM     50  C   UNL A   1      38.436  29.445  28.082  1.00  0.00     0.134 A 
ATOM     51  F   UNL A   1      39.472  28.005  31.245  1.00  0.00    -0.206 F 
ATOM     52  C   UNL A   1      37.417  28.953  30.612  1.00  0.00     0.040 A 
ATOM     53  C   UNL A   1      37.127  29.823  28.389  1.00  0.00     0.040 A 
ATOM     54  F   UNL A   1      38.888  29.703  26.845  1.00  0.00    -0.206 F 
ATOM     55  C   UNL A   1      36.613  29.575  29.658  1.00  0.00     0.006 A 
ENDBRANCH  27  48
BRANCH  39  56
ATOM     56  C   UNL A   1      45.435  32.076  29.825  1.00  0.00     0.057 A 
ATOM     57  C   UNL A   1      45.439  33.208  29.004  1.00  0.00     0.134 A 
ATOM     58  C   UNL A   1      45.665  32.257  31.195  1.00  0.00     0.134 A 
ATOM     59  F   UNL A   1      45.229  33.092  27.684  1.00  0.00    -0.206 F 
ATOM     60  C   UNL A   1      45.660  34.480  29.529  1.00  0.00     0.040 A 
ATOM     61  C   UNL A   1      45.862  33.526  31.734  1.00  0.00     0.040 A 
ATOM     62  F   UNL A   1      45.655  31.207  32.031  1.00  0.00    -0.206 F 
ATOM     63  C   UNL A   1      45.858  34.642  30.900  1.00  0.00     0.006 A 
ENDBRANCH  39  56
ENDBRANCH  13  14
ENDBRANCH   6   8
ENDBRANCH   5   6
ENDBRANCH   4   5
ENDBRANCH   3   4
ENDBRANCH   2   3
ENDBRANCH   1   2
BRANCH   1  64
ATOM     64  C   UNL A   1      35.850  23.687  25.777  1.00  0.00     0.261 C 
BRANCH  64  65
ATOM     65  O   UNL A   1      34.449  23.995  25.942  1.00  0.00    -0.463 OA
BRANCH  65  66
ATOM     66  C   UNL A   1      34.035  25.147  25.346  1.00  0.00     0.310 C 
ATOM     67  O   UNL A   1      34.441  25.551  24.260  1.00  0.00    -0.252 OA
BRANCH  66  68
ATOM     68  C   UNL A   1      32.993  25.898  26.125  1.00  0.00     0.119 C 
ATOM     69  C   UNL A   1      31.610  25.318  26.583  1.00  0.00     0.100 C 
ATOM     70  C   UNL A   1      32.647  27.343  25.682  1.00  0.00     0.027 C 
ATOM     71  C   UNL A   1      30.687  26.568  26.456  1.00  0.00     0.025 C 
ATOM     72  C   UNL A   1      31.670  27.350  24.534  1.00  0.00    -0.027 C 
ATOM     73  C   UNL A   1      31.658  27.710  26.804  1.00  0.00     0.017 C 
ATOM     74  C   UNL A   1      30.495  26.903  25.000  1.00  0.00    -0.027 C 
BRANCH  69  75
ATOM     75  C   UNL A   1      30.799  24.014  26.356  1.00  0.00     0.229 C 
ATOM     76  O   UNL A   1      29.988  23.705  27.252  1.00  0.00    -0.274 OA
ATOM     77  N   UNL A   1      30.653  23.273  25.221  1.00  0.00    -0.323 N 
ATOM     78  H   UNL A   1      29.855  22.697  25.233  1.00  0.00     0.170 HD
BRANCH  77  79
ATOM     79  C   UNL A   1      31.397  23.161  24.049  1.00  0.00     0.084 A 
ATOM     80  C   UNL A   1      31.294  24.167  23.082  1.00  0.00     0.030 A 
ATOM     81  C   UNL A   1      32.227  22.097  23.786  1.00  0.00     0.149 A 
ATOM     82  C   UNL A   1      32.242  24.260  22.055  1.00  0.00     0.002 A 
ATOM     83  C   UNL A   1      33.270  22.269  22.869  1.00  0.00     0.049 A 
ATOM     84  C   UNL A   1      33.297  23.362  22.016  1.00  0.00     0.004 A 
BRANCH  81  85
ATOM     85  O   UNL A   1      32.078  20.855  24.305  1.00  0.00    -0.433 OA
BRANCH  85  86
ATOM     86  C   UNL A   1      32.956  20.339  25.307  1.00  0.00     0.542 C 
ATOM     87  F   UNL A   1      33.023  21.192  26.352  1.00  0.00    -0.167 F 
ATOM     88  F   UNL A   1      32.532  19.136  25.752  1.00  0.00    -0.167 F 
ENDBRANCH  85  86
ENDBRANCH  81  85
ENDBRANCH  77  79
ENDBRANCH  69  75
ENDBRANCH  66  68
ENDBRANCH  65  66
ENDBRANCH  64  65
ENDBRANCH   1  64
TORSDOF 18
ENDMDL
MODEL 3
REMARK VINA RESULT:     -11.1      1.687      2.910
REMARK SMILES O=C(OCCOCCOC(=O)[C@@H]1[C@H](C(=O)Nc2ccccc2OC(F)F)[C@@H]2C=C[C@H]1C2)c1ccc(-c2c3nc(c(-c4c(F)cccc4F)c4ccc([nH]4)c(-c4c(F)cccc4F)c4nc(c(-c5c(F)cccc5F)c5ccc2[nH]5)C=C4)C=C3)cc1
REMARK SMILES IDX 7 1 6 2 5 3 4 4 3 5 2 6 1 7 32 8 33 9 85 10 34 11 84 12
REMARK SMILES IDX 35 13 36 14 37 15 78 16 38 17 83 18 77 19 79 20 39 21 82 22
REMARK SMILES IDX 76 23 75 24 40 26 66 27 49 28 65 29 50 30 53 31 64 32 80 33
REMARK SMILES IDX 51 34 52 35 63 37 81 38 54 39 41 40 42 41 47 42 43 43 44 44
REMARK SMILES IDX 46 45 48 46 45 47 67 48 68 49 73 50 69 51 70 52 72 53 74 54
REMARK SMILES IDX 71 55 55 56 56 57 61 58 57 59 58 60 60 61 62 62 59 63 8 64
REMARK SMILES IDX 9 65 10 66 11 67 12 68 13 69 30 70 27 71 29 72 31 73 28 74
REMARK SMILES IDX 14 75 15 76 16 77 17 79 18 80 22 81 19 82 21 83 20 84 23 85
REMARK SMILES IDX 24 86 25 87 26 88
REMARK H PARENT 79 25 53 36 16 78
REMARK Flexibility Score: inf
ROOT
ATOM      1  C   UNL A   1      36.253  22.335  25.019  1.00  0.00     0.202 C 
ENDROOT
BRANCH   1   2
ATOM      2  O   UNL A   1      37.093  21.379  25.654  1.00  0.00    -0.374 OA
BRANCH   2   3
ATOM      3  C   UNL A   1      37.536  20.343  24.792  1.00  0.00     0.202 C 
BRANCH   3   4
ATOM      4  C   UNL A   1      38.561  19.431  25.472  1.00  0.00     0.261 C 
BRANCH   4   5
ATOM      5  O   UNL A   1      39.846  20.066  25.645  1.00  0.00    -0.460 OA
BRANCH   5   6
ATOM      6  C   UNL A   1      40.477  20.503  26.763  1.00  0.00     0.338 C 
ATOM      7  O   UNL A   1      40.806  19.660  27.599  1.00  0.00    -0.246 OA
BRANCH   6   8
ATOM      8  C   UNL A   1      40.681  21.947  27.130  1.00  0.00     0.060 A 
ATOM      9  C   UNL A   1      39.978  23.031  26.604  1.00  0.00     0.016 A 
ATOM     10  C   UNL A   1      41.606  22.219  28.161  1.00  0.00     0.016 A 
ATOM     11  C   UNL A   1      40.084  24.310  27.137  1.00  0.00     0.010 A 
ATOM     12  C   UNL A   1      41.820  23.523  28.620  1.00  0.00     0.010 A 
ATOM     13  C   UNL A   1      41.064  24.570  28.087  1.00  0.00    -0.014 A 
BRANCH  13  14
ATOM     14  C   UNL A   1      41.528  25.962  28.181  1.00  0.00     0.031 A 
ATOM     15  C   UNL A   1      42.870  26.246  27.567  1.00  0.00     0.074 A 
ATOM     16  C   UNL A   1      40.754  26.928  28.692  1.00  0.00     0.049 A 
ATOM     17  N   UNL A   1      43.554  27.353  27.531  1.00  0.00    -0.248 NA
ATOM     18  C   UNL A   1      43.520  25.122  26.864  1.00  0.00     0.031 C 
ATOM     19  C   UNL A   1      39.382  26.752  29.169  1.00  0.00     0.029 A 
ATOM     20  N   UNL A   1      41.018  28.255  28.897  1.00  0.00    -0.354 N 
ATOM     21  C   UNL A   1      44.706  27.052  26.813  1.00  0.00     0.074 A 
ATOM     22  C   UNL A   1      44.617  25.671  26.407  1.00  0.00     0.031 C 
ATOM     23  C   UNL A   1      38.939  27.927  29.653  1.00  0.00     0.029 A 
ATOM     24  C   UNL A   1      40.014  28.912  29.563  1.00  0.00     0.049 A 
ATOM     25  H   UNL A   1      41.846  28.695  28.596  1.00  0.00     0.167 HD
ATOM     26  C   UNL A   1      45.765  27.847  26.560  1.00  0.00     0.037 A 
ATOM     27  C   UNL A   1      40.011  30.153  30.087  1.00  0.00     0.037 A 
ATOM     28  C   UNL A   1      45.858  29.183  27.069  1.00  0.00     0.049 A 
ATOM     29  C   UNL A   1      41.254  30.990  29.915  1.00  0.00     0.074 A 
ATOM     30  C   UNL A   1      46.909  30.071  26.996  1.00  0.00     0.029 A 
ATOM     31  N   UNL A   1      44.843  29.803  27.789  1.00  0.00    -0.354 N 
ATOM     32  N   UNL A   1      42.368  30.690  29.285  1.00  0.00    -0.248 NA
ATOM     33  C   UNL A   1      41.254  32.321  30.532  1.00  0.00     0.031 C 
ATOM     34  C   UNL A   1      46.550  31.213  27.720  1.00  0.00     0.029 A 
ATOM     35  C   UNL A   1      45.251  31.057  28.191  1.00  0.00     0.049 A 
ATOM     36  H   UNL A   1      43.964  29.405  27.984  1.00  0.00     0.167 HD
ATOM     37  C   UNL A   1      43.196  31.798  29.414  1.00  0.00     0.074 A 
ATOM     38  C   UNL A   1      42.450  32.778  30.180  1.00  0.00     0.031 C 
ATOM     39  C   UNL A   1      44.453  31.995  28.945  1.00  0.00     0.037 A 
BRANCH  26  40
ATOM     40  C   UNL A   1      46.917  27.211  25.836  1.00  0.00     0.057 A 
ATOM     41  C   UNL A   1      47.909  26.481  26.507  1.00  0.00     0.134 A 
ATOM     42  C   UNL A   1      47.105  27.451  24.469  1.00  0.00     0.134 A 
ATOM     43  F   UNL A   1      47.814  26.260  27.827  1.00  0.00    -0.206 F 
ATOM     44  C   UNL A   1      49.065  26.052  25.853  1.00  0.00     0.040 A 
ATOM     45  C   UNL A   1      48.245  27.003  23.800  1.00  0.00     0.040 A 
ATOM     46  F   UNL A   1      46.207  28.162  23.772  1.00  0.00    -0.206 F 
ATOM     47  C   UNL A   1      49.236  26.315  24.495  1.00  0.00     0.006 A 
ENDBRANCH  26  40
BRANCH  27  48
ATOM     48  C   UNL A   1      38.839  30.625  30.870  1.00  0.00     0.057 A 
ATOM     49  C   UNL A   1      37.830  31.401  30.292  1.00  0.00     0.134 A 
ATOM     50  C   UNL A   1      38.684  30.277  32.220  1.00  0.00     0.134 A 
ATOM     51  F   UNL A   1      37.924  31.789  29.012  1.00  0.00    -0.206 F 
ATOM     52  C   UNL A   1      36.711  31.811  31.024  1.00  0.00     0.040 A 
ATOM     53  C   UNL A   1      37.561  30.659  32.956  1.00  0.00     0.040 A 
ATOM     54  F   UNL A   1      39.615  29.535  32.839  1.00  0.00    -0.206 F 
ATOM     55  C   UNL A   1      36.569  31.431  32.358  1.00  0.00     0.006 A 
ENDBRANCH  27  48
BRANCH  39  56
ATOM     56  C   UNL A   1      45.084  33.326  29.209  1.00  0.00     0.057 A 
ATOM     57  C   UNL A   1      45.932  33.535  30.302  1.00  0.00     0.134 A 
ATOM     58  C   UNL A   1      44.939  34.365  28.282  1.00  0.00     0.134 A 
ATOM     59  F   UNL A   1      46.104  32.575  31.223  1.00  0.00    -0.206 F 
ATOM     60  C   UNL A   1      46.617  34.738  30.463  1.00  0.00     0.040 A 
ATOM     61  C   UNL A   1      45.638  35.562  28.420  1.00  0.00     0.040 A 
ATOM     62  F   UNL A   1      44.152  34.212  27.205  1.00  0.00    -0.206 F 
ATOM     63  C   UNL A   1      46.482  35.749  29.513  1.00  0.00     0.006 A 
ENDBRANCH  39  56
ENDBRANCH  13  14
ENDBRANCH   6   8
ENDBRANCH   5   6
ENDBRANCH   4   5
ENDBRANCH   3   4
ENDBRANCH   2   3
ENDBRANCH   1   2
BRANCH   1  64
ATOM     64  C   UNL A   1      35.878  23.343  26.054  1.00  0.00     0.261 C 
BRANCH  64  65
ATOM     65  O   UNL A   1      34.473  23.663  25.959  1.00  0.00    -0.463 OA
BRANCH  65  66
ATOM     66  C   UNL A   1      34.191  24.869  25.394  1.00  0.00     0.310 C 
ATOM     67  O   UNL A   1      34.667  25.267  24.334  1.00  0.00    -0.252 OA
BRANCH  66  68
ATOM     68  C   UNL A   1      33.205  25.693  26.172  1.00  0.00     0.119 C 
ATOM     69  C   UNL A   1      31.781  25.215  26.623  1.00  0.00     0.100 C 
ATOM     70  C   UNL A   1      32.969  27.161  25.734  1.00  0.00     0.027 C 
ATOM     71  C   UNL A   1      30.954  26.531  26.497  1.00  0.00     0.025 C 
ATOM     72  C   UNL A   1      32.000  27.245  24.582  1.00  0.00    -0.027 C 
ATOM     73  C   UNL A   1      32.005  27.596  26.853  1.00  0.00     0.017 C 
ATOM     74  C   UNL A   1      30.794  26.885  25.041  1.00  0.00    -0.027 C 
BRANCH  69  75
ATOM     75  C   UNL A   1      30.877  23.976  26.387  1.00  0.00     0.229 C 
ATOM     76  O   UNL A   1      30.046  23.721  27.281  1.00  0.00    -0.274 OA
ATOM     77  N   UNL A   1      30.676  23.256  25.247  1.00  0.00    -0.323 N 
ATOM     78  H   UNL A   1      29.837  22.740  25.256  1.00  0.00     0.170 HD
BRANCH  77  79
ATOM     79  C   UNL A   1      31.408  23.098  24.073  1.00  0.00     0.084 A 
ATOM     80  C   UNL A   1      31.349  24.100  23.097  1.00  0.00     0.030 A 
ATOM     81  C   UNL A   1      32.186  21.993  23.817  1.00  0.00     0.149 A 
ATOM     82  C   UNL A   1      32.296  24.138  22.066  1.00  0.00     0.002 A 
ATOM     83  C   UNL A   1      33.231  22.107  22.894  1.00  0.00     0.049 A 
ATOM     84  C   UNL A   1      33.307  23.191  22.031  1.00  0.00     0.004 A 
BRANCH  81  85
ATOM     85  O   UNL A   1      31.979  20.765  24.347  1.00  0.00    -0.433 OA
BRANCH  85  86
ATOM     86  C   UNL A   1      32.856  20.202  25.326  1.00  0.00     0.542 C 
ATOM     87  F   UNL A   1      34.055  19.923  24.772  1.00  0.00    -0.167 F 
ATOM     88  F   UNL A   1      33.039  21.051  26.360  1.00  0.00    -0.167 F 
ENDBRANCH  85  86
ENDBRANCH  81  85
ENDBRANCH  77  79
ENDBRANCH  69  75
ENDBRANCH  66  68
ENDBRANCH  65  66
ENDBRANCH  64  65
ENDBRANCH   1  64
TORSDOF 18
ENDMDL
