MODEL 1
REMARK VINA RESULT:     -10.2      0.000      0.000
REMARK SMILES Cc1ccc(C)c(CC(=O)N(CC(=O)OCCOCCOC(=O)c2ccc(-c3c4nc(c(-c5c(F)cccc5F)c5ccc([nH]5)c(-c5c(F)cccc5F)c5nc(c(-c6c(F)cccc6F)c6ccc3[nH]6)C=C5)C=C4)cc2)CC(F)(F)F)c1
REMARK SMILES IDX 17 1 16 2 15 3 13 4 14 5 12 6 11 7 9 8 10 9 8 10 7 11 1 12
REMARK SMILES IDX 2 13 3 14 83 15 4 16 5 17 6 18 78 19 79 20 80 21 81 22 82 23
REMARK SMILES IDX 18 24 19 25 20 26 21 27 22 28 23 29 24 30 25 31 77 32 26 33
REMARK SMILES IDX 76 34 27 35 28 36 29 37 70 38 30 39 75 40 69 41 71 42 31 43
REMARK SMILES IDX 74 44 68 45 67 46 32 48 58 49 41 50 57 51 42 52 45 53 56 54
REMARK SMILES IDX 72 55 43 56 44 57 55 59 73 60 46 61 33 62 34 63 39 64 35 65
REMARK SMILES IDX 36 66 38 67 40 68 37 69 59 70 60 71 65 72 61 73 62 74 64 75
REMARK SMILES IDX 66 76 63 77 47 78 48 79 53 80 49 81 50 82 52 83 54 84 51 85
REMARK H PARENT 71 47 45 58
REMARK Flexibility Score: inf
ROOT
ATOM      1  C   UNL A   1      35.381  22.822  25.605  1.00  0.00     0.202 C 
ENDROOT
BRANCH   1   2
ATOM      2  C   UNL A   1      34.525  21.899  26.451  1.00  0.00     0.261 C 
BRANCH   2   3
ATOM      3  O   UNL A   1      33.174  21.887  25.971  1.00  0.00    -0.462 OA
BRANCH   3   4
ATOM      4  C   UNL A   1      32.198  22.584  26.625  1.00  0.00     0.325 C 
ATOM      5  O   UNL A   1      32.205  23.019  27.742  1.00  0.00    -0.250 OA
BRANCH   4   6
ATOM      6  C   UNL A   1      30.947  22.601  25.760  1.00  0.00     0.242 C 
BRANCH   6   7
ATOM      7  N   UNL A   1      30.863  23.887  25.094  1.00  0.00    -0.322 N 
BRANCH   7   8
ATOM      8  C   UNL A   1      30.332  25.032  25.667  1.00  0.00     0.227 C 
ATOM      9  O   UNL A   1      29.846  24.954  26.799  1.00  0.00    -0.275 OA
BRANCH   8  10
ATOM     10  C   UNL A   1      30.263  26.351  24.877  1.00  0.00     0.136 C 
BRANCH  10  11
ATOM     11  C   UNL A   1      31.483  27.272  24.846  1.00  0.00    -0.035 A 
ATOM     12  C   UNL A   1      34.081  28.400  22.233  1.00  0.00     0.044 C 
ATOM     13  C   UNL A   1      33.299  28.284  23.510  1.00  0.00    -0.051 A 
ATOM     14  C   UNL A   1      33.685  29.047  24.608  1.00  0.00     0.004 A 
ATOM     15  C   UNL A   1      32.179  27.439  23.623  1.00  0.00     0.008 A 
ATOM     16  C   UNL A   1      33.003  28.920  25.814  1.00  0.00     0.004 A 
ATOM     17  C   UNL A   1      31.918  28.029  25.956  1.00  0.00    -0.047 A 
ATOM     18  C   UNL A   1      31.370  27.853  27.345  1.00  0.00     0.044 C 
ENDBRANCH  10  11
ENDBRANCH   8  10
ENDBRANCH   7   8
BRANCH   7  19
ATOM     19  C   UNL A   1      31.106  23.850  23.633  1.00  0.00     0.235 C 
BRANCH  19  20
ATOM     20  C   UNL A   1      32.556  23.986  23.137  1.00  0.00     0.406 C 
ATOM     21  F   UNL A   1      33.370  24.501  24.080  1.00  0.00    -0.169 F 
ATOM     22  F   UNL A   1      33.046  22.754  22.830  1.00  0.00    -0.169 F 
ATOM     23  F   UNL A   1      32.679  24.730  22.020  1.00  0.00    -0.169 F 
ENDBRANCH  19  20
ENDBRANCH   7  19
ENDBRANCH   6   7
ENDBRANCH   4   6
ENDBRANCH   3   4
ENDBRANCH   2   3
ENDBRANCH   1   2
BRANCH   1  24
ATOM     24  O   UNL A   1      35.990  21.995  24.642  1.00  0.00    -0.374 OA
BRANCH  24  25
ATOM     25  C   UNL A   1      36.407  20.705  25.022  1.00  0.00     0.202 C 
BRANCH  25  26
ATOM     26  C   UNL A   1      37.929  20.588  25.049  1.00  0.00     0.261 C 
BRANCH  26  27
ATOM     27  O   UNL A   1      38.539  21.839  25.442  1.00  0.00    -0.460 OA
BRANCH  27  28
ATOM     28  C   UNL A   1      39.610  21.707  26.275  1.00  0.00     0.338 C 
ATOM     29  O   UNL A   1      40.219  20.667  26.465  1.00  0.00    -0.246 OA
BRANCH  28  30
ATOM     30  C   UNL A   1      39.778  22.947  27.090  1.00  0.00     0.060 A 
ATOM     31  C   UNL A   1      38.949  24.051  26.834  1.00  0.00     0.016 A 
ATOM     32  C   UNL A   1      40.941  23.109  27.850  1.00  0.00     0.016 A 
ATOM     33  C   UNL A   1      39.344  25.328  27.250  1.00  0.00     0.010 A 
ATOM     34  C   UNL A   1      41.389  24.388  28.142  1.00  0.00     0.010 A 
ATOM     35  C   UNL A   1      40.600  25.510  27.845  1.00  0.00    -0.014 A 
BRANCH  35  36
ATOM     36  C   UNL A   1      40.921  26.740  28.586  1.00  0.00     0.031 A 
ATOM     37  C   UNL A   1      42.151  27.333  28.040  1.00  0.00     0.074 A 
ATOM     38  C   UNL A   1      40.214  27.447  29.495  1.00  0.00     0.049 A 
ATOM     39  N   UNL A   1      43.275  27.402  28.672  1.00  0.00    -0.248 NA
ATOM     40  C   UNL A   1      42.219  27.708  26.619  1.00  0.00     0.031 C 
ATOM     41  C   UNL A   1      38.971  27.077  30.132  1.00  0.00     0.029 A 
ATOM     42  N   UNL A   1      40.400  28.722  29.973  1.00  0.00    -0.354 N 
ATOM     43  C   UNL A   1      44.103  28.085  27.810  1.00  0.00     0.074 A 
ATOM     44  C   UNL A   1      43.510  28.010  26.500  1.00  0.00     0.031 C 
ATOM     45  C   UNL A   1      38.336  28.163  30.623  1.00  0.00     0.029 A 
ATOM     46  C   UNL A   1      39.248  29.287  30.531  1.00  0.00     0.049 A 
ATOM     47  H   UNL A   1      41.262  29.193  29.928  1.00  0.00     0.167 HD
ATOM     48  C   UNL A   1      44.978  28.995  28.301  1.00  0.00     0.037 A 
ATOM     49  C   UNL A   1      39.046  30.558  30.962  1.00  0.00     0.037 A 
ATOM     50  C   UNL A   1      45.246  28.810  29.703  1.00  0.00     0.049 A 
ATOM     51  C   UNL A   1      40.370  31.082  31.346  1.00  0.00     0.074 A 
ATOM     52  C   UNL A   1      45.583  27.719  30.484  1.00  0.00     0.029 A 
ATOM     53  N   UNL A   1      44.808  29.773  30.576  1.00  0.00    -0.354 N 
ATOM     54  N   UNL A   1      41.016  30.703  32.411  1.00  0.00    -0.248 NA
ATOM     55  C   UNL A   1      41.159  31.793  30.354  1.00  0.00     0.031 C 
ATOM     56  C   UNL A   1      44.926  27.922  31.730  1.00  0.00     0.029 A 
ATOM     57  C   UNL A   1      44.271  29.151  31.677  1.00  0.00     0.049 A 
ATOM     58  H   UNL A   1      44.868  30.745  30.437  1.00  0.00     0.167 HD
ATOM     59  C   UNL A   1      42.333  30.658  31.996  1.00  0.00     0.074 A 
ATOM     60  C   UNL A   1      42.380  31.506  30.809  1.00  0.00     0.031 C 
ATOM     61  C   UNL A   1      43.174  29.688  32.458  1.00  0.00     0.037 A 
BRANCH  48  62
ATOM     62  C   UNL A   1      45.218  30.266  27.553  1.00  0.00     0.057 A 
ATOM     63  C   UNL A   1      46.520  30.661  27.249  1.00  0.00     0.134 A 
ATOM     64  C   UNL A   1      44.203  31.214  27.287  1.00  0.00     0.134 A 
ATOM     65  F   UNL A   1      47.559  29.869  27.549  1.00  0.00    -0.206 F 
ATOM     66  C   UNL A   1      46.792  31.907  26.678  1.00  0.00     0.040 A 
ATOM     67  C   UNL A   1      44.451  32.426  26.652  1.00  0.00     0.040 A 
ATOM     68  F   UNL A   1      42.941  31.038  27.706  1.00  0.00    -0.206 F 
ATOM     69  C   UNL A   1      45.756  32.783  26.357  1.00  0.00     0.006 A 
ENDBRANCH  48  62
BRANCH  49  70
ATOM     70  C   UNL A   1      37.825  31.395  31.056  1.00  0.00     0.057 A 
ATOM     71  C   UNL A   1      37.241  31.958  29.907  1.00  0.00     0.134 A 
ATOM     72  C   UNL A   1      37.029  31.412  32.214  1.00  0.00     0.134 A 
ATOM     73  F   UNL A   1      37.905  31.985  28.743  1.00  0.00    -0.206 F 
ATOM     74  C   UNL A   1      35.928  32.449  29.893  1.00  0.00     0.040 A 
ATOM     75  C   UNL A   1      35.716  31.904  32.214  1.00  0.00     0.040 A 
ATOM     76  F   UNL A   1      37.469  30.876  33.361  1.00  0.00    -0.206 F 
ATOM     77  C   UNL A   1      35.153  32.402  31.044  1.00  0.00     0.006 A 
ENDBRANCH  49  70
BRANCH  61  78
ATOM     78  C   UNL A   1      42.808  28.959  33.732  1.00  0.00     0.057 A 
ATOM     79  C   UNL A   1      41.864  27.925  33.843  1.00  0.00     0.134 A 
ATOM     80  C   UNL A   1      43.544  29.252  34.890  1.00  0.00     0.134 A 
ATOM     81  F   UNL A   1      41.167  27.490  32.786  1.00  0.00    -0.206 F 
ATOM     82  C   UNL A   1      41.645  27.247  35.050  1.00  0.00     0.040 A 
ATOM     83  C   UNL A   1      43.364  28.554  36.088  1.00  0.00     0.040 A 
ATOM     84  F   UNL A   1      44.489  30.205  34.867  1.00  0.00    -0.206 F 
ATOM     85  C   UNL A   1      42.404  27.552  36.174  1.00  0.00     0.006 A 
ENDBRANCH  61  78
ENDBRANCH  35  36
ENDBRANCH  28  30
ENDBRANCH  27  28
ENDBRANCH  26  27
ENDBRANCH  25  26
ENDBRANCH  24  25
ENDBRANCH   1  24
TORSDOF 20
ENDMDL
MODEL 2
REMARK VINA RESULT:     -10.2      1.522      2.832
REMARK SMILES Cc1ccc(C)c(CC(=O)N(CC(=O)OCCOCCOC(=O)c2ccc(-c3c4nc(c(-c5c(F)cccc5F)c5ccc([nH]5)c(-c5c(F)cccc5F)c5nc(c(-c6c(F)cccc6F)c6ccc3[nH]6)C=C5)C=C4)cc2)CC(F)(F)F)c1
REMARK SMILES IDX 17 1 16 2 15 3 13 4 14 5 12 6 11 7 9 8 10 9 8 10 7 11 1 12
REMARK SMILES IDX 2 13 3 14 83 15 4 16 5 17 6 18 78 19 79 20 80 21 81 22 82 23
REMARK SMILES IDX 18 24 19 25 20 26 21 27 22 28 23 29 24 30 25 31 77 32 26 33
REMARK SMILES IDX 76 34 27 35 28 36 29 37 70 38 30 39 75 40 69 41 71 42 31 43
REMARK SMILES IDX 74 44 68 45 67 46 32 48 58 49 41 50 57 51 42 52 45 53 56 54
REMARK SMILES IDX 72 55 43 56 44 57 55 59 73 60 46 61 33 62 34 63 39 64 35 65
REMARK SMILES IDX 36 66 38 67 40 68 37 69 59 70 60 71 65 72 61 73 62 74 64 75
REMARK SMILES IDX 66 76 63 77 47 78 48 79 53 80 49 81 50 82 52 83 54 84 51 85
REMARK H PARENT 71 47 45 58
REMARK Flexibility Score: inf
ROOT
ATOM      1  C   UNL A   1      35.611  23.759  24.718  1.00  0.00     0.202 C 
ENDROOT
BRANCH   1   2
ATOM      2  C   UNL A   1      34.593  24.329  25.686  1.00  0.00     0.261 C 
BRANCH   2   3
ATOM      3  O   UNL A   1      34.659  25.761  25.699  1.00  0.00    -0.462 OA
BRANCH   3   4
ATOM      4  C   UNL A   1      33.535  26.511  25.492  1.00  0.00     0.325 C 
ATOM      5  O   UNL A   1      32.448  26.386  25.983  1.00  0.00    -0.250 OA
BRANCH   4   6
ATOM      6  C   UNL A   1      33.802  27.489  24.360  1.00  0.00     0.242 C 
BRANCH   6   7
ATOM      7  N   UNL A   1      32.788  27.303  23.339  1.00  0.00    -0.322 N 
BRANCH   7   8
ATOM      8  C   UNL A   1      32.731  26.216  22.481  1.00  0.00     0.227 C 
ATOM      9  O   UNL A   1      33.615  26.090  21.629  1.00  0.00    -0.275 OA
BRANCH   8  10
ATOM     10  C   UNL A   1      31.544  25.237  22.526  1.00  0.00     0.136 C 
BRANCH  10  11
ATOM     11  C   UNL A   1      31.609  24.022  23.452  1.00  0.00    -0.035 A 
ATOM     12  C   UNL A   1      30.145  23.021  26.874  1.00  0.00     0.044 C 
ATOM     13  C   UNL A   1      30.865  22.961  25.557  1.00  0.00    -0.051 A 
ATOM     14  C   UNL A   1      31.532  21.791  25.206  1.00  0.00     0.004 A 
ATOM     15  C   UNL A   1      30.871  24.047  24.662  1.00  0.00     0.008 A 
ATOM     16  C   UNL A   1      32.244  21.730  24.012  1.00  0.00     0.004 A 
ATOM     17  C   UNL A   1      32.309  22.836  23.137  1.00  0.00    -0.047 A 
ATOM     18  C   UNL A   1      33.243  22.711  21.965  1.00  0.00     0.044 C 
ENDBRANCH  10  11
ENDBRANCH   8  10
ENDBRANCH   7   8
BRANCH   7  19
ATOM     19  C   UNL A   1      31.967  28.502  23.049  1.00  0.00     0.235 C 
BRANCH  19  20
ATOM     20  C   UNL A   1      30.484  28.480  23.459  1.00  0.00     0.406 C 
ATOM     21  F   UNL A   1      29.694  27.989  22.482  1.00  0.00    -0.169 F 
ATOM     22  F   UNL A   1      30.325  27.662  24.535  1.00  0.00    -0.169 F 
ATOM     23  F   UNL A   1      30.005  29.684  23.825  1.00  0.00    -0.169 F 
ENDBRANCH  19  20
ENDBRANCH   7  19
ENDBRANCH   6   7
ENDBRANCH   4   6
ENDBRANCH   3   4
ENDBRANCH   2   3
ENDBRANCH   1   2
BRANCH   1  24
ATOM     24  O   UNL A   1      35.461  22.361  24.791  1.00  0.00    -0.374 OA
BRANCH  24  25
ATOM     25  C   UNL A   1      36.165  21.654  25.785  1.00  0.00     0.202 C 
BRANCH  25  26
ATOM     26  C   UNL A   1      37.472  21.074  25.248  1.00  0.00     0.261 C 
BRANCH  26  27
ATOM     27  O   UNL A   1      38.528  22.061  25.278  1.00  0.00    -0.460 OA
BRANCH  27  28
ATOM     28  C   UNL A   1      39.478  21.842  26.232  1.00  0.00     0.338 C 
ATOM     29  O   UNL A   1      39.960  20.752  26.495  1.00  0.00    -0.246 OA
BRANCH  28  30
ATOM     30  C   UNL A   1      39.665  23.072  27.059  1.00  0.00     0.060 A 
ATOM     31  C   UNL A   1      38.855  24.191  26.811  1.00  0.00     0.016 A 
ATOM     32  C   UNL A   1      40.829  23.208  27.821  1.00  0.00     0.016 A 
ATOM     33  C   UNL A   1      39.271  25.458  27.238  1.00  0.00     0.010 A 
ATOM     34  C   UNL A   1      41.299  24.476  28.125  1.00  0.00     0.010 A 
ATOM     35  C   UNL A   1      40.529  25.614  27.837  1.00  0.00    -0.014 A 
BRANCH  35  36
ATOM     36  C   UNL A   1      40.869  26.832  28.588  1.00  0.00     0.031 A 
ATOM     37  C   UNL A   1      42.093  27.425  28.030  1.00  0.00     0.074 A 
ATOM     38  C   UNL A   1      40.181  27.531  29.519  1.00  0.00     0.049 A 
ATOM     39  N   UNL A   1      43.227  27.480  28.644  1.00  0.00    -0.248 NA
ATOM     40  C   UNL A   1      42.139  27.819  26.613  1.00  0.00     0.031 C 
ATOM     41  C   UNL A   1      38.947  27.159  30.172  1.00  0.00     0.029 A 
ATOM     42  N   UNL A   1      40.382  28.797  30.011  1.00  0.00    -0.354 N 
ATOM     43  C   UNL A   1      44.045  28.170  27.777  1.00  0.00     0.074 A 
ATOM     44  C   UNL A   1      43.430  28.116  26.477  1.00  0.00     0.031 C 
ATOM     45  C   UNL A   1      38.326  28.242  30.687  1.00  0.00     0.029 A 
ATOM     46  C   UNL A   1      39.242  29.361  30.595  1.00  0.00     0.049 A 
ATOM     47  H   UNL A   1      41.246  29.265  29.958  1.00  0.00     0.167 HD
ATOM     48  C   UNL A   1      44.933  29.068  28.266  1.00  0.00     0.037 A 
ATOM     49  C   UNL A   1      39.055  30.628  31.047  1.00  0.00     0.037 A 
ATOM     50  C   UNL A   1      45.223  28.862  29.662  1.00  0.00     0.049 A 
ATOM     51  C   UNL A   1      40.389  31.139  31.415  1.00  0.00     0.074 A 
ATOM     52  C   UNL A   1      45.567  27.759  30.421  1.00  0.00     0.029 A 
ATOM     53  N   UNL A   1      44.805  29.816  30.554  1.00  0.00    -0.354 N 
ATOM     54  N   UNL A   1      41.050  30.742  32.465  1.00  0.00    -0.248 NA
ATOM     55  C   UNL A   1      41.165  31.859  30.420  1.00  0.00     0.031 C 
ATOM     56  C   UNL A   1      44.932  27.949  31.681  1.00  0.00     0.029 A 
ATOM     57  C   UNL A   1      44.284  29.183  31.655  1.00  0.00     0.049 A 
ATOM     58  H   UNL A   1      44.869  30.790  30.427  1.00  0.00     0.167 HD
ATOM     59  C   UNL A   1      42.359  30.695  32.027  1.00  0.00     0.074 A 
ATOM     60  C   UNL A   1      42.391  31.560  30.851  1.00  0.00     0.031 C 
ATOM     61  C   UNL A   1      43.202  29.715  32.462  1.00  0.00     0.037 A 
BRANCH  48  62
ATOM     62  C   UNL A   1      45.168  30.348  27.532  1.00  0.00     0.057 A 
ATOM     63  C   UNL A   1      46.466  30.734  27.202  1.00  0.00     0.134 A 
ATOM     64  C   UNL A   1      44.156  31.309  27.304  1.00  0.00     0.134 A 
ATOM     65  F   UNL A   1      47.504  29.928  27.466  1.00  0.00    -0.206 F 
ATOM     66  C   UNL A   1      46.737  31.987  26.644  1.00  0.00     0.040 A 
ATOM     67  C   UNL A   1      44.402  32.529  26.681  1.00  0.00     0.040 A 
ATOM     68  F   UNL A   1      42.903  31.139  27.750  1.00  0.00    -0.206 F 
ATOM     69  C   UNL A   1      45.703  32.877  26.360  1.00  0.00     0.006 A 
ENDBRANCH  48  62
BRANCH  49  70
ATOM     70  C   UNL A   1      37.840  31.470  31.173  1.00  0.00     0.057 A 
ATOM     71  C   UNL A   1      37.280  32.107  30.051  1.00  0.00     0.134 A 
ATOM     72  C   UNL A   1      37.027  31.426  32.317  1.00  0.00     0.134 A 
ATOM     73  F   UNL A   1      37.962  32.196  28.900  1.00  0.00    -0.206 F 
ATOM     74  C   UNL A   1      35.972  32.611  30.046  1.00  0.00     0.040 A 
ATOM     75  C   UNL A   1      35.719  31.931  32.327  1.00  0.00     0.040 A 
ATOM     76  F   UNL A   1      37.445  30.819  33.437  1.00  0.00    -0.206 F 
ATOM     77  C   UNL A   1      35.179  32.503  31.181  1.00  0.00     0.006 A 
ENDBRANCH  49  70
BRANCH  61  78
ATOM     78  C   UNL A   1      42.853  28.971  33.732  1.00  0.00     0.057 A 
ATOM     79  C   UNL A   1      41.922  27.925  33.840  1.00  0.00     0.134 A 
ATOM     80  C   UNL A   1      43.594  29.261  34.888  1.00  0.00     0.134 A 
ATOM     81  F   UNL A   1      41.222  27.492  32.784  1.00  0.00    -0.206 F 
ATOM     82  C   UNL A   1      41.718  27.234  35.043  1.00  0.00     0.040 A 
ATOM     83  C   UNL A   1      43.431  28.551  36.080  1.00  0.00     0.040 A 
ATOM     84  F   UNL A   1      44.529  30.225  34.866  1.00  0.00    -0.206 F 
ATOM     85  C   UNL A   1      42.482  27.538  36.164  1.00  0.00     0.006 A 
ENDBRANCH  61  78
ENDBRANCH  35  36
ENDBRANCH  28  30
ENDBRANCH  27  28
ENDBRANCH  26  27
ENDBRANCH  25  26
ENDBRANCH  24  25
ENDBRANCH   1  24
TORSDOF 20
ENDMDL
MODEL 3
REMARK VINA RESULT:     -10.1      1.703      2.561
REMARK SMILES Cc1ccc(C)c(CC(=O)N(CC(=O)OCCOCCOC(=O)c2ccc(-c3c4nc(c(-c5c(F)cccc5F)c5ccc([nH]5)c(-c5c(F)cccc5F)c5nc(c(-c6c(F)cccc6F)c6ccc3[nH]6)C=C5)C=C4)cc2)CC(F)(F)F)c1
REMARK SMILES IDX 17 1 16 2 15 3 13 4 14 5 12 6 11 7 9 8 10 9 8 10 7 11 1 12
REMARK SMILES IDX 2 13 3 14 83 15 4 16 5 17 6 18 78 19 79 20 80 21 81 22 82 23
REMARK SMILES IDX 18 24 19 25 20 26 21 27 22 28 23 29 24 30 25 31 77 32 26 33
REMARK SMILES IDX 76 34 27 35 28 36 29 37 70 38 30 39 75 40 69 41 71 42 31 43
REMARK SMILES IDX 74 44 68 45 67 46 32 48 58 49 41 50 57 51 42 52 45 53 56 54
REMARK SMILES IDX 72 55 43 56 44 57 55 59 73 60 46 61 33 62 34 63 39 64 35 65
REMARK SMILES IDX 36 66 38 67 40 68 37 69 59 70 60 71 65 72 61 73 62 74 64 75
REMARK SMILES IDX 66 76 63 77 47 78 48 79 53 80 49 81 50 82 52 83 54 84 51 85
REMARK H PARENT 71 47 45 58
REMARK Flexibility Score: inf
ROOT
ATOM      1  C   UNL A   1      35.538  23.089  23.590  1.00  0.00     0.202 C 
ENDROOT
BRANCH   1   2
ATOM      2  C   UNL A   1      34.138  23.669  23.548  1.00  0.00     0.261 C 
BRANCH   2   3
ATOM      3  O   UNL A   1      34.038  24.665  22.521  1.00  0.00    -0.462 OA
BRANCH   3   4
ATOM      4  C   UNL A   1      33.482  25.885  22.788  1.00  0.00     0.325 C 
ATOM      5  O   UNL A   1      33.920  26.977  22.558  1.00  0.00    -0.250 OA
BRANCH   4   6
ATOM      6  C   UNL A   1      32.226  25.678  23.619  1.00  0.00     0.242 C 
BRANCH   6   7
ATOM      7  N   UNL A   1      32.156  26.726  24.619  1.00  0.00    -0.322 N 
BRANCH   7   8
ATOM      8  C   UNL A   1      32.857  26.716  25.814  1.00  0.00     0.227 C 
ATOM      9  O   UNL A   1      33.722  25.852  25.983  1.00  0.00    -0.275 OA
BRANCH   8  10
ATOM     10  C   UNL A   1      32.506  27.700  26.944  1.00  0.00     0.136 C 
BRANCH  10  11
ATOM     11  C   UNL A   1      33.386  28.930  27.169  1.00  0.00    -0.035 A 
ATOM     12  C   UNL A   1      37.103  29.621  27.916  1.00  0.00     0.044 C 
ATOM     13  C   UNL A   1      35.650  29.825  27.595  1.00  0.00    -0.051 A 
ATOM     14  C   UNL A   1      35.163  31.123  27.473  1.00  0.00     0.004 A 
ATOM     15  C   UNL A   1      34.772  28.742  27.399  1.00  0.00     0.008 A 
ATOM     16  C   UNL A   1      33.811  31.334  27.223  1.00  0.00     0.004 A 
ATOM     17  C   UNL A   1      32.910  30.257  27.088  1.00  0.00    -0.047 A 
ATOM     18  C   UNL A   1      31.451  30.608  26.988  1.00  0.00     0.044 C 
ENDBRANCH  10  11
ENDBRANCH   8  10
ENDBRANCH   7   8
BRANCH   7  19
ATOM     19  C   UNL A   1      31.046  27.690  24.436  1.00  0.00     0.235 C 
BRANCH  19  20
ATOM     20  C   UNL A   1      31.318  28.959  23.609  1.00  0.00     0.406 C 
ATOM     21  F   UNL A   1      31.300  28.717  22.283  1.00  0.00    -0.169 F 
ATOM     22  F   UNL A   1      30.340  29.874  23.852  1.00  0.00    -0.169 F 
ATOM     23  F   UNL A   1      32.484  29.563  23.913  1.00  0.00    -0.169 F 
ENDBRANCH  19  20
ENDBRANCH   7  19
ENDBRANCH   6   7
ENDBRANCH   4   6
ENDBRANCH   3   4
ENDBRANCH   2   3
ENDBRANCH   1   2
BRANCH   1  24
ATOM     24  O   UNL A   1      35.424  21.877  24.297  1.00  0.00    -0.374 OA
BRANCH  24  25
ATOM     25  C   UNL A   1      36.116  21.734  25.516  1.00  0.00     0.202 C 
BRANCH  25  26
ATOM     26  C   UNL A   1      37.497  21.116  25.312  1.00  0.00     0.261 C 
BRANCH  26  27
ATOM     27  O   UNL A   1      38.529  22.126  25.357  1.00  0.00    -0.460 OA
BRANCH  27  28
ATOM     28  C   UNL A   1      39.499  21.901  26.289  1.00  0.00     0.338 C 
ATOM     29  O   UNL A   1      39.996  20.812  26.525  1.00  0.00    -0.246 OA
BRANCH  28  30
ATOM     30  C   UNL A   1      39.690  23.119  27.133  1.00  0.00     0.060 A 
ATOM     31  C   UNL A   1      38.865  24.235  26.917  1.00  0.00     0.016 A 
ATOM     32  C   UNL A   1      40.866  23.253  27.877  1.00  0.00     0.016 A 
ATOM     33  C   UNL A   1      39.278  25.498  27.358  1.00  0.00     0.010 A 
ATOM     34  C   UNL A   1      41.329  24.521  28.194  1.00  0.00     0.010 A 
ATOM     35  C   UNL A   1      40.545  25.656  27.937  1.00  0.00    -0.014 A 
BRANCH  35  36
ATOM     36  C   UNL A   1      40.887  26.865  28.703  1.00  0.00     0.031 A 
ATOM     37  C   UNL A   1      42.100  27.474  28.137  1.00  0.00     0.074 A 
ATOM     38  C   UNL A   1      40.207  27.545  29.653  1.00  0.00     0.049 A 
ATOM     39  N   UNL A   1      43.242  27.527  28.737  1.00  0.00    -0.248 NA
ATOM     40  C   UNL A   1      42.124  27.890  26.726  1.00  0.00     0.031 C 
ATOM     41  C   UNL A   1      38.984  27.155  30.317  1.00  0.00     0.029 A 
ATOM     42  N   UNL A   1      40.407  28.805  30.162  1.00  0.00    -0.354 N 
ATOM     43  C   UNL A   1      44.043  28.236  27.869  1.00  0.00     0.074 A 
ATOM     44  C   UNL A   1      43.411  28.197  26.577  1.00  0.00     0.031 C 
ATOM     45  C   UNL A   1      38.364  28.225  30.857  1.00  0.00     0.029 A 
ATOM     46  C   UNL A   1      39.272  29.352  30.770  1.00  0.00     0.049 A 
ATOM     47  H   UNL A   1      41.267  29.279  30.104  1.00  0.00     0.167 HD
ATOM     48  C   UNL A   1      44.932  29.132  28.360  1.00  0.00     0.037 A 
ATOM     49  C   UNL A   1      39.082  30.611  31.243  1.00  0.00     0.037 A 
ATOM     50  C   UNL A   1      45.242  28.907  29.748  1.00  0.00     0.049 A 
ATOM     51  C   UNL A   1      40.418  31.125  31.602  1.00  0.00     0.074 A 
ATOM     52  C   UNL A   1      45.604  27.795  30.486  1.00  0.00     0.029 A 
ATOM     53  N   UNL A   1      44.830  29.845  30.661  1.00  0.00    -0.354 N 
ATOM     54  N   UNL A   1      41.096  30.717  32.636  1.00  0.00    -0.248 NA
ATOM     55  C   UNL A   1      41.175  31.866  30.607  1.00  0.00     0.031 C 
ATOM     56  C   UNL A   1      44.984  27.961  31.757  1.00  0.00     0.029 A 
ATOM     57  C   UNL A   1      44.328  29.191  31.759  1.00  0.00     0.049 A 
ATOM     58  H   UNL A   1      44.886  30.821  30.548  1.00  0.00     0.167 HD
ATOM     59  C   UNL A   1      42.399  30.685  32.179  1.00  0.00     0.074 A 
ATOM     60  C   UNL A   1      42.410  31.567  31.017  1.00  0.00     0.031 C 
ATOM     61  C   UNL A   1      43.254  29.704  32.588  1.00  0.00     0.037 A 
BRANCH  48  62
ATOM     62  C   UNL A   1      45.149  30.425  27.642  1.00  0.00     0.057 A 
ATOM     63  C   UNL A   1      46.439  30.820  27.291  1.00  0.00     0.134 A 
ATOM     64  C   UNL A   1      44.131  31.387  27.452  1.00  0.00     0.134 A 
ATOM     65  F   UNL A   1      47.483  30.011  27.519  1.00  0.00    -0.206 F 
ATOM     66  C   UNL A   1      46.695  32.082  26.748  1.00  0.00     0.040 A 
ATOM     67  C   UNL A   1      44.360  32.618  26.845  1.00  0.00     0.040 A 
ATOM     68  F   UNL A   1      42.887  31.207  27.922  1.00  0.00    -0.206 F 
ATOM     69  C   UNL A   1      45.653  32.974  26.502  1.00  0.00     0.006 A 
ENDBRANCH  48  62
BRANCH  49  70
ATOM     70  C   UNL A   1      37.864  31.443  31.398  1.00  0.00     0.057 A 
ATOM     71  C   UNL A   1      37.198  31.530  32.633  1.00  0.00     0.134 A 
ATOM     72  C   UNL A   1      37.501  32.405  30.441  1.00  0.00     0.134 A 
ATOM     73  F   UNL A   1      37.473  30.670  33.624  1.00  0.00    -0.206 F 
ATOM     74  C   UNL A   1      36.276  32.547  32.922  1.00  0.00     0.040 A 
ATOM     75  C   UNL A   1      36.578  33.424  30.715  1.00  0.00     0.040 A 
ATOM     76  F   UNL A   1      38.092  32.438  29.238  1.00  0.00    -0.206 F 
ATOM     77  C   UNL A   1      35.980  33.511  31.968  1.00  0.00     0.006 A 
ENDBRANCH  49  70
BRANCH  61  78
ATOM     78  C   UNL A   1      42.928  28.938  33.851  1.00  0.00     0.057 A 
ATOM     79  C   UNL A   1      41.993  27.895  33.959  1.00  0.00     0.134 A 
ATOM     80  C   UNL A   1      43.693  29.204  34.997  1.00  0.00     0.134 A 
ATOM     81  F   UNL A   1      41.270  27.484  32.910  1.00  0.00    -0.206 F 
ATOM     82  C   UNL A   1      41.811  27.183  35.153  1.00  0.00     0.040 A 
ATOM     83  C   UNL A   1      43.550  28.473  36.179  1.00  0.00     0.040 A 
ATOM     84  F   UNL A   1      44.632  30.164  34.974  1.00  0.00    -0.206 F 
ATOM     85  C   UNL A   1      42.599  27.463  36.264  1.00  0.00     0.006 A 
ENDBRANCH  61  78
ENDBRANCH  35  36
ENDBRANCH  28  30
ENDBRANCH  27  28
ENDBRANCH  26  27
ENDBRANCH  25  26
ENDBRANCH  24  25
ENDBRANCH   1  24
TORSDOF 20
ENDMDL
