MODEL 1
REMARK VINA RESULT:     -11.6      0.000      0.000
REMARK SMILES O=C(OCCOCCOC(=O)c1ccc(Cl)cc1NC(=O)c1cc(Cl)nnc1Cl)c1ccc(-c2c3nc(c(-c4c(F)cccc4F)c4ccc([nH]4)c(-c4c(F)cccc4F)c4nc(c(-c5c(F)cccc5F)c5ccc2[nH]5)C=C4)C=C3)cc1
REMARK SMILES IDX 6 1 5 2 4 3 3 4 2 5 1 6 30 7 31 8 83 9 32 10 82 11 33 12
REMARK SMILES IDX 34 13 35 14 76 15 36 16 81 17 75 18 77 19 37 20 80 21 74 22
REMARK SMILES IDX 73 23 38 25 64 26 47 27 63 28 48 29 51 30 62 31 78 32 49 33
REMARK SMILES IDX 50 34 61 36 79 37 52 38 39 39 40 40 45 41 41 42 42 43 44 44
REMARK SMILES IDX 46 45 43 46 65 47 66 48 71 49 67 50 68 51 70 52 72 53 69 54
REMARK SMILES IDX 53 55 54 56 59 57 55 58 56 59 58 60 60 61 57 62 7 63 8 64
REMARK SMILES IDX 9 65 10 66 11 67 12 68 13 69 18 70 14 71 17 72 15 73 16 74
REMARK SMILES IDX 19 75 20 76 21 78 22 79 23 80 28 81 24 82 27 83 29 84 25 85
REMARK SMILES IDX 26 86
REMARK H PARENT 77 24 51 35 19 77
REMARK Flexibility Score: inf
ROOT
ATOM      1  O   UNL A   1      36.368  20.861  25.448  1.00  0.00    -0.374 OA
ENDROOT
BRANCH   1   2
ATOM      2  C   UNL A   1      37.783  21.011  25.428  1.00  0.00     0.202 C 
BRANCH   2   3
ATOM      3  C   UNL A   1      38.501  19.814  24.809  1.00  0.00     0.261 C 
BRANCH   3   4
ATOM      4  O   UNL A   1      39.422  19.229  25.737  1.00  0.00    -0.460 OA
BRANCH   4   5
ATOM      5  C   UNL A   1      40.726  19.518  25.949  1.00  0.00     0.338 C 
ATOM      6  O   UNL A   1      41.548  18.650  25.652  1.00  0.00    -0.246 OA
BRANCH   5   7
ATOM      7  C   UNL A   1      41.259  20.792  26.549  1.00  0.00     0.060 A 
ATOM      8  C   UNL A   1      41.297  21.128  27.903  1.00  0.00     0.016 A 
ATOM      9  C   UNL A   1      41.811  21.724  25.643  1.00  0.00     0.016 A 
ATOM     10  C   UNL A   1      41.900  22.297  28.354  1.00  0.00     0.010 A 
ATOM     11  C   UNL A   1      42.363  22.934  26.076  1.00  0.00     0.010 A 
ATOM     12  C   UNL A   1      42.394  23.222  27.440  1.00  0.00    -0.014 A 
BRANCH  12  13
ATOM     13  C   UNL A   1      42.691  24.566  27.959  1.00  0.00     0.031 A 
ATOM     14  C   UNL A   1      44.135  24.965  28.018  1.00  0.00     0.074 A 
ATOM     15  C   UNL A   1      41.704  25.444  28.194  1.00  0.00     0.049 A 
ATOM     16  N   UNL A   1      44.666  26.137  28.239  1.00  0.00    -0.248 NA
ATOM     17  C   UNL A   1      45.115  23.901  27.726  1.00  0.00     0.031 C 
ATOM     18  C   UNL A   1      40.277  25.179  28.030  1.00  0.00     0.029 A 
ATOM     19  N   UNL A   1      41.766  26.753  28.584  1.00  0.00    -0.354 N 
ATOM     20  C   UNL A   1      46.031  25.963  28.052  1.00  0.00     0.074 A 
ATOM     21  C   UNL A   1      46.253  24.573  27.729  1.00  0.00     0.031 C 
ATOM     22  C   UNL A   1      39.592  26.301  28.318  1.00  0.00     0.029 A 
ATOM     23  C   UNL A   1      40.535  27.347  28.704  1.00  0.00     0.049 A 
ATOM     24  H   UNL A   1      42.611  27.225  28.763  1.00  0.00     0.167 HD
ATOM     25  C   UNL A   1      47.015  26.886  28.149  1.00  0.00     0.037 A 
ATOM     26  C   UNL A   1      40.225  28.598  29.092  1.00  0.00     0.037 A 
ATOM     27  C   UNL A   1      46.789  28.230  28.598  1.00  0.00     0.049 A 
ATOM     28  C   UNL A   1      41.353  29.538  29.427  1.00  0.00     0.074 A 
ATOM     29  C   UNL A   1      47.710  29.222  28.875  1.00  0.00     0.029 A 
ATOM     30  N   UNL A   1      45.533  28.755  28.875  1.00  0.00    -0.354 N 
ATOM     31  N   UNL A   1      42.647  29.369  29.280  1.00  0.00    -0.248 NA
ATOM     32  C   UNL A   1      40.977  30.841  29.991  1.00  0.00     0.031 C 
ATOM     33  C   UNL A   1      47.012  30.328  29.377  1.00  0.00     0.029 A 
ATOM     34  C   UNL A   1      45.654  30.044  29.358  1.00  0.00     0.049 A 
ATOM     35  H   UNL A   1      44.681  28.277  28.747  1.00  0.00     0.167 HD
ATOM     36  C   UNL A   1      43.238  30.551  29.703  1.00  0.00     0.074 A 
ATOM     37  C   UNL A   1      42.158  31.431  30.106  1.00  0.00     0.031 C 
ATOM     38  C   UNL A   1      44.552  30.888  29.752  1.00  0.00     0.037 A 
BRANCH  25  39
ATOM     39  C   UNL A   1      48.403  26.404  27.857  1.00  0.00     0.057 A 
ATOM     40  C   UNL A   1      49.181  25.820  28.861  1.00  0.00     0.134 A 
ATOM     41  C   UNL A   1      48.929  26.422  26.557  1.00  0.00     0.134 A 
ATOM     42  F   UNL A   1      48.727  25.755  30.122  1.00  0.00    -0.206 F 
ATOM     43  C   UNL A   1      50.428  25.257  28.583  1.00  0.00     0.040 A 
ATOM     44  C   UNL A   1      50.166  25.844  26.262  1.00  0.00     0.040 A 
ATOM     45  F   UNL A   1      48.216  26.934  25.541  1.00  0.00    -0.206 F 
ATOM     46  C   UNL A   1      50.918  25.258  27.279  1.00  0.00     0.006 A 
ENDBRANCH  25  39
BRANCH  26  47
ATOM     47  C   UNL A   1      38.809  29.027  29.211  1.00  0.00     0.057 A 
ATOM     48  C   UNL A   1      38.114  28.919  30.422  1.00  0.00     0.134 A 
ATOM     49  C   UNL A   1      38.128  29.591  28.128  1.00  0.00     0.134 A 
ATOM     50  F   UNL A   1      38.711  28.393  31.502  1.00  0.00    -0.206 F 
ATOM     51  C   UNL A   1      36.793  29.350  30.551  1.00  0.00     0.040 A 
ATOM     52  C   UNL A   1      36.812  30.047  28.247  1.00  0.00     0.040 A 
ATOM     53  F   UNL A   1      38.744  29.745  26.947  1.00  0.00    -0.206 F 
ATOM     54  C   UNL A   1      36.140  29.923  29.462  1.00  0.00     0.006 A 
ENDBRANCH  26  47
BRANCH  38  55
ATOM     55  C   UNL A   1      44.876  32.273  30.226  1.00  0.00     0.057 A 
ATOM     56  C   UNL A   1      44.933  33.336  29.317  1.00  0.00     0.134 A 
ATOM     57  C   UNL A   1      45.155  32.549  31.569  1.00  0.00     0.134 A 
ATOM     58  F   UNL A   1      44.686  33.133  28.014  1.00  0.00    -0.206 F 
ATOM     59  C   UNL A   1      45.256  34.628  29.728  1.00  0.00     0.040 A 
ATOM     60  C   UNL A   1      45.451  33.844  31.997  1.00  0.00     0.040 A 
ATOM     61  F   UNL A   1      45.102  31.575  32.491  1.00  0.00    -0.206 F 
ATOM     62  C   UNL A   1      45.507  34.887  31.074  1.00  0.00     0.006 A 
ENDBRANCH  38  55
ENDBRANCH  12  13
ENDBRANCH   5   7
ENDBRANCH   4   5
ENDBRANCH   3   4
ENDBRANCH   2   3
ENDBRANCH   1   2
BRANCH   1  63
ATOM     63  C   UNL A   1      35.626  21.972  25.942  1.00  0.00     0.202 C 
BRANCH  63  64
ATOM     64  C   UNL A   1      34.281  21.504  26.499  1.00  0.00     0.261 C 
BRANCH  64  65
ATOM     65  O   UNL A   1      33.236  22.410  26.103  1.00  0.00    -0.460 OA
BRANCH  65  66
ATOM     66  C   UNL A   1      32.270  21.916  25.290  1.00  0.00     0.340 C 
ATOM     67  O   UNL A   1      31.418  21.086  25.560  1.00  0.00    -0.246 OA
BRANCH  66  68
ATOM     68  C   UNL A   1      32.261  22.729  24.048  1.00  0.00     0.083 A 
ATOM     69  C   UNL A   1      33.222  22.444  23.062  1.00  0.00     0.019 A 
ATOM     70  C   UNL A   1      31.381  23.830  23.906  1.00  0.00     0.057 A 
ATOM     71  C   UNL A   1      33.364  23.281  21.961  1.00  0.00     0.021 A 
ATOM     72  C   UNL A   1      31.595  24.694  22.828  1.00  0.00     0.047 A 
ATOM     73  C   UNL A   1      32.568  24.414  21.864  1.00  0.00     0.043 A 
ATOM     74  Cl  UNL A   1      32.795  25.503  20.551  1.00  0.00    -0.084 Cl
BRANCH  70  75
ATOM     75  N   UNL A   1      30.384  24.061  24.889  1.00  0.00    -0.321 N 
ATOM     76  C   UNL A   1      30.203  25.049  25.828  1.00  0.00     0.258 C 
ATOM     77  H   UNL A   1      29.679  23.375  24.901  1.00  0.00     0.170 HD
ATOM     78  O   UNL A   1      29.524  24.839  26.832  1.00  0.00    -0.269 OA
BRANCH  76  79
ATOM     79  C   UNL A   1      30.776  26.385  25.672  1.00  0.00     0.082 A 
ATOM     80  C   UNL A   1      31.803  26.776  26.535  1.00  0.00     0.060 A 
ATOM     81  C   UNL A   1      30.295  27.284  24.737  1.00  0.00     0.164 A 
ATOM     82  C   UNL A   1      32.336  28.033  26.353  1.00  0.00     0.152 A 
ATOM     83  N   UNL A   1      30.853  28.502  24.587  1.00  0.00    -0.136 NA
ATOM     84  Cl  UNL A   1      28.966  26.998  23.693  1.00  0.00    -0.059 Cl
ATOM     85  Cl  UNL A   1      33.629  28.610  27.311  1.00  0.00    -0.060 Cl
ATOM     86  N   UNL A   1      31.898  28.876  25.397  1.00  0.00    -0.137 NA
ENDBRANCH  76  79
ENDBRANCH  70  75
ENDBRANCH  66  68
ENDBRANCH  65  66
ENDBRANCH  64  65
ENDBRANCH  63  64
ENDBRANCH   1  63
TORSDOF 16
ENDMDL
MODEL 2
REMARK VINA RESULT:     -11.4      2.676      4.473
REMARK SMILES O=C(OCCOCCOC(=O)c1ccc(Cl)cc1NC(=O)c1cc(Cl)nnc1Cl)c1ccc(-c2c3nc(c(-c4c(F)cccc4F)c4ccc([nH]4)c(-c4c(F)cccc4F)c4nc(c(-c5c(F)cccc5F)c5ccc2[nH]5)C=C4)C=C3)cc1
REMARK SMILES IDX 6 1 5 2 4 3 3 4 2 5 1 6 30 7 31 8 83 9 32 10 82 11 33 12
REMARK SMILES IDX 34 13 35 14 76 15 36 16 81 17 75 18 77 19 37 20 80 21 74 22
REMARK SMILES IDX 73 23 38 25 64 26 47 27 63 28 48 29 51 30 62 31 78 32 49 33
REMARK SMILES IDX 50 34 61 36 79 37 52 38 39 39 40 40 45 41 41 42 42 43 44 44
REMARK SMILES IDX 46 45 43 46 65 47 66 48 71 49 67 50 68 51 70 52 72 53 69 54
REMARK SMILES IDX 53 55 54 56 59 57 55 58 56 59 58 60 60 61 57 62 7 63 8 64
REMARK SMILES IDX 9 65 10 66 11 67 12 68 13 69 18 70 14 71 17 72 15 73 16 74
REMARK SMILES IDX 19 75 20 76 21 78 22 79 23 80 28 81 24 82 27 83 29 84 25 85
REMARK SMILES IDX 26 86
REMARK H PARENT 77 24 51 35 19 77
REMARK Flexibility Score: inf
ROOT
ATOM      1  O   UNL A   1      35.243  23.465  25.401  1.00  0.00    -0.374 OA
ENDROOT
BRANCH   1   2
ATOM      2  C   UNL A   1      36.600  23.302  25.003  1.00  0.00     0.202 C 
BRANCH   2   3
ATOM      3  C   UNL A   1      37.274  22.100  25.660  1.00  0.00     0.261 C 
BRANCH   3   4
ATOM      4  O   UNL A   1      38.696  22.156  25.501  1.00  0.00    -0.460 OA
BRANCH   4   5
ATOM      5  C   UNL A   1      39.641  22.564  26.379  1.00  0.00     0.338 C 
ATOM      6  O   UNL A   1      40.373  21.696  26.858  1.00  0.00    -0.246 OA
BRANCH   5   7
ATOM      7  C   UNL A   1      39.856  23.978  26.849  1.00  0.00     0.060 A 
ATOM      8  C   UNL A   1      40.379  25.037  26.105  1.00  0.00     0.016 A 
ATOM      9  C   UNL A   1      39.449  24.264  28.170  1.00  0.00     0.016 A 
ATOM     10  C   UNL A   1      40.445  26.330  26.614  1.00  0.00     0.010 A 
ATOM     11  C   UNL A   1      39.570  25.546  28.717  1.00  0.00     0.010 A 
ATOM     12  C   UNL A   1      40.084  26.578  27.933  1.00  0.00    -0.014 A 
BRANCH  12  13
ATOM     13  C   UNL A   1      40.505  27.868  28.500  1.00  0.00     0.031 A 
ATOM     14  C   UNL A   1      41.976  28.154  28.513  1.00  0.00     0.074 A 
ATOM     15  C   UNL A   1      39.599  28.805  28.820  1.00  0.00     0.049 A 
ATOM     16  N   UNL A   1      42.604  29.270  28.765  1.00  0.00    -0.248 NA
ATOM     17  C   UNL A   1      42.858  27.036  28.129  1.00  0.00     0.031 C 
ATOM     18  C   UNL A   1      38.150  28.656  28.708  1.00  0.00     0.029 A 
ATOM     19  N   UNL A   1      39.777  30.085  29.268  1.00  0.00    -0.354 N 
ATOM     20  C   UNL A   1      43.943  29.004  28.510  1.00  0.00     0.074 A 
ATOM     21  C   UNL A   1      44.044  27.619  28.112  1.00  0.00     0.031 C 
ATOM     22  C   UNL A   1      37.566  29.810  29.078  1.00  0.00     0.029 A 
ATOM     23  C   UNL A   1      38.601  30.762  29.470  1.00  0.00     0.049 A 
ATOM     24  H   UNL A   1      40.663  30.482  29.431  1.00  0.00     0.167 HD
ATOM     25  C   UNL A   1      44.999  29.845  28.606  1.00  0.00     0.037 A 
ATOM     26  C   UNL A   1      38.406  32.012  29.930  1.00  0.00     0.037 A 
ATOM     27  C   UNL A   1      44.896  31.178  29.127  1.00  0.00     0.049 A 
ATOM     28  C   UNL A   1      39.615  32.847  30.258  1.00  0.00     0.074 A 
ATOM     29  C   UNL A   1      45.901  32.082  29.408  1.00  0.00     0.029 A 
ATOM     30  N   UNL A   1      43.696  31.781  29.484  1.00  0.00    -0.354 N 
ATOM     31  N   UNL A   1      40.885  32.588  30.045  1.00  0.00    -0.248 NA
ATOM     32  C   UNL A   1      39.364  34.144  30.899  1.00  0.00     0.031 C 
ATOM     33  C   UNL A   1      45.311  33.211  29.993  1.00  0.00     0.029 A 
ATOM     34  C   UNL A   1      43.936  33.032  30.020  1.00  0.00     0.049 A 
ATOM     35  H   UNL A   1      42.805  31.375  29.372  1.00  0.00     0.167 HD
ATOM     36  C   UNL A   1      41.583  33.700  30.497  1.00  0.00     0.074 A 
ATOM     37  C   UNL A   1      40.591  34.638  30.988  1.00  0.00     0.031 C 
ATOM     38  C   UNL A   1      42.919  33.935  30.503  1.00  0.00     0.037 A 
BRANCH  25  39
ATOM     39  C   UNL A   1      46.332  29.275  28.230  1.00  0.00     0.057 A 
ATOM     40  C   UNL A   1      47.078  28.536  29.153  1.00  0.00     0.134 A 
ATOM     41  C   UNL A   1      46.829  29.369  26.921  1.00  0.00     0.134 A 
ATOM     42  F   UNL A   1      46.648  28.393  30.416  1.00  0.00    -0.206 F 
ATOM     43  C   UNL A   1      48.264  27.897  28.787  1.00  0.00     0.040 A 
ATOM     44  C   UNL A   1      48.004  28.718  26.539  1.00  0.00     0.040 A 
ATOM     45  F   UNL A   1      46.141  30.032  25.978  1.00  0.00    -0.206 F 
ATOM     46  C   UNL A   1      48.723  27.977  27.475  1.00  0.00     0.006 A 
ENDBRANCH  25  39
BRANCH  26  47
ATOM     47  C   UNL A   1      37.033  32.540  30.132  1.00  0.00     0.057 A 
ATOM     48  C   UNL A   1      36.376  33.264  29.128  1.00  0.00     0.134 A 
ATOM     49  C   UNL A   1      36.328  32.301  31.316  1.00  0.00     0.134 A 
ATOM     50  F   UNL A   1      36.992  33.522  27.965  1.00  0.00    -0.206 F 
ATOM     51  C   UNL A   1      35.073  33.735  29.296  1.00  0.00     0.040 A 
ATOM     52  C   UNL A   1      35.016  32.749  31.491  1.00  0.00     0.040 A 
ATOM     53  F   UNL A   1      36.891  31.594  32.306  1.00  0.00    -0.206 F 
ATOM     54  C   UNL A   1      34.386  33.472  30.479  1.00  0.00     0.006 A 
ENDBRANCH  26  47
BRANCH  38  55
ATOM     55  C   UNL A   1      43.368  35.266  31.026  1.00  0.00     0.057 A 
ATOM     56  C   UNL A   1      43.599  35.446  32.395  1.00  0.00     0.134 A 
ATOM     57  C   UNL A   1      43.548  36.370  30.185  1.00  0.00     0.134 A 
ATOM     58  F   UNL A   1      43.435  34.429  33.254  1.00  0.00    -0.206 F 
ATOM     59  C   UNL A   1      43.995  36.680  32.910  1.00  0.00     0.040 A 
ATOM     60  C   UNL A   1      43.970  37.602  30.684  1.00  0.00     0.040 A 
ATOM     61  F   UNL A   1      43.355  36.257  28.862  1.00  0.00    -0.206 F 
ATOM     62  C   UNL A   1      44.189  37.761  32.052  1.00  0.00     0.006 A 
ENDBRANCH  38  55
ENDBRANCH  12  13
ENDBRANCH   5   7
ENDBRANCH   4   5
ENDBRANCH   3   4
ENDBRANCH   2   3
ENDBRANCH   1   2
BRANCH   1  63
ATOM     63  C   UNL A   1      34.626  24.696  25.039  1.00  0.00     0.202 C 
BRANCH  63  64
ATOM     64  C   UNL A   1      33.384  24.938  25.898  1.00  0.00     0.261 C 
BRANCH  64  65
ATOM     65  O   UNL A   1      32.318  25.473  25.093  1.00  0.00    -0.460 OA
BRANCH  65  66
ATOM     66  C   UNL A   1      31.270  26.026  25.750  1.00  0.00     0.340 C 
ATOM     67  O   UNL A   1      30.313  25.455  26.247  1.00  0.00    -0.246 OA
BRANCH  66  68
ATOM     68  C   UNL A   1      31.583  27.459  25.982  1.00  0.00     0.083 A 
ATOM     69  C   UNL A   1      31.656  27.914  27.310  1.00  0.00     0.019 A 
ATOM     70  C   UNL A   1      31.698  28.362  24.897  1.00  0.00     0.057 A 
ATOM     71  C   UNL A   1      31.779  29.273  27.577  1.00  0.00     0.021 A 
ATOM     72  C   UNL A   1      31.746  29.728  25.196  1.00  0.00     0.047 A 
ATOM     73  C   UNL A   1      31.797  30.173  26.520  1.00  0.00     0.043 A 
ATOM     74  Cl  UNL A   1      31.860  31.862  26.842  1.00  0.00    -0.084 Cl
BRANCH  70  75
ATOM     75  N   UNL A   1      31.675  27.868  23.568  1.00  0.00    -0.321 N 
ATOM     76  C   UNL A   1      30.682  27.756  22.624  1.00  0.00     0.258 C 
ATOM     77  H   UNL A   1      32.549  27.538  23.258  1.00  0.00     0.170 HD
ATOM     78  O   UNL A   1      30.775  26.934  21.714  1.00  0.00    -0.269 OA
BRANCH  76  79
ATOM     79  C   UNL A   1      29.495  28.610  22.639  1.00  0.00     0.082 A 
ATOM     80  C   UNL A   1      29.600  29.909  22.137  1.00  0.00     0.060 A 
ATOM     81  C   UNL A   1      28.296  28.187  23.183  1.00  0.00     0.164 A 
ATOM     82  C   UNL A   1      28.462  30.685  22.147  1.00  0.00     0.152 A 
ATOM     83  N   UNL A   1      27.203  28.977  23.164  1.00  0.00    -0.136 NA
ATOM     84  Cl  UNL A   1      28.042  26.672  23.944  1.00  0.00    -0.059 Cl
ATOM     85  Cl  UNL A   1      28.449  32.273  21.517  1.00  0.00    -0.060 Cl
ATOM     86  N   UNL A   1      27.284  30.238  22.626  1.00  0.00    -0.137 NA
ENDBRANCH  76  79
ENDBRANCH  70  75
ENDBRANCH  66  68
ENDBRANCH  65  66
ENDBRANCH  64  65
ENDBRANCH  63  64
ENDBRANCH   1  63
TORSDOF 16
ENDMDL
MODEL 3
REMARK VINA RESULT:     -11.4      4.747      9.382
REMARK SMILES O=C(OCCOCCOC(=O)c1ccc(Cl)cc1NC(=O)c1cc(Cl)nnc1Cl)c1ccc(-c2c3nc(c(-c4c(F)cccc4F)c4ccc([nH]4)c(-c4c(F)cccc4F)c4nc(c(-c5c(F)cccc5F)c5ccc2[nH]5)C=C4)C=C3)cc1
REMARK SMILES IDX 6 1 5 2 4 3 3 4 2 5 1 6 30 7 31 8 83 9 32 10 82 11 33 12
REMARK SMILES IDX 34 13 35 14 76 15 36 16 81 17 75 18 77 19 37 20 80 21 74 22
REMARK SMILES IDX 73 23 38 25 64 26 47 27 63 28 48 29 51 30 62 31 78 32 49 33
REMARK SMILES IDX 50 34 61 36 79 37 52 38 39 39 40 40 45 41 41 42 42 43 44 44
REMARK SMILES IDX 46 45 43 46 65 47 66 48 71 49 67 50 68 51 70 52 72 53 69 54
REMARK SMILES IDX 53 55 54 56 59 57 55 58 56 59 58 60 60 61 57 62 7 63 8 64
REMARK SMILES IDX 9 65 10 66 11 67 12 68 13 69 18 70 14 71 17 72 15 73 16 74
REMARK SMILES IDX 19 75 20 76 21 78 22 79 23 80 28 81 24 82 27 83 29 84 25 85
REMARK SMILES IDX 26 86
REMARK H PARENT 77 24 51 35 19 77
REMARK Flexibility Score: inf
ROOT
ATOM      1  O   UNL A   1      31.222  30.704  25.687  1.00  0.00    -0.374 OA
ENDROOT
BRANCH   1   2
ATOM      2  C   UNL A   1      31.132  32.043  26.161  1.00  0.00     0.202 C 
BRANCH   2   3
ATOM      3  C   UNL A   1      32.179  32.371  27.224  1.00  0.00     0.261 C 
BRANCH   3   4
ATOM      4  O   UNL A   1      32.196  33.773  27.516  1.00  0.00    -0.460 OA
BRANCH   4   5
ATOM      5  C   UNL A   1      32.998  34.464  28.358  1.00  0.00     0.338 C 
ATOM      6  O   UNL A   1      32.677  35.627  28.609  1.00  0.00    -0.246 OA
BRANCH   5   7
ATOM      7  C   UNL A   1      34.266  33.951  28.987  1.00  0.00     0.060 A 
ATOM      8  C   UNL A   1      35.572  34.309  28.650  1.00  0.00     0.016 A 
ATOM      9  C   UNL A   1      34.108  33.038  30.053  1.00  0.00     0.016 A 
ATOM     10  C   UNL A   1      36.670  33.841  29.363  1.00  0.00     0.010 A 
ATOM     11  C   UNL A   1      35.207  32.508  30.737  1.00  0.00     0.010 A 
ATOM     12  C   UNL A   1      36.494  32.907  30.377  1.00  0.00    -0.014 A 
BRANCH  12  13
ATOM     13  C   UNL A   1      37.699  32.203  30.842  1.00  0.00     0.031 A 
ATOM     14  C   UNL A   1      38.178  32.520  32.227  1.00  0.00     0.074 A 
ATOM     15  C   UNL A   1      38.227  31.201  30.123  1.00  0.00     0.049 A 
ATOM     16  N   UNL A   1      39.077  31.917  32.954  1.00  0.00    -0.248 NA
ATOM     17  C   UNL A   1      37.500  33.641  32.906  1.00  0.00     0.031 C 
ATOM     18  C   UNL A   1      37.738  30.738  28.826  1.00  0.00     0.029 A 
ATOM     19  N   UNL A   1      39.273  30.368  30.410  1.00  0.00    -0.354 N 
ATOM     20  C   UNL A   1      39.029  32.543  34.193  1.00  0.00     0.074 A 
ATOM     21  C   UNL A   1      38.036  33.589  34.113  1.00  0.00     0.031 C 
ATOM     22  C   UNL A   1      38.488  29.694  28.428  1.00  0.00     0.029 A 
ATOM     23  C   UNL A   1      39.516  29.436  29.433  1.00  0.00     0.049 A 
ATOM     24  H   UNL A   1      39.802  30.431  31.238  1.00  0.00     0.167 HD
ATOM     25  C   UNL A   1      39.758  32.271  35.299  1.00  0.00     0.037 A 
ATOM     26  C   UNL A   1      40.474  28.493  29.372  1.00  0.00     0.037 A 
ATOM     27  C   UNL A   1      40.828  31.316  35.319  1.00  0.00     0.049 A 
ATOM     28  C   UNL A   1      41.428  28.374  30.531  1.00  0.00     0.074 A 
ATOM     29  C   UNL A   1      41.733  31.044  36.326  1.00  0.00     0.029 A 
ATOM     30  N   UNL A   1      41.159  30.499  34.245  1.00  0.00    -0.354 N 
ATOM     31  N   UNL A   1      41.404  28.985  31.692  1.00  0.00    -0.248 NA
ATOM     32  C   UNL A   1      42.550  27.441  30.364  1.00  0.00     0.031 C 
ATOM     33  C   UNL A   1      42.649  30.103  35.838  1.00  0.00     0.029 A 
ATOM     34  C   UNL A   1      42.279  29.748  34.549  1.00  0.00     0.049 A 
ATOM     35  H   UNL A   1      40.668  30.461  33.392  1.00  0.00     0.167 HD
ATOM     36  C   UNL A   1      42.486  28.490  32.408  1.00  0.00     0.074 A 
ATOM     37  C   UNL A   1      43.141  27.522  31.548  1.00  0.00     0.031 C 
ATOM     38  C   UNL A   1      42.903  28.797  33.662  1.00  0.00     0.037 A 
BRANCH  25  39
ATOM     39  C   UNL A   1      39.457  33.103  36.508  1.00  0.00     0.057 A 
ATOM     40  C   UNL A   1      38.546  32.657  37.472  1.00  0.00     0.134 A 
ATOM     41  C   UNL A   1      40.146  34.295  36.771  1.00  0.00     0.134 A 
ATOM     42  F   UNL A   1      37.868  31.514  37.289  1.00  0.00    -0.206 F 
ATOM     43  C   UNL A   1      38.342  33.358  38.662  1.00  0.00     0.040 A 
ATOM     44  C   UNL A   1      39.964  34.996  37.966  1.00  0.00     0.040 A 
ATOM     45  F   UNL A   1      41.061  34.758  35.904  1.00  0.00    -0.206 F 
ATOM     46  C   UNL A   1      39.060  34.524  38.916  1.00  0.00     0.006 A 
ENDBRANCH  25  39
BRANCH  26  47
ATOM     47  C   UNL A   1      40.598  27.613  28.183  1.00  0.00     0.057 A 
ATOM     48  C   UNL A   1      39.973  26.360  28.136  1.00  0.00     0.134 A 
ATOM     49  C   UNL A   1      41.311  28.018  27.050  1.00  0.00     0.134 A 
ATOM     50  F   UNL A   1      39.268  25.914  29.186  1.00  0.00    -0.206 F 
ATOM     51  C   UNL A   1      40.057  25.540  27.009  1.00  0.00     0.040 A 
ATOM     52  C   UNL A   1      41.386  27.217  25.908  1.00  0.00     0.040 A 
ATOM     53  F   UNL A   1      41.912  29.216  27.022  1.00  0.00    -0.206 F 
ATOM     54  C   UNL A   1      40.760  25.972  25.887  1.00  0.00     0.006 A 
ENDBRANCH  26  47
BRANCH  38  55
ATOM     55  C   UNL A   1      44.098  28.052  34.177  1.00  0.00     0.057 A 
ATOM     56  C   UNL A   1      45.383  28.583  34.022  1.00  0.00     0.134 A 
ATOM     57  C   UNL A   1      43.980  26.804  34.802  1.00  0.00     0.134 A 
ATOM     58  F   UNL A   1      45.563  29.770  33.423  1.00  0.00    -0.206 F 
ATOM     59  C   UNL A   1      46.513  27.900  34.471  1.00  0.00     0.040 A 
ATOM     60  C   UNL A   1      45.100  26.124  35.280  1.00  0.00     0.040 A 
ATOM     61  F   UNL A   1      42.774  26.249  34.992  1.00  0.00    -0.206 F 
ATOM     62  C   UNL A   1      46.372  26.669  35.110  1.00  0.00     0.006 A 
ENDBRANCH  38  55
ENDBRANCH  12  13
ENDBRANCH   5   7
ENDBRANCH   4   5
ENDBRANCH   3   4
ENDBRANCH   2   3
ENDBRANCH   1   2
BRANCH   1  63
ATOM     63  C   UNL A   1      32.285  29.920  26.219  1.00  0.00     0.202 C 
BRANCH  63  64
ATOM     64  C   UNL A   1      33.248  29.510  25.104  1.00  0.00     0.261 C 
BRANCH  64  65
ATOM     65  O   UNL A   1      33.509  28.096  25.167  1.00  0.00    -0.460 OA
BRANCH  65  66
ATOM     66  C   UNL A   1      33.877  27.487  24.013  1.00  0.00     0.340 C 
ATOM     67  O   UNL A   1      34.293  28.008  22.993  1.00  0.00    -0.246 OA
BRANCH  66  68
ATOM     68  C   UNL A   1      33.914  26.024  24.264  1.00  0.00     0.083 A 
ATOM     69  C   UNL A   1      34.287  25.580  25.544  1.00  0.00     0.019 A 
ATOM     70  C   UNL A   1      33.687  25.101  23.213  1.00  0.00     0.057 A 
ATOM     71  C   UNL A   1      34.500  24.227  25.781  1.00  0.00     0.021 A 
ATOM     72  C   UNL A   1      33.980  23.756  23.460  1.00  0.00     0.047 A 
ATOM     73  C   UNL A   1      34.371  23.327  24.732  1.00  0.00     0.043 A 
ATOM     74  Cl  UNL A   1      34.717  21.662  24.992  1.00  0.00    -0.084 Cl
BRANCH  70  75
ATOM     75  N   UNL A   1      33.259  25.573  21.946  1.00  0.00    -0.321 N 
ATOM     76  C   UNL A   1      32.032  25.941  21.445  1.00  0.00     0.258 C 
ATOM     77  H   UNL A   1      33.990  25.653  21.291  1.00  0.00     0.170 HD
ATOM     78  O   UNL A   1      31.818  25.915  20.235  1.00  0.00    -0.269 OA
BRANCH  76  79
ATOM     79  C   UNL A   1      30.945  26.398  22.310  1.00  0.00     0.082 A 
ATOM     80  C   UNL A   1      30.662  27.765  22.362  1.00  0.00     0.060 A 
ATOM     81  C   UNL A   1      30.233  25.526  23.113  1.00  0.00     0.164 A 
ATOM     82  C   UNL A   1      29.622  28.164  23.171  1.00  0.00     0.152 A 
ATOM     83  N   UNL A   1      29.215  25.958  23.884  1.00  0.00    -0.136 NA
ATOM     84  Cl  UNL A   1      30.540  23.845  23.253  1.00  0.00    -0.059 Cl
ATOM     85  Cl  UNL A   1      29.145  29.801  23.283  1.00  0.00    -0.060 Cl
ATOM     86  N   UNL A   1      28.896  27.295  23.902  1.00  0.00    -0.137 NA
ENDBRANCH  76  79
ENDBRANCH  70  75
ENDBRANCH  66  68
ENDBRANCH  65  66
ENDBRANCH  64  65
ENDBRANCH  63  64
ENDBRANCH   1  63
TORSDOF 16
ENDMDL
