MODEL 1
REMARK VINA RESULT:     -10.8      0.000      0.000
REMARK SMILES CC(C)CSc1cc2c(cc1Cl)C=C(C(=O)OCCOCCOC(=O)c1ccc(-c3c4nc(c(-c5c(F)cccc5F)c5ccc([nH]5)c(-c5c(F)cccc5F)c5nc(c(-c6c(F)cccc6F)c6ccc3[nH]6)C=C5)C=C4)cc1)[C@H](C(F)(F)F)O2
REMARK SMILES IDX 19 1 18 2 17 3 15 4 16 5 14 6 6 7 7 8 11 9 8 10 10 11 12 12
REMARK SMILES IDX 9 13 85 14 13 15 80 16 5 17 4 18 2 19 1 20 3 21 81 22 82 23
REMARK SMILES IDX 83 24 84 25 20 26 21 27 22 28 23 29 24 30 25 31 26 32 27 33
REMARK SMILES IDX 79 34 28 35 78 36 29 37 30 38 31 39 72 40 32 41 77 42 71 43
REMARK SMILES IDX 73 44 33 45 76 46 70 47 69 48 34 50 60 51 43 52 59 53 44 54
REMARK SMILES IDX 47 55 58 56 74 57 45 58 46 59 57 61 75 62 48 63 35 64 36 65
REMARK SMILES IDX 41 66 37 67 38 68 40 69 42 70 39 71 61 72 62 73 67 74 63 75
REMARK SMILES IDX 64 76 66 77 68 78 65 79 49 80 50 81 55 82 51 83 52 84 54 85
REMARK SMILES IDX 56 86 53 87
REMARK H PARENT 73 49 47 60
REMARK Flexibility Score: inf
ROOT
ATOM      1  C   UNL A   1      39.686  21.544  26.019  1.00  0.00     0.202 C 
ENDROOT
BRANCH   1   2
ATOM      2  C   UNL A   1      38.441  20.871  25.435  1.00  0.00     0.261 C 
BRANCH   2   3
ATOM      3  O   UNL A   1      37.250  21.585  25.807  1.00  0.00    -0.460 OA
BRANCH   3   4
ATOM      4  C   UNL A   1      36.110  21.111  25.264  1.00  0.00     0.338 C 
ATOM      5  O   UNL A   1      35.858  19.943  25.010  1.00  0.00    -0.246 OA
BRANCH   4   6
ATOM      6  C   UNL A   1      35.121  22.195  25.131  1.00  0.00     0.087 C 
ATOM      7  C   UNL A   1      32.744  26.202  23.257  1.00  0.00     0.030 A 
ATOM      8  C   UNL A   1      33.062  25.761  24.556  1.00  0.00     0.063 A 
ATOM      9  C   UNL A   1      32.961  25.326  22.181  1.00  0.00     0.055 A 
ATOM     10  C   UNL A   1      33.692  24.533  24.763  1.00  0.00     0.129 A 
ATOM     11  C   UNL A   1      33.613  24.106  22.389  1.00  0.00     0.033 A 
ATOM     12  Cl  UNL A   1      32.453  25.657  20.563  1.00  0.00    -0.083 Cl
ATOM     13  C   UNL A   1      34.011  23.728  23.672  1.00  0.00     0.019 A 
ATOM     14  O   UNL A   1      34.051  24.229  26.049  1.00  0.00    -0.475 OA
ATOM     15  C   UNL A   1      34.858  22.568  23.871  1.00  0.00     0.027 C 
ATOM     16  C   UNL A   1      34.503  22.868  26.328  1.00  0.00     0.316 C 
BRANCH   7  17
ATOM     17  S   UNL A   1      32.118  27.877  23.146  1.00  0.00    -0.124 SA
BRANCH  17  18
ATOM     18  C   UNL A   1      31.185  28.102  24.716  1.00  0.00     0.078 C 
BRANCH  18  19
ATOM     19  C   UNL A   1      31.777  29.040  25.787  1.00  0.00    -0.007 C 
ATOM     20  C   UNL A   1      31.821  28.446  27.195  1.00  0.00     0.008 C 
ATOM     21  C   UNL A   1      33.210  29.409  25.376  1.00  0.00     0.008 C 
ENDBRANCH  18  19
ENDBRANCH  17  18
ENDBRANCH   7  17
BRANCH  16  22
ATOM     22  C   UNL A   1      33.354  22.069  26.980  1.00  0.00     0.430 C 
ATOM     23  F   UNL A   1      32.306  21.896  26.140  1.00  0.00    -0.167 F 
ATOM     24  F   UNL A   1      33.755  20.841  27.388  1.00  0.00    -0.167 F 
ATOM     25  F   UNL A   1      32.879  22.695  28.085  1.00  0.00    -0.167 F 
ENDBRANCH  16  22
ENDBRANCH   4   6
ENDBRANCH   3   4
ENDBRANCH   2   3
ENDBRANCH   1   2
BRANCH   1  26
ATOM     26  O   UNL A   1      40.433  20.777  26.964  1.00  0.00    -0.374 OA
BRANCH  26  27
ATOM     27  C   UNL A   1      41.685  20.238  26.536  1.00  0.00     0.202 C 
BRANCH  27  28
ATOM     28  C   UNL A   1      42.612  21.169  25.745  1.00  0.00     0.261 C 
BRANCH  28  29
ATOM     29  O   UNL A   1      43.073  22.270  26.546  1.00  0.00    -0.460 OA
BRANCH  29  30
ATOM     30  C   UNL A   1      43.097  23.470  25.920  1.00  0.00     0.338 C 
ATOM     31  O   UNL A   1      43.320  23.682  24.738  1.00  0.00    -0.246 OA
BRANCH  30  32
ATOM     32  C   UNL A   1      42.606  24.518  26.841  1.00  0.00     0.060 A 
ATOM     33  C   UNL A   1      41.519  24.302  27.690  1.00  0.00     0.016 A 
ATOM     34  C   UNL A   1      43.281  25.746  26.854  1.00  0.00     0.016 A 
ATOM     35  C   UNL A   1      41.132  25.310  28.577  1.00  0.00     0.010 A 
ATOM     36  C   UNL A   1      42.899  26.747  27.748  1.00  0.00     0.010 A 
ATOM     37  C   UNL A   1      41.832  26.530  28.630  1.00  0.00    -0.014 A 
BRANCH  37  38
ATOM     38  C   UNL A   1      41.504  27.525  29.683  1.00  0.00     0.031 A 
ATOM     39  C   UNL A   1      40.373  28.497  29.523  1.00  0.00     0.074 A 
ATOM     40  C   UNL A   1      42.250  27.544  30.805  1.00  0.00     0.049 A 
ATOM     41  N   UNL A   1      39.889  29.348  30.394  1.00  0.00    -0.248 NA
ATOM     42  C   UNL A   1      39.704  28.525  28.215  1.00  0.00     0.031 C 
ATOM     43  C   UNL A   1      43.410  26.688  31.059  1.00  0.00     0.029 A 
ATOM     44  N   UNL A   1      42.136  28.298  31.946  1.00  0.00    -0.354 N 
ATOM     45  C   UNL A   1      38.842  29.995  29.752  1.00  0.00     0.074 A 
ATOM     46  C   UNL A   1      38.805  29.484  28.395  1.00  0.00     0.031 C 
ATOM     47  C   UNL A   1      43.872  26.931  32.294  1.00  0.00     0.029 A 
ATOM     48  C   UNL A   1      43.063  27.979  32.908  1.00  0.00     0.049 A 
ATOM     49  H   UNL A   1      41.455  29.000  32.063  1.00  0.00     0.167 HD
ATOM     50  C   UNL A   1      37.978  30.913  30.252  1.00  0.00     0.037 A 
ATOM     51  C   UNL A   1      43.234  28.470  34.149  1.00  0.00     0.037 A 
ATOM     52  C   UNL A   1      38.039  31.445  31.590  1.00  0.00     0.049 A 
ATOM     53  C   UNL A   1      42.294  29.527  34.659  1.00  0.00     0.074 A 
ATOM     54  C   UNL A   1      37.192  32.359  32.198  1.00  0.00     0.029 A 
ATOM     55  N   UNL A   1      39.014  31.129  32.526  1.00  0.00    -0.354 N 
ATOM     56  N   UNL A   1      41.249  30.062  34.074  1.00  0.00    -0.248 NA
ATOM     57  C   UNL A   1      42.553  30.040  36.012  1.00  0.00     0.031 C 
ATOM     58  C   UNL A   1      37.689  32.638  33.477  1.00  0.00     0.029 A 
ATOM     59  C   UNL A   1      38.807  31.850  33.693  1.00  0.00     0.049 A 
ATOM     60  H   UNL A   1      39.746  30.487  32.382  1.00  0.00     0.167 HD
ATOM     61  C   UNL A   1      40.707  30.947  35.000  1.00  0.00     0.074 A 
ATOM     62  C   UNL A   1      41.527  30.859  36.190  1.00  0.00     0.031 C 
ATOM     63  C   UNL A   1      39.628  31.758  34.874  1.00  0.00     0.037 A 
BRANCH  50  64
ATOM     64  C   UNL A   1      36.888  31.400  29.337  1.00  0.00     0.057 A 
ATOM     65  C   UNL A   1      36.932  32.686  28.784  1.00  0.00     0.134 A 
ATOM     66  C   UNL A   1      35.780  30.602  29.024  1.00  0.00     0.134 A 
ATOM     67  F   UNL A   1      37.957  33.509  29.051  1.00  0.00    -0.206 F 
ATOM     68  C   UNL A   1      35.918  33.157  27.947  1.00  0.00     0.040 A 
ATOM     69  C   UNL A   1      34.774  31.050  28.165  1.00  0.00     0.040 A 
ATOM     70  F   UNL A   1      35.676  29.357  29.514  1.00  0.00    -0.206 F 
ATOM     71  C   UNL A   1      34.839  32.333  27.628  1.00  0.00     0.006 A 
ENDBRANCH  50  64
BRANCH  51  72
ATOM     72  C   UNL A   1      44.325  27.956  35.017  1.00  0.00     0.057 A 
ATOM     73  C   UNL A   1      44.139  26.839  35.840  1.00  0.00     0.134 A 
ATOM     74  C   UNL A   1      45.596  28.543  35.003  1.00  0.00     0.134 A 
ATOM     75  F   UNL A   1      42.943  26.237  35.905  1.00  0.00    -0.206 F 
ATOM     76  C   UNL A   1      45.179  26.320  36.612  1.00  0.00     0.040 A 
ATOM     77  C   UNL A   1      46.653  28.015  35.746  1.00  0.00     0.040 A 
ATOM     78  F   UNL A   1      45.841  29.606  34.223  1.00  0.00    -0.206 F 
ATOM     79  C   UNL A   1      46.444  26.900  36.555  1.00  0.00     0.006 A 
ENDBRANCH  51  72
BRANCH  63  80
ATOM     80  C   UNL A   1      39.250  32.581  36.075  1.00  0.00     0.057 A 
ATOM     81  C   UNL A   1      39.792  33.860  36.260  1.00  0.00     0.134 A 
ATOM     82  C   UNL A   1      38.349  32.118  37.045  1.00  0.00     0.134 A 
ATOM     83  F   UNL A   1      40.666  34.364  35.376  1.00  0.00    -0.206 F 
ATOM     84  C   UNL A   1      39.448  34.649  37.359  1.00  0.00     0.040 A 
ATOM     85  C   UNL A   1      37.972  32.912  38.130  1.00  0.00     0.040 A 
ATOM     86  F   UNL A   1      37.780  30.909  36.923  1.00  0.00    -0.206 F 
ATOM     87  C   UNL A   1      38.526  34.180  38.292  1.00  0.00     0.006 A 
ENDBRANCH  63  80
ENDBRANCH  37  38
ENDBRANCH  30  32
ENDBRANCH  29  30
ENDBRANCH  28  29
ENDBRANCH  27  28
ENDBRANCH  26  27
ENDBRANCH   1  26
TORSDOF 18
ENDMDL
MODEL 2
REMARK VINA RESULT:     -10.6      4.047      7.608
REMARK SMILES CC(C)CSc1cc2c(cc1Cl)C=C(C(=O)OCCOCCOC(=O)c1ccc(-c3c4nc(c(-c5c(F)cccc5F)c5ccc([nH]5)c(-c5c(F)cccc5F)c5nc(c(-c6c(F)cccc6F)c6ccc3[nH]6)C=C5)C=C4)cc1)[C@H](C(F)(F)F)O2
REMARK SMILES IDX 19 1 18 2 17 3 15 4 16 5 14 6 6 7 7 8 11 9 8 10 10 11 12 12
REMARK SMILES IDX 9 13 85 14 13 15 80 16 5 17 4 18 2 19 1 20 3 21 81 22 82 23
REMARK SMILES IDX 83 24 84 25 20 26 21 27 22 28 23 29 24 30 25 31 26 32 27 33
REMARK SMILES IDX 79 34 28 35 78 36 29 37 30 38 31 39 72 40 32 41 77 42 71 43
REMARK SMILES IDX 73 44 33 45 76 46 70 47 69 48 34 50 60 51 43 52 59 53 44 54
REMARK SMILES IDX 47 55 58 56 74 57 45 58 46 59 57 61 75 62 48 63 35 64 36 65
REMARK SMILES IDX 41 66 37 67 38 68 40 69 42 70 39 71 61 72 62 73 67 74 63 75
REMARK SMILES IDX 64 76 66 77 68 78 65 79 49 80 50 81 55 82 51 83 52 84 54 85
REMARK SMILES IDX 56 86 53 87
REMARK H PARENT 73 49 47 60
REMARK Flexibility Score: inf
ROOT
ATOM      1  C   UNL A   1      36.689  20.676  24.991  1.00  0.00     0.202 C 
ENDROOT
BRANCH   1   2
ATOM      2  C   UNL A   1      35.260  21.036  25.406  1.00  0.00     0.261 C 
BRANCH   2   3
ATOM      3  O   UNL A   1      35.227  22.295  26.098  1.00  0.00    -0.460 OA
BRANCH   3   4
ATOM      4  C   UNL A   1      34.181  22.458  26.933  1.00  0.00     0.338 C 
ATOM      5  O   UNL A   1      34.008  21.887  27.999  1.00  0.00    -0.246 OA
BRANCH   4   6
ATOM      6  C   UNL A   1      33.308  23.543  26.450  1.00  0.00     0.087 C 
ATOM      7  C   UNL A   1      31.882  28.082  24.844  1.00  0.00     0.030 A 
ATOM      8  C   UNL A   1      31.311  27.108  25.686  1.00  0.00     0.063 A 
ATOM      9  C   UNL A   1      33.037  27.746  24.119  1.00  0.00     0.055 A 
ATOM     10  C   UNL A   1      31.941  25.880  25.894  1.00  0.00     0.129 A 
ATOM     11  C   UNL A   1      33.679  26.524  24.347  1.00  0.00     0.033 A 
ATOM     12  Cl  UNL A   1      33.740  28.768  22.917  1.00  0.00    -0.083 Cl
ATOM     13  C   UNL A   1      33.151  25.609  25.261  1.00  0.00     0.019 A 
ATOM     14  O   UNL A   1      31.365  25.033  26.803  1.00  0.00    -0.475 OA
ATOM     15  C   UNL A   1      33.908  24.436  25.650  1.00  0.00     0.027 C 
ATOM     16  C   UNL A   1      31.869  23.664  26.875  1.00  0.00     0.316 C 
BRANCH   7  17
ATOM     17  S   UNL A   1      31.054  29.670  24.836  1.00  0.00    -0.124 SA
BRANCH  17  18
ATOM     18  C   UNL A   1      30.240  29.733  23.187  1.00  0.00     0.078 C 
BRANCH  18  19
ATOM     19  C   UNL A   1      28.716  29.505  23.118  1.00  0.00    -0.007 C 
ATOM     20  C   UNL A   1      28.041  30.099  21.881  1.00  0.00     0.008 C 
ATOM     21  C   UNL A   1      28.447  27.992  23.131  1.00  0.00     0.008 C 
ENDBRANCH  18  19
ENDBRANCH  17  18
ENDBRANCH   7  17
BRANCH  16  22
ATOM     22  C   UNL A   1      30.905  22.722  26.122  1.00  0.00     0.430 C 
ATOM     23  F   UNL A   1      29.793  22.440  26.843  1.00  0.00    -0.167 F 
ATOM     24  F   UNL A   1      30.501  23.245  24.940  1.00  0.00    -0.167 F 
ATOM     25  F   UNL A   1      31.498  21.539  25.827  1.00  0.00    -0.167 F 
ENDBRANCH  16  22
ENDBRANCH   4   6
ENDBRANCH   3   4
ENDBRANCH   2   3
ENDBRANCH   1   2
BRANCH   1  26
ATOM     26  O   UNL A   1      37.652  21.728  25.069  1.00  0.00    -0.374 OA
BRANCH  26  27
ATOM     27  C   UNL A   1      38.861  21.465  25.781  1.00  0.00     0.202 C 
BRANCH  27  28
ATOM     28  C   UNL A   1      39.401  20.030  25.735  1.00  0.00     0.261 C 
BRANCH  28  29
ATOM     29  O   UNL A   1      40.759  19.986  25.265  1.00  0.00    -0.460 OA
BRANCH  29  30
ATOM     30  C   UNL A   1      41.700  19.836  26.228  1.00  0.00     0.338 C 
ATOM     31  O   UNL A   1      42.213  18.792  26.601  1.00  0.00    -0.246 OA
BRANCH  30  32
ATOM     32  C   UNL A   1      42.190  21.165  26.651  1.00  0.00     0.060 A 
ATOM     33  C   UNL A   1      42.504  22.163  25.727  1.00  0.00     0.016 A 
ATOM     34  C   UNL A   1      42.316  21.408  28.025  1.00  0.00     0.016 A 
ATOM     35  C   UNL A   1      42.912  23.418  26.186  1.00  0.00     0.010 A 
ATOM     36  C   UNL A   1      42.714  22.666  28.481  1.00  0.00     0.010 A 
ATOM     37  C   UNL A   1      42.998  23.686  27.565  1.00  0.00    -0.014 A 
BRANCH  37  38
ATOM     38  C   UNL A   1      43.282  25.067  28.032  1.00  0.00     0.031 A 
ATOM     39  C   UNL A   1      44.686  25.580  28.163  1.00  0.00     0.074 A 
ATOM     40  C   UNL A   1      42.245  25.868  28.344  1.00  0.00     0.049 A 
ATOM     41  N   UNL A   1      45.097  26.792  28.447  1.00  0.00    -0.248 NA
ATOM     42  C   UNL A   1      45.769  24.609  27.959  1.00  0.00     0.031 C 
ATOM     43  C   UNL A   1      40.836  25.471  28.311  1.00  0.00     0.029 A 
ATOM     44  N   UNL A   1      42.212  27.183  28.734  1.00  0.00    -0.354 N 
ATOM     45  C   UNL A   1      46.484  26.737  28.429  1.00  0.00     0.074 A 
ATOM     46  C   UNL A   1      46.843  25.356  28.172  1.00  0.00     0.031 C 
ATOM     47  C   UNL A   1      40.075  26.531  28.620  1.00  0.00     0.029 A 
ATOM     48  C   UNL A   1      40.939  27.673  28.903  1.00  0.00     0.049 A 
ATOM     49  H   UNL A   1      43.022  27.724  28.878  1.00  0.00     0.167 HD
ATOM     50  C   UNL A   1      47.375  27.748  28.590  1.00  0.00     0.037 A 
ATOM     51  C   UNL A   1      40.517  28.906  29.237  1.00  0.00     0.037 A 
ATOM     52  C   UNL A   1      47.015  29.113  28.881  1.00  0.00     0.049 A 
ATOM     53  C   UNL A   1      41.530  29.994  29.463  1.00  0.00     0.074 A 
ATOM     54  C   UNL A   1      47.845  30.212  29.035  1.00  0.00     0.029 A 
ATOM     55  N   UNL A   1      45.719  29.565  29.083  1.00  0.00    -0.354 N 
ATOM     56  N   UNL A   1      42.836  29.951  29.349  1.00  0.00    -0.248 NA
ATOM     57  C   UNL A   1      41.005  31.310  29.853  1.00  0.00     0.031 C 
ATOM     58  C   UNL A   1      47.056  31.314  29.387  1.00  0.00     0.029 A 
ATOM     59  C   UNL A   1      45.729  30.919  29.389  1.00  0.00     0.049 A 
ATOM     60  H   UNL A   1      44.911  29.007  29.020  1.00  0.00     0.167 HD
ATOM     61  C   UNL A   1      43.284  31.239  29.619  1.00  0.00     0.074 A 
ATOM     62  C   UNL A   1      42.108  32.043  29.881  1.00  0.00     0.031 C 
ATOM     63  C   UNL A   1      44.554  31.713  29.648  1.00  0.00     0.037 A 
BRANCH  50  64
ATOM     64  C   UNL A   1      48.833  27.405  28.454  1.00  0.00     0.057 A 
ATOM     65  C   UNL A   1      49.474  27.458  27.210  1.00  0.00     0.134 A 
ATOM     66  C   UNL A   1      49.597  26.996  29.555  1.00  0.00     0.134 A 
ATOM     67  F   UNL A   1      48.800  27.828  26.111  1.00  0.00    -0.206 F 
ATOM     68  C   UNL A   1      50.822  27.124  27.067  1.00  0.00     0.040 A 
ATOM     69  C   UNL A   1      50.954  26.688  29.431  1.00  0.00     0.040 A 
ATOM     70  F   UNL A   1      49.049  26.929  30.778  1.00  0.00    -0.206 F 
ATOM     71  C   UNL A   1      51.569  26.748  28.183  1.00  0.00     0.006 A 
ENDBRANCH  50  64
BRANCH  51  72
ATOM     72  C   UNL A   1      39.066  29.197  29.358  1.00  0.00     0.057 A 
ATOM     73  C   UNL A   1      38.293  29.538  28.243  1.00  0.00     0.134 A 
ATOM     74  C   UNL A   1      38.408  29.089  30.590  1.00  0.00     0.134 A 
ATOM     75  F   UNL A   1      38.865  29.666  27.036  1.00  0.00    -0.206 F 
ATOM     76  C   UNL A   1      36.918  29.755  28.344  1.00  0.00     0.040 A 
ATOM     77  C   UNL A   1      37.029  29.273  30.701  1.00  0.00     0.040 A 
ATOM     78  F   UNL A   1      39.090  28.749  31.693  1.00  0.00    -0.206 F 
ATOM     79  C   UNL A   1      36.280  29.608  29.574  1.00  0.00     0.006 A 
ENDBRANCH  51  72
BRANCH  63  80
ATOM     80  C   UNL A   1      44.729  33.180  29.930  1.00  0.00     0.057 A 
ATOM     81  C   UNL A   1      44.928  33.633  31.241  1.00  0.00     0.134 A 
ATOM     82  C   UNL A   1      44.707  34.144  28.912  1.00  0.00     0.134 A 
ATOM     83  F   UNL A   1      44.952  32.768  32.266  1.00  0.00    -0.206 F 
ATOM     84  C   UNL A   1      45.105  34.988  31.528  1.00  0.00     0.040 A 
ATOM     85  C   UNL A   1      44.918  35.497  29.184  1.00  0.00     0.040 A 
ATOM     86  F   UNL A   1      44.537  33.779  27.632  1.00  0.00    -0.206 F 
ATOM     87  C   UNL A   1      45.113  35.923  30.495  1.00  0.00     0.006 A 
ENDBRANCH  63  80
ENDBRANCH  37  38
ENDBRANCH  30  32
ENDBRANCH  29  30
ENDBRANCH  28  29
ENDBRANCH  27  28
ENDBRANCH  26  27
ENDBRANCH   1  26
TORSDOF 18
ENDMDL
MODEL 3
REMARK VINA RESULT:     -10.4      3.190      8.354
REMARK SMILES CC(C)CSc1cc2c(cc1Cl)C=C(C(=O)OCCOCCOC(=O)c1ccc(-c3c4nc(c(-c5c(F)cccc5F)c5ccc([nH]5)c(-c5c(F)cccc5F)c5nc(c(-c6c(F)cccc6F)c6ccc3[nH]6)C=C5)C=C4)cc1)[C@H](C(F)(F)F)O2
REMARK SMILES IDX 19 1 18 2 17 3 15 4 16 5 14 6 6 7 7 8 11 9 8 10 10 11 12 12
REMARK SMILES IDX 9 13 85 14 13 15 80 16 5 17 4 18 2 19 1 20 3 21 81 22 82 23
REMARK SMILES IDX 83 24 84 25 20 26 21 27 22 28 23 29 24 30 25 31 26 32 27 33
REMARK SMILES IDX 79 34 28 35 78 36 29 37 30 38 31 39 72 40 32 41 77 42 71 43
REMARK SMILES IDX 73 44 33 45 76 46 70 47 69 48 34 50 60 51 43 52 59 53 44 54
REMARK SMILES IDX 47 55 58 56 74 57 45 58 46 59 57 61 75 62 48 63 35 64 36 65
REMARK SMILES IDX 41 66 37 67 38 68 40 69 42 70 39 71 61 72 62 73 67 74 63 75
REMARK SMILES IDX 64 76 66 77 68 78 65 79 49 80 50 81 55 82 51 83 52 84 54 85
REMARK SMILES IDX 56 86 53 87
REMARK H PARENT 73 49 47 60
REMARK Flexibility Score: inf
ROOT
ATOM      1  C   UNL A   1      31.461  28.881  23.800  1.00  0.00     0.202 C 
ENDROOT
BRANCH   1   2
ATOM      2  C   UNL A   1      31.546  28.318  22.378  1.00  0.00     0.261 C 
BRANCH   2   3
ATOM      3  O   UNL A   1      31.407  26.888  22.383  1.00  0.00    -0.460 OA
BRANCH   3   4
ATOM      4  C   UNL A   1      32.569  26.204  22.379  1.00  0.00     0.338 C 
ATOM      5  O   UNL A   1      33.607  26.540  21.831  1.00  0.00    -0.246 OA
BRANCH   4   6
ATOM      6  C   UNL A   1      32.467  25.024  23.258  1.00  0.00     0.087 C 
ATOM      7  C   UNL A   1      33.257  20.400  25.049  1.00  0.00     0.030 A 
ATOM      8  C   UNL A   1      32.132  21.242  24.949  1.00  0.00     0.063 A 
ATOM      9  C   UNL A   1      34.521  20.935  24.749  1.00  0.00     0.055 A 
ATOM     10  C   UNL A   1      32.248  22.538  24.446  1.00  0.00     0.129 A 
ATOM     11  C   UNL A   1      34.631  22.226  24.223  1.00  0.00     0.033 A 
ATOM     12  Cl  UNL A   1      36.001  20.081  25.001  1.00  0.00    -0.083 Cl
ATOM     13  C   UNL A   1      33.492  23.012  24.038  1.00  0.00     0.019 A 
ATOM     14  O   UNL A   1      31.088  23.250  24.293  1.00  0.00    -0.475 OA
ATOM     15  C   UNL A   1      33.571  24.266  23.314  1.00  0.00     0.027 C 
ATOM     16  C   UNL A   1      31.196  24.674  23.986  1.00  0.00     0.316 C 
BRANCH   7  17
ATOM     17  S   UNL A   1      32.911  18.710  25.529  1.00  0.00    -0.124 SA
BRANCH  17  18
ATOM     18  C   UNL A   1      33.820  17.705  24.285  1.00  0.00     0.078 C 
BRANCH  18  19
ATOM     19  C   UNL A   1      33.992  16.195  24.552  1.00  0.00    -0.007 C 
ATOM     20  C   UNL A   1      35.248  15.830  25.343  1.00  0.00     0.008 C 
ATOM     21  C   UNL A   1      32.768  15.695  25.335  1.00  0.00     0.008 C 
ENDBRANCH  18  19
ENDBRANCH  17  18
ENDBRANCH   7  17
BRANCH  16  22
ATOM     22  C   UNL A   1      30.955  25.497  25.270  1.00  0.00     0.430 C 
ATOM     23  F   UNL A   1      32.054  26.191  25.650  1.00  0.00    -0.167 F 
ATOM     24  F   UNL A   1      29.944  26.385  25.124  1.00  0.00    -0.167 F 
ATOM     25  F   UNL A   1      30.609  24.701  26.312  1.00  0.00    -0.167 F 
ENDBRANCH  16  22
ENDBRANCH   4   6
ENDBRANCH   3   4
ENDBRANCH   2   3
ENDBRANCH   1   2
BRANCH   1  26
ATOM     26  O   UNL A   1      32.705  29.114  24.461  1.00  0.00    -0.374 OA
BRANCH  26  27
ATOM     27  C   UNL A   1      32.661  29.509  25.832  1.00  0.00     0.202 C 
BRANCH  27  28
ATOM     28  C   UNL A   1      32.252  30.957  26.129  1.00  0.00     0.261 C 
BRANCH  28  29
ATOM     29  O   UNL A   1      32.552  31.328  27.486  1.00  0.00    -0.460 OA
BRANCH  29  30
ATOM     30  C   UNL A   1      33.413  32.363  27.625  1.00  0.00     0.338 C 
ATOM     31  O   UNL A   1      33.156  33.555  27.536  1.00  0.00    -0.246 OA
BRANCH  30  32
ATOM     32  C   UNL A   1      34.716  31.860  28.110  1.00  0.00     0.060 A 
ATOM     33  C   UNL A   1      35.868  32.648  28.078  1.00  0.00     0.016 A 
ATOM     34  C   UNL A   1      34.763  30.559  28.627  1.00  0.00     0.016 A 
ATOM     35  C   UNL A   1      37.061  32.139  28.599  1.00  0.00     0.010 A 
ATOM     36  C   UNL A   1      35.953  30.057  29.156  1.00  0.00     0.010 A 
ATOM     37  C   UNL A   1      37.108  30.850  29.163  1.00  0.00    -0.014 A 
BRANCH  37  38
ATOM     38  C   UNL A   1      38.341  30.388  29.849  1.00  0.00     0.031 A 
ATOM     39  C   UNL A   1      38.684  30.837  31.238  1.00  0.00     0.074 A 
ATOM     40  C   UNL A   1      39.164  29.544  29.196  1.00  0.00     0.049 A 
ATOM     41  N   UNL A   1      39.660  30.438  32.016  1.00  0.00    -0.248 NA
ATOM     42  C   UNL A   1      37.828  31.875  31.830  1.00  0.00     0.031 C 
ATOM     43  C   UNL A   1      38.971  29.076  27.823  1.00  0.00     0.029 A 
ATOM     44  N   UNL A   1      40.316  28.920  29.603  1.00  0.00    -0.354 N 
ATOM     45  C   UNL A   1      39.523  31.153  33.198  1.00  0.00     0.074 A 
ATOM     46  C   UNL A   1      38.407  32.060  33.008  1.00  0.00     0.031 C 
ATOM     47  C   UNL A   1      39.943  28.203  27.516  1.00  0.00     0.029 A 
ATOM     48  C   UNL A   1      40.844  28.073  28.658  1.00  0.00     0.049 A 
ATOM     49  H   UNL A   1      40.725  29.064  30.487  1.00  0.00     0.167 HD
ATOM     50  C   UNL A   1      40.244  31.048  34.342  1.00  0.00     0.037 A 
ATOM     51  C   UNL A   1      41.925  27.275  28.710  1.00  0.00     0.037 A 
ATOM     52  C   UNL A   1      41.374  30.171  34.515  1.00  0.00     0.049 A 
ATOM     53  C   UNL A   1      42.739  27.220  29.974  1.00  0.00     0.074 A 
ATOM     54  C   UNL A   1      42.153  29.975  35.645  1.00  0.00     0.029 A 
ATOM     55  N   UNL A   1      41.905  29.356  33.524  1.00  0.00    -0.354 N 
ATOM     56  N   UNL A   1      42.541  27.831  31.117  1.00  0.00    -0.248 NA
ATOM     57  C   UNL A   1      43.923  26.350  29.955  1.00  0.00     0.031 C 
ATOM     58  C   UNL A   1      43.186  29.088  35.320  1.00  0.00     0.029 A 
ATOM     59  C   UNL A   1      43.015  28.679  34.008  1.00  0.00     0.049 A 
ATOM     60  H   UNL A   1      41.545  29.271  32.612  1.00  0.00     0.167 HD
ATOM     61  C   UNL A   1      43.554  27.392  31.962  1.00  0.00     0.074 A 
ATOM     62  C   UNL A   1      44.350  26.449  31.205  1.00  0.00     0.031 C 
ATOM     63  C   UNL A   1      43.802  27.741  33.248  1.00  0.00     0.037 A 
BRANCH  50  64
ATOM     64  C   UNL A   1      39.825  31.913  35.499  1.00  0.00     0.057 A 
ATOM     65  C   UNL A   1      38.789  31.520  36.355  1.00  0.00     0.134 A 
ATOM     66  C   UNL A   1      40.433  33.151  35.749  1.00  0.00     0.134 A 
ATOM     67  F   UNL A   1      38.154  30.354  36.168  1.00  0.00    -0.206 F 
ATOM     68  C   UNL A   1      38.378  32.323  37.422  1.00  0.00     0.040 A 
ATOM     69  C   UNL A   1      40.051  33.949  36.830  1.00  0.00     0.040 A 
ATOM     70  F   UNL A   1      41.436  33.587  34.971  1.00  0.00    -0.206 F 
ATOM     71  C   UNL A   1      39.018  33.537  37.667  1.00  0.00     0.006 A 
ENDBRANCH  50  64
BRANCH  51  72
ATOM     72  C   UNL A   1      42.299  26.438  27.541  1.00  0.00     0.057 A 
ATOM     73  C   UNL A   1      43.146  26.921  26.538  1.00  0.00     0.134 A 
ATOM     74  C   UNL A   1      41.854  25.114  27.428  1.00  0.00     0.134 A 
ATOM     75  F   UNL A   1      43.599  28.183  26.583  1.00  0.00    -0.206 F 
ATOM     76  C   UNL A   1      43.545  26.117  25.469  1.00  0.00     0.040 A 
ATOM     77  C   UNL A   1      42.270  24.290  26.381  1.00  0.00     0.040 A 
ATOM     78  F   UNL A   1      41.054  24.588  28.366  1.00  0.00    -0.206 F 
ATOM     79  C   UNL A   1      43.118  24.794  25.396  1.00  0.00     0.006 A 
ENDBRANCH  51  72
BRANCH  63  80
ATOM     80  C   UNL A   1      44.959  27.060  33.929  1.00  0.00     0.057 A 
ATOM     81  C   UNL A   1      46.253  27.588  33.830  1.00  0.00     0.134 A 
ATOM     82  C   UNL A   1      44.796  25.890  34.685  1.00  0.00     0.134 A 
ATOM     83  F   UNL A   1      46.484  28.699  33.116  1.00  0.00    -0.206 F 
ATOM     84  C   UNL A   1      47.340  26.982  34.462  1.00  0.00     0.040 A 
ATOM     85  C   UNL A   1      45.871  25.295  35.349  1.00  0.00     0.040 A 
ATOM     86  F   UNL A   1      43.582  25.339  34.835  1.00  0.00    -0.206 F 
ATOM     87  C   UNL A   1      47.148  25.839  35.235  1.00  0.00     0.006 A 
ENDBRANCH  63  80
ENDBRANCH  37  38
ENDBRANCH  30  32
ENDBRANCH  29  30
ENDBRANCH  28  29
ENDBRANCH  27  28
ENDBRANCH  26  27
ENDBRANCH   1  26
TORSDOF 18
ENDMDL
