MODEL 1
REMARK VINA RESULT:     -11.2      0.000      0.000
REMARK SMILES C[C@@H]1CCCN(C(=O)CSc2nnc3c4ccccc4n(CC(=O)OCCOCCOC(=O)c4ccc(-c5c6nc(c(-c7c(F)cccc7F)c7ccc([nH]7)c(-c7c(F)cccc7F)c7nc(c(-c8c(F)cccc8F)c8ccc5[nH]8)C=C7)C=C6)cc4)c3n2)C1
REMARK SMILES IDX 26 1 25 2 23 3 24 4 22 5 21 6 11 7 12 8 89 9 13 10 88 11
REMARK SMILES IDX 14 12 15 13 20 14 16 15 19 16 17 17 18 18 10 19 9 20 7 21
REMARK SMILES IDX 8 22 6 23 1 24 2 25 3 26 90 27 4 28 5 29 27 30 28 31 29 32
REMARK SMILES IDX 30 33 31 34 32 35 33 36 34 37 35 38 87 39 36 40 86 41 37 42
REMARK SMILES IDX 38 43 39 44 80 45 40 46 85 47 79 48 81 49 41 50 84 51 78 52
REMARK SMILES IDX 77 53 42 55 68 56 51 57 67 58 52 59 55 60 66 61 82 62 53 63
REMARK SMILES IDX 54 64 65 66 83 67 56 68 43 69 44 70 49 71 45 72 46 73 48 74
REMARK SMILES IDX 50 75 47 76 69 77 70 78 75 79 71 80 72 81 74 82 76 83 73 84
REMARK SMILES IDX 57 85 58 86 63 87 59 88 60 89 62 90 64 91 61 92
REMARK H PARENT 81 54 55 65
REMARK Flexibility Score: inf
ROOT
ATOM      1  C   UNL A   1      33.220  29.131  25.313  1.00  0.00     0.261 C 
ENDROOT
BRANCH   1   2
ATOM      2  O   UNL A   1      34.058  28.098  24.757  1.00  0.00    -0.462 OA
BRANCH   2   3
ATOM      3  C   UNL A   1      33.864  27.863  23.433  1.00  0.00     0.326 C 
ATOM      4  O   UNL A   1      34.296  28.592  22.540  1.00  0.00    -0.250 OA
BRANCH   3   5
ATOM      5  C   UNL A   1      33.089  26.621  23.081  1.00  0.00     0.246 C 
BRANCH   5   6
ATOM      6  N   UNL A   1      31.748  26.450  23.625  1.00  0.00    -0.313 N 
ATOM      7  C   UNL A   1      31.737  24.214  26.379  1.00  0.00     0.211 A 
ATOM      8  N   UNL A   1      30.433  24.323  26.744  1.00  0.00    -0.122 NA
ATOM      9  N   UNL A   1      32.338  24.828  25.336  1.00  0.00    -0.201 NA
ATOM     10  N   UNL A   1      29.601  25.108  26.061  1.00  0.00    -0.144 NA
ATOM     11  C   UNL A   1      31.470  25.628  24.691  1.00  0.00     0.165 A 
ATOM     12  C   UNL A   1      30.135  25.789  25.016  1.00  0.00     0.138 A 
ATOM     13  C   UNL A   1      29.580  26.747  24.134  1.00  0.00     0.030 A 
ATOM     14  C   UNL A   1      30.639  27.244  23.357  1.00  0.00     0.053 A 
ATOM     15  C   UNL A   1      28.287  27.287  23.964  1.00  0.00     0.013 A 
ATOM     16  C   UNL A   1      30.458  28.351  22.509  1.00  0.00     0.027 A 
ATOM     17  C   UNL A   1      28.087  28.325  23.050  1.00  0.00     0.001 A 
ATOM     18  C   UNL A   1      29.164  28.866  22.354  1.00  0.00     0.002 A 
BRANCH   7  19
ATOM     19  S   UNL A   1      32.727  23.017  27.234  1.00  0.00    -0.074 SA
BRANCH  19  20
ATOM     20  C   UNL A   1      34.357  23.387  26.526  1.00  0.00     0.178 C 
BRANCH  20  21
ATOM     21  C   UNL A   1      34.962  22.234  25.736  1.00  0.00     0.233 C 
ATOM     22  O   UNL A   1      36.065  21.794  26.075  1.00  0.00    -0.274 OA
BRANCH  21  23
ATOM     23  N   UNL A   1      34.229  21.649  24.706  1.00  0.00    -0.342 N 
ATOM     24  C   UNL A   1      32.449  18.284  24.302  1.00  0.00     0.009 C 
ATOM     25  C   UNL A   1      32.616  19.800  24.343  1.00  0.00     0.005 C 
ATOM     26  C   UNL A   1      32.222  20.426  23.000  1.00  0.00     0.007 C 
ATOM     27  C   UNL A   1      34.053  20.193  24.710  1.00  0.00     0.122 C 
ATOM     28  C   UNL A   1      32.404  21.939  23.046  1.00  0.00     0.022 C 
ATOM     29  C   UNL A   1      33.814  22.327  23.478  1.00  0.00     0.119 C 
ENDBRANCH  21  23
ENDBRANCH  20  21
ENDBRANCH  19  20
ENDBRANCH   7  19
ENDBRANCH   5   6
ENDBRANCH   3   5
ENDBRANCH   2   3
ENDBRANCH   1   2
BRANCH   1  30
ATOM     30  C   UNL A   1      33.075  29.084  26.842  1.00  0.00     0.202 C 
BRANCH  30  31
ATOM     31  O   UNL A   1      32.675  30.238  27.564  1.00  0.00    -0.374 OA
BRANCH  31  32
ATOM     32  C   UNL A   1      33.319  31.461  27.229  1.00  0.00     0.202 C 
BRANCH  32  33
ATOM     33  C   UNL A   1      33.948  32.323  28.341  1.00  0.00     0.261 C 
BRANCH  33  34
ATOM     34  O   UNL A   1      35.076  31.707  28.962  1.00  0.00    -0.460 OA
BRANCH  34  35
ATOM     35  C   UNL A   1      35.260  32.040  30.268  1.00  0.00     0.338 C 
ATOM     36  O   UNL A   1      34.432  32.470  31.056  1.00  0.00    -0.246 OA
BRANCH  35  37
ATOM     37  C   UNL A   1      36.500  31.344  30.643  1.00  0.00     0.060 A 
ATOM     38  C   UNL A   1      37.705  32.052  30.693  1.00  0.00     0.016 A 
ATOM     39  C   UNL A   1      36.471  29.948  30.496  1.00  0.00     0.016 A 
ATOM     40  C   UNL A   1      38.884  31.362  30.450  1.00  0.00     0.010 A 
ATOM     41  C   UNL A   1      37.648  29.273  30.217  1.00  0.00     0.010 A 
ATOM     42  C   UNL A   1      38.844  29.991  30.137  1.00  0.00    -0.014 A 
BRANCH  42  43
ATOM     43  C   UNL A   1      40.114  29.278  30.006  1.00  0.00     0.031 A 
ATOM     44  C   UNL A   1      40.756  29.142  31.341  1.00  0.00     0.074 A 
ATOM     45  C   UNL A   1      40.596  28.680  28.896  1.00  0.00     0.049 A 
ATOM     46  N   UNL A   1      41.836  29.715  31.758  1.00  0.00    -0.248 NA
ATOM     47  C   UNL A   1      39.974  28.485  32.404  1.00  0.00     0.031 C 
ATOM     48  C   UNL A   1      39.958  28.520  27.592  1.00  0.00     0.029 A 
ATOM     49  N   UNL A   1      41.768  27.995  28.729  1.00  0.00    -0.354 N 
ATOM     50  C   UNL A   1      41.976  29.307  33.082  1.00  0.00     0.074 A 
ATOM     51  C   UNL A   1      40.706  28.768  33.480  1.00  0.00     0.031 C 
ATOM     52  C   UNL A   1      40.634  27.610  26.853  1.00  0.00     0.029 A 
ATOM     53  C   UNL A   1      41.818  27.203  27.580  1.00  0.00     0.049 A 
ATOM     54  H   UNL A   1      42.516  28.057  29.367  1.00  0.00     0.167 HD
ATOM     55  C   UNL A   1      43.206  29.162  33.641  1.00  0.00     0.037 A 
ATOM     56  C   UNL A   1      42.737  26.242  27.290  1.00  0.00     0.037 A 
ATOM     57  C   UNL A   1      44.199  29.895  32.896  1.00  0.00     0.049 A 
ATOM     58  C   UNL A   1      43.915  26.481  28.157  1.00  0.00     0.074 A 
ATOM     59  C   UNL A   1      44.397  31.223  32.573  1.00  0.00     0.029 A 
ATOM     60  N   UNL A   1      44.993  29.179  32.035  1.00  0.00    -0.354 N 
ATOM     61  N   UNL A   1      44.710  27.504  28.017  1.00  0.00    -0.248 NA
ATOM     62  C   UNL A   1      43.907  25.865  29.475  1.00  0.00     0.031 C 
ATOM     63  C   UNL A   1      44.921  31.209  31.247  1.00  0.00     0.029 A 
ATOM     64  C   UNL A   1      45.077  29.878  30.862  1.00  0.00     0.049 A 
ATOM     65  H   UNL A   1      45.425  28.316  32.228  1.00  0.00     0.167 HD
ATOM     66  C   UNL A   1      44.948  27.937  29.313  1.00  0.00     0.074 A 
ATOM     67  C   UNL A   1      44.476  26.853  30.173  1.00  0.00     0.031 C 
ATOM     68  C   UNL A   1      45.228  29.247  29.574  1.00  0.00     0.037 A 
BRANCH  55  69
ATOM     69  C   UNL A   1      43.574  28.007  34.549  1.00  0.00     0.057 A 
ATOM     70  C   UNL A   1      43.690  26.660  34.138  1.00  0.00     0.134 A 
ATOM     71  C   UNL A   1      44.158  28.298  35.793  1.00  0.00     0.134 A 
ATOM     72  F   UNL A   1      43.226  26.207  32.971  1.00  0.00    -0.206 F 
ATOM     73  C   UNL A   1      44.392  25.702  34.871  1.00  0.00     0.040 A 
ATOM     74  C   UNL A   1      44.905  27.357  36.510  1.00  0.00     0.040 A 
ATOM     75  F   UNL A   1      44.106  29.538  36.305  1.00  0.00    -0.206 F 
ATOM     76  C   UNL A   1      45.040  26.058  36.040  1.00  0.00     0.006 A 
ENDBRANCH  55  69
BRANCH  56  77
ATOM     77  C   UNL A   1      42.548  24.963  26.561  1.00  0.00     0.057 A 
ATOM     78  C   UNL A   1      41.814  23.905  27.126  1.00  0.00     0.134 A 
ATOM     79  C   UNL A   1      43.307  24.640  25.424  1.00  0.00     0.134 A 
ATOM     80  F   UNL A   1      41.125  24.075  28.262  1.00  0.00    -0.206 F 
ATOM     81  C   UNL A   1      41.836  22.608  26.600  1.00  0.00     0.040 A 
ATOM     82  C   UNL A   1      43.340  23.343  24.889  1.00  0.00     0.040 A 
ATOM     83  F   UNL A   1      44.085  25.564  24.840  1.00  0.00    -0.206 F 
ATOM     84  C   UNL A   1      42.609  22.318  25.483  1.00  0.00     0.006 A 
ENDBRANCH  56  77
BRANCH  68  85
ATOM     85  C   UNL A   1      45.507  30.149  28.405  1.00  0.00     0.057 A 
ATOM     86  C   UNL A   1      46.839  30.423  28.079  1.00  0.00     0.134 A 
ATOM     87  C   UNL A   1      44.521  30.853  27.697  1.00  0.00     0.134 A 
ATOM     88  F   UNL A   1      47.835  29.828  28.755  1.00  0.00    -0.206 F 
ATOM     89  C   UNL A   1      47.181  31.347  27.090  1.00  0.00     0.040 A 
ATOM     90  C   UNL A   1      44.849  31.756  26.680  1.00  0.00     0.040 A 
ATOM     91  F   UNL A   1      43.223  30.729  28.007  1.00  0.00    -0.206 F 
ATOM     92  C   UNL A   1      46.184  32.008  26.379  1.00  0.00     0.006 A 
ENDBRANCH  68  85
ENDBRANCH  42  43
ENDBRANCH  35  37
ENDBRANCH  34  35
ENDBRANCH  33  34
ENDBRANCH  32  33
ENDBRANCH  31  32
ENDBRANCH  30  31
ENDBRANCH   1  30
TORSDOF 19
ENDMDL
MODEL 2
REMARK VINA RESULT:     -10.4      2.521      8.428
REMARK SMILES C[C@@H]1CCCN(C(=O)CSc2nnc3c4ccccc4n(CC(=O)OCCOCCOC(=O)c4ccc(-c5c6nc(c(-c7c(F)cccc7F)c7ccc([nH]7)c(-c7c(F)cccc7F)c7nc(c(-c8c(F)cccc8F)c8ccc5[nH]8)C=C7)C=C6)cc4)c3n2)C1
REMARK SMILES IDX 26 1 25 2 23 3 24 4 22 5 21 6 11 7 12 8 89 9 13 10 88 11
REMARK SMILES IDX 14 12 15 13 20 14 16 15 19 16 17 17 18 18 10 19 9 20 7 21
REMARK SMILES IDX 8 22 6 23 1 24 2 25 3 26 90 27 4 28 5 29 27 30 28 31 29 32
REMARK SMILES IDX 30 33 31 34 32 35 33 36 34 37 35 38 87 39 36 40 86 41 37 42
REMARK SMILES IDX 38 43 39 44 80 45 40 46 85 47 79 48 81 49 41 50 84 51 78 52
REMARK SMILES IDX 77 53 42 55 68 56 51 57 67 58 52 59 55 60 66 61 82 62 53 63
REMARK SMILES IDX 54 64 65 66 83 67 56 68 43 69 44 70 49 71 45 72 46 73 48 74
REMARK SMILES IDX 50 75 47 76 69 77 70 78 75 79 71 80 72 81 74 82 76 83 73 84
REMARK SMILES IDX 57 85 58 86 63 87 59 88 60 89 62 90 64 91 61 92
REMARK H PARENT 81 54 55 65
REMARK Flexibility Score: inf
ROOT
ATOM      1  C   UNL A   1      32.829  23.114  24.719  1.00  0.00     0.261 C 
ENDROOT
BRANCH   1   2
ATOM      2  O   UNL A   1      32.772  23.570  26.086  1.00  0.00    -0.462 OA
BRANCH   2   3
ATOM      3  C   UNL A   1      32.325  24.844  26.239  1.00  0.00     0.326 C 
ATOM      4  O   UNL A   1      31.333  25.145  26.903  1.00  0.00    -0.250 OA
BRANCH   3   5
ATOM      5  C   UNL A   1      33.128  25.922  25.559  1.00  0.00     0.246 C 
BRANCH   5   6
ATOM      6  N   UNL A   1      32.584  27.272  25.495  1.00  0.00    -0.313 N 
ATOM      7  C   UNL A   1      34.556  29.560  27.354  1.00  0.00     0.211 A 
ATOM      8  N   UNL A   1      33.907  30.712  27.041  1.00  0.00    -0.122 NA
ATOM      9  N   UNL A   1      34.226  28.312  26.953  1.00  0.00    -0.201 NA
ATOM     10  N   UNL A   1      32.835  30.694  26.251  1.00  0.00    -0.144 NA
ATOM     11  C   UNL A   1      33.156  28.343  26.138  1.00  0.00     0.165 A 
ATOM     12  C   UNL A   1      32.457  29.480  25.776  1.00  0.00     0.138 A 
ATOM     13  C   UNL A   1      31.434  29.100  24.873  1.00  0.00     0.030 A 
ATOM     14  C   UNL A   1      31.615  27.732  24.610  1.00  0.00     0.053 A 
ATOM     15  C   UNL A   1      30.409  29.801  24.204  1.00  0.00     0.013 A 
ATOM     16  C   UNL A   1      30.877  27.085  23.603  1.00  0.00     0.027 A 
ATOM     17  C   UNL A   1      29.612  29.134  23.271  1.00  0.00     0.001 A 
ATOM     18  C   UNL A   1      29.862  27.802  22.956  1.00  0.00     0.002 A 
BRANCH   7  19
ATOM     19  S   UNL A   1      35.863  29.657  28.548  1.00  0.00    -0.074 SA
BRANCH  19  20
ATOM     20  C   UNL A   1      35.939  31.453  28.794  1.00  0.00     0.178 C 
BRANCH  20  21
ATOM     21  C   UNL A   1      35.460  31.908  30.165  1.00  0.00     0.233 C 
ATOM     22  O   UNL A   1      35.862  31.307  31.166  1.00  0.00    -0.274 OA
BRANCH  21  23
ATOM     23  N   UNL A   1      34.649  33.036  30.270  1.00  0.00    -0.342 N 
ATOM     24  C   UNL A   1      34.032  35.609  33.037  1.00  0.00     0.009 C 
ATOM     25  C   UNL A   1      34.415  35.078  31.658  1.00  0.00     0.005 C 
ATOM     26  C   UNL A   1      33.525  35.697  30.573  1.00  0.00     0.007 C 
ATOM     27  C   UNL A   1      34.326  33.547  31.606  1.00  0.00     0.122 C 
ATOM     28  C   UNL A   1      33.906  35.152  29.201  1.00  0.00     0.022 C 
ATOM     29  C   UNL A   1      33.884  33.628  29.171  1.00  0.00     0.119 C 
ENDBRANCH  21  23
ENDBRANCH  20  21
ENDBRANCH  19  20
ENDBRANCH   7  19
ENDBRANCH   5   6
ENDBRANCH   3   5
ENDBRANCH   2   3
ENDBRANCH   1   2
BRANCH   1  30
ATOM     30  C   UNL A   1      33.812  21.960  24.469  1.00  0.00     0.202 C 
BRANCH  30  31
ATOM     31  O   UNL A   1      35.086  22.209  23.899  1.00  0.00    -0.374 OA
BRANCH  31  32
ATOM     32  C   UNL A   1      36.010  22.948  24.689  1.00  0.00     0.202 C 
BRANCH  32  33
ATOM     33  C   UNL A   1      37.142  22.210  25.430  1.00  0.00     0.261 C 
BRANCH  33  34
ATOM     34  O   UNL A   1      38.043  23.089  26.104  1.00  0.00    -0.460 OA
BRANCH  34  35
ATOM     35  C   UNL A   1      39.210  22.514  26.501  1.00  0.00     0.338 C 
ATOM     36  O   UNL A   1      39.603  21.380  26.276  1.00  0.00    -0.246 OA
BRANCH  35  37
ATOM     37  C   UNL A   1      40.076  23.656  26.835  1.00  0.00     0.060 A 
ATOM     38  C   UNL A   1      41.115  23.493  27.757  1.00  0.00     0.016 A 
ATOM     39  C   UNL A   1      39.535  24.920  26.550  1.00  0.00     0.016 A 
ATOM     40  C   UNL A   1      41.515  24.594  28.500  1.00  0.00     0.010 A 
ATOM     41  C   UNL A   1      39.913  26.007  27.322  1.00  0.00     0.010 A 
ATOM     42  C   UNL A   1      40.859  25.828  28.334  1.00  0.00    -0.014 A 
BRANCH  42  43
ATOM     43  C   UNL A   1      41.390  26.989  29.047  1.00  0.00     0.031 A 
ATOM     44  C   UNL A   1      42.734  27.339  28.515  1.00  0.00     0.074 A 
ATOM     45  C   UNL A   1      40.736  27.755  29.947  1.00  0.00     0.049 A 
ATOM     46  N   UNL A   1      43.872  27.232  29.116  1.00  0.00    -0.248 NA
ATOM     47  C   UNL A   1      42.839  27.607  27.069  1.00  0.00     0.031 C 
ATOM     48  C   UNL A   1      39.341  27.678  30.372  1.00  0.00     0.029 A 
ATOM     49  N   UNL A   1      41.185  28.852  30.630  1.00  0.00    -0.354 N 
ATOM     50  C   UNL A   1      44.819  27.632  28.176  1.00  0.00     0.074 A 
ATOM     51  C   UNL A   1      44.161  27.614  26.901  1.00  0.00     0.031 C 
ATOM     52  C   UNL A   1      38.999  28.797  31.051  1.00  0.00     0.029 A 
ATOM     53  C   UNL A   1      40.177  29.624  31.211  1.00  0.00     0.049 A 
ATOM     54  H   UNL A   1      42.140  29.078  30.705  1.00  0.00     0.167 HD
ATOM     55  C   UNL A   1      45.971  28.240  28.563  1.00  0.00     0.037 A 
ATOM     56  C   UNL A   1      40.304  30.877  31.727  1.00  0.00     0.037 A 
ATOM     57  C   UNL A   1      46.250  27.978  29.952  1.00  0.00     0.049 A 
ATOM     58  C   UNL A   1      41.746  31.106  31.983  1.00  0.00     0.074 A 
ATOM     59  C   UNL A   1      46.484  26.845  30.707  1.00  0.00     0.029 A 
ATOM     60  N   UNL A   1      45.945  28.970  30.851  1.00  0.00    -0.354 N 
ATOM     61  N   UNL A   1      42.414  30.485  32.915  1.00  0.00    -0.248 NA
ATOM     62  C   UNL A   1      42.541  31.637  30.887  1.00  0.00     0.031 C 
ATOM     63  C   UNL A   1      45.849  27.096  31.959  1.00  0.00     0.029 A 
ATOM     64  C   UNL A   1      45.327  28.388  31.924  1.00  0.00     0.049 A 
ATOM     65  H   UNL A   1      46.139  29.929  30.743  1.00  0.00     0.167 HD
ATOM     66  C   UNL A   1      43.619  30.153  32.314  1.00  0.00     0.074 A 
ATOM     67  C   UNL A   1      43.665  30.941  31.083  1.00  0.00     0.031 C 
ATOM     68  C   UNL A   1      44.324  29.056  32.717  1.00  0.00     0.037 A 
BRANCH  55  69
ATOM     69  C   UNL A   1      46.568  29.425  27.833  1.00  0.00     0.057 A 
ATOM     70  C   UNL A   1      45.939  30.681  27.679  1.00  0.00     0.134 A 
ATOM     71  C   UNL A   1      47.948  29.419  27.569  1.00  0.00     0.134 A 
ATOM     72  F   UNL A   1      44.641  30.886  27.919  1.00  0.00    -0.206 F 
ATOM     73  C   UNL A   1      46.640  31.846  27.361  1.00  0.00     0.040 A 
ATOM     74  C   UNL A   1      48.666  30.589  27.299  1.00  0.00     0.040 A 
ATOM     75  F   UNL A   1      48.662  28.286  27.665  1.00  0.00    -0.206 F 
ATOM     76  C   UNL A   1      48.014  31.812  27.213  1.00  0.00     0.006 A 
ENDBRANCH  55  69
BRANCH  56  77
ATOM     77  C   UNL A   1      39.325  31.992  31.716  1.00  0.00     0.057 A 
ATOM     78  C   UNL A   1      39.066  32.721  30.541  1.00  0.00     0.134 A 
ATOM     79  C   UNL A   1      38.828  32.554  32.903  1.00  0.00     0.134 A 
ATOM     80  F   UNL A   1      39.567  32.329  29.363  1.00  0.00    -0.206 F 
ATOM     81  C   UNL A   1      38.364  33.932  30.545  1.00  0.00     0.040 A 
ATOM     82  C   UNL A   1      38.125  33.768  32.921  1.00  0.00     0.040 A 
ATOM     83  F   UNL A   1      39.066  31.966  34.086  1.00  0.00    -0.206 F 
ATOM     84  C   UNL A   1      37.899  34.467  31.739  1.00  0.00     0.006 A 
ENDBRANCH  56  77
BRANCH  68  85
ATOM     85  C   UNL A   1      43.884  28.365  33.976  1.00  0.00     0.057 A 
ATOM     86  C   UNL A   1      44.705  28.453  35.105  1.00  0.00     0.134 A 
ATOM     87  C   UNL A   1      42.769  27.517  34.065  1.00  0.00     0.134 A 
ATOM     88  F   UNL A   1      45.819  29.202  35.072  1.00  0.00    -0.206 F 
ATOM     89  C   UNL A   1      44.432  27.739  36.272  1.00  0.00     0.040 A 
ATOM     90  C   UNL A   1      42.466  26.822  35.240  1.00  0.00     0.040 A 
ATOM     91  F   UNL A   1      41.982  27.294  33.003  1.00  0.00    -0.206 F 
ATOM     92  C   UNL A   1      43.303  26.929  36.347  1.00  0.00     0.006 A 
ENDBRANCH  68  85
ENDBRANCH  42  43
ENDBRANCH  35  37
ENDBRANCH  34  35
ENDBRANCH  33  34
ENDBRANCH  32  33
ENDBRANCH  31  32
ENDBRANCH  30  31
ENDBRANCH   1  30
TORSDOF 19
ENDMDL
MODEL 3
REMARK VINA RESULT:     -10.3      2.765      8.222
REMARK SMILES C[C@@H]1CCCN(C(=O)CSc2nnc3c4ccccc4n(CC(=O)OCCOCCOC(=O)c4ccc(-c5c6nc(c(-c7c(F)cccc7F)c7ccc([nH]7)c(-c7c(F)cccc7F)c7nc(c(-c8c(F)cccc8F)c8ccc5[nH]8)C=C7)C=C6)cc4)c3n2)C1
REMARK SMILES IDX 26 1 25 2 23 3 24 4 22 5 21 6 11 7 12 8 89 9 13 10 88 11
REMARK SMILES IDX 14 12 15 13 20 14 16 15 19 16 17 17 18 18 10 19 9 20 7 21
REMARK SMILES IDX 8 22 6 23 1 24 2 25 3 26 90 27 4 28 5 29 27 30 28 31 29 32
REMARK SMILES IDX 30 33 31 34 32 35 33 36 34 37 35 38 87 39 36 40 86 41 37 42
REMARK SMILES IDX 38 43 39 44 80 45 40 46 85 47 79 48 81 49 41 50 84 51 78 52
REMARK SMILES IDX 77 53 42 55 68 56 51 57 67 58 52 59 55 60 66 61 82 62 53 63
REMARK SMILES IDX 54 64 65 66 83 67 56 68 43 69 44 70 49 71 45 72 46 73 48 74
REMARK SMILES IDX 50 75 47 76 69 77 70 78 75 79 71 80 72 81 74 82 76 83 73 84
REMARK SMILES IDX 57 85 58 86 63 87 59 88 60 89 62 90 64 91 61 92
REMARK H PARENT 81 54 55 65
REMARK Flexibility Score: inf
ROOT
ATOM      1  C   UNL A   1      38.692  23.939  26.108  1.00  0.00     0.261 C 
ENDROOT
BRANCH   1   2
ATOM      2  O   UNL A   1      37.390  23.322  26.048  1.00  0.00    -0.462 OA
BRANCH   2   3
ATOM      3  C   UNL A   1      37.297  22.279  25.183  1.00  0.00     0.326 C 
ATOM      4  O   UNL A   1      37.839  21.190  25.366  1.00  0.00    -0.250 OA
BRANCH   3   5
ATOM      5  C   UNL A   1      36.458  22.503  23.953  1.00  0.00     0.246 C 
BRANCH   5   6
ATOM      6  N   UNL A   1      35.025  22.246  24.021  1.00  0.00    -0.313 N 
ATOM      7  C   UNL A   1      33.154  24.910  22.614  1.00  0.00     0.211 A 
ATOM      8  N   UNL A   1      31.908  24.375  22.707  1.00  0.00    -0.122 NA
ATOM      9  N   UNL A   1      34.308  24.349  23.039  1.00  0.00    -0.201 NA
ATOM     10  N   UNL A   1      31.725  23.171  23.246  1.00  0.00    -0.144 NA
ATOM     11  C   UNL A   1      34.081  23.126  23.552  1.00  0.00     0.165 A 
ATOM     12  C   UNL A   1      32.841  22.524  23.668  1.00  0.00     0.138 A 
ATOM     13  C   UNL A   1      33.029  21.230  24.210  1.00  0.00     0.030 A 
ATOM     14  C   UNL A   1      34.416  21.027  24.301  1.00  0.00     0.053 A 
ATOM     15  C   UNL A   1      32.155  20.184  24.574  1.00  0.00     0.013 A 
ATOM     16  C   UNL A   1      34.944  19.764  24.626  1.00  0.00     0.027 A 
ATOM     17  C   UNL A   1      32.679  18.958  24.990  1.00  0.00     0.001 A 
ATOM     18  C   UNL A   1      34.054  18.744  24.988  1.00  0.00     0.002 A 
BRANCH   7  19
ATOM     19  S   UNL A   1      33.284  26.584  22.044  1.00  0.00    -0.074 SA
BRANCH  19  20
ATOM     20  C   UNL A   1      34.029  27.362  23.504  1.00  0.00     0.178 C 
BRANCH  20  21
ATOM     21  C   UNL A   1      33.036  28.125  24.370  1.00  0.00     0.233 C 
ATOM     22  O   UNL A   1      33.155  29.350  24.474  1.00  0.00    -0.274 OA
BRANCH  21  23
ATOM     23  N   UNL A   1      31.973  27.444  24.958  1.00  0.00    -0.342 N 
ATOM     24  C   UNL A   1      28.376  26.706  23.875  1.00  0.00     0.009 C 
ATOM     25  C   UNL A   1      29.803  26.418  24.332  1.00  0.00     0.005 C 
ATOM     26  C   UNL A   1      29.803  25.644  25.656  1.00  0.00     0.007 C 
ATOM     27  C   UNL A   1      30.614  27.713  24.476  1.00  0.00     0.122 C 
ATOM     28  C   UNL A   1      31.233  25.372  26.111  1.00  0.00     0.022 C 
ATOM     29  C   UNL A   1      32.057  26.652  26.186  1.00  0.00     0.119 C 
ENDBRANCH  21  23
ENDBRANCH  20  21
ENDBRANCH  19  20
ENDBRANCH   7  19
ENDBRANCH   5   6
ENDBRANCH   3   5
ENDBRANCH   2   3
ENDBRANCH   1   2
BRANCH   1  30
ATOM     30  C   UNL A   1      39.394  23.821  27.470  1.00  0.00     0.202 C 
BRANCH  30  31
ATOM     31  O   UNL A   1      40.455  22.898  27.657  1.00  0.00    -0.374 OA
BRANCH  31  32
ATOM     32  C   UNL A   1      40.811  22.094  26.540  1.00  0.00     0.202 C 
BRANCH  32  33
ATOM     33  C   UNL A   1      42.196  22.264  25.886  1.00  0.00     0.261 C 
BRANCH  33  34
ATOM     34  O   UNL A   1      42.996  23.268  26.512  1.00  0.00    -0.460 OA
BRANCH  34  35
ATOM     35  C   UNL A   1      43.115  24.424  25.805  1.00  0.00     0.338 C 
ATOM     36  O   UNL A   1      43.407  24.557  24.627  1.00  0.00    -0.246 OA
BRANCH  35  37
ATOM     37  C   UNL A   1      42.375  25.411  26.607  1.00  0.00     0.060 A 
ATOM     38  C   UNL A   1      41.640  26.415  25.967  1.00  0.00     0.016 A 
ATOM     39  C   UNL A   1      42.807  25.548  27.935  1.00  0.00     0.016 A 
ATOM     40  C   UNL A   1      41.462  27.622  26.625  1.00  0.00     0.010 A 
ATOM     41  C   UNL A   1      42.659  26.770  28.572  1.00  0.00     0.010 A 
ATOM     42  C   UNL A   1      42.040  27.822  27.894  1.00  0.00    -0.014 A 
BRANCH  42  43
ATOM     43  C   UNL A   1      41.729  29.062  28.603  1.00  0.00     0.031 A 
ATOM     44  C   UNL A   1      42.774  30.082  28.320  1.00  0.00     0.074 A 
ATOM     45  C   UNL A   1      40.601  29.341  29.291  1.00  0.00     0.049 A 
ATOM     46  N   UNL A   1      43.647  30.564  29.141  1.00  0.00    -0.248 NA
ATOM     47  C   UNL A   1      43.027  30.417  26.906  1.00  0.00     0.031 C 
ATOM     48  C   UNL A   1      39.394  28.530  29.437  1.00  0.00     0.029 A 
ATOM     49  N   UNL A   1      40.261  30.485  29.958  1.00  0.00    -0.354 N 
ATOM     50  C   UNL A   1      44.423  31.433  28.377  1.00  0.00     0.074 A 
ATOM     51  C   UNL A   1      44.155  31.119  27.002  1.00  0.00     0.031 C 
ATOM     52  C   UNL A   1      38.389  29.281  29.942  1.00  0.00     0.029 A 
ATOM     53  C   UNL A   1      38.903  30.596  30.265  1.00  0.00     0.049 A 
ATOM     54  H   UNL A   1      40.921  31.174  30.202  1.00  0.00     0.167 HD
ATOM     55  C   UNL A   1      44.982  32.540  28.933  1.00  0.00     0.037 A 
ATOM     56  C   UNL A   1      38.252  31.711  30.693  1.00  0.00     0.037 A 
ATOM     57  C   UNL A   1      45.057  32.413  30.367  1.00  0.00     0.049 A 
ATOM     58  C   UNL A   1      39.275  32.651  31.210  1.00  0.00     0.074 A 
ATOM     59  C   UNL A   1      45.678  31.543  31.242  1.00  0.00     0.029 A 
ATOM     60  N   UNL A   1      44.102  33.066  31.105  1.00  0.00    -0.354 N 
ATOM     61  N   UNL A   1      39.955  32.438  32.302  1.00  0.00    -0.248 NA
ATOM     62  C   UNL A   1      39.890  33.557  30.253  1.00  0.00     0.031 C 
ATOM     63  C   UNL A   1      44.759  31.381  32.319  1.00  0.00     0.029 A 
ATOM     64  C   UNL A   1      43.664  32.210  32.078  1.00  0.00     0.049 A 
ATOM     65  H   UNL A   1      43.788  33.988  30.961  1.00  0.00     0.167 HD
ATOM     66  C   UNL A   1      41.252  32.806  31.980  1.00  0.00     0.074 A 
ATOM     67  C   UNL A   1      41.141  33.545  30.723  1.00  0.00     0.031 C 
ATOM     68  C   UNL A   1      42.320  32.226  32.601  1.00  0.00     0.037 A 
BRANCH  55  69
ATOM     69  C   UNL A   1      45.017  33.887  28.243  1.00  0.00     0.057 A 
ATOM     70  C   UNL A   1      43.883  34.681  27.960  1.00  0.00     0.134 A 
ATOM     71  C   UNL A   1      46.246  34.563  28.163  1.00  0.00     0.134 A 
ATOM     72  F   UNL A   1      42.631  34.219  28.018  1.00  0.00    -0.206 F 
ATOM     73  C   UNL A   1      43.962  36.049  27.692  1.00  0.00     0.040 A 
ATOM     74  C   UNL A   1      46.331  35.943  27.945  1.00  0.00     0.040 A 
ATOM     75  F   UNL A   1      47.401  33.921  28.396  1.00  0.00    -0.206 F 
ATOM     76  C   UNL A   1      45.185  36.694  27.726  1.00  0.00     0.006 A 
ENDBRANCH  55  69
BRANCH  56  77
ATOM     77  C   UNL A   1      36.865  32.149  30.399  1.00  0.00     0.057 A 
ATOM     78  C   UNL A   1      36.481  32.525  29.099  1.00  0.00     0.134 A 
ATOM     79  C   UNL A   1      35.960  32.479  31.421  1.00  0.00     0.134 A 
ATOM     80  F   UNL A   1      37.303  32.341  28.058  1.00  0.00    -0.206 F 
ATOM     81  C   UNL A   1      35.279  33.189  28.831  1.00  0.00     0.040 A 
ATOM     82  C   UNL A   1      34.753  33.148  31.166  1.00  0.00     0.040 A 
ATOM     83  F   UNL A   1      36.254  32.214  32.703  1.00  0.00    -0.206 F 
ATOM     84  C   UNL A   1      34.412  33.514  29.867  1.00  0.00     0.006 A 
ENDBRANCH  56  77
BRANCH  68  85
ATOM     85  C   UNL A   1      42.048  31.363  33.800  1.00  0.00     0.057 A 
ATOM     86  C   UNL A   1      42.232  31.914  35.072  1.00  0.00     0.134 A 
ATOM     87  C   UNL A   1      41.754  29.992  33.737  1.00  0.00     0.134 A 
ATOM     88  F   UNL A   1      42.571  33.206  35.205  1.00  0.00    -0.206 F 
ATOM     89  C   UNL A   1      42.122  31.145  36.231  1.00  0.00     0.040 A 
ATOM     90  C   UNL A   1      41.608  29.217  34.893  1.00  0.00     0.040 A 
ATOM     91  F   UNL A   1      41.658  29.356  32.561  1.00  0.00    -0.206 F 
ATOM     92  C   UNL A   1      41.797  29.795  36.145  1.00  0.00     0.006 A 
ENDBRANCH  68  85
ENDBRANCH  42  43
ENDBRANCH  35  37
ENDBRANCH  34  35
ENDBRANCH  33  34
ENDBRANCH  32  33
ENDBRANCH  31  32
ENDBRANCH  30  31
ENDBRANCH   1  30
TORSDOF 19
ENDMDL
