MODEL 1
REMARK VINA RESULT:     -11.8      0.000      0.000
REMARK SMILES C=C(C)COc1ccc2nc(C)n(-c3cccc(C(=O)OCCOCCOC(=O)c4ccc(-c5c6nc(c(-c7c(F)cccc7F)c7ccc([nH]7)c(-c7c(F)cccc7F)c7nc(c(-c8c(F)cccc8F)c8ccc5[nH]8)C=C7)C=C6)cc4)c3)c(=O)c2c1
REMARK SMILES IDX 23 1 22 2 21 3 19 4 20 5 18 6 14 7 15 8 84 9 16 10 17 11
REMARK SMILES IDX 13 12 6 13 7 14 88 15 8 16 87 17 9 18 85 19 10 20 86 21
REMARK SMILES IDX 11 22 12 23 5 24 4 25 2 26 1 27 3 28 24 29 25 30 26 31 27 32
REMARK SMILES IDX 28 33 29 34 30 35 31 36 83 37 32 38 82 39 33 40 34 41 35 42
REMARK SMILES IDX 76 43 36 44 81 45 75 46 77 47 37 48 80 49 74 50 73 51 38 53
REMARK SMILES IDX 64 54 47 55 63 56 48 57 51 58 62 59 78 60 49 61 50 62 61 64
REMARK SMILES IDX 79 65 52 66 39 67 40 68 45 69 41 70 42 71 44 72 46 73 43 74
REMARK SMILES IDX 65 75 66 76 71 77 67 78 68 79 70 80 72 81 69 82 53 83 54 84
REMARK SMILES IDX 59 85 55 86 56 87 58 88 60 89 57 90
REMARK H PARENT 77 52 51 63
REMARK Flexibility Score: inf
ROOT
ATOM      1  C   UNL A   1      34.549  33.488  28.789  1.00  0.00     0.202 C 
ENDROOT
BRANCH   1   2
ATOM      2  C   UNL A   1      34.610  31.956  28.737  1.00  0.00     0.261 C 
BRANCH   2   3
ATOM      3  O   UNL A   1      34.348  31.454  27.418  1.00  0.00    -0.460 OA
BRANCH   3   4
ATOM      4  C   UNL A   1      34.600  30.130  27.251  1.00  0.00     0.338 C 
ATOM      5  O   UNL A   1      35.461  29.474  27.815  1.00  0.00    -0.246 OA
BRANCH   4   6
ATOM      6  C   UNL A   1      33.537  29.511  26.423  1.00  0.00     0.062 A 
ATOM      7  C   UNL A   1      32.662  27.747  25.002  1.00  0.00     0.051 A 
ATOM      8  C   UNL A   1      31.509  28.521  24.785  1.00  0.00     0.027 A 
ATOM      9  C   UNL A   1      33.671  28.243  25.843  1.00  0.00     0.042 A 
ATOM     10  C   UNL A   1      31.378  29.783  25.362  1.00  0.00     0.003 A 
ATOM     11  C   UNL A   1      32.392  30.280  26.175  1.00  0.00     0.016 A 
BRANCH   7  12
ATOM     12  N   UNL A   1      32.804  26.471  24.370  1.00  0.00    -0.264 N 
ATOM     13  C   UNL A   1      32.300  21.636  24.354  1.00  0.00     0.120 A 
ATOM     14  C   UNL A   1      32.669  21.651  23.009  1.00  0.00     0.049 A 
ATOM     15  C   UNL A   1      32.220  22.830  25.067  1.00  0.00     0.062 A 
ATOM     16  C   UNL A   1      33.010  22.849  22.388  1.00  0.00     0.033 A 
ATOM     17  C   UNL A   1      32.559  24.034  24.430  1.00  0.00     0.070 A 
ATOM     18  C   UNL A   1      32.950  24.048  23.094  1.00  0.00     0.078 A 
ATOM     19  C   UNL A   1      32.492  25.331  25.130  1.00  0.00     0.266 A 
ATOM     20  N   UNL A   1      33.288  25.219  22.423  1.00  0.00    -0.234 NA
ATOM     21  O   UNL A   1      32.142  25.336  26.310  1.00  0.00    -0.268 OA
ATOM     22  C   UNL A   1      33.215  26.348  23.051  1.00  0.00     0.113 A 
ATOM     23  C   UNL A   1      33.675  27.551  22.250  1.00  0.00     0.088 C 
BRANCH  13  24
ATOM     24  O   UNL A   1      31.903  20.473  24.959  1.00  0.00    -0.489 OA
BRANCH  24  25
ATOM     25  C   UNL A   1      32.988  19.551  25.164  1.00  0.00     0.260 C 
BRANCH  25  26
ATOM     26  C   UNL A   1      32.695  18.167  24.617  1.00  0.00    -0.043 C 
ATOM     27  C   UNL A   1      32.535  17.092  25.409  1.00  0.00     0.011 C 
ATOM     28  C   UNL A   1      32.527  18.080  23.127  1.00  0.00     0.042 C 
ENDBRANCH  25  26
ENDBRANCH  24  25
ENDBRANCH  13  24
ENDBRANCH   7  12
ENDBRANCH   4   6
ENDBRANCH   3   4
ENDBRANCH   2   3
ENDBRANCH   1   2
BRANCH   1  29
ATOM     29  O   UNL A   1      33.918  34.083  29.919  1.00  0.00    -0.374 OA
BRANCH  29  30
ATOM     30  C   UNL A   1      34.675  34.199  31.124  1.00  0.00     0.202 C 
BRANCH  30  31
ATOM     31  C   UNL A   1      34.411  33.170  32.232  1.00  0.00     0.261 C 
BRANCH  31  32
ATOM     32  O   UNL A   1      35.218  31.989  32.094  1.00  0.00    -0.460 OA
BRANCH  32  33
ATOM     33  C   UNL A   1      36.359  31.981  32.827  1.00  0.00     0.338 C 
ATOM     34  O   UNL A   1      36.487  32.281  34.004  1.00  0.00    -0.246 OA
BRANCH  33  35
ATOM     35  C   UNL A   1      37.434  31.353  32.038  1.00  0.00     0.060 A 
ATOM     36  C   UNL A   1      37.484  31.481  30.649  1.00  0.00     0.016 A 
ATOM     37  C   UNL A   1      38.427  30.636  32.722  1.00  0.00     0.016 A 
ATOM     38  C   UNL A   1      38.545  30.906  29.947  1.00  0.00     0.010 A 
ATOM     39  C   UNL A   1      39.488  30.065  32.019  1.00  0.00     0.010 A 
ATOM     40  C   UNL A   1      39.564  30.210  30.627  1.00  0.00    -0.014 A 
BRANCH  40  41
ATOM     41  C   UNL A   1      40.762  29.743  29.887  1.00  0.00     0.031 A 
ATOM     42  C   UNL A   1      40.855  28.350  29.338  1.00  0.00     0.074 A 
ATOM     43  C   UNL A   1      41.785  30.602  29.716  1.00  0.00     0.049 A 
ATOM     44  N   UNL A   1      41.795  27.818  28.598  1.00  0.00    -0.248 NA
ATOM     45  C   UNL A   1      39.754  27.434  29.668  1.00  0.00     0.031 C 
ATOM     46  C   UNL A   1      41.829  31.969  30.239  1.00  0.00     0.029 A 
ATOM     47  N   UNL A   1      42.975  30.460  29.050  1.00  0.00    -0.354 N 
ATOM     48  C   UNL A   1      41.392  26.512  28.352  1.00  0.00     0.074 A 
ATOM     49  C   UNL A   1      40.150  26.317  29.072  1.00  0.00     0.031 C 
ATOM     50  C   UNL A   1      42.972  32.551  29.844  1.00  0.00     0.029 A 
ATOM     51  C   UNL A   1      43.752  31.592  29.070  1.00  0.00     0.049 A 
ATOM     52  H   UNL A   1      43.244  29.627  28.600  1.00  0.00     0.167 HD
ATOM     53  C   UNL A   1      41.994  25.572  27.584  1.00  0.00     0.037 A 
ATOM     54  C   UNL A   1      44.959  31.829  28.525  1.00  0.00     0.037 A 
ATOM     55  C   UNL A   1      43.249  25.760  26.897  1.00  0.00     0.049 A 
ATOM     56  C   UNL A   1      45.633  30.745  27.731  1.00  0.00     0.074 A 
ATOM     57  C   UNL A   1      43.924  24.877  26.071  1.00  0.00     0.029 A 
ATOM     58  N   UNL A   1      44.033  26.903  26.978  1.00  0.00    -0.354 N 
ATOM     59  N   UNL A   1      45.200  29.544  27.432  1.00  0.00    -0.248 NA
ATOM     60  C   UNL A   1      46.966  31.053  27.195  1.00  0.00     0.031 C 
ATOM     61  C   UNL A   1      45.141  25.461  25.700  1.00  0.00     0.029 A 
ATOM     62  C   UNL A   1      45.197  26.735  26.243  1.00  0.00     0.049 A 
ATOM     63  H   UNL A   1      43.796  27.715  27.481  1.00  0.00     0.167 HD
ATOM     64  C   UNL A   1      46.193  28.966  26.650  1.00  0.00     0.074 A 
ATOM     65  C   UNL A   1      47.237  29.958  26.503  1.00  0.00     0.031 C 
ATOM     66  C   UNL A   1      46.236  27.725  26.106  1.00  0.00     0.037 A 
BRANCH  53  67
ATOM     67  C   UNL A   1      41.302  24.244  27.452  1.00  0.00     0.057 A 
ATOM     68  C   UNL A   1      41.772  23.115  28.134  1.00  0.00     0.134 A 
ATOM     69  C   UNL A   1      40.185  24.075  26.621  1.00  0.00     0.134 A 
ATOM     70  F   UNL A   1      42.845  23.199  28.935  1.00  0.00    -0.206 F 
ATOM     71  C   UNL A   1      41.155  21.869  28.000  1.00  0.00     0.040 A 
ATOM     72  C   UNL A   1      39.541  22.842  26.502  1.00  0.00     0.040 A 
ATOM     73  F   UNL A   1      39.680  25.115  25.940  1.00  0.00    -0.206 F 
ATOM     74  C   UNL A   1      40.030  21.733  27.190  1.00  0.00     0.006 A 
ENDBRANCH  53  67
BRANCH  54  75
ATOM     75  C   UNL A   1      45.610  33.152  28.694  1.00  0.00     0.057 A 
ATOM     76  C   UNL A   1      45.404  34.190  27.777  1.00  0.00     0.134 A 
ATOM     77  C   UNL A   1      46.425  33.422  29.801  1.00  0.00     0.134 A 
ATOM     78  F   UNL A   1      44.641  33.993  26.692  1.00  0.00    -0.206 F 
ATOM     79  C   UNL A   1      45.979  35.449  27.956  1.00  0.00     0.040 A 
ATOM     80  C   UNL A   1      46.981  34.685  30.009  1.00  0.00     0.040 A 
ATOM     81  F   UNL A   1      46.647  32.474  30.723  1.00  0.00    -0.206 F 
ATOM     82  C   UNL A   1      46.761  35.702  29.082  1.00  0.00     0.006 A 
ENDBRANCH  54  75
BRANCH  66  83
ATOM     83  C   UNL A   1      47.442  27.388  25.273  1.00  0.00     0.057 A 
ATOM     84  C   UNL A   1      47.458  27.658  23.899  1.00  0.00     0.134 A 
ATOM     85  C   UNL A   1      48.586  26.796  25.825  1.00  0.00     0.134 A 
ATOM     86  F   UNL A   1      46.394  28.216  23.300  1.00  0.00    -0.206 F 
ATOM     87  C   UNL A   1      48.566  27.356  23.105  1.00  0.00     0.040 A 
ATOM     88  C   UNL A   1      49.714  26.521  25.049  1.00  0.00     0.040 A 
ATOM     89  F   UNL A   1      48.645  26.525  27.138  1.00  0.00    -0.206 F 
ATOM     90  C   UNL A   1      49.703  26.796  23.684  1.00  0.00     0.006 A 
ENDBRANCH  66  83
ENDBRANCH  40  41
ENDBRANCH  33  35
ENDBRANCH  32  33
ENDBRANCH  31  32
ENDBRANCH  30  31
ENDBRANCH  29  30
ENDBRANCH   1  29
TORSDOF 18
ENDMDL
MODEL 2
REMARK VINA RESULT:     -11.6      4.649     10.212
REMARK SMILES C=C(C)COc1ccc2nc(C)n(-c3cccc(C(=O)OCCOCCOC(=O)c4ccc(-c5c6nc(c(-c7c(F)cccc7F)c7ccc([nH]7)c(-c7c(F)cccc7F)c7nc(c(-c8c(F)cccc8F)c8ccc5[nH]8)C=C7)C=C6)cc4)c3)c(=O)c2c1
REMARK SMILES IDX 23 1 22 2 21 3 19 4 20 5 18 6 14 7 15 8 84 9 16 10 17 11
REMARK SMILES IDX 13 12 6 13 7 14 88 15 8 16 87 17 9 18 85 19 10 20 86 21
REMARK SMILES IDX 11 22 12 23 5 24 4 25 2 26 1 27 3 28 24 29 25 30 26 31 27 32
REMARK SMILES IDX 28 33 29 34 30 35 31 36 83 37 32 38 82 39 33 40 34 41 35 42
REMARK SMILES IDX 76 43 36 44 81 45 75 46 77 47 37 48 80 49 74 50 73 51 38 53
REMARK SMILES IDX 64 54 47 55 63 56 48 57 51 58 62 59 78 60 49 61 50 62 61 64
REMARK SMILES IDX 79 65 52 66 39 67 40 68 45 69 41 70 42 71 44 72 46 73 43 74
REMARK SMILES IDX 65 75 66 76 71 77 67 78 68 79 70 80 72 81 69 82 53 83 54 84
REMARK SMILES IDX 59 85 55 86 56 87 58 88 60 89 57 90
REMARK H PARENT 77 52 51 63
REMARK Flexibility Score: inf
ROOT
ATOM      1  C   UNL A   1      41.599  21.803  26.106  1.00  0.00     0.202 C 
ENDROOT
BRANCH   1   2
ATOM      2  C   UNL A   1      40.270  21.438  26.779  1.00  0.00     0.261 C 
BRANCH   2   3
ATOM      3  O   UNL A   1      39.167  21.510  25.861  1.00  0.00    -0.460 OA
BRANCH   3   4
ATOM      4  C   UNL A   1      38.301  22.530  26.089  1.00  0.00     0.338 C 
ATOM      5  O   UNL A   1      38.584  23.661  26.451  1.00  0.00    -0.246 OA
BRANCH   4   6
ATOM      6  C   UNL A   1      36.941  22.153  25.635  1.00  0.00     0.062 A 
ATOM      7  C   UNL A   1      34.573  22.588  25.322  1.00  0.00     0.051 A 
ATOM      8  C   UNL A   1      34.410  21.269  24.865  1.00  0.00     0.027 A 
ATOM      9  C   UNL A   1      35.853  23.032  25.690  1.00  0.00     0.042 A 
ATOM     10  C   UNL A   1      35.495  20.394  24.812  1.00  0.00     0.003 A 
ATOM     11  C   UNL A   1      36.756  20.833  25.202  1.00  0.00     0.016 A 
BRANCH   7  12
ATOM     12  N   UNL A   1      33.445  23.464  25.413  1.00  0.00    -0.264 N 
ATOM     13  C   UNL A   1      30.481  26.817  23.512  1.00  0.00     0.120 A 
ATOM     14  C   UNL A   1      29.663  26.656  24.631  1.00  0.00     0.049 A 
ATOM     15  C   UNL A   1      31.645  26.062  23.388  1.00  0.00     0.062 A 
ATOM     16  C   UNL A   1      30.030  25.781  25.649  1.00  0.00     0.033 A 
ATOM     17  C   UNL A   1      32.003  25.178  24.418  1.00  0.00     0.070 A 
ATOM     18  C   UNL A   1      31.200  25.033  25.545  1.00  0.00     0.078 A 
ATOM     19  C   UNL A   1      33.222  24.350  24.344  1.00  0.00     0.266 A 
ATOM     20  N   UNL A   1      31.514  24.164  26.585  1.00  0.00    -0.234 NA
ATOM     21  O   UNL A   1      33.941  24.461  23.351  1.00  0.00    -0.268 OA
ATOM     22  C   UNL A   1      32.583  23.439  26.499  1.00  0.00     0.113 A 
ATOM     23  C   UNL A   1      32.869  22.583  27.718  1.00  0.00     0.088 C 
BRANCH  13  24
ATOM     24  O   UNL A   1      30.100  27.626  22.476  1.00  0.00    -0.489 OA
BRANCH  24  25
ATOM     25  C   UNL A   1      29.785  28.965  22.898  1.00  0.00     0.260 C 
BRANCH  25  26
ATOM     26  C   UNL A   1      28.406  29.412  22.456  1.00  0.00    -0.043 C 
ATOM     27  C   UNL A   1      27.277  28.947  23.017  1.00  0.00     0.011 C 
ATOM     28  C   UNL A   1      28.377  30.468  21.387  1.00  0.00     0.042 C 
ENDBRANCH  25  26
ENDBRANCH  24  25
ENDBRANCH  13  24
ENDBRANCH   7  12
ENDBRANCH   4   6
ENDBRANCH   3   4
ENDBRANCH   2   3
ENDBRANCH   1   2
BRANCH   1  29
ATOM     29  O   UNL A   1      42.360  20.743  25.535  1.00  0.00    -0.374 OA
BRANCH  29  30
ATOM     30  C   UNL A   1      43.779  20.776  25.697  1.00  0.00     0.202 C 
BRANCH  30  31
ATOM     31  C   UNL A   1      44.529  22.001  25.157  1.00  0.00     0.261 C 
BRANCH  31  32
ATOM     32  O   UNL A   1      44.650  23.050  26.132  1.00  0.00    -0.460 OA
BRANCH  32  33
ATOM     33  C   UNL A   1      44.494  24.307  25.647  1.00  0.00     0.338 C 
ATOM     34  O   UNL A   1      44.719  24.698  24.512  1.00  0.00    -0.246 OA
BRANCH  33  35
ATOM     35  C   UNL A   1      43.807  25.131  26.658  1.00  0.00     0.060 A 
ATOM     36  C   UNL A   1      42.757  24.617  27.420  1.00  0.00     0.016 A 
ATOM     37  C   UNL A   1      44.251  26.447  26.855  1.00  0.00     0.016 A 
ATOM     38  C   UNL A   1      42.164  25.419  28.397  1.00  0.00     0.010 A 
ATOM     39  C   UNL A   1      43.658  27.246  27.834  1.00  0.00     0.010 A 
ATOM     40  C   UNL A   1      42.621  26.732  28.624  1.00  0.00    -0.014 A 
BRANCH  40  41
ATOM     41  C   UNL A   1      42.090  27.513  29.768  1.00  0.00     0.031 A 
ATOM     42  C   UNL A   1      42.729  27.458  31.123  1.00  0.00     0.074 A 
ATOM     43  C   UNL A   1      41.002  28.283  29.568  1.00  0.00     0.049 A 
ATOM     44  N   UNL A   1      42.436  28.145  32.200  1.00  0.00    -0.248 NA
ATOM     45  C   UNL A   1      43.834  26.506  31.296  1.00  0.00     0.031 C 
ATOM     46  C   UNL A   1      40.268  28.386  28.306  1.00  0.00     0.029 A 
ATOM     47  N   UNL A   1      40.333  29.128  30.414  1.00  0.00    -0.354 N 
ATOM     48  C   UNL A   1      43.333  27.727  33.174  1.00  0.00     0.074 A 
ATOM     49  C   UNL A   1      44.143  26.685  32.574  1.00  0.00     0.031 C 
ATOM     50  C   UNL A   1      39.271  29.273  28.451  1.00  0.00     0.029 A 
ATOM     51  C   UNL A   1      39.277  29.774  29.821  1.00  0.00     0.049 A 
ATOM     52  H   UNL A   1      40.586  29.259  31.357  1.00  0.00     0.167 HD
ATOM     53  C   UNL A   1      43.479  28.184  34.441  1.00  0.00     0.037 A 
ATOM     54  C   UNL A   1      38.409  30.671  30.325  1.00  0.00     0.037 A 
ATOM     55  C   UNL A   1      42.647  29.197  35.044  1.00  0.00     0.049 A 
ATOM     56  C   UNL A   1      38.555  31.110  31.756  1.00  0.00     0.074 A 
ATOM     57  C   UNL A   1      42.736  29.746  36.312  1.00  0.00     0.029 A 
ATOM     58  N   UNL A   1      41.557  29.796  34.429  1.00  0.00    -0.354 N 
ATOM     59  N   UNL A   1      39.463  30.773  32.639  1.00  0.00    -0.248 NA
ATOM     60  C   UNL A   1      37.553  32.061  32.257  1.00  0.00     0.031 C 
ATOM     61  C   UNL A   1      41.666  30.632  36.486  1.00  0.00     0.029 A 
ATOM     62  C   UNL A   1      40.946  30.684  35.303  1.00  0.00     0.049 A 
ATOM     63  H   UNL A   1      41.261  29.618  33.508  1.00  0.00     0.167 HD
ATOM     64  C   UNL A   1      39.160  31.491  33.788  1.00  0.00     0.074 A 
ATOM     65  C   UNL A   1      37.999  32.300  33.481  1.00  0.00     0.031 C 
ATOM     66  C   UNL A   1      39.786  31.481  34.992  1.00  0.00     0.037 A 
BRANCH  53  67
ATOM     67  C   UNL A   1      44.579  27.580  35.268  1.00  0.00     0.057 A 
ATOM     68  C   UNL A   1      45.869  28.127  35.262  1.00  0.00     0.134 A 
ATOM     69  C   UNL A   1      44.371  26.433  36.048  1.00  0.00     0.134 A 
ATOM     70  F   UNL A   1      46.145  29.216  34.528  1.00  0.00    -0.206 F 
ATOM     71  C   UNL A   1      46.908  27.561  36.005  1.00  0.00     0.040 A 
ATOM     72  C   UNL A   1      45.394  25.876  36.818  1.00  0.00     0.040 A 
ATOM     73  F   UNL A   1      43.160  25.859  36.102  1.00  0.00    -0.206 F 
ATOM     74  C   UNL A   1      46.668  26.438  36.794  1.00  0.00     0.006 A 
ENDBRANCH  53  67
BRANCH  54  75
ATOM     75  C   UNL A   1      37.329  31.229  29.474  1.00  0.00     0.057 A 
ATOM     76  C   UNL A   1      36.149  30.514  29.231  1.00  0.00     0.134 A 
ATOM     77  C   UNL A   1      37.435  32.507  28.914  1.00  0.00     0.134 A 
ATOM     78  F   UNL A   1      35.989  29.280  29.731  1.00  0.00    -0.206 F 
ATOM     79  C   UNL A   1      35.113  31.053  28.466  1.00  0.00     0.040 A 
ATOM     80  C   UNL A   1      36.394  33.071  28.174  1.00  0.00     0.040 A 
ATOM     81  F   UNL A   1      38.533  33.248  29.126  1.00  0.00    -0.206 F 
ATOM     82  C   UNL A   1      35.230  32.340  27.946  1.00  0.00     0.006 A 
ENDBRANCH  54  75
BRANCH  66  83
ATOM     83  C   UNL A   1      39.241  32.398  36.052  1.00  0.00     0.057 A 
ATOM     84  C   UNL A   1      39.693  33.720  36.152  1.00  0.00     0.134 A 
ATOM     85  C   UNL A   1      38.273  31.978  36.974  1.00  0.00     0.134 A 
ATOM     86  F   UNL A   1      40.624  34.189  35.308  1.00  0.00    -0.206 F 
ATOM     87  C   UNL A   1      39.200  34.591  37.126  1.00  0.00     0.040 A 
ATOM     88  C   UNL A   1      37.747  32.848  37.930  1.00  0.00     0.040 A 
ATOM     89  F   UNL A   1      37.784  30.728  36.924  1.00  0.00    -0.206 F 
ATOM     90  C   UNL A   1      38.215  34.157  38.011  1.00  0.00     0.006 A 
ENDBRANCH  66  83
ENDBRANCH  40  41
ENDBRANCH  33  35
ENDBRANCH  32  33
ENDBRANCH  31  32
ENDBRANCH  30  31
ENDBRANCH  29  30
ENDBRANCH   1  29
TORSDOF 18
ENDMDL
MODEL 3
REMARK VINA RESULT:     -11.5      0.646      6.044
REMARK SMILES C=C(C)COc1ccc2nc(C)n(-c3cccc(C(=O)OCCOCCOC(=O)c4ccc(-c5c6nc(c(-c7c(F)cccc7F)c7ccc([nH]7)c(-c7c(F)cccc7F)c7nc(c(-c8c(F)cccc8F)c8ccc5[nH]8)C=C7)C=C6)cc4)c3)c(=O)c2c1
REMARK SMILES IDX 23 1 22 2 21 3 19 4 20 5 18 6 14 7 15 8 84 9 16 10 17 11
REMARK SMILES IDX 13 12 6 13 7 14 88 15 8 16 87 17 9 18 85 19 10 20 86 21
REMARK SMILES IDX 11 22 12 23 5 24 4 25 2 26 1 27 3 28 24 29 25 30 26 31 27 32
REMARK SMILES IDX 28 33 29 34 30 35 31 36 83 37 32 38 82 39 33 40 34 41 35 42
REMARK SMILES IDX 76 43 36 44 81 45 75 46 77 47 37 48 80 49 74 50 73 51 38 53
REMARK SMILES IDX 64 54 47 55 63 56 48 57 51 58 62 59 78 60 49 61 50 62 61 64
REMARK SMILES IDX 79 65 52 66 39 67 40 68 45 69 41 70 42 71 44 72 46 73 43 74
REMARK SMILES IDX 65 75 66 76 71 77 67 78 68 79 70 80 72 81 69 82 53 83 54 84
REMARK SMILES IDX 59 85 55 86 56 87 58 88 60 89 57 90
REMARK H PARENT 77 52 51 63
REMARK Flexibility Score: inf
ROOT
ATOM      1  C   UNL A   1      34.917  33.339  29.091  1.00  0.00     0.202 C 
ENDROOT
BRANCH   1   2
ATOM      2  C   UNL A   1      34.422  31.903  28.882  1.00  0.00     0.261 C 
BRANCH   2   3
ATOM      3  O   UNL A   1      34.623  31.458  27.532  1.00  0.00    -0.460 OA
BRANCH   3   4
ATOM      4  C   UNL A   1      34.815  30.121  27.395  1.00  0.00     0.338 C 
ATOM      5  O   UNL A   1      35.643  29.439  27.976  1.00  0.00    -0.246 OA
BRANCH   4   6
ATOM      6  C   UNL A   1      33.726  29.533  26.578  1.00  0.00     0.062 A 
ATOM      7  C   UNL A   1      32.796  27.807  25.144  1.00  0.00     0.051 A 
ATOM      8  C   UNL A   1      31.651  28.603  24.962  1.00  0.00     0.027 A 
ATOM      9  C   UNL A   1      33.828  28.273  25.974  1.00  0.00     0.042 A 
ATOM     10  C   UNL A   1      31.552  29.858  25.563  1.00  0.00     0.003 A 
ATOM     11  C   UNL A   1      32.590  30.324  26.364  1.00  0.00     0.016 A 
BRANCH   7  12
ATOM     12  N   UNL A   1      32.905  26.541  24.488  1.00  0.00    -0.264 N 
ATOM     13  C   UNL A   1      32.273  21.721  24.381  1.00  0.00     0.120 A 
ATOM     14  C   UNL A   1      32.645  21.752  23.038  1.00  0.00     0.049 A 
ATOM     15  C   UNL A   1      32.224  22.904  25.117  1.00  0.00     0.062 A 
ATOM     16  C   UNL A   1      33.017  22.952  22.439  1.00  0.00     0.033 A 
ATOM     17  C   UNL A   1      32.596  24.110  24.503  1.00  0.00     0.070 A 
ATOM     18  C   UNL A   1      32.989  24.139  23.168  1.00  0.00     0.078 A 
ATOM     19  C   UNL A   1      32.562  25.395  25.227  1.00  0.00     0.266 A 
ATOM     20  N   UNL A   1      33.358  25.312  22.519  1.00  0.00    -0.234 NA
ATOM     21  O   UNL A   1      32.211  25.387  26.407  1.00  0.00    -0.268 OA
ATOM     22  C   UNL A   1      33.314  26.431  23.168  1.00  0.00     0.113 A 
ATOM     23  C   UNL A   1      33.807  27.637  22.389  1.00  0.00     0.088 C 
BRANCH  13  24
ATOM     24  O   UNL A   1      31.845  20.558  24.964  1.00  0.00    -0.489 OA
BRANCH  24  25
ATOM     25  C   UNL A   1      32.903  19.599  25.142  1.00  0.00     0.260 C 
BRANCH  25  26
ATOM     26  C   UNL A   1      32.608  18.268  24.480  1.00  0.00    -0.043 C 
ATOM     27  C   UNL A   1      32.535  18.120  23.146  1.00  0.00     0.011 C 
ATOM     28  C   UNL A   1      32.466  17.097  25.411  1.00  0.00     0.042 C 
ENDBRANCH  25  26
ENDBRANCH  24  25
ENDBRANCH  13  24
ENDBRANCH   7  12
ENDBRANCH   4   6
ENDBRANCH   3   4
ENDBRANCH   2   3
ENDBRANCH   1   2
BRANCH   1  29
ATOM     29  O   UNL A   1      34.258  34.126  30.079  1.00  0.00    -0.374 OA
BRANCH  29  30
ATOM     30  C   UNL A   1      34.827  34.169  31.388  1.00  0.00     0.202 C 
BRANCH  30  31
ATOM     31  C   UNL A   1      34.486  33.024  32.351  1.00  0.00     0.261 C 
BRANCH  31  32
ATOM     32  O   UNL A   1      35.440  31.951  32.295  1.00  0.00    -0.460 OA
BRANCH  32  33
ATOM     33  C   UNL A   1      36.519  32.095  33.104  1.00  0.00     0.338 C 
ATOM     34  O   UNL A   1      36.521  32.289  34.310  1.00  0.00    -0.246 OA
BRANCH  33  35
ATOM     35  C   UNL A   1      37.740  31.779  32.340  1.00  0.00     0.060 A 
ATOM     36  C   UNL A   1      38.878  31.274  32.969  1.00  0.00     0.016 A 
ATOM     37  C   UNL A   1      37.723  31.980  30.952  1.00  0.00     0.016 A 
ATOM     38  C   UNL A   1      39.996  30.948  32.199  1.00  0.00     0.010 A 
ATOM     39  C   UNL A   1      38.841  31.651  30.185  1.00  0.00     0.010 A 
ATOM     40  C   UNL A   1      39.981  31.116  30.801  1.00  0.00    -0.014 A 
BRANCH  40  41
ATOM     41  C   UNL A   1      41.114  30.619  29.983  1.00  0.00     0.031 A 
ATOM     42  C   UNL A   1      42.283  31.496  29.643  1.00  0.00     0.074 A 
ATOM     43  C   UNL A   1      41.076  29.348  29.539  1.00  0.00     0.049 A 
ATOM     44  N   UNL A   1      43.388  31.186  29.011  1.00  0.00    -0.248 NA
ATOM     45  C   UNL A   1      42.199  32.903  30.058  1.00  0.00     0.031 C 
ATOM     46  C   UNL A   1      39.974  28.412  29.769  1.00  0.00     0.029 A 
ATOM     47  N   UNL A   1      41.985  28.623  28.814  1.00  0.00    -0.354 N 
ATOM     48  C   UNL A   1      44.143  32.351  28.971  1.00  0.00     0.074 A 
ATOM     49  C   UNL A   1      43.343  33.387  29.593  1.00  0.00     0.031 C 
ATOM     50  C   UNL A   1      40.288  27.226  29.227  1.00  0.00     0.029 A 
ATOM     51  C   UNL A   1      41.594  27.327  28.585  1.00  0.00     0.049 A 
ATOM     52  H   UNL A   1      42.836  28.996  28.489  1.00  0.00     0.167 HD
ATOM     53  C   UNL A   1      45.392  32.532  28.480  1.00  0.00     0.037 A 
ATOM     54  C   UNL A   1      42.219  26.331  27.930  1.00  0.00     0.037 A 
ATOM     55  C   UNL A   1      46.171  31.505  27.831  1.00  0.00     0.049 A 
ATOM     56  C   UNL A   1      43.578  26.580  27.337  1.00  0.00     0.074 A 
ATOM     57  C   UNL A   1      47.458  31.585  27.326  1.00  0.00     0.029 A 
ATOM     58  N   UNL A   1      45.725  30.216  27.574  1.00  0.00    -0.354 N 
ATOM     59  N   UNL A   1      44.318  27.661  27.385  1.00  0.00    -0.248 NA
ATOM     60  C   UNL A   1      44.190  25.465  26.602  1.00  0.00     0.031 C 
ATOM     61  C   UNL A   1      47.769  30.366  26.712  1.00  0.00     0.029 A 
ATOM     62  C   UNL A   1      46.699  29.503  26.890  1.00  0.00     0.049 A 
ATOM     63  H   UNL A   1      44.847  29.860  27.839  1.00  0.00     0.167 HD
ATOM     64  C   UNL A   1      45.492  27.347  26.713  1.00  0.00     0.074 A 
ATOM     65  C   UNL A   1      45.374  25.967  26.289  1.00  0.00     0.031 C 
ATOM     66  C   UNL A   1      46.571  28.131  26.466  1.00  0.00     0.037 A 
BRANCH  53  67
ATOM     67  C   UNL A   1      45.994  33.902  28.618  1.00  0.00     0.057 A 
ATOM     68  C   UNL A   1      45.779  34.886  27.644  1.00  0.00     0.134 A 
ATOM     69  C   UNL A   1      46.817  34.241  29.702  1.00  0.00     0.134 A 
ATOM     70  F   UNL A   1      45.014  34.629  26.572  1.00  0.00    -0.206 F 
ATOM     71  C   UNL A   1      46.353  36.156  27.745  1.00  0.00     0.040 A 
ATOM     72  C   UNL A   1      47.372  35.515  29.830  1.00  0.00     0.040 A 
ATOM     73  F   UNL A   1      47.063  33.348  30.673  1.00  0.00    -0.206 F 
ATOM     74  C   UNL A   1      47.144  36.475  28.847  1.00  0.00     0.006 A 
ENDBRANCH  53  67
BRANCH  54  75
ATOM     75  C   UNL A   1      41.578  24.998  27.807  1.00  0.00     0.057 A 
ATOM     76  C   UNL A   1      40.547  24.766  26.888  1.00  0.00     0.134 A 
ATOM     77  C   UNL A   1      42.009  23.913  28.579  1.00  0.00     0.134 A 
ATOM     78  F   UNL A   1      40.082  25.765  26.124  1.00  0.00    -0.206 F 
ATOM     79  C   UNL A   1      39.971  23.503  26.739  1.00  0.00     0.040 A 
ATOM     80  C   UNL A   1      41.464  22.637  28.419  1.00  0.00     0.040 A 
ATOM     81  F   UNL A   1      43.004  24.067  29.465  1.00  0.00    -0.206 F 
ATOM     82  C   UNL A   1      40.439  22.432  27.497  1.00  0.00     0.006 A 
ENDBRANCH  54  75
BRANCH  66  83
ATOM     83  C   UNL A   1      47.720  27.498  25.731  1.00  0.00     0.057 A 
ATOM     84  C   UNL A   1      48.750  26.859  26.432  1.00  0.00     0.134 A 
ATOM     85  C   UNL A   1      47.812  27.520  24.332  1.00  0.00     0.134 A 
ATOM     86  F   UNL A   1      48.733  26.806  27.773  1.00  0.00    -0.206 F 
ATOM     87  C   UNL A   1      49.826  26.262  25.771  1.00  0.00     0.040 A 
ATOM     88  C   UNL A   1      48.864  26.898  23.658  1.00  0.00     0.040 A 
ATOM     89  F   UNL A   1      46.851  28.102  23.597  1.00  0.00    -0.206 F 
ATOM     90  C   UNL A   1      49.878  26.271  24.379  1.00  0.00     0.006 A 
ENDBRANCH  66  83
ENDBRANCH  40  41
ENDBRANCH  33  35
ENDBRANCH  32  33
ENDBRANCH  31  32
ENDBRANCH  30  31
ENDBRANCH  29  30
ENDBRANCH   1  29
TORSDOF 18
ENDMDL
