MODEL 1
REMARK VINA RESULT:     -12.2      0.000      0.000
REMARK SMILES CCc1cc(S(F)(F)(F)(F)F)cc2c1O[C@@H](C(F)(F)F)C(C(=O)OCCOCCOC(=O)c1ccc(-c3c4nc(c(-c5c(F)cccc5F)c5ccc([nH]5)c(-c5c(F)cccc5F)c5nc(c(-c6c(F)cccc6F)c6ccc3[nH]6)C=C5)C=C4)cc1)=C2
REMARK SMILES IDX 28 1 27 2 26 3 25 4 24 5 22 6 23 7 21 8 3 9 4 10 14 11 5 12
REMARK SMILES IDX 13 13 15 14 12 15 87 16 16 17 2 18 1 19 6 20 7 21 8 22 9 23
REMARK SMILES IDX 10 24 11 25 17 26 18 27 19 28 20 29 29 30 30 31 31 32 32 33
REMARK SMILES IDX 33 34 34 35 86 36 35 37 85 38 36 39 37 40 38 41 79 42 39 43
REMARK SMILES IDX 84 44 78 45 80 46 40 47 83 48 77 49 76 50 41 52 67 53 50 54
REMARK SMILES IDX 66 55 51 56 54 57 65 58 81 59 52 60 53 61 64 63 82 64 55 65
REMARK SMILES IDX 42 66 43 67 48 68 44 69 45 70 47 71 49 72 46 73 68 74 69 75
REMARK SMILES IDX 74 76 70 77 71 78 73 79 75 80 72 81 56 82 57 83 62 84 58 85
REMARK SMILES IDX 59 86 61 87 63 88 60 89
REMARK H PARENT 80 51 54 62
REMARK Flexibility Score: inf
ROOT
ATOM      1  C   UNL A   1      32.003  28.788  23.773  1.00  0.00     0.202 C 
ENDROOT
BRANCH   1   2
ATOM      2  O   UNL A   1      30.984  28.130  24.510  1.00  0.00    -0.374 OA
BRANCH   2   3
ATOM      3  C   UNL A   1      30.102  27.470  23.613  1.00  0.00     0.202 C 
BRANCH   3   4
ATOM      4  C   UNL A   1      29.418  26.318  24.329  1.00  0.00     0.261 C 
BRANCH   4   5
ATOM      5  O   UNL A   1      30.252  25.169  24.283  1.00  0.00    -0.460 OA
BRANCH   5   6
ATOM      6  C   UNL A   1      30.704  24.572  25.489  1.00  0.00     0.338 C 
ATOM      7  O   UNL A   1      30.160  24.882  26.595  1.00  0.00    -0.246 OA
BRANCH   6   8
ATOM      8  C   UNL A   1      31.838  23.560  25.457  1.00  0.00     0.087 C 
ATOM      9  C   UNL A   1      35.080  20.983  24.915  1.00  0.00    -0.004 A 
ATOM     10  C   UNL A   1      34.863  19.630  24.725  1.00  0.00     0.032 A 
ATOM     11  C   UNL A   1      33.995  21.815  25.037  1.00  0.00     0.131 A 
ATOM     12  C   UNL A   1      33.591  19.124  24.656  1.00  0.00     0.108 A 
ATOM     13  C   UNL A   1      32.697  21.337  24.990  1.00  0.00     0.019 A 
ATOM     14  O   UNL A   1      34.225  23.168  25.111  1.00  0.00    -0.475 OA
ATOM     15  C   UNL A   1      32.514  19.974  24.795  1.00  0.00     0.036 A 
ATOM     16  C   UNL A   1      31.617  22.304  25.091  1.00  0.00     0.027 C 
ATOM     17  C   UNL A   1      33.254  23.967  25.844  1.00  0.00     0.316 C 
BRANCH   9  18
ATOM     18  C   UNL A   1      36.496  21.526  25.021  1.00  0.00     0.036 C 
ATOM     19  C   UNL A   1      37.490  20.388  24.854  1.00  0.00     0.009 C 
ENDBRANCH   9  18
BRANCH  12  20
ATOM     20  S   UNL A   1      33.328  17.354  24.385  1.00  0.00     0.310 S 
ATOM     21  F   UNL A   1      34.882  17.038  24.448  1.00  0.00    -0.094 F 
ATOM     22  F   UNL A   1      33.514  17.611  22.842  1.00  0.00    -0.094 F 
ATOM     23  F   UNL A   1      33.093  15.838  24.132  1.00  0.00    -0.094 F 
ATOM     24  F   UNL A   1      33.285  17.093  25.942  1.00  0.00    -0.094 F 
ATOM     25  F   UNL A   1      33.678  18.871  24.663  1.00  0.00    -0.094 F 
ENDBRANCH  12  20
BRANCH  17  26
ATOM     26  C   UNL A   1      33.460  25.433  25.503  1.00  0.00     0.430 C 
ATOM     27  F   UNL A   1      32.746  26.186  26.334  1.00  0.00    -0.167 F 
ATOM     28  F   UNL A   1      34.749  25.740  25.624  1.00  0.00    -0.167 F 
ATOM     29  F   UNL A   1      33.066  25.657  24.252  1.00  0.00    -0.167 F 
ENDBRANCH  17  26
ENDBRANCH   6   8
ENDBRANCH   5   6
ENDBRANCH   4   5
ENDBRANCH   3   4
ENDBRANCH   2   3
ENDBRANCH   1   2
BRANCH   1  30
ATOM     30  C   UNL A   1      33.064  29.309  24.729  1.00  0.00     0.261 C 
BRANCH  30  31
ATOM     31  O   UNL A   1      32.470  29.584  25.990  1.00  0.00    -0.460 OA
BRANCH  31  32
ATOM     32  C   UNL A   1      32.959  30.654  26.786  1.00  0.00     0.338 C 
ATOM     33  O   UNL A   1      32.261  31.703  26.938  1.00  0.00    -0.246 OA
BRANCH  32  34
ATOM     34  C   UNL A   1      34.320  30.542  27.455  1.00  0.00     0.060 A 
ATOM     35  C   UNL A   1      34.964  31.712  27.821  1.00  0.00     0.016 A 
ATOM     36  C   UNL A   1      34.839  29.353  27.737  1.00  0.00     0.016 A 
ATOM     37  C   UNL A   1      36.305  31.524  28.234  1.00  0.00     0.010 A 
ATOM     38  C   UNL A   1      36.103  29.249  28.266  1.00  0.00     0.010 A 
ATOM     39  C   UNL A   1      36.820  30.363  28.598  1.00  0.00    -0.014 A 
BRANCH  39  40
ATOM     40  C   UNL A   1      38.141  30.274  29.346  1.00  0.00     0.031 A 
ATOM     41  C   UNL A   1      39.203  29.581  28.765  1.00  0.00     0.074 A 
ATOM     42  C   UNL A   1      38.179  30.831  30.612  1.00  0.00     0.049 A 
ATOM     43  N   UNL A   1      40.413  29.363  29.284  1.00  0.00    -0.248 NA
ATOM     44  C   UNL A   1      39.153  28.958  27.434  1.00  0.00     0.031 C 
ATOM     45  C   UNL A   1      37.113  31.540  31.202  1.00  0.00     0.029 A 
ATOM     46  N   UNL A   1      39.220  30.806  31.515  1.00  0.00    -0.354 N 
ATOM     47  C   UNL A   1      41.168  28.677  28.423  1.00  0.00     0.074 A 
ATOM     48  C   UNL A   1      40.365  28.401  27.223  1.00  0.00     0.031 C 
ATOM     49  C   UNL A   1      37.502  31.927  32.445  1.00  0.00     0.029 A 
ATOM     50  C   UNL A   1      38.816  31.468  32.654  1.00  0.00     0.049 A 
ATOM     51  H   UNL A   1      40.099  30.389  31.370  1.00  0.00     0.167 HD
ATOM     52  C   UNL A   1      42.493  28.272  28.590  1.00  0.00     0.037 A 
ATOM     53  C   UNL A   1      39.538  31.667  33.820  1.00  0.00     0.037 A 
ATOM     54  C   UNL A   1      43.229  28.510  29.740  1.00  0.00     0.049 A 
ATOM     55  C   UNL A   1      40.845  31.212  34.010  1.00  0.00     0.074 A 
ATOM     56  C   UNL A   1      44.569  28.115  29.922  1.00  0.00     0.029 A 
ATOM     57  N   UNL A   1      42.818  29.149  30.889  1.00  0.00    -0.354 N 
ATOM     58  N   UNL A   1      41.612  30.560  33.134  1.00  0.00    -0.248 NA
ATOM     59  C   UNL A   1      41.608  31.389  35.253  1.00  0.00     0.031 C 
ATOM     60  C   UNL A   1      44.957  28.503  31.166  1.00  0.00     0.029 A 
ATOM     61  C   UNL A   1      43.866  29.145  31.782  1.00  0.00     0.049 A 
ATOM     62  H   UNL A   1      41.928  29.541  31.044  1.00  0.00     0.167 HD
ATOM     63  C   UNL A   1      42.807  30.307  33.669  1.00  0.00     0.074 A 
ATOM     64  C   UNL A   1      42.820  30.831  35.043  1.00  0.00     0.031 C 
ATOM     65  C   UNL A   1      43.891  29.665  33.068  1.00  0.00     0.037 A 
BRANCH  52  66
ATOM     66  C   UNL A   1      43.166  27.529  27.448  1.00  0.00     0.057 A 
ATOM     67  C   UNL A   1      43.848  28.266  26.495  1.00  0.00     0.134 A 
ATOM     68  C   UNL A   1      43.129  26.203  27.397  1.00  0.00     0.134 A 
ATOM     69  F   UNL A   1      44.127  29.559  26.638  1.00  0.00    -0.206 F 
ATOM     70  C   UNL A   1      44.224  27.519  25.353  1.00  0.00     0.040 A 
ATOM     71  C   UNL A   1      43.637  25.530  26.313  1.00  0.00     0.040 A 
ATOM     72  F   UNL A   1      42.595  25.520  28.406  1.00  0.00    -0.206 F 
ATOM     73  C   UNL A   1      44.273  26.199  25.304  1.00  0.00     0.006 A 
ENDBRANCH  52  66
BRANCH  53  74
ATOM     74  C   UNL A   1      38.871  32.425  34.956  1.00  0.00     0.057 A 
ATOM     75  C   UNL A   1      38.959  33.808  34.978  1.00  0.00     0.134 A 
ATOM     76  C   UNL A   1      38.253  31.760  35.925  1.00  0.00     0.134 A 
ATOM     77  F   UNL A   1      39.337  34.527  33.924  1.00  0.00    -0.206 F 
ATOM     78  C   UNL A   1      38.613  34.385  36.222  1.00  0.00     0.040 A 
ATOM     79  C   UNL A   1      37.818  32.411  37.054  1.00  0.00     0.040 A 
ATOM     80  F   UNL A   1      38.053  30.451  35.801  1.00  0.00    -0.206 F 
ATOM     81  C   UNL A   1      37.928  33.768  37.169  1.00  0.00     0.006 A 
ENDBRANCH  53  74
BRANCH  65  82
ATOM     82  C   UNL A   1      45.175  29.527  33.869  1.00  0.00     0.057 A 
ATOM     83  C   UNL A   1      46.088  30.567  33.789  1.00  0.00     0.134 A 
ATOM     84  C   UNL A   1      45.375  28.496  34.680  1.00  0.00     0.134 A 
ATOM     85  F   UNL A   1      45.817  31.725  33.194  1.00  0.00    -0.206 F 
ATOM     86  C   UNL A   1      47.332  30.283  34.398  1.00  0.00     0.040 A 
ATOM     87  C   UNL A   1      46.566  28.353  35.350  1.00  0.00     0.040 A 
ATOM     88  F   UNL A   1      44.414  27.591  34.847  1.00  0.00    -0.206 F 
ATOM     89  C   UNL A   1      47.536  29.313  35.271  1.00  0.00     0.006 A 
ENDBRANCH  65  82
ENDBRANCH  39  40
ENDBRANCH  32  34
ENDBRANCH  31  32
ENDBRANCH  30  31
ENDBRANCH   1  30
TORSDOF 17
ENDMDL
MODEL 2
REMARK VINA RESULT:     -12.1      2.837      7.955
REMARK SMILES CCc1cc(S(F)(F)(F)(F)F)cc2c1O[C@@H](C(F)(F)F)C(C(=O)OCCOCCOC(=O)c1ccc(-c3c4nc(c(-c5c(F)cccc5F)c5ccc([nH]5)c(-c5c(F)cccc5F)c5nc(c(-c6c(F)cccc6F)c6ccc3[nH]6)C=C5)C=C4)cc1)=C2
REMARK SMILES IDX 28 1 27 2 26 3 25 4 24 5 22 6 23 7 21 8 3 9 4 10 14 11 5 12
REMARK SMILES IDX 13 13 15 14 12 15 87 16 16 17 2 18 1 19 6 20 7 21 8 22 9 23
REMARK SMILES IDX 10 24 11 25 17 26 18 27 19 28 20 29 29 30 30 31 31 32 32 33
REMARK SMILES IDX 33 34 34 35 86 36 35 37 85 38 36 39 37 40 38 41 79 42 39 43
REMARK SMILES IDX 84 44 78 45 80 46 40 47 83 48 77 49 76 50 41 52 67 53 50 54
REMARK SMILES IDX 66 55 51 56 54 57 65 58 81 59 52 60 53 61 64 63 82 64 55 65
REMARK SMILES IDX 42 66 43 67 48 68 44 69 45 70 47 71 49 72 46 73 68 74 69 75
REMARK SMILES IDX 74 76 70 77 71 78 73 79 75 80 72 81 56 82 57 83 62 84 58 85
REMARK SMILES IDX 59 86 61 87 63 88 60 89
REMARK H PARENT 80 51 54 62
REMARK Flexibility Score: inf
ROOT
ATOM      1  C   UNL A   1      42.105  20.622  26.093  1.00  0.00     0.202 C 
ENDROOT
BRANCH   1   2
ATOM      2  O   UNL A   1      41.109  21.306  26.838  1.00  0.00    -0.374 OA
BRANCH   2   3
ATOM      3  C   UNL A   1      39.823  20.900  26.391  1.00  0.00     0.202 C 
BRANCH   3   4
ATOM      4  C   UNL A   1      39.090  22.094  25.803  1.00  0.00     0.261 C 
BRANCH   4   5
ATOM      5  O   UNL A   1      37.691  21.920  25.968  1.00  0.00    -0.460 OA
BRANCH   5   6
ATOM      6  C   UNL A   1      36.796  22.394  24.973  1.00  0.00     0.338 C 
ATOM      7  O   UNL A   1      37.056  22.210  23.743  1.00  0.00    -0.246 OA
BRANCH   6   8
ATOM      8  C   UNL A   1      35.524  23.121  25.380  1.00  0.00     0.087 C 
ATOM      9  C   UNL A   1      31.842  24.978  26.042  1.00  0.00    -0.004 A 
ATOM     10  C   UNL A   1      31.769  26.357  26.122  1.00  0.00     0.032 A 
ATOM     11  C   UNL A   1      33.055  24.397  25.771  1.00  0.00     0.131 A 
ATOM     12  C   UNL A   1      32.882  27.133  25.932  1.00  0.00     0.108 A 
ATOM     13  C   UNL A   1      34.204  25.148  25.590  1.00  0.00     0.019 A 
ATOM     14  O   UNL A   1      33.091  23.036  25.582  1.00  0.00    -0.475 OA
ATOM     15  C   UNL A   1      34.095  26.530  25.674  1.00  0.00     0.036 A 
ATOM     16  C   UNL A   1      35.431  24.439  25.269  1.00  0.00     0.027 C 
ATOM     17  C   UNL A   1      34.328  22.350  25.924  1.00  0.00     0.316 C 
BRANCH   9  18
ATOM     18  C   UNL A   1      30.606  24.128  26.286  1.00  0.00     0.036 C 
ATOM     19  C   UNL A   1      29.417  25.031  26.574  1.00  0.00     0.009 C 
ENDBRANCH   9  18
BRANCH  12  20
ATOM     20  S   UNL A   1      32.760  28.937  26.019  1.00  0.00     0.310 S 
ATOM     21  F   UNL A   1      34.336  29.115  26.064  1.00  0.00    -0.094 F 
ATOM     22  F   UNL A   1      32.797  28.817  27.589  1.00  0.00    -0.094 F 
ATOM     23  F   UNL A   1      32.644  30.485  26.112  1.00  0.00    -0.094 F 
ATOM     24  F   UNL A   1      32.865  29.048  24.446  1.00  0.00    -0.094 F 
ATOM     25  F   UNL A   1      32.992  27.377  25.910  1.00  0.00    -0.094 F 
ENDBRANCH  12  20
BRANCH  17  26
ATOM     26  C   UNL A   1      34.310  20.961  25.308  1.00  0.00     0.430 C 
ATOM     27  F   UNL A   1      34.186  21.063  23.988  1.00  0.00    -0.167 F 
ATOM     28  F   UNL A   1      35.445  20.332  25.599  1.00  0.00    -0.167 F 
ATOM     29  F   UNL A   1      33.283  20.272  25.798  1.00  0.00    -0.167 F 
ENDBRANCH  17  26
ENDBRANCH   6   8
ENDBRANCH   5   6
ENDBRANCH   4   5
ENDBRANCH   3   4
ENDBRANCH   2   3
ENDBRANCH   1   2
BRANCH   1  30
ATOM     30  C   UNL A   1      43.223  21.588  25.736  1.00  0.00     0.261 C 
BRANCH  30  31
ATOM     31  O   UNL A   1      42.672  22.743  25.120  1.00  0.00    -0.460 OA
BRANCH  31  32
ATOM     32  C   UNL A   1      43.326  23.997  25.249  1.00  0.00     0.338 C 
ATOM     33  O   UNL A   1      44.260  24.312  24.448  1.00  0.00    -0.246 OA
BRANCH  32  34
ATOM     34  C   UNL A   1      42.908  24.961  26.347  1.00  0.00     0.060 A 
ATOM     35  C   UNL A   1      41.921  24.556  27.229  1.00  0.00     0.016 A 
ATOM     36  C   UNL A   1      43.524  26.129  26.492  1.00  0.00     0.016 A 
ATOM     37  C   UNL A   1      41.447  25.587  28.075  1.00  0.00     0.010 A 
ATOM     38  C   UNL A   1      43.093  27.035  27.431  1.00  0.00     0.010 A 
ATOM     39  C   UNL A   1      42.083  26.724  28.298  1.00  0.00    -0.014 A 
BRANCH  39  40
ATOM     40  C   UNL A   1      41.710  27.635  29.456  1.00  0.00     0.031 A 
ATOM     41  C   UNL A   1      42.406  27.520  30.660  1.00  0.00     0.074 A 
ATOM     42  C   UNL A   1      40.633  28.482  29.261  1.00  0.00     0.049 A 
ATOM     43  N   UNL A   1      42.196  28.199  31.789  1.00  0.00    -0.248 NA
ATOM     44  C   UNL A   1      43.529  26.596  30.879  1.00  0.00     0.031 C 
ATOM     45  C   UNL A   1      39.931  28.610  28.046  1.00  0.00     0.029 A 
ATOM     46  N   UNL A   1      40.053  29.334  30.175  1.00  0.00    -0.354 N 
ATOM     47  C   UNL A   1      43.076  27.827  32.722  1.00  0.00     0.074 A 
ATOM     48  C   UNL A   1      43.941  26.786  32.151  1.00  0.00     0.031 C 
ATOM     49  C   UNL A   1      38.935  29.516  28.229  1.00  0.00     0.029 A 
ATOM     50  C   UNL A   1      38.998  29.972  29.559  1.00  0.00     0.049 A 
ATOM     51  H   UNL A   1      40.341  29.465  31.107  1.00  0.00     0.167 HD
ATOM     52  C   UNL A   1      43.191  28.317  34.024  1.00  0.00     0.037 A 
ATOM     53  C   UNL A   1      38.128  30.899  30.111  1.00  0.00     0.037 A 
ATOM     54  C   UNL A   1      42.347  29.276  34.561  1.00  0.00     0.049 A 
ATOM     55  C   UNL A   1      38.207  31.346  31.431  1.00  0.00     0.074 A 
ATOM     56  C   UNL A   1      42.455  29.786  35.869  1.00  0.00     0.029 A 
ATOM     57  N   UNL A   1      41.278  29.895  33.953  1.00  0.00    -0.354 N 
ATOM     58  N   UNL A   1      39.111  31.003  32.351  1.00  0.00    -0.248 NA
ATOM     59  C   UNL A   1      37.270  32.303  32.036  1.00  0.00     0.031 C 
ATOM     60  C   UNL A   1      41.459  30.693  36.051  1.00  0.00     0.029 A 
ATOM     61  C   UNL A   1      40.712  30.764  34.859  1.00  0.00     0.049 A 
ATOM     62  H   UNL A   1      40.971  29.743  33.030  1.00  0.00     0.167 HD
ATOM     63  C   UNL A   1      38.875  31.652  33.492  1.00  0.00     0.074 A 
ATOM     64  C   UNL A   1      37.683  32.493  33.309  1.00  0.00     0.031 C 
ATOM     65  C   UNL A   1      39.606  31.581  34.679  1.00  0.00     0.037 A 
BRANCH  52  66
ATOM     66  C   UNL A   1      44.304  27.768  34.900  1.00  0.00     0.057 A 
ATOM     67  C   UNL A   1      45.527  28.416  34.896  1.00  0.00     0.134 A 
ATOM     68  C   UNL A   1      44.085  26.714  35.679  1.00  0.00     0.134 A 
ATOM     69  F   UNL A   1      45.715  29.608  34.335  1.00  0.00    -0.206 F 
ATOM     70  C   UNL A   1      46.560  27.697  35.542  1.00  0.00     0.040 A 
ATOM     71  C   UNL A   1      45.114  26.145  36.389  1.00  0.00     0.040 A 
ATOM     72  F   UNL A   1      42.859  26.208  35.773  1.00  0.00    -0.206 F 
ATOM     73  C   UNL A   1      46.364  26.698  36.384  1.00  0.00     0.006 A 
ENDBRANCH  52  66
BRANCH  53  74
ATOM     74  C   UNL A   1      37.025  31.461  29.228  1.00  0.00     0.057 A 
ATOM     75  C   UNL A   1      37.179  32.731  28.697  1.00  0.00     0.134 A 
ATOM     76  C   UNL A   1      35.922  30.753  29.012  1.00  0.00     0.134 A 
ATOM     77  F   UNL A   1      38.345  33.370  28.671  1.00  0.00    -0.206 F 
ATOM     78  C   UNL A   1      35.983  33.288  28.187  1.00  0.00     0.040 A 
ATOM     79  C   UNL A   1      34.839  31.319  28.385  1.00  0.00     0.040 A 
ATOM     80  F   UNL A   1      35.867  29.484  29.406  1.00  0.00    -0.206 F 
ATOM     81  C   UNL A   1      34.901  32.591  27.888  1.00  0.00     0.006 A 
ENDBRANCH  53  74
BRANCH  65  82
ATOM     82  C   UNL A   1      39.164  32.452  35.844  1.00  0.00     0.057 A 
ATOM     83  C   UNL A   1      39.640  33.752  35.881  1.00  0.00     0.134 A 
ATOM     84  C   UNL A   1      38.288  32.013  36.740  1.00  0.00     0.134 A 
ATOM     85  F   UNL A   1      40.309  34.308  34.875  1.00  0.00    -0.206 F 
ATOM     86  C   UNL A   1      39.348  34.435  37.085  1.00  0.00     0.040 A 
ATOM     87  C   UNL A   1      37.946  32.789  37.821  1.00  0.00     0.040 A 
ATOM     88  F   UNL A   1      37.738  30.811  36.591  1.00  0.00    -0.206 F 
ATOM     89  C   UNL A   1      38.425  34.062  37.953  1.00  0.00     0.006 A 
ENDBRANCH  65  82
ENDBRANCH  39  40
ENDBRANCH  32  34
ENDBRANCH  31  32
ENDBRANCH  30  31
ENDBRANCH   1  30
TORSDOF 17
ENDMDL
MODEL 3
REMARK VINA RESULT:     -12.1      2.510      6.523
REMARK SMILES CCc1cc(S(F)(F)(F)(F)F)cc2c1O[C@@H](C(F)(F)F)C(C(=O)OCCOCCOC(=O)c1ccc(-c3c4nc(c(-c5c(F)cccc5F)c5ccc([nH]5)c(-c5c(F)cccc5F)c5nc(c(-c6c(F)cccc6F)c6ccc3[nH]6)C=C5)C=C4)cc1)=C2
REMARK SMILES IDX 28 1 27 2 26 3 25 4 24 5 22 6 23 7 21 8 3 9 4 10 14 11 5 12
REMARK SMILES IDX 13 13 15 14 12 15 87 16 16 17 2 18 1 19 6 20 7 21 8 22 9 23
REMARK SMILES IDX 10 24 11 25 17 26 18 27 19 28 20 29 29 30 30 31 31 32 32 33
REMARK SMILES IDX 33 34 34 35 86 36 35 37 85 38 36 39 37 40 38 41 79 42 39 43
REMARK SMILES IDX 84 44 78 45 80 46 40 47 83 48 77 49 76 50 41 52 67 53 50 54
REMARK SMILES IDX 66 55 51 56 54 57 65 58 81 59 52 60 53 61 64 63 82 64 55 65
REMARK SMILES IDX 42 66 43 67 48 68 44 69 45 70 47 71 49 72 46 73 68 74 69 75
REMARK SMILES IDX 74 76 70 77 71 78 73 79 75 80 72 81 56 82 57 83 62 84 58 85
REMARK SMILES IDX 59 86 61 87 63 88 60 89
REMARK H PARENT 80 51 54 62
REMARK Flexibility Score: inf
ROOT
ATOM      1  C   UNL A   1      31.424  32.434  26.606  1.00  0.00     0.202 C 
ENDROOT
BRANCH   1   2
ATOM      2  O   UNL A   1      31.450  31.032  26.833  1.00  0.00    -0.374 OA
BRANCH   2   3
ATOM      3  C   UNL A   1      32.798  30.587  26.891  1.00  0.00     0.202 C 
BRANCH   3   4
ATOM      4  C   UNL A   1      33.031  29.536  25.819  1.00  0.00     0.261 C 
BRANCH   4   5
ATOM      5  O   UNL A   1      31.846  28.776  25.634  1.00  0.00    -0.460 OA
BRANCH   5   6
ATOM      6  C   UNL A   1      31.721  27.500  26.242  1.00  0.00     0.338 C 
ATOM      7  O   UNL A   1      31.149  27.386  27.372  1.00  0.00    -0.246 OA
BRANCH   6   8
ATOM      8  C   UNL A   1      32.270  26.267  25.541  1.00  0.00     0.087 C 
ATOM      9  C   UNL A   1      33.430  22.615  23.880  1.00  0.00    -0.004 A 
ATOM     10  C   UNL A   1      34.675  22.087  24.173  1.00  0.00     0.032 A 
ATOM     11  C   UNL A   1      33.053  23.790  24.481  1.00  0.00     0.131 A 
ATOM     12  C   UNL A   1      35.518  22.718  25.049  1.00  0.00     0.108 A 
ATOM     13  C   UNL A   1      33.886  24.464  25.357  1.00  0.00     0.019 A 
ATOM     14  O   UNL A   1      31.773  24.242  24.269  1.00  0.00    -0.475 OA
ATOM     15  C   UNL A   1      35.128  23.905  25.633  1.00  0.00     0.036 A 
ATOM     16  C   UNL A   1      33.379  25.680  25.971  1.00  0.00     0.027 C 
ATOM     17  C   UNL A   1      31.558  25.680  24.330  1.00  0.00     0.316 C 
BRANCH   9  18
ATOM     18  C   UNL A   1      32.517  21.921  22.883  1.00  0.00     0.036 C 
ATOM     19  C   UNL A   1      32.275  20.488  23.329  1.00  0.00     0.009 C 
ENDBRANCH   9  18
BRANCH  12  20
ATOM     20  S   UNL A   1      37.133  21.999  25.437  1.00  0.00     0.310 S 
ATOM     21  F   UNL A   1      37.416  21.630  23.920  1.00  0.00    -0.094 F 
ATOM     22  F   UNL A   1      36.424  20.599  25.575  1.00  0.00    -0.094 F 
ATOM     23  F   UNL A   1      38.511  21.367  25.784  1.00  0.00    -0.094 F 
ATOM     24  F   UNL A   1      37.847  23.381  25.158  1.00  0.00    -0.094 F 
ATOM     25  F   UNL A   1      35.760  22.631  24.973  1.00  0.00    -0.094 F 
ENDBRANCH  12  20
BRANCH  17  26
ATOM     26  C   UNL A   1      30.068  25.953  24.448  1.00  0.00     0.430 C 
ATOM     27  F   UNL A   1      29.416  25.272  23.509  1.00  0.00    -0.167 F 
ATOM     28  F   UNL A   1      29.640  25.572  25.649  1.00  0.00    -0.167 F 
ATOM     29  F   UNL A   1      29.842  27.255  24.289  1.00  0.00    -0.167 F 
ENDBRANCH  17  26
ENDBRANCH   6   8
ENDBRANCH   5   6
ENDBRANCH   4   5
ENDBRANCH   3   4
ENDBRANCH   2   3
ENDBRANCH   1   2
BRANCH   1  30
ATOM     30  C   UNL A   1      32.626  33.077  27.279  1.00  0.00     0.261 C 
BRANCH  30  31
ATOM     31  O   UNL A   1      32.234  34.308  27.870  1.00  0.00    -0.460 OA
BRANCH  31  32
ATOM     32  C   UNL A   1      33.058  34.917  28.853  1.00  0.00     0.338 C 
ATOM     33  O   UNL A   1      32.740  36.046  29.339  1.00  0.00    -0.246 OA
BRANCH  32  34
ATOM     34  C   UNL A   1      34.323  34.216  29.323  1.00  0.00     0.060 A 
ATOM     35  C   UNL A   1      35.509  34.504  28.668  1.00  0.00     0.016 A 
ATOM     36  C   UNL A   1      34.296  33.405  30.374  1.00  0.00     0.016 A 
ATOM     37  C   UNL A   1      36.583  33.654  29.025  1.00  0.00     0.010 A 
ATOM     38  C   UNL A   1      35.419  32.707  30.748  1.00  0.00     0.010 A 
ATOM     39  C   UNL A   1      36.612  32.899  30.109  1.00  0.00    -0.014 A 
BRANCH  39  40
ATOM     40  C   UNL A   1      37.903  32.277  30.616  1.00  0.00     0.031 A 
ATOM     41  C   UNL A   1      38.634  32.943  31.601  1.00  0.00     0.074 A 
ATOM     42  C   UNL A   1      38.316  31.108  30.002  1.00  0.00     0.049 A 
ATOM     43  N   UNL A   1      39.800  32.576  32.136  1.00  0.00    -0.248 NA
ATOM     44  C   UNL A   1      38.214  34.203  32.231  1.00  0.00     0.031 C 
ATOM     45  C   UNL A   1      37.579  30.426  29.014  1.00  0.00     0.029 A 
ATOM     46  N   UNL A   1      39.480  30.405  30.221  1.00  0.00    -0.354 N 
ATOM     47  C   UNL A   1      40.180  33.458  33.064  1.00  0.00     0.074 A 
ATOM     48  C   UNL A   1      39.168  34.520  33.133  1.00  0.00     0.031 C 
ATOM     49  C   UNL A   1      38.294  29.334  28.634  1.00  0.00     0.029 A 
ATOM     50  C   UNL A   1      39.488  29.314  29.378  1.00  0.00     0.049 A 
ATOM     51  H   UNL A   1      40.184  30.640  30.867  1.00  0.00     0.167 HD
ATOM     52  C   UNL A   1      41.329  33.416  33.855  1.00  0.00     0.037 A 
ATOM     53  C   UNL A   1      40.473  28.348  29.251  1.00  0.00     0.037 A 
ATOM     54  C   UNL A   1      42.293  32.425  33.758  1.00  0.00     0.049 A 
ATOM     55  C   UNL A   1      41.651  28.338  30.002  1.00  0.00     0.074 A 
ATOM     56  C   UNL A   1      43.453  32.364  34.553  1.00  0.00     0.029 A 
ATOM     57  N   UNL A   1      42.313  31.349  32.898  1.00  0.00    -0.354 N 
ATOM     58  N   UNL A   1      42.012  29.197  30.957  1.00  0.00    -0.248 NA
ATOM     59  C   UNL A   1      42.716  27.337  29.852  1.00  0.00     0.031 C 
ATOM     60  C   UNL A   1      44.168  31.271  34.173  1.00  0.00     0.029 A 
ATOM     61  C   UNL A   1      43.466  30.633  33.133  1.00  0.00     0.049 A 
ATOM     62  H   UNL A   1      41.623  31.129  32.232  1.00  0.00     0.167 HD
ATOM     63  C   UNL A   1      43.197  28.852  31.462  1.00  0.00     0.074 A 
ATOM     64  C   UNL A   1      43.671  27.655  30.754  1.00  0.00     0.031 C 
ATOM     65  C   UNL A   1      43.902  29.485  32.488  1.00  0.00     0.037 A 
BRANCH  52  66
ATOM     66  C   UNL A   1      41.533  34.518  34.881  1.00  0.00     0.057 A 
ATOM     67  C   UNL A   1      41.076  34.310  36.171  1.00  0.00     0.134 A 
ATOM     68  C   UNL A   1      42.173  35.633  34.548  1.00  0.00     0.134 A 
ATOM     69  F   UNL A   1      40.662  33.126  36.613  1.00  0.00    -0.206 F 
ATOM     70  C   UNL A   1      41.089  35.472  36.978  1.00  0.00     0.040 A 
ATOM     71  C   UNL A   1      42.265  36.677  35.435  1.00  0.00     0.040 A 
ATOM     72  F   UNL A   1      42.731  35.738  33.345  1.00  0.00    -0.206 F 
ATOM     73  C   UNL A   1      41.782  36.564  36.709  1.00  0.00     0.006 A 
ENDBRANCH  52  66
BRANCH  53  74
ATOM     74  C   UNL A   1      40.260  27.236  28.236  1.00  0.00     0.057 A 
ATOM     75  C   UNL A   1      39.579  26.096  28.631  1.00  0.00     0.134 A 
ATOM     76  C   UNL A   1      40.758  27.352  27.011  1.00  0.00     0.134 A 
ATOM     77  F   UNL A   1      38.854  26.033  29.743  1.00  0.00    -0.206 F 
ATOM     78  C   UNL A   1      39.728  25.004  27.744  1.00  0.00     0.040 A 
ATOM     79  C   UNL A   1      40.748  26.283  26.148  1.00  0.00     0.040 A 
ATOM     80  F   UNL A   1      41.272  28.513  26.615  1.00  0.00    -0.206 F 
ATOM     81  C   UNL A   1      40.145  25.106  26.494  1.00  0.00     0.006 A 
ENDBRANCH  53  74
BRANCH  65  82
ATOM     82  C   UNL A   1      45.226  28.880  32.923  1.00  0.00     0.057 A 
ATOM     83  C   UNL A   1      45.185  27.902  33.904  1.00  0.00     0.134 A 
ATOM     84  C   UNL A   1      46.365  29.210  32.327  1.00  0.00     0.134 A 
ATOM     85  F   UNL A   1      44.051  27.363  34.344  1.00  0.00    -0.206 F 
ATOM     86  C   UNL A   1      46.458  27.529  34.394  1.00  0.00     0.040 A 
ATOM     87  C   UNL A   1      47.561  28.701  32.773  1.00  0.00     0.040 A 
ATOM     88  F   UNL A   1      46.349  30.041  31.289  1.00  0.00    -0.206 F 
ATOM     89  C   UNL A   1      47.600  27.775  33.778  1.00  0.00     0.006 A 
ENDBRANCH  65  82
ENDBRANCH  39  40
ENDBRANCH  32  34
ENDBRANCH  31  32
ENDBRANCH  30  31
ENDBRANCH   1  30
TORSDOF 17
ENDMDL
