MODEL 1
REMARK VINA RESULT:     -11.6      0.000      0.000
REMARK SMILES O=C1CN(S(=O)(=O)c2ccc(CC(=O)OCCOCCOC(=O)c3ccc(-c4c5nc(c(-c6c(F)cccc6F)c6ccc([nH]6)c(-c6c(F)cccc6F)c6nc(c(-c7c(F)cccc7F)c7ccc4[nH]7)C=C6)C=C5)cc3)cc2)CCN1
REMARK SMILES IDX 17 1 16 2 15 3 13 4 14 5 12 6 11 7 8 8 9 9 79 10 10 11 78 12
REMARK SMILES IDX 5 13 6 14 7 15 4 16 1 17 2 18 3 19 82 20 81 21 80 23 18 24
REMARK SMILES IDX 19 25 20 26 21 27 22 28 23 29 24 30 25 31 77 32 26 33 76 34
REMARK SMILES IDX 27 35 28 36 29 37 70 38 30 39 75 40 69 41 71 42 31 43 74 44
REMARK SMILES IDX 68 45 67 46 32 48 58 49 41 50 57 51 42 52 45 53 56 54 72 55
REMARK SMILES IDX 43 56 44 57 55 59 73 60 46 61 33 62 34 63 39 64 35 65 36 66
REMARK SMILES IDX 38 67 40 68 37 69 59 70 60 71 65 72 61 73 62 74 64 75 66 76
REMARK SMILES IDX 63 77 47 78 48 79 53 80 49 81 50 82 52 83 54 84 51 85
REMARK H PARENT 82 22 71 47 45 58
REMARK Flexibility Score: inf
ROOT
ATOM      1  C   UNL A   1      44.037  18.863  25.152  1.00  0.00     0.202 C 
ENDROOT
BRANCH   1   2
ATOM      2  C   UNL A   1      42.782  18.822  26.031  1.00  0.00     0.261 C 
BRANCH   2   3
ATOM      3  O   UNL A   1      41.745  19.717  25.587  1.00  0.00    -0.463 OA
BRANCH   3   4
ATOM      4  C   UNL A   1      41.111  20.406  26.572  1.00  0.00     0.310 C 
ATOM      5  O   UNL A   1      40.865  19.953  27.686  1.00  0.00    -0.252 OA
BRANCH   4   6
ATOM      6  C   UNL A   1      40.686  21.807  26.193  1.00  0.00     0.158 C 
BRANCH   6   7
ATOM      7  C   UNL A   1      39.214  22.113  26.016  1.00  0.00    -0.037 A 
ATOM      8  C   UNL A   1      36.509  22.735  25.568  1.00  0.00     0.082 A 
ATOM      9  C   UNL A   1      36.973  21.443  25.315  1.00  0.00     0.022 A 
ATOM     10  C   UNL A   1      37.381  23.708  26.069  1.00  0.00     0.022 A 
ATOM     11  C   UNL A   1      38.322  21.137  25.536  1.00  0.00     0.006 A 
ATOM     12  C   UNL A   1      38.727  23.401  26.279  1.00  0.00     0.006 A 
BRANCH   8  13
ATOM     13  S   UNL A   1      34.769  23.098  25.464  1.00  0.00     0.243 S 
ATOM     14  O   UNL A   1      34.310  22.605  24.181  1.00  0.00    -0.207 OA
ATOM     15  O   UNL A   1      34.588  24.489  25.814  1.00  0.00    -0.207 OA
BRANCH  13  16
ATOM     16  N   UNL A   1      34.022  22.177  26.699  1.00  0.00    -0.187 NA
ATOM     17  O   UNL A   1      32.087  19.796  24.728  1.00  0.00    -0.274 OA
ATOM     18  C   UNL A   1      32.325  20.739  25.478  1.00  0.00     0.235 C 
ATOM     19  C   UNL A   1      33.584  20.802  26.328  1.00  0.00     0.202 C 
ATOM     20  N   UNL A   1      31.391  21.728  25.671  1.00  0.00    -0.354 N 
ATOM     21  C   UNL A   1      31.657  22.965  26.386  1.00  0.00     0.132 C 
ATOM     22  H   UNL A   1      30.489  21.591  25.302  1.00  0.00     0.163 HD
ATOM     23  C   UNL A   1      32.857  22.883  27.342  1.00  0.00     0.124 C 
ENDBRANCH  13  16
ENDBRANCH   8  13
ENDBRANCH   6   7
ENDBRANCH   4   6
ENDBRANCH   3   4
ENDBRANCH   2   3
ENDBRANCH   1   2
BRANCH   1  24
ATOM     24  O   UNL A   1      44.165  19.931  24.220  1.00  0.00    -0.374 OA
BRANCH  24  25
ATOM     25  C   UNL A   1      44.794  21.132  24.659  1.00  0.00     0.202 C 
BRANCH  25  26
ATOM     26  C   UNL A   1      44.464  22.436  23.920  1.00  0.00     0.261 C 
BRANCH  26  27
ATOM     27  O   UNL A   1      43.660  23.342  24.693  1.00  0.00    -0.460 OA
BRANCH  27  28
ATOM     28  C   UNL A   1      44.300  24.486  25.043  1.00  0.00     0.338 C 
ATOM     29  O   UNL A   1      45.372  24.892  24.627  1.00  0.00    -0.246 OA
BRANCH  28  30
ATOM     30  C   UNL A   1      43.433  25.319  25.897  1.00  0.00     0.060 A 
ATOM     31  C   UNL A   1      43.761  26.676  26.008  1.00  0.00     0.016 A 
ATOM     32  C   UNL A   1      42.397  24.771  26.655  1.00  0.00     0.016 A 
ATOM     33  C   UNL A   1      43.103  27.479  26.936  1.00  0.00     0.010 A 
ATOM     34  C   UNL A   1      41.739  25.579  27.589  1.00  0.00     0.010 A 
ATOM     35  C   UNL A   1      42.125  26.921  27.768  1.00  0.00    -0.014 A 
BRANCH  35  36
ATOM     36  C   UNL A   1      41.641  27.699  28.933  1.00  0.00     0.031 A 
ATOM     37  C   UNL A   1      42.388  27.596  30.235  1.00  0.00     0.074 A 
ATOM     38  C   UNL A   1      40.588  28.525  28.819  1.00  0.00     0.049 A 
ATOM     39  N   UNL A   1      42.142  28.174  31.384  1.00  0.00    -0.248 NA
ATOM     40  C   UNL A   1      43.572  26.722  30.245  1.00  0.00     0.031 C 
ATOM     41  C   UNL A   1      39.812  28.742  27.598  1.00  0.00     0.029 A 
ATOM     42  N   UNL A   1      39.987  29.336  29.748  1.00  0.00    -0.354 N 
ATOM     43  C   UNL A   1      43.132  27.726  32.251  1.00  0.00     0.074 A 
ATOM     44  C   UNL A   1      43.961  26.803  31.508  1.00  0.00     0.031 C 
ATOM     45  C   UNL A   1      38.833  29.625  27.856  1.00  0.00     0.029 A 
ATOM     46  C   UNL A   1      38.893  30.009  29.265  1.00  0.00     0.049 A 
ATOM     47  H   UNL A   1      40.311  29.427  30.673  1.00  0.00     0.167 HD
ATOM     48  C   UNL A   1      43.336  28.062  33.547  1.00  0.00     0.037 A 
ATOM     49  C   UNL A   1      38.027  30.825  29.895  1.00  0.00     0.037 A 
ATOM     50  C   UNL A   1      42.507  28.984  34.280  1.00  0.00     0.049 A 
ATOM     51  C   UNL A   1      38.237  31.134  31.354  1.00  0.00     0.074 A 
ATOM     52  C   UNL A   1      42.636  29.403  35.592  1.00  0.00     0.029 A 
ATOM     53  N   UNL A   1      41.391  29.623  33.763  1.00  0.00    -0.354 N 
ATOM     54  N   UNL A   1      39.186  30.723  32.160  1.00  0.00    -0.248 NA
ATOM     55  C   UNL A   1      37.258  32.028  31.990  1.00  0.00     0.031 C 
ATOM     56  C   UNL A   1      41.565  30.253  35.886  1.00  0.00     0.029 A 
ATOM     57  C   UNL A   1      40.806  30.415  34.738  1.00  0.00     0.049 A 
ATOM     58  H   UNL A   1      41.062  29.527  32.840  1.00  0.00     0.167 HD
ATOM     59  C   UNL A   1      38.943  31.336  33.384  1.00  0.00     0.074 A 
ATOM     60  C   UNL A   1      37.760  32.154  33.210  1.00  0.00     0.031 C 
ATOM     61  C   UNL A   1      39.637  31.235  34.545  1.00  0.00     0.037 A 
BRANCH  48  62
ATOM     62  C   UNL A   1      44.483  27.406  34.262  1.00  0.00     0.057 A 
ATOM     63  C   UNL A   1      44.348  26.172  34.911  1.00  0.00     0.134 A 
ATOM     64  C   UNL A   1      45.749  28.007  34.279  1.00  0.00     0.134 A 
ATOM     65  F   UNL A   1      43.160  25.547  34.946  1.00  0.00    -0.206 F 
ATOM     66  C   UNL A   1      45.422  25.572  35.573  1.00  0.00     0.040 A 
ATOM     67  C   UNL A   1      46.837  27.403  34.910  1.00  0.00     0.040 A 
ATOM     68  F   UNL A   1      45.952  29.187  33.673  1.00  0.00    -0.206 F 
ATOM     69  C   UNL A   1      46.673  26.185  35.566  1.00  0.00     0.006 A 
ENDBRANCH  48  62
BRANCH  49  70
ATOM     70  C   UNL A   1      36.877  31.406  29.155  1.00  0.00     0.057 A 
ATOM     71  C   UNL A   1      35.757  30.635  28.825  1.00  0.00     0.134 A 
ATOM     72  C   UNL A   1      36.881  32.745  28.742  1.00  0.00     0.134 A 
ATOM     73  F   UNL A   1      35.703  29.341  29.173  1.00  0.00    -0.206 F 
ATOM     74  C   UNL A   1      34.693  31.166  28.095  1.00  0.00     0.040 A 
ATOM     75  C   UNL A   1      35.810  33.297  28.037  1.00  0.00     0.040 A 
ATOM     76  F   UNL A   1      37.923  33.540  29.028  1.00  0.00    -0.206 F 
ATOM     77  C   UNL A   1      34.715  32.502  27.704  1.00  0.00     0.006 A 
ENDBRANCH  49  70
BRANCH  61  78
ATOM     78  C   UNL A   1      39.171  32.073  35.702  1.00  0.00     0.057 A 
ATOM     79  C   UNL A   1      39.570  33.404  35.870  1.00  0.00     0.134 A 
ATOM     80  C   UNL A   1      38.277  31.542  36.642  1.00  0.00     0.134 A 
ATOM     81  F   UNL A   1      40.431  33.970  35.012  1.00  0.00    -0.206 F 
ATOM     82  C   UNL A   1      39.119  34.170  36.949  1.00  0.00     0.040 A 
ATOM     83  C   UNL A   1      37.795  32.307  37.706  1.00  0.00     0.040 A 
ATOM     84  F   UNL A   1      37.843  30.277  36.535  1.00  0.00    -0.206 F 
ATOM     85  C   UNL A   1      38.224  33.622  37.865  1.00  0.00     0.006 A 
ENDBRANCH  61  78
ENDBRANCH  35  36
ENDBRANCH  28  30
ENDBRANCH  27  28
ENDBRANCH  26  27
ENDBRANCH  25  26
ENDBRANCH  24  25
ENDBRANCH   1  24
TORSDOF 17
ENDMDL
MODEL 2
REMARK VINA RESULT:     -11.2      2.262      2.815
REMARK SMILES O=C1CN(S(=O)(=O)c2ccc(CC(=O)OCCOCCOC(=O)c3ccc(-c4c5nc(c(-c6c(F)cccc6F)c6ccc([nH]6)c(-c6c(F)cccc6F)c6nc(c(-c7c(F)cccc7F)c7ccc4[nH]7)C=C6)C=C5)cc3)cc2)CCN1
REMARK SMILES IDX 17 1 16 2 15 3 13 4 14 5 12 6 11 7 8 8 9 9 79 10 10 11 78 12
REMARK SMILES IDX 5 13 6 14 7 15 4 16 1 17 2 18 3 19 82 20 81 21 80 23 18 24
REMARK SMILES IDX 19 25 20 26 21 27 22 28 23 29 24 30 25 31 77 32 26 33 76 34
REMARK SMILES IDX 27 35 28 36 29 37 70 38 30 39 75 40 69 41 71 42 31 43 74 44
REMARK SMILES IDX 68 45 67 46 32 48 58 49 41 50 57 51 42 52 45 53 56 54 72 55
REMARK SMILES IDX 43 56 44 57 55 59 73 60 46 61 33 62 34 63 39 64 35 65 36 66
REMARK SMILES IDX 38 67 40 68 37 69 59 70 60 71 65 72 61 73 62 74 64 75 66 76
REMARK SMILES IDX 63 77 47 78 48 79 53 80 49 81 50 82 52 83 54 84 51 85
REMARK H PARENT 82 22 71 47 45 58
REMARK Flexibility Score: inf
ROOT
ATOM      1  C   UNL A   1      41.365  20.664  26.540  1.00  0.00     0.202 C 
ENDROOT
BRANCH   1   2
ATOM      2  C   UNL A   1      40.428  21.847  26.266  1.00  0.00     0.261 C 
BRANCH   2   3
ATOM      3  O   UNL A   1      39.034  21.501  26.357  1.00  0.00    -0.463 OA
BRANCH   3   4
ATOM      4  C   UNL A   1      38.167  22.485  25.995  1.00  0.00     0.310 C 
ATOM      5  O   UNL A   1      38.462  23.675  25.920  1.00  0.00    -0.252 OA
BRANCH   4   6
ATOM      6  C   UNL A   1      36.760  22.014  25.705  1.00  0.00     0.158 C 
BRANCH   6   7
ATOM      7  C   UNL A   1      35.811  22.928  24.959  1.00  0.00    -0.037 A 
ATOM      8  C   UNL A   1      34.144  24.719  23.574  1.00  0.00     0.082 A 
ATOM      9  C   UNL A   1      34.842  23.736  22.869  1.00  0.00     0.022 A 
ATOM     10  C   UNL A   1      34.252  24.793  24.967  1.00  0.00     0.022 A 
ATOM     11  C   UNL A   1      35.675  22.848  23.562  1.00  0.00     0.006 A 
ATOM     12  C   UNL A   1      35.091  23.911  25.652  1.00  0.00     0.006 A 
BRANCH   8  13
ATOM     13  S   UNL A   1      32.949  25.741  22.740  1.00  0.00     0.243 S 
ATOM     14  O   UNL A   1      31.804  24.901  22.450  1.00  0.00    -0.207 OA
ATOM     15  O   UNL A   1      33.630  26.432  21.668  1.00  0.00    -0.207 OA
BRANCH  13  16
ATOM     16  N   UNL A   1      32.475  26.932  23.874  1.00  0.00    -0.187 NA
ATOM     17  O   UNL A   1      29.921  28.726  21.987  1.00  0.00    -0.274 OA
ATOM     18  C   UNL A   1      30.990  28.510  22.554  1.00  0.00     0.235 C 
ATOM     19  C   UNL A   1      31.114  27.514  23.697  1.00  0.00     0.202 C 
ATOM     20  N   UNL A   1      32.101  29.258  22.254  1.00  0.00    -0.354 N 
ATOM     21  C   UNL A   1      33.438  28.952  22.733  1.00  0.00     0.132 C 
ATOM     22  H   UNL A   1      31.985  30.049  21.679  1.00  0.00     0.163 HD
ATOM     23  C   UNL A   1      33.459  28.066  23.988  1.00  0.00     0.124 C 
ENDBRANCH  13  16
ENDBRANCH   8  13
ENDBRANCH   6   7
ENDBRANCH   4   6
ENDBRANCH   3   4
ENDBRANCH   2   3
ENDBRANCH   1   2
BRANCH   1  24
ATOM     24  O   UNL A   1      42.452  20.452  25.646  1.00  0.00    -0.374 OA
BRANCH  24  25
ATOM     25  C   UNL A   1      43.646  21.203  25.851  1.00  0.00     0.202 C 
BRANCH  25  26
ATOM     26  C   UNL A   1      44.140  22.104  24.712  1.00  0.00     0.261 C 
BRANCH  26  27
ATOM     27  O   UNL A   1      43.417  23.342  24.608  1.00  0.00    -0.460 OA
BRANCH  27  28
ATOM     28  C   UNL A   1      44.116  24.427  25.025  1.00  0.00     0.338 C 
ATOM     29  O   UNL A   1      45.229  24.773  24.666  1.00  0.00    -0.246 OA
BRANCH  28  30
ATOM     30  C   UNL A   1      43.272  25.287  25.874  1.00  0.00     0.060 A 
ATOM     31  C   UNL A   1      43.657  26.627  26.007  1.00  0.00     0.016 A 
ATOM     32  C   UNL A   1      42.199  24.777  26.607  1.00  0.00     0.016 A 
ATOM     33  C   UNL A   1      43.020  27.447  26.933  1.00  0.00     0.010 A 
ATOM     34  C   UNL A   1      41.561  25.602  27.539  1.00  0.00     0.010 A 
ATOM     35  C   UNL A   1      42.003  26.924  27.741  1.00  0.00    -0.014 A 
BRANCH  35  36
ATOM     36  C   UNL A   1      41.533  27.709  28.908  1.00  0.00     0.031 A 
ATOM     37  C   UNL A   1      42.287  27.602  30.206  1.00  0.00     0.074 A 
ATOM     38  C   UNL A   1      40.486  28.544  28.798  1.00  0.00     0.049 A 
ATOM     39  N   UNL A   1      42.054  28.185  31.354  1.00  0.00    -0.248 NA
ATOM     40  C   UNL A   1      43.464  26.718  30.210  1.00  0.00     0.031 C 
ATOM     41  C   UNL A   1      39.705  28.764  27.581  1.00  0.00     0.029 A 
ATOM     42  N   UNL A   1      39.898  29.362  29.729  1.00  0.00    -0.354 N 
ATOM     43  C   UNL A   1      43.045  27.730  32.216  1.00  0.00     0.074 A 
ATOM     44  C   UNL A   1      43.861  26.798  31.471  1.00  0.00     0.031 C 
ATOM     45  C   UNL A   1      38.735  29.657  27.843  1.00  0.00     0.029 A 
ATOM     46  C   UNL A   1      38.807  30.043  29.251  1.00  0.00     0.049 A 
ATOM     47  H   UNL A   1      40.229  29.453  30.652  1.00  0.00     0.167 HD
ATOM     48  C   UNL A   1      43.260  28.068  33.510  1.00  0.00     0.037 A 
ATOM     49  C   UNL A   1      37.953  30.868  29.884  1.00  0.00     0.037 A 
ATOM     50  C   UNL A   1      42.444  28.998  34.246  1.00  0.00     0.049 A 
ATOM     51  C   UNL A   1      38.175  31.179  31.342  1.00  0.00     0.074 A 
ATOM     52  C   UNL A   1      42.585  29.420  35.556  1.00  0.00     0.029 A 
ATOM     53  N   UNL A   1      41.330  29.647  33.735  1.00  0.00    -0.354 N 
ATOM     54  N   UNL A   1      39.125  30.762  32.143  1.00  0.00    -0.248 NA
ATOM     55  C   UNL A   1      37.208  32.083  31.981  1.00  0.00     0.031 C 
ATOM     56  C   UNL A   1      41.523  30.280  35.855  1.00  0.00     0.029 A 
ATOM     57  C   UNL A   1      40.759  30.446  34.711  1.00  0.00     0.049 A 
ATOM     58  H   UNL A   1      40.995  29.551  32.814  1.00  0.00     0.167 HD
ATOM     59  C   UNL A   1      38.895  31.380  33.366  1.00  0.00     0.074 A 
ATOM     60  C   UNL A   1      37.718  32.208  33.198  1.00  0.00     0.031 C 
ATOM     61  C   UNL A   1      39.596  31.276  34.523  1.00  0.00     0.037 A 
BRANCH  48  62
ATOM     62  C   UNL A   1      44.406  27.404  34.219  1.00  0.00     0.057 A 
ATOM     63  C   UNL A   1      44.291  26.129  34.788  1.00  0.00     0.134 A 
ATOM     64  C   UNL A   1      45.651  28.039  34.312  1.00  0.00     0.134 A 
ATOM     65  F   UNL A   1      43.123  25.468  34.749  1.00  0.00    -0.206 F 
ATOM     66  C   UNL A   1      45.363  25.522  35.446  1.00  0.00     0.040 A 
ATOM     67  C   UNL A   1      46.739  27.430  34.939  1.00  0.00     0.040 A 
ATOM     68  F   UNL A   1      45.834  29.260  33.785  1.00  0.00    -0.206 F 
ATOM     69  C   UNL A   1      46.595  26.170  35.515  1.00  0.00     0.006 A 
ENDBRANCH  48  62
BRANCH  49  70
ATOM     70  C   UNL A   1      36.804  31.458  29.150  1.00  0.00     0.057 A 
ATOM     71  C   UNL A   1      35.663  30.703  28.852  1.00  0.00     0.134 A 
ATOM     72  C   UNL A   1      36.827  32.788  28.711  1.00  0.00     0.134 A 
ATOM     73  F   UNL A   1      35.589  29.417  29.226  1.00  0.00    -0.206 F 
ATOM     74  C   UNL A   1      34.599  31.240  28.127  1.00  0.00     0.040 A 
ATOM     75  C   UNL A   1      35.756  33.347  28.011  1.00  0.00     0.040 A 
ATOM     76  F   UNL A   1      37.889  33.568  28.966  1.00  0.00    -0.206 F 
ATOM     77  C   UNL A   1      34.641  32.569  27.710  1.00  0.00     0.006 A 
ENDBRANCH  49  70
BRANCH  61  78
ATOM     78  C   UNL A   1      39.144  32.120  35.681  1.00  0.00     0.057 A 
ATOM     79  C   UNL A   1      39.539  33.454  35.832  1.00  0.00     0.134 A 
ATOM     80  C   UNL A   1      38.268  31.593  36.640  1.00  0.00     0.134 A 
ATOM     81  F   UNL A   1      40.384  34.018  34.957  1.00  0.00    -0.206 F 
ATOM     82  C   UNL A   1      39.102  34.226  36.913  1.00  0.00     0.040 A 
ATOM     83  C   UNL A   1      37.799  32.364  37.705  1.00  0.00     0.040 A 
ATOM     84  F   UNL A   1      37.839  30.325  36.549  1.00  0.00    -0.206 F 
ATOM     85  C   UNL A   1      38.224  33.682  37.847  1.00  0.00     0.006 A 
ENDBRANCH  61  78
ENDBRANCH  35  36
ENDBRANCH  28  30
ENDBRANCH  27  28
ENDBRANCH  26  27
ENDBRANCH  25  26
ENDBRANCH  24  25
ENDBRANCH   1  24
TORSDOF 17
ENDMDL
MODEL 3
REMARK VINA RESULT:     -10.9      1.187      2.137
REMARK SMILES O=C1CN(S(=O)(=O)c2ccc(CC(=O)OCCOCCOC(=O)c3ccc(-c4c5nc(c(-c6c(F)cccc6F)c6ccc([nH]6)c(-c6c(F)cccc6F)c6nc(c(-c7c(F)cccc7F)c7ccc4[nH]7)C=C6)C=C5)cc3)cc2)CCN1
REMARK SMILES IDX 17 1 16 2 15 3 13 4 14 5 12 6 11 7 8 8 9 9 79 10 10 11 78 12
REMARK SMILES IDX 5 13 6 14 7 15 4 16 1 17 2 18 3 19 82 20 81 21 80 23 18 24
REMARK SMILES IDX 19 25 20 26 21 27 22 28 23 29 24 30 25 31 77 32 26 33 76 34
REMARK SMILES IDX 27 35 28 36 29 37 70 38 30 39 75 40 69 41 71 42 31 43 74 44
REMARK SMILES IDX 68 45 67 46 32 48 58 49 41 50 57 51 42 52 45 53 56 54 72 55
REMARK SMILES IDX 43 56 44 57 55 59 73 60 46 61 33 62 34 63 39 64 35 65 36 66
REMARK SMILES IDX 38 67 40 68 37 69 59 70 60 71 65 72 61 73 62 74 64 75 66 76
REMARK SMILES IDX 63 77 47 78 48 79 53 80 49 81 50 82 52 83 54 84 51 85
REMARK H PARENT 82 22 71 47 45 58
REMARK Flexibility Score: inf
ROOT
ATOM      1  C   UNL A   1      43.968  19.861  25.253  1.00  0.00     0.202 C 
ENDROOT
BRANCH   1   2
ATOM      2  C   UNL A   1      42.710  20.005  26.115  1.00  0.00     0.261 C 
BRANCH   2   3
ATOM      3  O   UNL A   1      41.806  21.020  25.640  1.00  0.00    -0.463 OA
BRANCH   3   4
ATOM      4  C   UNL A   1      40.608  21.077  26.280  1.00  0.00     0.310 C 
ATOM      5  O   UNL A   1      40.050  20.112  26.793  1.00  0.00    -0.252 OA
BRANCH   4   6
ATOM      6  C   UNL A   1      39.966  22.445  26.300  1.00  0.00     0.158 C 
BRANCH   6   7
ATOM      7  C   UNL A   1      38.482  22.573  26.024  1.00  0.00    -0.037 A 
ATOM      8  C   UNL A   1      35.757  22.883  25.405  1.00  0.00     0.082 A 
ATOM      9  C   UNL A   1      36.423  21.712  25.036  1.00  0.00     0.022 A 
ATOM     10  C   UNL A   1      36.437  23.884  26.106  1.00  0.00     0.022 A 
ATOM     11  C   UNL A   1      37.782  21.563  25.342  1.00  0.00     0.006 A 
ATOM     12  C   UNL A   1      37.795  23.734  26.401  1.00  0.00     0.006 A 
BRANCH   8  13
ATOM     13  S   UNL A   1      33.996  23.020  25.184  1.00  0.00     0.243 S 
ATOM     14  O   UNL A   1      33.679  24.434  25.180  1.00  0.00    -0.207 OA
ATOM     15  O   UNL A   1      33.362  22.137  26.137  1.00  0.00    -0.207 OA
BRANCH  13  16
ATOM     16  N   UNL A   1      33.667  22.386  23.628  1.00  0.00    -0.187 NA
ATOM     17  O   UNL A   1      33.537  25.437  21.636  1.00  0.00    -0.274 OA
ATOM     18  C   UNL A   1      33.146  24.424  22.210  1.00  0.00     0.235 C 
ATOM     19  C   UNL A   1      34.059  23.235  22.468  1.00  0.00     0.202 C 
ATOM     20  N   UNL A   1      31.820  24.276  22.535  1.00  0.00    -0.354 N 
ATOM     21  C   UNL A   1      31.306  23.206  23.373  1.00  0.00     0.132 C 
ATOM     22  H   UNL A   1      31.180  24.934  22.181  1.00  0.00     0.163 HD
ATOM     23  C   UNL A   1      32.228  21.979  23.447  1.00  0.00     0.124 C 
ENDBRANCH  13  16
ENDBRANCH   8  13
ENDBRANCH   6   7
ENDBRANCH   4   6
ENDBRANCH   3   4
ENDBRANCH   2   3
ENDBRANCH   1   2
BRANCH   1  24
ATOM     24  O   UNL A   1      45.043  20.767  25.482  1.00  0.00    -0.374 OA
BRANCH  24  25
ATOM     25  C   UNL A   1      45.523  21.531  24.379  1.00  0.00     0.202 C 
BRANCH  25  26
ATOM     26  C   UNL A   1      44.579  22.561  23.745  1.00  0.00     0.261 C 
BRANCH  26  27
ATOM     27  O   UNL A   1      43.851  23.339  24.709  1.00  0.00    -0.460 OA
BRANCH  27  28
ATOM     28  C   UNL A   1      44.452  24.509  25.042  1.00  0.00     0.338 C 
ATOM     29  O   UNL A   1      45.506  24.948  24.613  1.00  0.00    -0.246 OA
BRANCH  28  30
ATOM     30  C   UNL A   1      43.562  25.320  25.893  1.00  0.00     0.060 A 
ATOM     31  C   UNL A   1      43.846  26.689  25.990  1.00  0.00     0.016 A 
ATOM     32  C   UNL A   1      42.548  24.746  26.660  1.00  0.00     0.016 A 
ATOM     33  C   UNL A   1      43.167  27.477  26.914  1.00  0.00     0.010 A 
ATOM     34  C   UNL A   1      41.869  25.539  27.590  1.00  0.00     0.010 A 
ATOM     35  C   UNL A   1      42.211  26.894  27.756  1.00  0.00    -0.014 A 
BRANCH  35  36
ATOM     36  C   UNL A   1      41.708  27.666  28.917  1.00  0.00     0.031 A 
ATOM     37  C   UNL A   1      42.436  27.562  30.229  1.00  0.00     0.074 A 
ATOM     38  C   UNL A   1      40.652  28.489  28.790  1.00  0.00     0.049 A 
ATOM     39  N   UNL A   1      42.172  28.135  31.376  1.00  0.00    -0.248 NA
ATOM     40  C   UNL A   1      43.624  26.693  30.253  1.00  0.00     0.031 C 
ATOM     41  C   UNL A   1      39.893  28.706  27.559  1.00  0.00     0.029 A 
ATOM     42  N   UNL A   1      40.035  29.294  29.714  1.00  0.00    -0.354 N 
ATOM     43  C   UNL A   1      43.150  27.688  32.256  1.00  0.00     0.074 A 
ATOM     44  C   UNL A   1      43.994  26.771  31.522  1.00  0.00     0.031 C 
ATOM     45  C   UNL A   1      38.907  29.584  27.806  1.00  0.00     0.029 A 
ATOM     46  C   UNL A   1      38.944  29.963  29.217  1.00  0.00     0.049 A 
ATOM     47  H   UNL A   1      40.345  29.383  30.644  1.00  0.00     0.167 HD
ATOM     48  C   UNL A   1      43.335  28.021  33.556  1.00  0.00     0.037 A 
ATOM     49  C   UNL A   1      38.067  30.774  29.838  1.00  0.00     0.037 A 
ATOM     50  C   UNL A   1      42.492  28.936  34.280  1.00  0.00     0.049 A 
ATOM     51  C   UNL A   1      38.254  31.078  31.301  1.00  0.00     0.074 A 
ATOM     52  C   UNL A   1      42.600  29.352  35.595  1.00  0.00     0.029 A 
ATOM     53  N   UNL A   1      41.380  29.573  33.750  1.00  0.00    -0.354 N 
ATOM     54  N   UNL A   1      39.194  30.669  32.119  1.00  0.00    -0.248 NA
ATOM     55  C   UNL A   1      37.263  31.966  31.926  1.00  0.00     0.031 C 
ATOM     56  C   UNL A   1      41.521  30.196  35.877  1.00  0.00     0.029 A 
ATOM     57  C   UNL A   1      40.778  30.359  34.718  1.00  0.00     0.049 A 
ATOM     58  H   UNL A   1      41.065  29.479  32.821  1.00  0.00     0.167 HD
ATOM     59  C   UNL A   1      38.930  31.276  33.341  1.00  0.00     0.074 A 
ATOM     60  C   UNL A   1      37.747  32.090  33.153  1.00  0.00     0.031 C 
ATOM     61  C   UNL A   1      39.608  31.174  34.512  1.00  0.00     0.037 A 
BRANCH  48  62
ATOM     62  C   UNL A   1      44.474  27.367  34.285  1.00  0.00     0.057 A 
ATOM     63  C   UNL A   1      45.745  27.951  34.357  1.00  0.00     0.134 A 
ATOM     64  C   UNL A   1      44.289  26.145  34.946  1.00  0.00     0.134 A 
ATOM     65  F   UNL A   1      45.997  29.113  33.735  1.00  0.00    -0.206 F 
ATOM     66  C   UNL A   1      46.796  27.333  35.038  1.00  0.00     0.040 A 
ATOM     67  C   UNL A   1      45.323  25.533  35.656  1.00  0.00     0.040 A 
ATOM     68  F   UNL A   1      43.095  25.531  34.923  1.00  0.00    -0.206 F 
ATOM     69  C   UNL A   1      46.584  26.123  35.697  1.00  0.00     0.006 A 
ENDBRANCH  48  62
BRANCH  49  70
ATOM     70  C   UNL A   1      36.925  31.353  29.083  1.00  0.00     0.057 A 
ATOM     71  C   UNL A   1      36.928  32.690  28.668  1.00  0.00     0.134 A 
ATOM     72  C   UNL A   1      35.794  30.587  28.776  1.00  0.00     0.134 A 
ATOM     73  F   UNL A   1      37.973  33.481  28.951  1.00  0.00    -0.206 F 
ATOM     74  C   UNL A   1      35.841  33.249  27.995  1.00  0.00     0.040 A 
ATOM     75  C   UNL A   1      34.712  31.125  28.077  1.00  0.00     0.040 A 
ATOM     76  F   UNL A   1      35.728  29.297  29.142  1.00  0.00    -0.206 F 
ATOM     77  C   UNL A   1      34.731  32.464  27.692  1.00  0.00     0.006 A 
ENDBRANCH  49  70
BRANCH  61  78
ATOM     78  C   UNL A   1      39.122  32.006  35.665  1.00  0.00     0.057 A 
ATOM     79  C   UNL A   1      38.277  31.490  36.654  1.00  0.00     0.134 A 
ATOM     80  C   UNL A   1      39.541  33.337  35.802  1.00  0.00     0.134 A 
ATOM     81  F   UNL A   1      37.830  30.228  36.579  1.00  0.00    -0.206 F 
ATOM     82  C   UNL A   1      37.841  32.277  37.724  1.00  0.00     0.040 A 
ATOM     83  C   UNL A   1      39.139  34.122  36.883  1.00  0.00     0.040 A 
ATOM     84  F   UNL A   1      40.361  33.891  34.896  1.00  0.00    -0.206 F 
ATOM     85  C   UNL A   1      38.278  33.595  37.842  1.00  0.00     0.006 A 
ENDBRANCH  61  78
ENDBRANCH  35  36
ENDBRANCH  28  30
ENDBRANCH  27  28
ENDBRANCH  26  27
ENDBRANCH  25  26
ENDBRANCH  24  25
ENDBRANCH   1  24
TORSDOF 17
ENDMDL
