MODEL 1
REMARK VINA RESULT:     -10.8      0.000      0.000
REMARK SMILES CCOc1ccc2[nH]c(=O)c(C(=O)OCCOCCOC(=O)c3ccc(-c4c5nc(c(-c6c(F)cccc6F)c6ccc([nH]6)c(-c6c(F)cccc6F)c6nc(c(-c7c(F)cccc7F)c7ccc4[nH]7)C=C6)C=C5)cc3)cc2c1
REMARK SMILES IDX 17 1 16 2 15 3 14 4 12 5 13 6 11 7 4 8 5 9 79 10 6 11 78 12
REMARK SMILES IDX 7 13 77 14 8 15 9 16 10 18 3 19 2 20 1 21 18 22 19 23 20 24
REMARK SMILES IDX 21 25 22 26 23 27 24 28 76 29 25 30 75 31 26 32 27 33 28 34
REMARK SMILES IDX 69 35 29 36 74 37 68 38 70 39 30 40 73 41 67 42 66 43 31 45
REMARK SMILES IDX 57 46 40 47 56 48 41 49 44 50 55 51 71 52 42 53 43 54 54 56
REMARK SMILES IDX 72 57 45 58 32 59 33 60 38 61 34 62 35 63 37 64 39 65 36 66
REMARK SMILES IDX 58 67 59 68 64 69 60 70 61 71 63 72 65 73 62 74 46 75 47 76
REMARK SMILES IDX 52 77 48 78 49 79 51 80 53 81 50 82
REMARK H PARENT 8 17 70 44 44 55
REMARK Flexibility Score: inf
ROOT
ATOM      1  O   UNL A   1      33.148  30.819  26.864  1.00  0.00    -0.374 OA
ENDROOT
BRANCH   1   2
ATOM      2  C   UNL A   1      33.053  29.431  27.190  1.00  0.00     0.202 C 
BRANCH   2   3
ATOM      3  C   UNL A   1      34.029  28.522  26.438  1.00  0.00     0.261 C 
BRANCH   3   4
ATOM      4  O   UNL A   1      33.323  27.422  25.845  1.00  0.00    -0.459 OA
BRANCH   4   5
ATOM      5  C   UNL A   1      33.159  27.469  24.502  1.00  0.00     0.343 C 
ATOM      6  O   UNL A   1      34.031  27.275  23.668  1.00  0.00    -0.246 OA
BRANCH   5   7
ATOM      7  C   UNL A   1      31.730  27.622  24.154  1.00  0.00     0.125 A 
ATOM      8  C   UNL A   1      28.093  30.686  23.177  1.00  0.00     0.120 A 
ATOM      9  C   UNL A   1      27.228  29.612  22.974  1.00  0.00     0.048 A 
ATOM     10  C   UNL A   1      29.435  30.473  23.492  1.00  0.00     0.056 A 
ATOM     11  C   UNL A   1      27.691  28.305  23.125  1.00  0.00     0.030 A 
ATOM     12  C   UNL A   1      29.903  29.165  23.647  1.00  0.00     0.003 A 
ATOM     13  C   UNL A   1      29.027  28.088  23.457  1.00  0.00     0.049 A 
ATOM     14  C   UNL A   1      31.293  28.887  24.005  1.00  0.00     0.032 A 
ATOM     15  N   UNL A   1      29.510  26.782  23.594  1.00  0.00    -0.321 N 
ATOM     16  C   UNL A   1      30.808  26.475  23.927  1.00  0.00     0.263 A 
ATOM     17  H   UNL A   1      28.883  26.038  23.443  1.00  0.00     0.170 HD
ATOM     18  O   UNL A   1      31.154  25.304  24.043  1.00  0.00    -0.269 OA
BRANCH   8  19
ATOM     19  O   UNL A   1      27.656  31.963  22.958  1.00  0.00    -0.494 OA
BRANCH  19  20
ATOM     20  C   UNL A   1      28.466  32.658  22.002  1.00  0.00     0.226 C 
ATOM     21  C   UNL A   1      28.016  32.354  20.582  1.00  0.00     0.049 C 
ENDBRANCH  19  20
ENDBRANCH   8  19
ENDBRANCH   5   7
ENDBRANCH   4   5
ENDBRANCH   3   4
ENDBRANCH   2   3
ENDBRANCH   1   2
BRANCH   1  22
ATOM     22  C   UNL A   1      31.929  31.566  26.879  1.00  0.00     0.202 C 
BRANCH  22  23
ATOM     23  C   UNL A   1      32.087  33.091  26.844  1.00  0.00     0.261 C 
BRANCH  23  24
ATOM     24  O   UNL A   1      32.202  33.643  28.169  1.00  0.00    -0.460 OA
BRANCH  24  25
ATOM     25  C   UNL A   1      33.295  34.413  28.374  1.00  0.00     0.338 C 
ATOM     26  O   UNL A   1      33.341  35.634  28.433  1.00  0.00    -0.246 OA
BRANCH  25  27
ATOM     27  C   UNL A   1      34.458  33.565  28.695  1.00  0.00     0.060 A 
ATOM     28  C   UNL A   1      34.218  32.379  29.400  1.00  0.00     0.016 A 
ATOM     29  C   UNL A   1      35.763  33.947  28.376  1.00  0.00     0.016 A 
ATOM     30  C   UNL A   1      35.285  31.595  29.835  1.00  0.00     0.010 A 
ATOM     31  C   UNL A   1      36.834  33.165  28.819  1.00  0.00     0.010 A 
ATOM     32  C   UNL A   1      36.601  32.004  29.580  1.00  0.00    -0.014 A 
BRANCH  32  33
ATOM     33  C   UNL A   1      37.726  31.292  30.231  1.00  0.00     0.031 A 
ATOM     34  C   UNL A   1      38.040  31.580  31.673  1.00  0.00     0.074 A 
ATOM     35  C   UNL A   1      38.443  30.377  29.556  1.00  0.00     0.049 A 
ATOM     36  N   UNL A   1      38.987  31.091  32.432  1.00  0.00    -0.248 NA
ATOM     37  C   UNL A   1      37.167  32.553  32.350  1.00  0.00     0.031 C 
ATOM     38  C   UNL A   1      38.218  29.986  28.166  1.00  0.00     0.029 A 
ATOM     39  N   UNL A   1      39.514  29.617  29.953  1.00  0.00    -0.354 N 
ATOM     40  C   UNL A   1      38.829  31.699  33.671  1.00  0.00     0.074 A 
ATOM     41  C   UNL A   1      37.715  32.615  33.554  1.00  0.00     0.031 C 
ATOM     42  C   UNL A   1      39.132  29.061  27.822  1.00  0.00     0.029 A 
ATOM     43  C   UNL A   1      40.021  28.819  28.957  1.00  0.00     0.049 A 
ATOM     44  H   UNL A   1      39.883  29.640  30.865  1.00  0.00     0.167 HD
ATOM     45  C   UNL A   1      39.542  31.505  34.806  1.00  0.00     0.037 A 
ATOM     46  C   UNL A   1      41.092  28.003  28.957  1.00  0.00     0.037 A 
ATOM     47  C   UNL A   1      40.651  30.595  34.922  1.00  0.00     0.049 A 
ATOM     48  C   UNL A   1      41.909  27.852  30.211  1.00  0.00     0.074 A 
ATOM     49  C   UNL A   1      41.421  30.311  36.036  1.00  0.00     0.029 A 
ATOM     50  N   UNL A   1      41.153  29.828  33.881  1.00  0.00    -0.354 N 
ATOM     51  N   UNL A   1      41.735  28.408  31.385  1.00  0.00    -0.248 NA
ATOM     52  C   UNL A   1      43.074  26.957  30.139  1.00  0.00     0.031 C 
ATOM     53  C   UNL A   1      42.420  29.406  35.657  1.00  0.00     0.029 A 
ATOM     54  C   UNL A   1      42.240  29.090  34.320  1.00  0.00     0.049 A 
ATOM     55  H   UNL A   1      40.790  29.810  32.966  1.00  0.00     0.167 HD
ATOM     56  C   UNL A   1      42.747  27.913  32.197  1.00  0.00     0.074 A 
ATOM     57  C   UNL A   1      43.527  27.003  31.384  1.00  0.00     0.031 C 
ATOM     58  C   UNL A   1      43.006  28.186  33.500  1.00  0.00     0.037 A 
BRANCH  45  59
ATOM     59  C   UNL A   1      39.156  32.317  36.007  1.00  0.00     0.057 A 
ATOM     60  C   UNL A   1      39.638  33.617  36.209  1.00  0.00     0.134 A 
ATOM     61  C   UNL A   1      38.277  31.798  36.966  1.00  0.00     0.134 A 
ATOM     62  F   UNL A   1      40.495  34.167  35.336  1.00  0.00    -0.206 F 
ATOM     63  C   UNL A   1      39.279  34.362  37.335  1.00  0.00     0.040 A 
ATOM     64  C   UNL A   1      37.891  32.541  38.081  1.00  0.00     0.040 A 
ATOM     65  F   UNL A   1      37.775  30.561  36.831  1.00  0.00    -0.206 F 
ATOM     66  C   UNL A   1      38.399  33.825  38.272  1.00  0.00     0.006 A 
ENDBRANCH  45  59
BRANCH  46  67
ATOM     67  C   UNL A   1      41.459  27.269  27.721  1.00  0.00     0.057 A 
ATOM     68  C   UNL A   1      41.017  25.960  27.495  1.00  0.00     0.134 A 
ATOM     69  C   UNL A   1      42.269  27.855  26.740  1.00  0.00     0.134 A 
ATOM     70  F   UNL A   1      40.259  25.337  28.410  1.00  0.00    -0.206 F 
ATOM     71  C   UNL A   1      41.373  25.257  26.344  1.00  0.00     0.040 A 
ATOM     72  C   UNL A   1      42.614  27.172  25.573  1.00  0.00     0.040 A 
ATOM     73  F   UNL A   1      42.726  29.105  26.899  1.00  0.00    -0.206 F 
ATOM     74  C   UNL A   1      42.170  25.867  25.376  1.00  0.00     0.006 A 
ENDBRANCH  46  67
BRANCH  58  75
ATOM     75  C   UNL A   1      44.161  27.470  34.137  1.00  0.00     0.057 A 
ATOM     76  C   UNL A   1      44.021  26.198  34.707  1.00  0.00     0.134 A 
ATOM     77  C   UNL A   1      45.439  28.044  34.143  1.00  0.00     0.134 A 
ATOM     78  F   UNL A   1      42.822  25.599  34.743  1.00  0.00    -0.206 F 
ATOM     79  C   UNL A   1      45.108  25.532  35.278  1.00  0.00     0.040 A 
ATOM     80  C   UNL A   1      46.537  27.378  34.689  1.00  0.00     0.040 A 
ATOM     81  F   UNL A   1      45.645  29.256  33.607  1.00  0.00    -0.206 F 
ATOM     82  C   UNL A   1      46.370  26.119  35.264  1.00  0.00     0.006 A 
ENDBRANCH  58  75
ENDBRANCH  32  33
ENDBRANCH  25  27
ENDBRANCH  24  25
ENDBRANCH  23  24
ENDBRANCH  22  23
ENDBRANCH   1  22
TORSDOF 16
ENDMDL
MODEL 2
REMARK VINA RESULT:     -10.4      2.475      7.477
REMARK SMILES CCOc1ccc2[nH]c(=O)c(C(=O)OCCOCCOC(=O)c3ccc(-c4c5nc(c(-c6c(F)cccc6F)c6ccc([nH]6)c(-c6c(F)cccc6F)c6nc(c(-c7c(F)cccc7F)c7ccc4[nH]7)C=C6)C=C5)cc3)cc2c1
REMARK SMILES IDX 17 1 16 2 15 3 14 4 12 5 13 6 11 7 4 8 5 9 79 10 6 11 78 12
REMARK SMILES IDX 7 13 77 14 8 15 9 16 10 18 3 19 2 20 1 21 18 22 19 23 20 24
REMARK SMILES IDX 21 25 22 26 23 27 24 28 76 29 25 30 75 31 26 32 27 33 28 34
REMARK SMILES IDX 69 35 29 36 74 37 68 38 70 39 30 40 73 41 67 42 66 43 31 45
REMARK SMILES IDX 57 46 40 47 56 48 41 49 44 50 55 51 71 52 42 53 43 54 54 56
REMARK SMILES IDX 72 57 45 58 32 59 33 60 38 61 34 62 35 63 37 64 39 65 36 66
REMARK SMILES IDX 58 67 59 68 64 69 60 70 61 71 63 72 65 73 62 74 46 75 47 76
REMARK SMILES IDX 52 77 48 78 49 79 51 80 53 81 50 82
REMARK H PARENT 8 17 70 44 44 55
REMARK Flexibility Score: inf
ROOT
ATOM      1  O   UNL A   1      31.187  30.464  25.201  1.00  0.00    -0.374 OA
ENDROOT
BRANCH   1   2
ATOM      2  C   UNL A   1      31.445  29.122  24.784  1.00  0.00     0.202 C 
BRANCH   2   3
ATOM      3  C   UNL A   1      31.649  28.120  25.924  1.00  0.00     0.261 C 
BRANCH   3   4
ATOM      4  O   UNL A   1      31.596  26.778  25.417  1.00  0.00    -0.459 OA
BRANCH   4   5
ATOM      5  C   UNL A   1      32.786  26.161  25.229  1.00  0.00     0.343 C 
ATOM      6  O   UNL A   1      33.848  26.485  25.743  1.00  0.00    -0.246 OA
BRANCH   5   7
ATOM      7  C   UNL A   1      32.616  24.920  24.444  1.00  0.00     0.125 A 
ATOM      8  C   UNL A   1      32.385  20.072  24.510  1.00  0.00     0.120 A 
ATOM      9  C   UNL A   1      32.162  20.052  23.134  1.00  0.00     0.048 A 
ATOM     10  C   UNL A   1      32.526  21.279  25.194  1.00  0.00     0.056 A 
ATOM     11  C   UNL A   1      32.118  21.248  22.417  1.00  0.00     0.030 A 
ATOM     12  C   UNL A   1      32.484  22.480  24.480  1.00  0.00     0.003 A 
ATOM     13  C   UNL A   1      32.275  22.456  23.095  1.00  0.00     0.049 A 
ATOM     14  C   UNL A   1      32.655  23.771  25.144  1.00  0.00     0.032 A 
ATOM     15  N   UNL A   1      32.215  23.665  22.392  1.00  0.00    -0.321 N 
ATOM     16  C   UNL A   1      32.368  24.900  22.976  1.00  0.00     0.263 A 
ATOM     17  H   UNL A   1      32.054  23.628  21.421  1.00  0.00     0.170 HD
ATOM     18  O   UNL A   1      32.316  25.915  22.290  1.00  0.00    -0.269 OA
BRANCH   8  19
ATOM     19  O   UNL A   1      32.356  18.904  25.221  1.00  0.00    -0.494 OA
BRANCH  19  20
ATOM     20  C   UNL A   1      32.639  17.762  24.402  1.00  0.00     0.226 C 
ATOM     21  C   UNL A   1      34.088  17.326  24.556  1.00  0.00     0.049 C 
ENDBRANCH  19  20
ENDBRANCH   8  19
ENDBRANCH   5   7
ENDBRANCH   4   5
ENDBRANCH   3   4
ENDBRANCH   2   3
ENDBRANCH   1   2
BRANCH   1  22
ATOM     22  C   UNL A   1      31.732  30.861  26.462  1.00  0.00     0.202 C 
BRANCH  22  23
ATOM     23  C   UNL A   1      31.458  32.312  26.875  1.00  0.00     0.261 C 
BRANCH  23  24
ATOM     24  O   UNL A   1      32.624  33.140  26.707  1.00  0.00    -0.460 OA
BRANCH  24  25
ATOM     25  C   UNL A   1      33.068  33.738  27.836  1.00  0.00     0.338 C 
ATOM     26  O   UNL A   1      32.489  34.582  28.505  1.00  0.00    -0.246 OA
BRANCH  25  27
ATOM     27  C   UNL A   1      34.325  33.108  28.281  1.00  0.00     0.060 A 
ATOM     28  C   UNL A   1      34.262  31.779  28.719  1.00  0.00     0.016 A 
ATOM     29  C   UNL A   1      35.529  33.814  28.334  1.00  0.00     0.016 A 
ATOM     30  C   UNL A   1      35.390  31.167  29.262  1.00  0.00     0.010 A 
ATOM     31  C   UNL A   1      36.659  33.202  28.886  1.00  0.00     0.010 A 
ATOM     32  C   UNL A   1      36.585  31.888  29.384  1.00  0.00    -0.014 A 
BRANCH  32  33
ATOM     33  C   UNL A   1      37.710  31.312  30.158  1.00  0.00     0.031 A 
ATOM     34  C   UNL A   1      38.626  30.323  29.493  1.00  0.00     0.074 A 
ATOM     35  C   UNL A   1      37.931  31.686  31.430  1.00  0.00     0.049 A 
ATOM     36  N   UNL A   1      39.655  29.681  29.986  1.00  0.00    -0.248 NA
ATOM     37  C   UNL A   1      38.344  30.016  28.082  1.00  0.00     0.031 C 
ATOM     38  C   UNL A   1      37.134  32.658  32.176  1.00  0.00     0.029 A 
ATOM     39  N   UNL A   1      38.893  31.281  32.321  1.00  0.00    -0.354 N 
ATOM     40  C   UNL A   1      40.138  28.891  28.950  1.00  0.00     0.074 A 
ATOM     41  C   UNL A   1      39.272  29.112  27.811  1.00  0.00     0.031 C 
ATOM     42  C   UNL A   1      37.636  32.768  33.418  1.00  0.00     0.029 A 
ATOM     43  C   UNL A   1      38.768  31.855  33.563  1.00  0.00     0.049 A 
ATOM     44  H   UNL A   1      39.605  30.641  32.093  1.00  0.00     0.167 HD
ATOM     45  C   UNL A   1      41.211  28.065  28.945  1.00  0.00     0.037 A 
ATOM     46  C   UNL A   1      39.475  31.650  34.690  1.00  0.00     0.037 A 
ATOM     47  C   UNL A   1      42.071  27.846  30.078  1.00  0.00     0.049 A 
ATOM     48  C   UNL A   1      40.624  30.678  34.680  1.00  0.00     0.074 A 
ATOM     49  C   UNL A   1      43.197  27.046  30.163  1.00  0.00     0.029 A 
ATOM     50  N   UNL A   1      41.893  28.422  31.326  1.00  0.00    -0.354 N 
ATOM     51  N   UNL A   1      41.090  29.959  33.688  1.00  0.00    -0.248 NA
ATOM     52  C   UNL A   1      41.344  30.490  35.947  1.00  0.00     0.031 C 
ATOM     53  C   UNL A   1      43.673  27.103  31.478  1.00  0.00     0.029 A 
ATOM     54  C   UNL A   1      42.873  27.976  32.197  1.00  0.00     0.049 A 
ATOM     55  H   UNL A   1      41.177  29.056  31.559  1.00  0.00     0.167 HD
ATOM     56  C   UNL A   1      42.173  29.255  34.202  1.00  0.00     0.074 A 
ATOM     57  C   UNL A   1      42.299  29.642  35.592  1.00  0.00     0.031 C 
ATOM     58  C   UNL A   1      42.989  28.370  33.578  1.00  0.00     0.037 A 
BRANCH  45  59
ATOM     59  C   UNL A   1      41.496  27.317  27.676  1.00  0.00     0.057 A 
ATOM     60  C   UNL A   1      42.225  27.889  26.626  1.00  0.00     0.134 A 
ATOM     61  C   UNL A   1      41.050  25.999  27.509  1.00  0.00     0.134 A 
ATOM     62  F   UNL A   1      42.668  29.153  26.716  1.00  0.00    -0.206 F 
ATOM     63  C   UNL A   1      42.478  27.187  25.445  1.00  0.00     0.040 A 
ATOM     64  C   UNL A   1      41.318  25.279  26.345  1.00  0.00     0.040 A 
ATOM     65  F   UNL A   1      40.349  25.390  28.477  1.00  0.00    -0.206 F 
ATOM     66  C   UNL A   1      42.028  25.876  25.305  1.00  0.00     0.006 A 
ENDBRANCH  45  59
BRANCH  46  67
ATOM     67  C   UNL A   1      39.111  32.378  35.931  1.00  0.00     0.057 A 
ATOM     68  C   UNL A   1      38.263  31.805  36.886  1.00  0.00     0.134 A 
ATOM     69  C   UNL A   1      39.595  33.667  36.188  1.00  0.00     0.134 A 
ATOM     70  F   UNL A   1      37.747  30.583  36.684  1.00  0.00    -0.206 F 
ATOM     71  C   UNL A   1      37.901  32.490  38.046  1.00  0.00     0.040 A 
ATOM     72  C   UNL A   1      39.260  34.354  37.355  1.00  0.00     0.040 A 
ATOM     73  F   UNL A   1      40.409  34.270  35.310  1.00  0.00    -0.206 F 
ATOM     74  C   UNL A   1      38.406  33.767  38.285  1.00  0.00     0.006 A 
ENDBRANCH  46  67
BRANCH  58  75
ATOM     75  C   UNL A   1      44.110  27.782  34.383  1.00  0.00     0.057 A 
ATOM     76  C   UNL A   1      45.331  28.448  34.548  1.00  0.00     0.134 A 
ATOM     77  C   UNL A   1      43.950  26.553  35.036  1.00  0.00     0.134 A 
ATOM     78  F   UNL A   1      45.552  29.622  33.940  1.00  0.00    -0.206 F 
ATOM     79  C   UNL A   1      46.361  27.900  35.318  1.00  0.00     0.040 A 
ATOM     80  C   UNL A   1      44.962  26.008  35.827  1.00  0.00     0.040 A 
ATOM     81  F   UNL A   1      42.803  25.867  34.926  1.00  0.00    -0.206 F 
ATOM     82  C   UNL A   1      46.175  26.681  35.965  1.00  0.00     0.006 A 
ENDBRANCH  58  75
ENDBRANCH  32  33
ENDBRANCH  25  27
ENDBRANCH  24  25
ENDBRANCH  23  24
ENDBRANCH  22  23
ENDBRANCH   1  22
TORSDOF 16
ENDMDL
MODEL 3
REMARK VINA RESULT:     -10.3      4.769      9.065
REMARK SMILES CCOc1ccc2[nH]c(=O)c(C(=O)OCCOCCOC(=O)c3ccc(-c4c5nc(c(-c6c(F)cccc6F)c6ccc([nH]6)c(-c6c(F)cccc6F)c6nc(c(-c7c(F)cccc7F)c7ccc4[nH]7)C=C6)C=C5)cc3)cc2c1
REMARK SMILES IDX 17 1 16 2 15 3 14 4 12 5 13 6 11 7 4 8 5 9 79 10 6 11 78 12
REMARK SMILES IDX 7 13 77 14 8 15 9 16 10 18 3 19 2 20 1 21 18 22 19 23 20 24
REMARK SMILES IDX 21 25 22 26 23 27 24 28 76 29 25 30 75 31 26 32 27 33 28 34
REMARK SMILES IDX 69 35 29 36 74 37 68 38 70 39 30 40 73 41 67 42 66 43 31 45
REMARK SMILES IDX 57 46 40 47 56 48 41 49 44 50 55 51 71 52 42 53 43 54 54 56
REMARK SMILES IDX 72 57 45 58 32 59 33 60 38 61 34 62 35 63 37 64 39 65 36 66
REMARK SMILES IDX 58 67 59 68 64 69 60 70 61 71 63 72 65 73 62 74 46 75 47 76
REMARK SMILES IDX 52 77 48 78 49 79 51 80 53 81 50 82
REMARK H PARENT 8 17 70 44 44 55
REMARK Flexibility Score: inf
ROOT
ATOM      1  O   UNL A   1      33.345  30.739  27.330  1.00  0.00    -0.374 OA
ENDROOT
BRANCH   1   2
ATOM      2  C   UNL A   1      32.118  30.911  26.618  1.00  0.00     0.202 C 
BRANCH   2   3
ATOM      3  C   UNL A   1      31.656  29.688  25.823  1.00  0.00     0.261 C 
BRANCH   3   4
ATOM      4  O   UNL A   1      32.681  28.681  25.823  1.00  0.00    -0.459 OA
BRANCH   4   5
ATOM      5  C   UNL A   1      32.579  27.722  24.874  1.00  0.00     0.343 C 
ATOM      6  O   UNL A   1      32.562  27.911  23.666  1.00  0.00    -0.246 OA
BRANCH   5   7
ATOM      7  C   UNL A   1      32.661  26.376  25.478  1.00  0.00     0.125 A 
ATOM      8  C   UNL A   1      35.351  22.395  26.177  1.00  0.00     0.120 A 
ATOM      9  C   UNL A   1      34.331  21.825  26.938  1.00  0.00     0.048 A 
ATOM     10  C   UNL A   1      35.214  23.677  25.644  1.00  0.00     0.056 A 
ATOM     11  C   UNL A   1      33.140  22.522  27.141  1.00  0.00     0.030 A 
ATOM     12  C   UNL A   1      34.022  24.378  25.843  1.00  0.00     0.003 A 
ATOM     13  C   UNL A   1      32.993  23.796  26.595  1.00  0.00     0.049 A 
ATOM     14  C   UNL A   1      33.816  25.712  25.282  1.00  0.00     0.032 A 
ATOM     15  N   UNL A   1      31.811  24.515  26.807  1.00  0.00    -0.321 N 
ATOM     16  C   UNL A   1      31.577  25.772  26.300  1.00  0.00     0.263 A 
ATOM     17  H   UNL A   1      31.105  24.096  27.350  1.00  0.00     0.170 HD
ATOM     18  O   UNL A   1      30.508  26.333  26.517  1.00  0.00    -0.269 OA
BRANCH   8  19
ATOM     19  O   UNL A   1      36.544  21.741  26.039  1.00  0.00    -0.494 OA
BRANCH  19  20
ATOM     20  C   UNL A   1      37.587  22.605  25.572  1.00  0.00     0.226 C 
ATOM     21  C   UNL A   1      38.932  22.203  26.157  1.00  0.00     0.049 C 
ENDBRANCH  19  20
ENDBRANCH   8  19
ENDBRANCH   5   7
ENDBRANCH   4   5
ENDBRANCH   3   4
ENDBRANCH   2   3
ENDBRANCH   1   2
BRANCH   1  22
ATOM     22  C   UNL A   1      34.017  31.930  27.747  1.00  0.00     0.202 C 
BRANCH  22  23
ATOM     23  C   UNL A   1      34.891  31.794  29.000  1.00  0.00     0.261 C 
BRANCH  23  24
ATOM     24  O   UNL A   1      35.468  30.479  29.103  1.00  0.00    -0.460 OA
BRANCH  24  25
ATOM     25  C   UNL A   1      36.332  30.313  30.131  1.00  0.00     0.338 C 
ATOM     26  O   UNL A   1      36.119  30.515  31.319  1.00  0.00    -0.246 OA
BRANCH  25  27
ATOM     27  C   UNL A   1      37.574  29.678  29.651  1.00  0.00     0.060 A 
ATOM     28  C   UNL A   1      38.441  29.148  30.614  1.00  0.00     0.016 A 
ATOM     29  C   UNL A   1      37.919  29.658  28.298  1.00  0.00     0.016 A 
ATOM     30  C   UNL A   1      39.682  28.641  30.234  1.00  0.00     0.010 A 
ATOM     31  C   UNL A   1      39.168  29.156  27.917  1.00  0.00     0.010 A 
ATOM     32  C   UNL A   1      40.069  28.678  28.887  1.00  0.00    -0.014 A 
BRANCH  32  33
ATOM     33  C   UNL A   1      41.466  28.346  28.519  1.00  0.00     0.031 A 
ATOM     34  C   UNL A   1      41.804  26.935  28.126  1.00  0.00     0.074 A 
ATOM     35  C   UNL A   1      42.417  29.295  28.507  1.00  0.00     0.049 A 
ATOM     36  N   UNL A   1      42.959  26.420  27.788  1.00  0.00    -0.248 NA
ATOM     37  C   UNL A   1      40.689  25.975  28.111  1.00  0.00     0.031 C 
ATOM     38  C   UNL A   1      42.209  30.704  28.837  1.00  0.00     0.029 A 
ATOM     39  N   UNL A   1      43.754  29.210  28.210  1.00  0.00    -0.354 N 
ATOM     40  C   UNL A   1      42.712  25.078  27.529  1.00  0.00     0.074 A 
ATOM     41  C   UNL A   1      41.304  24.852  27.776  1.00  0.00     0.031 C 
ATOM     42  C   UNL A   1      43.383  31.351  28.733  1.00  0.00     0.029 A 
ATOM     43  C   UNL A   1      44.426  30.399  28.359  1.00  0.00     0.049 A 
ATOM     44  H   UNL A   1      44.190  28.377  27.919  1.00  0.00     0.167 HD
ATOM     45  C   UNL A   1      43.577  24.123  27.112  1.00  0.00     0.037 A 
ATOM     46  C   UNL A   1      45.737  30.678  28.226  1.00  0.00     0.037 A 
ATOM     47  C   UNL A   1      44.978  24.349  26.867  1.00  0.00     0.049 A 
ATOM     48  C   UNL A   1      46.692  29.587  27.826  1.00  0.00     0.074 A 
ATOM     49  C   UNL A   1      45.931  23.450  26.420  1.00  0.00     0.029 A 
ATOM     50  N   UNL A   1      45.626  25.559  27.059  1.00  0.00    -0.354 N 
ATOM     51  N   UNL A   1      46.444  28.329  27.554  1.00  0.00    -0.248 NA
ATOM     52  C   UNL A   1      48.110  29.956  27.714  1.00  0.00     0.031 C 
ATOM     53  C   UNL A   1      47.167  24.107  26.386  1.00  0.00     0.029 A 
ATOM     54  C   UNL A   1      46.973  25.425  26.764  1.00  0.00     0.049 A 
ATOM     55  H   UNL A   1      45.194  26.391  27.358  1.00  0.00     0.167 HD
ATOM     56  C   UNL A   1      47.667  27.763  27.213  1.00  0.00     0.074 A 
ATOM     57  C   UNL A   1      48.654  28.819  27.304  1.00  0.00     0.031 C 
ATOM     58  C   UNL A   1      47.945  26.485  26.856  1.00  0.00     0.037 A 
BRANCH  45  59
ATOM     59  C   UNL A   1      43.033  22.738  26.922  1.00  0.00     0.057 A 
ATOM     60  C   UNL A   1      42.702  21.917  28.007  1.00  0.00     0.134 A 
ATOM     61  C   UNL A   1      42.821  22.226  25.636  1.00  0.00     0.134 A 
ATOM     62  F   UNL A   1      42.895  22.342  29.265  1.00  0.00    -0.206 F 
ATOM     63  C   UNL A   1      42.203  20.625  27.820  1.00  0.00     0.040 A 
ATOM     64  C   UNL A   1      42.300  20.947  25.435  1.00  0.00     0.040 A 
ATOM     65  F   UNL A   1      43.113  22.961  24.553  1.00  0.00    -0.206 F 
ATOM     66  C   UNL A   1      41.996  20.140  26.530  1.00  0.00     0.006 A 
ENDBRANCH  45  59
BRANCH  46  67
ATOM     67  C   UNL A   1      46.226  32.055  28.484  1.00  0.00     0.057 A 
ATOM     68  C   UNL A   1      46.307  33.001  27.455  1.00  0.00     0.134 A 
ATOM     69  C   UNL A   1      46.633  32.456  29.763  1.00  0.00     0.134 A 
ATOM     70  F   UNL A   1      45.955  32.669  26.204  1.00  0.00    -0.206 F 
ATOM     71  C   UNL A   1      46.783  34.292  27.686  1.00  0.00     0.040 A 
ATOM     72  C   UNL A   1      47.089  33.751  30.013  1.00  0.00     0.040 A 
ATOM     73  F   UNL A   1      46.581  31.595  30.789  1.00  0.00    -0.206 F 
ATOM     74  C   UNL A   1      47.170  34.671  28.971  1.00  0.00     0.006 A 
ENDBRANCH  46  67
BRANCH  58  75
ATOM     75  C   UNL A   1      49.368  26.163  26.506  1.00  0.00     0.057 A 
ATOM     76  C   UNL A   1      49.881  26.375  25.220  1.00  0.00     0.134 A 
ATOM     77  C   UNL A   1      50.248  25.673  27.480  1.00  0.00     0.134 A 
ATOM     78  F   UNL A   1      49.087  26.831  24.240  1.00  0.00    -0.206 F 
ATOM     79  C   UNL A   1      51.213  26.091  24.911  1.00  0.00     0.040 A 
ATOM     80  C   UNL A   1      51.588  25.409  27.189  1.00  0.00     0.040 A 
ATOM     81  F   UNL A   1      49.825  25.455  28.734  1.00  0.00    -0.206 F 
ATOM     82  C   UNL A   1      52.071  25.614  25.898  1.00  0.00     0.006 A 
ENDBRANCH  58  75
ENDBRANCH  32  33
ENDBRANCH  25  27
ENDBRANCH  24  25
ENDBRANCH  23  24
ENDBRANCH  22  23
ENDBRANCH   1  22
TORSDOF 16
ENDMDL
