MODEL 1
REMARK VINA RESULT:     -11.8      0.000      0.000
REMARK SMILES Cc1c(CC(=O)OCCOCCOC(=O)c2ccc(-c3c4nc(c(-c5c(F)cccc5F)c5ccc([nH]5)c(-c5c(F)cccc5F)c5nc(c(-c6c(F)cccc6F)c6ccc3[nH]6)C=C5)C=C4)cc2)c2cc(O)ccc2n1C(=O)c1ccc(Cl)cc1
REMARK SMILES IDX 9 1 8 2 7 3 5 4 6 5 4 6 3 7 1 8 2 9 77 10 70 11 76 12 71 13
REMARK SMILES IDX 75 14 72 15 74 16 78 17 79 18 80 19 81 20 86 21 82 22 85 23
REMARK SMILES IDX 83 24 84 25 73 26 10 28 11 29 12 30 13 31 14 32 15 33 16 34
REMARK SMILES IDX 17 35 69 36 18 37 68 38 19 39 20 40 21 41 62 42 22 43 67 44
REMARK SMILES IDX 61 45 63 46 23 47 66 48 60 49 59 50 24 52 50 53 33 54 49 55
REMARK SMILES IDX 34 56 37 57 48 58 64 59 35 60 36 61 47 63 65 64 38 65 25 66
REMARK SMILES IDX 26 67 31 68 27 69 28 70 30 71 32 72 29 73 51 74 52 75 57 76
REMARK SMILES IDX 53 77 54 78 56 79 58 80 55 81 39 82 40 83 45 84 41 85 42 86
REMARK SMILES IDX 44 87 46 88 43 89
REMARK H PARENT 73 27 63 51 37 62
REMARK Flexibility Score: inf
ROOT
ATOM      1  C   UNL A   1      32.391  28.494  24.073  1.00  0.00     0.202 C 
ENDROOT
BRANCH   1   2
ATOM      2  C   UNL A   1      32.882  27.057  24.311  1.00  0.00     0.261 C 
BRANCH   2   3
ATOM      3  O   UNL A   1      31.846  26.117  24.644  1.00  0.00    -0.463 OA
BRANCH   3   4
ATOM      4  C   UNL A   1      31.724  25.854  25.972  1.00  0.00     0.310 C 
ATOM      5  O   UNL A   1      30.833  26.318  26.683  1.00  0.00    -0.252 OA
BRANCH   4   6
ATOM      6  C   UNL A   1      32.756  24.919  26.562  1.00  0.00     0.160 C 
BRANCH   6   7
ATOM      7  C   UNL A   1      33.186  23.693  25.801  1.00  0.00    -0.008 A 
ATOM      8  C   UNL A   1      30.883  22.557  25.449  1.00  0.00     0.065 C 
ATOM      9  C   UNL A   1      32.366  22.695  25.292  1.00  0.00     0.028 A 
ATOM     10  N   UNL A   1      33.134  21.803  24.526  1.00  0.00    -0.280 N 
ATOM     11  C   UNL A   1      34.512  23.403  25.355  1.00  0.00     0.008 A 
ATOM     12  C   UNL A   1      34.477  22.209  24.622  1.00  0.00     0.057 A 
ATOM     13  C   UNL A   1      35.750  24.065  25.527  1.00  0.00     0.056 A 
ATOM     14  C   UNL A   1      35.679  21.671  24.105  1.00  0.00     0.031 A 
ATOM     15  C   UNL A   1      36.930  23.453  25.113  1.00  0.00     0.116 A 
ATOM     16  C   UNL A   1      36.903  22.274  24.401  1.00  0.00     0.048 A 
BRANCH  10  17
ATOM     17  C   UNL A   1      32.620  20.713  23.757  1.00  0.00     0.262 C 
ATOM     18  O   UNL A   1      32.098  20.944  22.667  1.00  0.00    -0.268 OA
BRANCH  17  19
ATOM     19  C   UNL A   1      32.699  19.293  24.136  1.00  0.00     0.040 A 
ATOM     20  C   UNL A   1      32.514  18.910  25.470  1.00  0.00     0.015 A 
ATOM     21  C   UNL A   1      32.987  18.345  23.148  1.00  0.00     0.015 A 
ATOM     22  C   UNL A   1      32.710  17.574  25.828  1.00  0.00     0.021 A 
ATOM     23  C   UNL A   1      33.168  17.010  23.513  1.00  0.00     0.021 A 
ATOM     24  C   UNL A   1      33.049  16.634  24.852  1.00  0.00     0.041 A 
ATOM     25  Cl  UNL A   1      33.349  15.003  25.309  1.00  0.00    -0.084 Cl
ENDBRANCH  17  19
ENDBRANCH  10  17
BRANCH  15  26
ATOM     26  O   UNL A   1      38.109  24.020  25.499  1.00  0.00    -0.508 OA
ATOM     27  H   UNL A   1      38.876  23.913  24.971  1.00  0.00     0.293 HD
ENDBRANCH  15  26
ENDBRANCH   6   7
ENDBRANCH   4   6
ENDBRANCH   3   4
ENDBRANCH   2   3
ENDBRANCH   1   2
BRANCH   1  28
ATOM     28  O   UNL A   1      33.029  29.589  24.715  1.00  0.00    -0.374 OA
BRANCH  28  29
ATOM     29  C   UNL A   1      33.183  29.513  26.131  1.00  0.00     0.202 C 
BRANCH  29  30
ATOM     30  C   UNL A   1      33.118  30.807  26.964  1.00  0.00     0.261 C 
BRANCH  30  31
ATOM     31  O   UNL A   1      34.060  30.811  28.037  1.00  0.00    -0.460 OA
BRANCH  31  32
ATOM     32  C   UNL A   1      35.090  31.683  27.872  1.00  0.00     0.338 C 
ATOM     33  O   UNL A   1      35.035  32.869  27.603  1.00  0.00    -0.246 OA
BRANCH  32  34
ATOM     34  C   UNL A   1      36.226  31.007  28.515  1.00  0.00     0.060 A 
ATOM     35  C   UNL A   1      37.299  31.764  28.997  1.00  0.00     0.016 A 
ATOM     36  C   UNL A   1      36.348  29.635  28.246  1.00  0.00     0.016 A 
ATOM     37  C   UNL A   1      38.538  31.153  29.104  1.00  0.00     0.010 A 
ATOM     38  C   UNL A   1      37.597  29.037  28.329  1.00  0.00     0.010 A 
ATOM     39  C   UNL A   1      38.695  29.809  28.716  1.00  0.00    -0.014 A 
BRANCH  39  40
ATOM     40  C   UNL A   1      39.994  29.189  28.959  1.00  0.00     0.031 A 
ATOM     41  C   UNL A   1      40.320  29.153  30.411  1.00  0.00     0.074 A 
ATOM     42  C   UNL A   1      40.770  28.578  28.042  1.00  0.00     0.049 A 
ATOM     43  N   UNL A   1      41.300  29.724  31.029  1.00  0.00    -0.248 NA
ATOM     44  C   UNL A   1      39.322  28.534  31.301  1.00  0.00     0.031 C 
ATOM     45  C   UNL A   1      40.459  28.264  26.647  1.00  0.00     0.029 A 
ATOM     46  N   UNL A   1      42.003  28.018  28.209  1.00  0.00    -0.354 N 
ATOM     47  C   UNL A   1      41.137  29.393  32.373  1.00  0.00     0.074 A 
ATOM     48  C   UNL A   1      39.828  28.814  32.499  1.00  0.00     0.031 C 
ATOM     49  C   UNL A   1      41.381  27.400  26.162  1.00  0.00     0.029 A 
ATOM     50  C   UNL A   1      42.402  27.183  27.173  1.00  0.00     0.049 A 
ATOM     51  H   UNL A   1      42.564  28.191  28.999  1.00  0.00     0.167 HD
ATOM     52  C   UNL A   1      42.177  29.411  33.246  1.00  0.00     0.037 A 
ATOM     53  C   UNL A   1      43.454  26.326  27.173  1.00  0.00     0.037 A 
ATOM     54  C   UNL A   1      43.266  30.210  32.751  1.00  0.00     0.049 A 
ATOM     55  C   UNL A   1      44.364  26.720  28.274  1.00  0.00     0.074 A 
ATOM     56  C   UNL A   1      43.438  31.545  32.445  1.00  0.00     0.029 A 
ATOM     57  N   UNL A   1      44.328  29.556  32.182  1.00  0.00    -0.354 N 
ATOM     58  N   UNL A   1      45.088  27.802  28.267  1.00  0.00    -0.248 NA
ATOM     59  C   UNL A   1      44.139  26.129  29.585  1.00  0.00     0.031 C 
ATOM     60  C   UNL A   1      44.324  31.558  31.328  1.00  0.00     0.029 A 
ATOM     61  C   UNL A   1      44.669  30.237  31.044  1.00  0.00     0.049 A 
ATOM     62  H   UNL A   1      44.766  28.744  32.528  1.00  0.00     0.167 HD
ATOM     63  C   UNL A   1      45.042  28.267  29.572  1.00  0.00     0.074 A 
ATOM     64  C   UNL A   1      44.528  27.147  30.358  1.00  0.00     0.031 C 
ATOM     65  C   UNL A   1      45.157  29.599  29.845  1.00  0.00     0.037 A 
BRANCH  52  66
ATOM     66  C   UNL A   1      42.358  28.396  34.350  1.00  0.00     0.057 A 
ATOM     67  C   UNL A   1      41.911  28.575  35.676  1.00  0.00     0.134 A 
ATOM     68  C   UNL A   1      42.706  27.076  34.011  1.00  0.00     0.134 A 
ATOM     69  F   UNL A   1      41.479  29.751  36.143  1.00  0.00    -0.206 F 
ATOM     70  C   UNL A   1      41.781  27.519  36.581  1.00  0.00     0.040 A 
ATOM     71  C   UNL A   1      42.529  26.004  34.894  1.00  0.00     0.040 A 
ATOM     72  F   UNL A   1      43.146  26.774  32.781  1.00  0.00    -0.206 F 
ATOM     73  C   UNL A   1      42.053  26.222  36.180  1.00  0.00     0.006 A 
ENDBRANCH  52  66
BRANCH  53  74
ATOM     74  C   UNL A   1      43.593  25.027  26.476  1.00  0.00     0.057 A 
ATOM     75  C   UNL A   1      44.405  24.901  25.335  1.00  0.00     0.134 A 
ATOM     76  C   UNL A   1      42.738  23.948  26.744  1.00  0.00     0.134 A 
ATOM     77  F   UNL A   1      45.194  25.908  24.936  1.00  0.00    -0.206 F 
ATOM     78  C   UNL A   1      44.370  23.773  24.509  1.00  0.00     0.040 A 
ATOM     79  C   UNL A   1      42.688  22.813  25.922  1.00  0.00     0.040 A 
ATOM     80  F   UNL A   1      41.888  23.995  27.780  1.00  0.00    -0.206 F 
ATOM     81  C   UNL A   1      43.501  22.727  24.795  1.00  0.00     0.006 A 
ENDBRANCH  53  74
BRANCH  65  82
ATOM     82  C   UNL A   1      45.592  30.498  28.724  1.00  0.00     0.057 A 
ATOM     83  C   UNL A   1      46.930  30.901  28.661  1.00  0.00     0.134 A 
ATOM     84  C   UNL A   1      44.712  31.070  27.792  1.00  0.00     0.134 A 
ATOM     85  F   UNL A   1      47.816  30.441  29.558  1.00  0.00    -0.206 F 
ATOM     86  C   UNL A   1      47.379  31.818  27.710  1.00  0.00     0.040 A 
ATOM     87  C   UNL A   1      45.155  31.962  26.811  1.00  0.00     0.040 A 
ATOM     88  F   UNL A   1      43.396  30.823  27.838  1.00  0.00    -0.206 F 
ATOM     89  C   UNL A   1      46.493  32.342  26.771  1.00  0.00     0.006 A 
ENDBRANCH  65  82
ENDBRANCH  39  40
ENDBRANCH  32  34
ENDBRANCH  31  32
ENDBRANCH  30  31
ENDBRANCH  29  30
ENDBRANCH  28  29
ENDBRANCH   1  28
TORSDOF 18
ENDMDL
MODEL 2
REMARK VINA RESULT:     -11.8      2.362      7.806
REMARK SMILES Cc1c(CC(=O)OCCOCCOC(=O)c2ccc(-c3c4nc(c(-c5c(F)cccc5F)c5ccc([nH]5)c(-c5c(F)cccc5F)c5nc(c(-c6c(F)cccc6F)c6ccc3[nH]6)C=C5)C=C4)cc2)c2cc(O)ccc2n1C(=O)c1ccc(Cl)cc1
REMARK SMILES IDX 9 1 8 2 7 3 5 4 6 5 4 6 3 7 1 8 2 9 77 10 70 11 76 12 71 13
REMARK SMILES IDX 75 14 72 15 74 16 78 17 79 18 80 19 81 20 86 21 82 22 85 23
REMARK SMILES IDX 83 24 84 25 73 26 10 28 11 29 12 30 13 31 14 32 15 33 16 34
REMARK SMILES IDX 17 35 69 36 18 37 68 38 19 39 20 40 21 41 62 42 22 43 67 44
REMARK SMILES IDX 61 45 63 46 23 47 66 48 60 49 59 50 24 52 50 53 33 54 49 55
REMARK SMILES IDX 34 56 37 57 48 58 64 59 35 60 36 61 47 63 65 64 38 65 25 66
REMARK SMILES IDX 26 67 31 68 27 69 28 70 30 71 32 72 29 73 51 74 52 75 57 76
REMARK SMILES IDX 53 77 54 78 56 79 58 80 55 81 39 82 40 83 45 84 41 85 42 86
REMARK SMILES IDX 44 87 46 88 43 89
REMARK H PARENT 73 27 63 51 37 62
REMARK Flexibility Score: inf
ROOT
ATOM      1  C   UNL A   1      40.314  20.826  26.397  1.00  0.00     0.202 C 
ENDROOT
BRANCH   1   2
ATOM      2  C   UNL A   1      39.029  21.392  25.771  1.00  0.00     0.261 C 
BRANCH   2   3
ATOM      3  O   UNL A   1      38.643  22.687  26.264  1.00  0.00    -0.463 OA
BRANCH   3   4
ATOM      4  C   UNL A   1      37.466  23.153  25.770  1.00  0.00     0.310 C 
ATOM      5  O   UNL A   1      37.378  23.894  24.790  1.00  0.00    -0.252 OA
BRANCH   4   6
ATOM      6  C   UNL A   1      36.216  22.696  26.487  1.00  0.00     0.160 C 
BRANCH   6   7
ATOM      7  C   UNL A   1      34.971  22.374  25.703  1.00  0.00    -0.008 A 
ATOM      8  C   UNL A   1      35.645  20.070  24.726  1.00  0.00     0.065 C 
ATOM      9  C   UNL A   1      34.718  21.221  24.973  1.00  0.00     0.028 A 
ATOM     10  N   UNL A   1      33.394  21.241  24.507  1.00  0.00    -0.280 N 
ATOM     11  C   UNL A   1      33.772  23.150  25.674  1.00  0.00     0.008 A 
ATOM     12  C   UNL A   1      32.830  22.472  24.889  1.00  0.00     0.057 A 
ATOM     13  C   UNL A   1      33.415  24.391  26.253  1.00  0.00     0.056 A 
ATOM     14  C   UNL A   1      31.562  23.056  24.658  1.00  0.00     0.031 A 
ATOM     15  C   UNL A   1      32.210  24.997  25.912  1.00  0.00     0.116 A 
ATOM     16  C   UNL A   1      31.283  24.340  25.132  1.00  0.00     0.048 A 
BRANCH  10  17
ATOM     17  C   UNL A   1      32.740  20.177  23.813  1.00  0.00     0.262 C 
ATOM     18  O   UNL A   1      32.136  20.425  22.770  1.00  0.00    -0.268 OA
BRANCH  17  19
ATOM     19  C   UNL A   1      32.760  18.762  24.214  1.00  0.00     0.040 A 
ATOM     20  C   UNL A   1      32.458  18.400  25.533  1.00  0.00     0.015 A 
ATOM     21  C   UNL A   1      33.109  17.794  23.266  1.00  0.00     0.015 A 
ATOM     22  C   UNL A   1      32.597  17.066  25.922  1.00  0.00     0.021 A 
ATOM     23  C   UNL A   1      33.233  16.461  23.660  1.00  0.00     0.021 A 
ATOM     24  C   UNL A   1      32.997  16.106  24.989  1.00  0.00     0.041 A 
ATOM     25  Cl  UNL A   1      33.226  14.476  25.490  1.00  0.00    -0.084 Cl
ENDBRANCH  17  19
ENDBRANCH  10  17
BRANCH  15  26
ATOM     26  O   UNL A   1      32.010  26.285  26.314  1.00  0.00    -0.508 OA
ATOM     27  H   UNL A   1      32.260  26.551  27.177  1.00  0.00     0.293 HD
ENDBRANCH  15  26
ENDBRANCH   6   7
ENDBRANCH   4   6
ENDBRANCH   3   4
ENDBRANCH   2   3
ENDBRANCH   1   2
BRANCH   1  28
ATOM     28  O   UNL A   1      41.325  20.257  25.576  1.00  0.00    -0.374 OA
BRANCH  28  29
ATOM     29  C   UNL A   1      42.333  19.485  26.225  1.00  0.00     0.202 C 
BRANCH  29  30
ATOM     30  C   UNL A   1      43.394  18.766  25.372  1.00  0.00     0.261 C 
BRANCH  30  31
ATOM     31  O   UNL A   1      44.623  19.491  25.305  1.00  0.00    -0.460 OA
BRANCH  31  32
ATOM     32  C   UNL A   1      44.761  20.255  24.188  1.00  0.00     0.338 C 
ATOM     33  O   UNL A   1      44.520  19.948  23.035  1.00  0.00    -0.246 OA
BRANCH  32  34
ATOM     34  C   UNL A   1      44.826  21.627  24.710  1.00  0.00     0.060 A 
ATOM     35  C   UNL A   1      45.630  21.908  25.820  1.00  0.00     0.016 A 
ATOM     36  C   UNL A   1      43.779  22.476  24.319  1.00  0.00     0.016 A 
ATOM     37  C   UNL A   1      45.303  23.000  26.608  1.00  0.00     0.010 A 
ATOM     38  C   UNL A   1      43.441  23.552  25.128  1.00  0.00     0.010 A 
ATOM     39  C   UNL A   1      44.178  23.784  26.292  1.00  0.00    -0.014 A 
BRANCH  39  40
ATOM     40  C   UNL A   1      43.953  24.985  27.090  1.00  0.00     0.031 A 
ATOM     41  C   UNL A   1      45.061  25.965  26.929  1.00  0.00     0.074 A 
ATOM     42  C   UNL A   1      42.835  25.284  27.782  1.00  0.00     0.049 A 
ATOM     43  N   UNL A   1      45.876  26.412  27.827  1.00  0.00    -0.248 NA
ATOM     44  C   UNL A   1      45.400  26.364  25.552  1.00  0.00     0.031 C 
ATOM     45  C   UNL A   1      41.554  24.578  27.797  1.00  0.00     0.029 A 
ATOM     46  N   UNL A   1      42.589  26.371  28.570  1.00  0.00    -0.354 N 
ATOM     47  C   UNL A   1      46.729  27.285  27.155  1.00  0.00     0.074 A 
ATOM     48  C   UNL A   1      46.502  27.084  25.749  1.00  0.00     0.031 C 
ATOM     49  C   UNL A   1      40.616  25.356  28.384  1.00  0.00     0.029 A 
ATOM     50  C   UNL A   1      41.249  26.566  28.880  1.00  0.00     0.049 A 
ATOM     51  H   UNL A   1      43.303  26.968  28.893  1.00  0.00     0.167 HD
ATOM     52  C   UNL A   1      47.400  28.272  27.803  1.00  0.00     0.037 A 
ATOM     53  C   UNL A   1      40.693  27.670  29.440  1.00  0.00     0.037 A 
ATOM     54  C   UNL A   1      47.480  28.013  29.216  1.00  0.00     0.049 A 
ATOM     55  C   UNL A   1      41.778  28.463  30.063  1.00  0.00     0.074 A 
ATOM     56  C   UNL A   1      48.063  27.037  29.999  1.00  0.00     0.029 A 
ATOM     57  N   UNL A   1      46.602  28.675  30.035  1.00  0.00    -0.354 N 
ATOM     58  N   UNL A   1      42.426  28.097  31.131  1.00  0.00    -0.248 NA
ATOM     59  C   UNL A   1      42.447  29.462  29.241  1.00  0.00     0.031 C 
ATOM     60  C   UNL A   1      47.173  26.864  31.100  1.00  0.00     0.029 A 
ATOM     61  C   UNL A   1      46.124  27.769  30.943  1.00  0.00     0.049 A 
ATOM     62  H   UNL A   1      46.360  29.628  29.981  1.00  0.00     0.167 HD
ATOM     63  C   UNL A   1      43.739  28.474  30.896  1.00  0.00     0.074 A 
ATOM     64  C   UNL A   1      43.673  29.396  29.763  1.00  0.00     0.031 C 
ATOM     65  C   UNL A   1      44.776  27.788  31.458  1.00  0.00     0.037 A 
BRANCH  52  66
ATOM     66  C   UNL A   1      47.633  29.646  27.220  1.00  0.00     0.057 A 
ATOM     67  C   UNL A   1      46.605  30.554  26.889  1.00  0.00     0.134 A 
ATOM     68  C   UNL A   1      48.922  30.202  27.283  1.00  0.00     0.134 A 
ATOM     69  F   UNL A   1      45.314  30.206  26.851  1.00  0.00    -0.206 F 
ATOM     70  C   UNL A   1      46.836  31.915  26.678  1.00  0.00     0.040 A 
ATOM     71  C   UNL A   1      49.155  31.573  27.125  1.00  0.00     0.040 A 
ATOM     72  F   UNL A   1      49.986  29.443  27.588  1.00  0.00    -0.206 F 
ATOM     73  C   UNL A   1      48.108  32.437  26.833  1.00  0.00     0.006 A 
ENDBRANCH  52  66
BRANCH  53  74
ATOM     74  C   UNL A   1      39.337  28.231  29.236  1.00  0.00     0.057 A 
ATOM     75  C   UNL A   1      39.025  28.966  28.078  1.00  0.00     0.134 A 
ATOM     76  C   UNL A   1      38.398  28.293  30.275  1.00  0.00     0.134 A 
ATOM     77  F   UNL A   1      39.893  29.049  27.059  1.00  0.00    -0.206 F 
ATOM     78  C   UNL A   1      37.851  29.716  27.959  1.00  0.00     0.040 A 
ATOM     79  C   UNL A   1      37.219  29.045  30.171  1.00  0.00     0.040 A 
ATOM     80  F   UNL A   1      38.629  27.668  31.439  1.00  0.00    -0.206 F 
ATOM     81  C   UNL A   1      36.947  29.766  29.012  1.00  0.00     0.006 A 
ENDBRANCH  53  74
BRANCH  65  82
ATOM     82  C   UNL A   1      44.441  26.792  32.531  1.00  0.00     0.057 A 
ATOM     83  C   UNL A   1      44.446  27.210  33.865  1.00  0.00     0.134 A 
ATOM     84  C   UNL A   1      44.244  25.422  32.295  1.00  0.00     0.134 A 
ATOM     85  F   UNL A   1      44.688  28.495  34.170  1.00  0.00    -0.206 F 
ATOM     86  C   UNL A   1      44.250  26.315  34.919  1.00  0.00     0.040 A 
ATOM     87  C   UNL A   1      44.011  24.521  33.338  1.00  0.00     0.040 A 
ATOM     88  F   UNL A   1      44.324  24.913  31.059  1.00  0.00    -0.206 F 
ATOM     89  C   UNL A   1      44.018  24.967  34.656  1.00  0.00     0.006 A 
ENDBRANCH  65  82
ENDBRANCH  39  40
ENDBRANCH  32  34
ENDBRANCH  31  32
ENDBRANCH  30  31
ENDBRANCH  29  30
ENDBRANCH  28  29
ENDBRANCH   1  28
TORSDOF 18
ENDMDL
MODEL 3
REMARK VINA RESULT:     -11.6      0.459      1.435
REMARK SMILES Cc1c(CC(=O)OCCOCCOC(=O)c2ccc(-c3c4nc(c(-c5c(F)cccc5F)c5ccc([nH]5)c(-c5c(F)cccc5F)c5nc(c(-c6c(F)cccc6F)c6ccc3[nH]6)C=C5)C=C4)cc2)c2cc(O)ccc2n1C(=O)c1ccc(Cl)cc1
REMARK SMILES IDX 9 1 8 2 7 3 5 4 6 5 4 6 3 7 1 8 2 9 77 10 70 11 76 12 71 13
REMARK SMILES IDX 75 14 72 15 74 16 78 17 79 18 80 19 81 20 86 21 82 22 85 23
REMARK SMILES IDX 83 24 84 25 73 26 10 28 11 29 12 30 13 31 14 32 15 33 16 34
REMARK SMILES IDX 17 35 69 36 18 37 68 38 19 39 20 40 21 41 62 42 22 43 67 44
REMARK SMILES IDX 61 45 63 46 23 47 66 48 60 49 59 50 24 52 50 53 33 54 49 55
REMARK SMILES IDX 34 56 37 57 48 58 64 59 35 60 36 61 47 63 65 64 38 65 25 66
REMARK SMILES IDX 26 67 31 68 27 69 28 70 30 71 32 72 29 73 51 74 52 75 57 76
REMARK SMILES IDX 53 77 54 78 56 79 58 80 55 81 39 82 40 83 45 84 41 85 42 86
REMARK SMILES IDX 44 87 46 88 43 89
REMARK H PARENT 73 27 63 51 37 62
REMARK Flexibility Score: inf
ROOT
ATOM      1  C   UNL A   1      31.640  28.497  24.609  1.00  0.00     0.202 C 
ENDROOT
BRANCH   1   2
ATOM      2  C   UNL A   1      32.539  27.250  24.604  1.00  0.00     0.261 C 
BRANCH   2   3
ATOM      3  O   UNL A   1      31.831  26.000  24.682  1.00  0.00    -0.463 OA
BRANCH   3   4
ATOM      4  C   UNL A   1      31.626  25.543  25.945  1.00  0.00     0.310 C 
ATOM      5  O   UNL A   1      30.603  25.760  26.596  1.00  0.00    -0.252 OA
BRANCH   4   6
ATOM      6  C   UNL A   1      32.737  24.707  26.539  1.00  0.00     0.160 C 
BRANCH   6   7
ATOM      7  C   UNL A   1      33.230  23.483  25.814  1.00  0.00    -0.008 A 
ATOM      8  C   UNL A   1      30.980  22.255  25.433  1.00  0.00     0.065 C 
ATOM      9  C   UNL A   1      32.460  22.445  25.307  1.00  0.00     0.028 A 
ATOM     10  N   UNL A   1      33.278  21.566  24.578  1.00  0.00    -0.280 N 
ATOM     11  C   UNL A   1      34.576  23.233  25.405  1.00  0.00     0.008 A 
ATOM     12  C   UNL A   1      34.603  22.025  24.697  1.00  0.00     0.057 A 
ATOM     13  C   UNL A   1      35.785  23.945  25.592  1.00  0.00     0.056 A 
ATOM     14  C   UNL A   1      35.836  21.521  24.220  1.00  0.00     0.031 A 
ATOM     15  C   UNL A   1      36.996  23.369  25.218  1.00  0.00     0.116 A 
ATOM     16  C   UNL A   1      37.030  22.175  24.531  1.00  0.00     0.048 A 
BRANCH  10  17
ATOM     17  C   UNL A   1      32.824  20.443  23.821  1.00  0.00     0.262 C 
ATOM     18  O   UNL A   1      32.314  20.633  22.718  1.00  0.00    -0.268 OA
BRANCH  17  19
ATOM     19  C   UNL A   1      32.952  19.035  24.228  1.00  0.00     0.040 A 
ATOM     20  C   UNL A   1      33.280  18.057  23.282  1.00  0.00     0.015 A 
ATOM     21  C   UNL A   1      32.716  18.692  25.564  1.00  0.00     0.015 A 
ATOM     22  C   UNL A   1      33.282  16.713  23.663  1.00  0.00     0.021 A 
ATOM     23  C   UNL A   1      32.732  17.348  25.940  1.00  0.00     0.021 A 
ATOM     24  C   UNL A   1      32.994  16.364  24.985  1.00  0.00     0.041 A 
ATOM     25  Cl  UNL A   1      32.936  14.705  25.434  1.00  0.00    -0.084 Cl
ENDBRANCH  17  19
ENDBRANCH  10  17
BRANCH  15  26
ATOM     26  O   UNL A   1      38.144  23.986  25.620  1.00  0.00    -0.508 OA
ATOM     27  H   UNL A   1      38.809  24.194  24.993  1.00  0.00     0.293 HD
ENDBRANCH  15  26
ENDBRANCH   6   7
ENDBRANCH   4   6
ENDBRANCH   3   4
ENDBRANCH   2   3
ENDBRANCH   1   2
BRANCH   1  28
ATOM     28  O   UNL A   1      32.160  29.757  25.009  1.00  0.00    -0.374 OA
BRANCH  28  29
ATOM     29  C   UNL A   1      33.085  29.765  26.094  1.00  0.00     0.202 C 
BRANCH  29  30
ATOM     30  C   UNL A   1      33.102  30.967  27.057  1.00  0.00     0.261 C 
BRANCH  30  31
ATOM     31  O   UNL A   1      34.092  30.833  28.077  1.00  0.00    -0.460 OA
BRANCH  31  32
ATOM     32  C   UNL A   1      35.123  31.714  27.973  1.00  0.00     0.338 C 
ATOM     33  O   UNL A   1      35.069  32.914  27.775  1.00  0.00    -0.246 OA
BRANCH  32  34
ATOM     34  C   UNL A   1      36.254  31.002  28.585  1.00  0.00     0.060 A 
ATOM     35  C   UNL A   1      37.396  31.713  28.966  1.00  0.00     0.016 A 
ATOM     36  C   UNL A   1      36.280  29.613  28.378  1.00  0.00     0.016 A 
ATOM     37  C   UNL A   1      38.602  31.034  29.033  1.00  0.00     0.010 A 
ATOM     38  C   UNL A   1      37.496  28.945  28.421  1.00  0.00     0.010 A 
ATOM     39  C   UNL A   1      38.658  29.667  28.705  1.00  0.00    -0.014 A 
BRANCH  39  40
ATOM     40  C   UNL A   1      39.930  28.981  28.905  1.00  0.00     0.031 A 
ATOM     41  C   UNL A   1      40.235  28.804  30.351  1.00  0.00     0.074 A 
ATOM     42  C   UNL A   1      40.697  28.427  27.945  1.00  0.00     0.049 A 
ATOM     43  N   UNL A   1      41.227  29.281  31.028  1.00  0.00    -0.248 NA
ATOM     44  C   UNL A   1      39.205  28.144  31.171  1.00  0.00     0.031 C 
ATOM     45  C   UNL A   1      40.394  28.250  26.524  1.00  0.00     0.029 A 
ATOM     46  N   UNL A   1      41.907  27.809  28.074  1.00  0.00    -0.354 N 
ATOM     47  C   UNL A   1      41.034  28.838  32.335  1.00  0.00     0.074 A 
ATOM     48  C   UNL A   1      39.703  28.297  32.396  1.00  0.00     0.031 C 
ATOM     49  C   UNL A   1      41.292  27.400  25.974  1.00  0.00     0.029 A 
ATOM     50  C   UNL A   1      42.291  27.057  26.971  1.00  0.00     0.049 A 
ATOM     51  H   UNL A   1      42.464  27.892  28.882  1.00  0.00     0.167 HD
ATOM     52  C   UNL A   1      42.062  28.740  33.217  1.00  0.00     0.037 A 
ATOM     53  C   UNL A   1      43.313  26.166  26.906  1.00  0.00     0.037 A 
ATOM     54  C   UNL A   1      43.184  29.541  32.808  1.00  0.00     0.049 A 
ATOM     55  C   UNL A   1      44.221  26.428  28.047  1.00  0.00     0.074 A 
ATOM     56  C   UNL A   1      43.407  30.890  32.624  1.00  0.00     0.029 A 
ATOM     57  N   UNL A   1      44.231  28.902  32.193  1.00  0.00    -0.354 N 
ATOM     58  N   UNL A   1      44.982  27.479  28.145  1.00  0.00    -0.248 NA
ATOM     59  C   UNL A   1      43.958  25.730  29.297  1.00  0.00     0.031 C 
ATOM     60  C   UNL A   1      44.308  30.972  31.522  1.00  0.00     0.029 A 
ATOM     61  C   UNL A   1      44.611  29.670  31.125  1.00  0.00     0.049 A 
ATOM     62  H   UNL A   1      44.635  28.048  32.469  1.00  0.00     0.167 HD
ATOM     63  C   UNL A   1      44.934  27.827  29.486  1.00  0.00     0.074 A 
ATOM     64  C   UNL A   1      44.371  26.660  30.162  1.00  0.00     0.031 C 
ATOM     65  C   UNL A   1      45.092  29.124  29.878  1.00  0.00     0.037 A 
BRANCH  52  66
ATOM     66  C   UNL A   1      42.192  27.625  34.227  1.00  0.00     0.057 A 
ATOM     67  C   UNL A   1      42.926  26.439  34.013  1.00  0.00     0.134 A 
ATOM     68  C   UNL A   1      41.839  27.874  35.565  1.00  0.00     0.134 A 
ATOM     69  F   UNL A   1      43.398  26.085  32.813  1.00  0.00    -0.206 F 
ATOM     70  C   UNL A   1      43.315  25.590  35.052  1.00  0.00     0.040 A 
ATOM     71  C   UNL A   1      42.269  27.057  36.618  1.00  0.00     0.040 A 
ATOM     72  F   UNL A   1      41.140  28.968  35.901  1.00  0.00    -0.206 F 
ATOM     73  C   UNL A   1      43.020  25.917  36.364  1.00  0.00     0.006 A 
ENDBRANCH  52  66
BRANCH  53  74
ATOM     74  C   UNL A   1      43.415  24.930  26.096  1.00  0.00     0.057 A 
ATOM     75  C   UNL A   1      42.594  23.820  26.363  1.00  0.00     0.134 A 
ATOM     76  C   UNL A   1      44.488  24.705  25.223  1.00  0.00     0.134 A 
ATOM     77  F   UNL A   1      41.593  23.900  27.251  1.00  0.00    -0.206 F 
ATOM     78  C   UNL A   1      42.825  22.562  25.796  1.00  0.00     0.040 A 
ATOM     79  C   UNL A   1      44.735  23.448  24.651  1.00  0.00     0.040 A 
ATOM     80  F   UNL A   1      45.358  25.687  24.946  1.00  0.00    -0.206 F 
ATOM     81  C   UNL A   1      43.905  22.369  24.945  1.00  0.00     0.006 A 
ENDBRANCH  53  74
BRANCH  65  82
ATOM     82  C   UNL A   1      45.574  30.103  28.846  1.00  0.00     0.057 A 
ATOM     83  C   UNL A   1      46.923  30.468  28.840  1.00  0.00     0.134 A 
ATOM     84  C   UNL A   1      44.728  30.781  27.955  1.00  0.00     0.134 A 
ATOM     85  F   UNL A   1      47.780  29.905  29.707  1.00  0.00    -0.206 F 
ATOM     86  C   UNL A   1      47.417  31.451  27.979  1.00  0.00     0.040 A 
ATOM     87  C   UNL A   1      45.214  31.741  27.063  1.00  0.00     0.040 A 
ATOM     88  F   UNL A   1      43.405  30.571  27.959  1.00  0.00    -0.206 F 
ATOM     89  C   UNL A   1      46.564  32.082  27.077  1.00  0.00     0.006 A 
ENDBRANCH  65  82
ENDBRANCH  39  40
ENDBRANCH  32  34
ENDBRANCH  31  32
ENDBRANCH  30  31
ENDBRANCH  29  30
ENDBRANCH  28  29
ENDBRANCH   1  28
TORSDOF 18
ENDMDL
