MODEL 1
REMARK VINA RESULT:     -11.5      0.000      0.000
REMARK SMILES O=C(N[C@]1(C(=O)OCCOCCOC(=O)c2ccc(-c3c4nc(c(-c5c(F)cccc5F)c5ccc([nH]5)c(-c5c(F)cccc5F)c5nc(c(-c6c(F)cccc6F)c6ccc3[nH]6)C=C5)C=C4)cc2)CC[C@H](c2ccccc2)CC1)OCC1c2ccccc2-c2ccccc21
REMARK SMILES IDX 9 1 8 2 7 3 5 4 6 5 4 6 70 7 80 8 71 9 79 10 72 11 3 12 1 13
REMARK SMILES IDX 2 14 81 16 82 17 83 18 84 19 95 20 85 21 89 22 90 23 94 24
REMARK SMILES IDX 86 25 88 26 91 27 93 28 87 29 92 30 73 31 74 32 78 33 75 34
REMARK SMILES IDX 77 35 76 36 10 37 11 38 12 39 13 40 14 41 15 42 16 43 17 44
REMARK SMILES IDX 69 45 18 46 68 47 19 48 20 49 21 50 62 51 22 52 67 53 61 54
REMARK SMILES IDX 63 55 23 56 66 57 60 58 59 59 24 61 50 62 33 63 49 64 34 65
REMARK SMILES IDX 37 66 48 67 64 68 35 69 36 70 47 72 65 73 38 74 25 75 26 76
REMARK SMILES IDX 31 77 27 78 28 79 30 80 32 81 29 82 51 83 52 84 57 85 53 86
REMARK SMILES IDX 54 87 56 88 58 89 55 90 39 91 40 92 45 93 41 94 42 95 44 96
REMARK SMILES IDX 46 97 43 98
REMARK H PARENT 3 15 63 60 37 71
REMARK Flexibility Score: inf
ROOT
ATOM      1  C   UNL A   1      36.043  21.102  25.476  1.00  0.00     0.202 C 
ENDROOT
BRANCH   1   2
ATOM      2  C   UNL A   1      35.008  19.979  25.385  1.00  0.00     0.261 C 
BRANCH   2   3
ATOM      3  O   UNL A   1      33.658  20.461  25.242  1.00  0.00    -0.461 OA
BRANCH   3   4
ATOM      4  C   UNL A   1      33.305  21.482  26.079  1.00  0.00     0.332 C 
ATOM      5  O   UNL A   1      33.318  21.402  27.304  1.00  0.00    -0.249 OA
BRANCH   4   6
ATOM      6  C   UNL A   1      32.895  22.769  25.299  1.00  0.00     0.141 C 
ATOM      7  C   UNL A   1      33.006  22.414  23.810  1.00  0.00     0.041 C 
ATOM      8  C   UNL A   1      33.701  24.013  25.746  1.00  0.00     0.041 C 
ATOM      9  C   UNL A   1      34.234  22.915  23.066  1.00  0.00     0.011 C 
ATOM     10  C   UNL A   1      34.864  24.465  24.872  1.00  0.00     0.011 C 
ATOM     11  C   UNL A   1      34.600  24.365  23.372  1.00  0.00     0.019 C 
BRANCH   6  12
ATOM     12  N   UNL A   1      31.506  23.036  25.804  1.00  0.00    -0.305 N 
ATOM     13  O   UNL A   1      29.683  24.022  26.676  1.00  0.00    -0.225 OA
ATOM     14  C   UNL A   1      30.905  24.016  26.516  1.00  0.00     0.408 C 
ATOM     15  H   UNL A   1      30.878  22.320  25.554  1.00  0.00     0.168 HD
BRANCH  14  16
ATOM     16  O   UNL A   1      31.710  24.997  26.993  1.00  0.00    -0.449 OA
BRANCH  16  17
ATOM     17  C   UNL A   1      31.108  26.245  26.691  1.00  0.00     0.248 C 
BRANCH  17  18
ATOM     18  C   UNL A   1      31.553  26.929  25.375  1.00  0.00     0.088 C 
ATOM     19  C   UNL A   1      30.562  27.768  24.571  1.00  0.00    -0.029 A 
ATOM     20  C   UNL A   1      32.543  28.013  25.833  1.00  0.00    -0.029 A 
ATOM     21  C   UNL A   1      29.498  27.348  23.782  1.00  0.00     0.005 A 
ATOM     22  C   UNL A   1      30.889  29.142  24.662  1.00  0.00    -0.014 A 
ATOM     23  C   UNL A   1      32.042  29.291  25.518  1.00  0.00    -0.014 A 
ATOM     24  C   UNL A   1      33.650  27.842  26.652  1.00  0.00     0.005 A 
ATOM     25  C   UNL A   1      28.759  28.316  23.090  1.00  0.00     0.000 A 
ATOM     26  C   UNL A   1      30.154  30.101  23.980  1.00  0.00     0.009 A 
ATOM     27  C   UNL A   1      32.599  30.417  26.099  1.00  0.00     0.009 A 
ATOM     28  C   UNL A   1      34.208  28.976  27.237  1.00  0.00     0.000 A 
ATOM     29  C   UNL A   1      29.086  29.680  23.182  1.00  0.00     0.001 A 
ATOM     30  C   UNL A   1      33.675  30.250  26.978  1.00  0.00     0.001 A 
ENDBRANCH  17  18
ENDBRANCH  16  17
ENDBRANCH  14  16
ENDBRANCH   6  12
BRANCH  11  31
ATOM     31  C   UNL A   1      33.696  25.450  22.781  1.00  0.00    -0.045 A 
ATOM     32  C   UNL A   1      32.480  25.219  22.121  1.00  0.00     0.004 A 
ATOM     33  C   UNL A   1      34.117  26.789  22.867  1.00  0.00     0.004 A 
ATOM     34  C   UNL A   1      31.764  26.247  21.497  1.00  0.00     0.000 A 
ATOM     35  C   UNL A   1      33.390  27.827  22.272  1.00  0.00     0.000 A 
ATOM     36  C   UNL A   1      32.222  27.554  21.567  1.00  0.00     0.000 A 
ENDBRANCH  11  31
ENDBRANCH   4   6
ENDBRANCH   3   4
ENDBRANCH   2   3
ENDBRANCH   1   2
BRANCH   1  37
ATOM     37  O   UNL A   1      37.177  21.017  24.621  1.00  0.00    -0.374 OA
BRANCH  37  38
ATOM     38  C   UNL A   1      38.253  20.168  25.006  1.00  0.00     0.202 C 
BRANCH  38  39
ATOM     39  C   UNL A   1      39.373  20.790  25.846  1.00  0.00     0.261 C 
BRANCH  39  40
ATOM     40  O   UNL A   1      39.270  22.222  25.952  1.00  0.00    -0.460 OA
BRANCH  40  41
ATOM     41  C   UNL A   1      40.438  22.841  26.252  1.00  0.00     0.338 C 
ATOM     42  O   UNL A   1      41.568  22.453  25.997  1.00  0.00    -0.246 OA
BRANCH  41  43
ATOM     43  C   UNL A   1      40.198  24.177  26.823  1.00  0.00     0.060 A 
ATOM     44  C   UNL A   1      40.961  25.236  26.313  1.00  0.00     0.016 A 
ATOM     45  C   UNL A   1      39.374  24.363  27.935  1.00  0.00     0.016 A 
ATOM     46  C   UNL A   1      40.963  26.468  26.961  1.00  0.00     0.010 A 
ATOM     47  C   UNL A   1      39.383  25.602  28.589  1.00  0.00     0.010 A 
ATOM     48  C   UNL A   1      40.215  26.641  28.133  1.00  0.00    -0.014 A 
BRANCH  48  49
ATOM     49  C   UNL A   1      40.458  27.844  28.966  1.00  0.00     0.031 A 
ATOM     50  C   UNL A   1      41.768  27.972  29.699  1.00  0.00     0.074 A 
ATOM     51  C   UNL A   1      39.557  28.840  29.018  1.00  0.00     0.049 A 
ATOM     52  N   UNL A   1      42.191  28.931  30.482  1.00  0.00    -0.248 NA
ATOM     53  C   UNL A   1      42.730  26.871  29.522  1.00  0.00     0.031 C 
ATOM     54  C   UNL A   1      38.277  28.857  28.313  1.00  0.00     0.029 A 
ATOM     55  N   UNL A   1      39.588  30.033  29.695  1.00  0.00    -0.354 N 
ATOM     56  C   UNL A   1      43.463  28.552  30.892  1.00  0.00     0.074 A 
ATOM     57  C   UNL A   1      43.731  27.259  30.297  1.00  0.00     0.031 C 
ATOM     58  C   UNL A   1      37.638  30.003  28.603  1.00  0.00     0.029 A 
ATOM     59  C   UNL A   1      38.451  30.783  29.534  1.00  0.00     0.049 A 
ATOM     60  H   UNL A   1      40.352  30.322  30.244  1.00  0.00     0.167 HD
ATOM     61  C   UNL A   1      44.336  29.222  31.681  1.00  0.00     0.037 A 
ATOM     62  C   UNL A   1      38.098  31.957  30.093  1.00  0.00     0.037 A 
ATOM     63  C   UNL A   1      44.072  30.509  32.270  1.00  0.00     0.049 A 
ATOM     64  C   UNL A   1      39.055  32.651  31.027  1.00  0.00     0.074 A 
ATOM     65  C   UNL A   1      44.895  31.272  33.079  1.00  0.00     0.029 A 
ATOM     66  N   UNL A   1      42.892  31.219  32.114  1.00  0.00    -0.354 N 
ATOM     67  N   UNL A   1      40.259  32.287  31.397  1.00  0.00    -0.248 NA
ATOM     68  C   UNL A   1      38.603  33.920  31.617  1.00  0.00     0.031 C 
ATOM     69  C   UNL A   1      44.195  32.426  33.450  1.00  0.00     0.029 A 
ATOM     70  C   UNL A   1      42.954  32.402  32.832  1.00  0.00     0.049 A 
ATOM     71  H   UNL A   1      42.123  30.926  31.574  1.00  0.00     0.167 HD
ATOM     72  C   UNL A   1      40.718  33.293  32.240  1.00  0.00     0.074 A 
ATOM     73  C   UNL A   1      39.667  34.286  32.317  1.00  0.00     0.031 C 
ATOM     74  C   UNL A   1      41.903  33.384  32.893  1.00  0.00     0.037 A 
BRANCH  61  75
ATOM     75  C   UNL A   1      45.653  28.564  31.972  1.00  0.00     0.057 A 
ATOM     76  C   UNL A   1      46.796  28.823  31.203  1.00  0.00     0.134 A 
ATOM     77  C   UNL A   1      45.787  27.685  33.054  1.00  0.00     0.134 A 
ATOM     78  F   UNL A   1      46.731  29.644  30.145  1.00  0.00    -0.206 F 
ATOM     79  C   UNL A   1      48.020  28.214  31.490  1.00  0.00     0.040 A 
ATOM     80  C   UNL A   1      47.011  27.089  33.364  1.00  0.00     0.040 A 
ATOM     81  F   UNL A   1      44.732  27.397  33.832  1.00  0.00    -0.206 F 
ATOM     82  C   UNL A   1      48.131  27.350  32.578  1.00  0.00     0.006 A 
ENDBRANCH  61  75
BRANCH  62  83
ATOM     83  C   UNL A   1      36.766  32.546  29.800  1.00  0.00     0.057 A 
ATOM     84  C   UNL A   1      35.638  32.211  30.558  1.00  0.00     0.134 A 
ATOM     85  C   UNL A   1      36.590  33.445  28.742  1.00  0.00     0.134 A 
ATOM     86  F   UNL A   1      35.740  31.337  31.570  1.00  0.00    -0.206 F 
ATOM     87  C   UNL A   1      34.379  32.736  30.263  1.00  0.00     0.040 A 
ATOM     88  C   UNL A   1      35.342  33.997  28.452  1.00  0.00     0.040 A 
ATOM     89  F   UNL A   1      37.632  33.808  27.979  1.00  0.00    -0.206 F 
ATOM     90  C   UNL A   1      34.229  33.637  29.210  1.00  0.00     0.006 A 
ENDBRANCH  62  83
BRANCH  74  91
ATOM     91  C   UNL A   1      42.141  34.614  33.719  1.00  0.00     0.057 A 
ATOM     92  C   UNL A   1      42.709  35.772  33.176  1.00  0.00     0.134 A 
ATOM     93  C   UNL A   1      41.756  34.653  35.066  1.00  0.00     0.134 A 
ATOM     94  F   UNL A   1      43.111  35.796  31.896  1.00  0.00    -0.206 F 
ATOM     95  C   UNL A   1      42.907  36.919  33.948  1.00  0.00     0.040 A 
ATOM     96  C   UNL A   1      41.925  35.801  35.841  1.00  0.00     0.040 A 
ATOM     97  F   UNL A   1      41.196  33.580  35.646  1.00  0.00    -0.206 F 
ATOM     98  C   UNL A   1      42.508  36.937  35.283  1.00  0.00     0.006 A 
ENDBRANCH  74  91
ENDBRANCH  48  49
ENDBRANCH  41  43
ENDBRANCH  40  41
ENDBRANCH  39  40
ENDBRANCH  38  39
ENDBRANCH  37  38
ENDBRANCH   1  37
TORSDOF 19
ENDMDL
MODEL 2
REMARK VINA RESULT:     -11.4      3.510      8.559
REMARK SMILES O=C(N[C@]1(C(=O)OCCOCCOC(=O)c2ccc(-c3c4nc(c(-c5c(F)cccc5F)c5ccc([nH]5)c(-c5c(F)cccc5F)c5nc(c(-c6c(F)cccc6F)c6ccc3[nH]6)C=C5)C=C4)cc2)CC[C@H](c2ccccc2)CC1)OCC1c2ccccc2-c2ccccc21
REMARK SMILES IDX 9 1 8 2 7 3 5 4 6 5 4 6 70 7 80 8 71 9 79 10 72 11 3 12 1 13
REMARK SMILES IDX 2 14 81 16 82 17 83 18 84 19 95 20 85 21 89 22 90 23 94 24
REMARK SMILES IDX 86 25 88 26 91 27 93 28 87 29 92 30 73 31 74 32 78 33 75 34
REMARK SMILES IDX 77 35 76 36 10 37 11 38 12 39 13 40 14 41 15 42 16 43 17 44
REMARK SMILES IDX 69 45 18 46 68 47 19 48 20 49 21 50 62 51 22 52 67 53 61 54
REMARK SMILES IDX 63 55 23 56 66 57 60 58 59 59 24 61 50 62 33 63 49 64 34 65
REMARK SMILES IDX 37 66 48 67 64 68 35 69 36 70 47 72 65 73 38 74 25 75 26 76
REMARK SMILES IDX 31 77 27 78 28 79 30 80 32 81 29 82 51 83 52 84 57 85 53 86
REMARK SMILES IDX 54 87 56 88 58 89 55 90 39 91 40 92 45 93 41 94 42 95 44 96
REMARK SMILES IDX 46 97 43 98
REMARK H PARENT 3 15 63 60 37 71
REMARK Flexibility Score: inf
ROOT
ATOM      1  C   UNL A   1      33.081  32.200  27.503  1.00  0.00     0.202 C 
ENDROOT
BRANCH   1   2
ATOM      2  C   UNL A   1      31.790  31.863  26.756  1.00  0.00     0.261 C 
BRANCH   2   3
ATOM      3  O   UNL A   1      31.620  30.452  26.525  1.00  0.00    -0.461 OA
BRANCH   3   4
ATOM      4  C   UNL A   1      31.131  30.109  25.296  1.00  0.00     0.332 C 
ATOM      5  O   UNL A   1      30.391  30.825  24.627  1.00  0.00    -0.249 OA
BRANCH   4   6
ATOM      6  C   UNL A   1      31.633  28.708  24.832  1.00  0.00     0.141 C 
ATOM      7  C   UNL A   1      31.925  28.839  23.330  1.00  0.00     0.041 C 
ATOM      8  C   UNL A   1      30.658  27.570  25.220  1.00  0.00     0.041 C 
ATOM      9  C   UNL A   1      30.893  28.272  22.369  1.00  0.00     0.011 C 
ATOM     10  C   UNL A   1      29.723  27.030  24.145  1.00  0.00     0.011 C 
ATOM     11  C   UNL A   1      30.362  26.895  22.765  1.00  0.00     0.019 C 
BRANCH   6  12
ATOM     12  N   UNL A   1      32.830  28.475  25.710  1.00  0.00    -0.305 N 
ATOM     13  O   UNL A   1      34.758  27.694  26.560  1.00  0.00    -0.225 OA
ATOM     14  C   UNL A   1      33.812  27.548  25.785  1.00  0.00     0.408 C 
ATOM     15  H   UNL A   1      32.921  29.170  26.402  1.00  0.00     0.168 HD
BRANCH  14  16
ATOM     16  O   UNL A   1      33.715  26.496  24.937  1.00  0.00    -0.449 OA
BRANCH  16  17
ATOM     17  C   UNL A   1      34.694  25.540  25.309  1.00  0.00     0.248 C 
BRANCH  17  18
ATOM     18  C   UNL A   1      34.267  24.480  26.354  1.00  0.00     0.088 C 
ATOM     19  C   UNL A   1      32.858  23.889  26.319  1.00  0.00    -0.029 A 
ATOM     20  C   UNL A   1      35.108  23.243  25.997  1.00  0.00    -0.029 A 
ATOM     21  C   UNL A   1      31.654  24.475  26.686  1.00  0.00     0.005 A 
ATOM     22  C   UNL A   1      32.899  22.540  25.892  1.00  0.00    -0.014 A 
ATOM     23  C   UNL A   1      34.268  22.184  25.600  1.00  0.00    -0.014 A 
ATOM     24  C   UNL A   1      36.484  23.187  25.831  1.00  0.00     0.005 A 
ATOM     25  C   UNL A   1      30.488  23.702  26.616  1.00  0.00     0.000 A 
ATOM     26  C   UNL A   1      31.743  21.776  25.818  1.00  0.00     0.009 A 
ATOM     27  C   UNL A   1      34.798  21.086  24.946  1.00  0.00     0.009 A 
ATOM     28  C   UNL A   1      37.015  22.082  25.172  1.00  0.00     0.000 A 
ATOM     29  C   UNL A   1      30.531  22.363  26.192  1.00  0.00     0.001 A 
ATOM     30  C   UNL A   1      36.178  21.051  24.716  1.00  0.00     0.001 A 
ENDBRANCH  17  18
ENDBRANCH  16  17
ENDBRANCH  14  16
ENDBRANCH   6  12
BRANCH  11  31
ATOM     31  C   UNL A   1      31.309  25.707  22.582  1.00  0.00    -0.045 A 
ATOM     32  C   UNL A   1      32.557  25.757  21.944  1.00  0.00     0.004 A 
ATOM     33  C   UNL A   1      30.898  24.448  23.055  1.00  0.00     0.004 A 
ATOM     34  C   UNL A   1      33.318  24.607  21.703  1.00  0.00     0.000 A 
ATOM     35  C   UNL A   1      31.668  23.297  22.844  1.00  0.00     0.000 A 
ATOM     36  C   UNL A   1      32.870  23.372  22.149  1.00  0.00     0.000 A 
ENDBRANCH  11  31
ENDBRANCH   4   6
ENDBRANCH   3   4
ENDBRANCH   2   3
ENDBRANCH   1   2
BRANCH   1  37
ATOM     37  O   UNL A   1      33.178  33.492  28.093  1.00  0.00    -0.374 OA
BRANCH  37  38
ATOM     38  C   UNL A   1      34.383  33.839  28.767  1.00  0.00     0.202 C 
BRANCH  38  39
ATOM     39  C   UNL A   1      34.391  33.725  30.295  1.00  0.00     0.261 C 
BRANCH  39  40
ATOM     40  O   UNL A   1      34.374  32.362  30.759  1.00  0.00    -0.460 OA
BRANCH  40  41
ATOM     41  C   UNL A   1      35.326  32.079  31.681  1.00  0.00     0.338 C 
ATOM     42  O   UNL A   1      35.339  32.408  32.858  1.00  0.00    -0.246 OA
BRANCH  41  43
ATOM     43  C   UNL A   1      36.336  31.158  31.133  1.00  0.00     0.060 A 
ATOM     44  C   UNL A   1      37.275  30.633  32.029  1.00  0.00     0.016 A 
ATOM     45  C   UNL A   1      36.467  30.946  29.759  1.00  0.00     0.016 A 
ATOM     46  C   UNL A   1      38.393  29.955  31.550  1.00  0.00     0.010 A 
ATOM     47  C   UNL A   1      37.595  30.269  29.279  1.00  0.00     0.010 A 
ATOM     48  C   UNL A   1      38.586  29.816  30.170  1.00  0.00    -0.014 A 
BRANCH  48  49
ATOM     49  C   UNL A   1      39.909  29.365  29.674  1.00  0.00     0.031 A 
ATOM     50  C   UNL A   1      41.050  30.346  29.638  1.00  0.00     0.074 A 
ATOM     51  C   UNL A   1      40.112  28.083  29.323  1.00  0.00     0.049 A 
ATOM     52  N   UNL A   1      42.284  30.171  29.243  1.00  0.00    -0.248 NA
ATOM     53  C   UNL A   1      40.759  31.708  30.116  1.00  0.00     0.031 C 
ATOM     54  C   UNL A   1      39.103  27.027  29.363  1.00  0.00     0.029 A 
ATOM     55  N   UNL A   1      41.243  27.454  28.866  1.00  0.00    -0.354 N 
ATOM     56  C   UNL A   1      42.917  31.396  29.421  1.00  0.00     0.074 A 
ATOM     57  C   UNL A   1      41.922  32.315  29.930  1.00  0.00     0.031 C 
ATOM     58  C   UNL A   1      39.658  25.879  28.937  1.00  0.00     0.029 A 
ATOM     59  C   UNL A   1      41.051  26.129  28.569  1.00  0.00     0.049 A 
ATOM     60  H   UNL A   1      42.108  27.911  28.761  1.00  0.00     0.167 HD
ATOM     61  C   UNL A   1      44.211  31.724  29.195  1.00  0.00     0.037 A 
ATOM     62  C   UNL A   1      41.898  25.225  28.040  1.00  0.00     0.037 A 
ATOM     63  C   UNL A   1      45.202  30.809  28.691  1.00  0.00     0.049 A 
ATOM     64  C   UNL A   1      43.314  25.631  27.726  1.00  0.00     0.074 A 
ATOM     65  C   UNL A   1      46.542  31.045  28.434  1.00  0.00     0.029 A 
ATOM     66  N   UNL A   1      44.958  29.484  28.366  1.00  0.00    -0.354 N 
ATOM     67  N   UNL A   1      43.903  26.789  27.910  1.00  0.00    -0.248 NA
ATOM     68  C   UNL A   1      44.184  24.604  27.134  1.00  0.00     0.031 C 
ATOM     69  C   UNL A   1      47.099  29.873  27.910  1.00  0.00     0.029 A 
ATOM     70  C   UNL A   1      46.117  28.894  27.887  1.00  0.00     0.049 A 
ATOM     71  H   UNL A   1      44.091  29.029  28.460  1.00  0.00     0.167 HD
ATOM     72  C   UNL A   1      45.215  26.621  27.483  1.00  0.00     0.074 A 
ATOM     73  C   UNL A   1      45.338  25.248  27.042  1.00  0.00     0.031 C 
ATOM     74  C   UNL A   1      46.226  27.524  27.457  1.00  0.00     0.037 A 
BRANCH  61  75
ATOM     75  C   UNL A   1      44.625  33.140  29.469  1.00  0.00     0.057 A 
ATOM     76  C   UNL A   1      44.648  34.112  28.460  1.00  0.00     0.134 A 
ATOM     77  C   UNL A   1      44.971  33.544  30.764  1.00  0.00     0.134 A 
ATOM     78  F   UNL A   1      44.341  33.787  27.196  1.00  0.00    -0.206 F 
ATOM     79  C   UNL A   1      45.022  35.431  28.727  1.00  0.00     0.040 A 
ATOM     80  C   UNL A   1      45.323  34.865  31.048  1.00  0.00     0.040 A 
ATOM     81  F   UNL A   1      44.965  32.663  31.777  1.00  0.00    -0.206 F 
ATOM     82  C   UNL A   1      45.354  35.811  30.027  1.00  0.00     0.006 A 
ENDBRANCH  61  75
BRANCH  62  83
ATOM     83  C   UNL A   1      41.426  23.846  27.753  1.00  0.00     0.057 A 
ATOM     84  C   UNL A   1      41.819  22.761  28.543  1.00  0.00     0.134 A 
ATOM     85  C   UNL A   1      40.583  23.583  26.666  1.00  0.00     0.134 A 
ATOM     86  F   UNL A   1      42.645  22.948  29.583  1.00  0.00    -0.206 F 
ATOM     87  C   UNL A   1      41.405  21.460  28.254  1.00  0.00     0.040 A 
ATOM     88  C   UNL A   1      40.140  22.290  26.381  1.00  0.00     0.040 A 
ATOM     89  F   UNL A   1      40.168  24.581  25.872  1.00  0.00    -0.206 F 
ATOM     90  C   UNL A   1      40.558  21.222  27.173  1.00  0.00     0.006 A 
ENDBRANCH  62  83
BRANCH  74  91
ATOM     91  C   UNL A   1      47.562  27.048  26.968  1.00  0.00     0.057 A 
ATOM     92  C   UNL A   1      48.519  26.509  27.835  1.00  0.00     0.134 A 
ATOM     93  C   UNL A   1      47.877  27.091  25.603  1.00  0.00     0.134 A 
ATOM     94  F   UNL A   1      48.284  26.451  29.155  1.00  0.00    -0.206 F 
ATOM     95  C   UNL A   1      49.752  26.049  27.367  1.00  0.00     0.040 A 
ATOM     96  C   UNL A   1      49.095  26.612  25.120  1.00  0.00     0.040 A 
ATOM     97  F   UNL A   1      47.001  27.587  24.716  1.00  0.00    -0.206 F 
ATOM     98  C   UNL A   1      50.039  26.094  26.004  1.00  0.00     0.006 A 
ENDBRANCH  74  91
ENDBRANCH  48  49
ENDBRANCH  41  43
ENDBRANCH  40  41
ENDBRANCH  39  40
ENDBRANCH  38  39
ENDBRANCH  37  38
ENDBRANCH   1  37
TORSDOF 19
ENDMDL
MODEL 3
REMARK VINA RESULT:     -11.3      1.980      3.577
REMARK SMILES O=C(N[C@]1(C(=O)OCCOCCOC(=O)c2ccc(-c3c4nc(c(-c5c(F)cccc5F)c5ccc([nH]5)c(-c5c(F)cccc5F)c5nc(c(-c6c(F)cccc6F)c6ccc3[nH]6)C=C5)C=C4)cc2)CC[C@H](c2ccccc2)CC1)OCC1c2ccccc2-c2ccccc21
REMARK SMILES IDX 9 1 8 2 7 3 5 4 6 5 4 6 70 7 80 8 71 9 79 10 72 11 3 12 1 13
REMARK SMILES IDX 2 14 81 16 82 17 83 18 84 19 95 20 85 21 89 22 90 23 94 24
REMARK SMILES IDX 86 25 88 26 91 27 93 28 87 29 92 30 73 31 74 32 78 33 75 34
REMARK SMILES IDX 77 35 76 36 10 37 11 38 12 39 13 40 14 41 15 42 16 43 17 44
REMARK SMILES IDX 69 45 18 46 68 47 19 48 20 49 21 50 62 51 22 52 67 53 61 54
REMARK SMILES IDX 63 55 23 56 66 57 60 58 59 59 24 61 50 62 33 63 49 64 34 65
REMARK SMILES IDX 37 66 48 67 64 68 35 69 36 70 47 72 65 73 38 74 25 75 26 76
REMARK SMILES IDX 31 77 27 78 28 79 30 80 32 81 29 82 51 83 52 84 57 85 53 86
REMARK SMILES IDX 54 87 56 88 58 89 55 90 39 91 40 92 45 93 41 94 42 95 44 96
REMARK SMILES IDX 46 97 43 98
REMARK H PARENT 3 15 63 60 37 71
REMARK Flexibility Score: inf
ROOT
ATOM      1  C   UNL A   1      39.346  22.144  26.125  1.00  0.00     0.202 C 
ENDROOT
BRANCH   1   2
ATOM      2  C   UNL A   1      38.090  21.883  25.291  1.00  0.00     0.261 C 
BRANCH   2   3
ATOM      3  O   UNL A   1      37.495  23.086  24.770  1.00  0.00    -0.461 OA
BRANCH   3   4
ATOM      4  C   UNL A   1      36.653  22.915  23.707  1.00  0.00     0.332 C 
ATOM      5  O   UNL A   1      37.028  22.645  22.570  1.00  0.00    -0.249 OA
BRANCH   4   6
ATOM      6  C   UNL A   1      35.155  23.087  24.109  1.00  0.00     0.141 C 
ATOM      7  C   UNL A   1      35.149  24.023  25.325  1.00  0.00     0.041 C 
ATOM      8  C   UNL A   1      34.438  21.730  24.312  1.00  0.00     0.041 C 
ATOM      9  C   UNL A   1      34.959  23.385  26.692  1.00  0.00     0.011 C 
ATOM     10  C   UNL A   1      34.237  21.232  25.738  1.00  0.00     0.011 C 
ATOM     11  C   UNL A   1      33.862  22.323  26.738  1.00  0.00     0.019 C 
BRANCH   6  12
ATOM     12  N   UNL A   1      34.537  23.640  22.857  1.00  0.00    -0.305 N 
ATOM     13  O   UNL A   1      33.261  24.805  21.417  1.00  0.00    -0.225 OA
ATOM     14  C   UNL A   1      33.450  24.391  22.562  1.00  0.00     0.408 C 
ATOM     15  H   UNL A   1      35.048  23.396  22.052  1.00  0.00     0.168 HD
BRANCH  14  16
ATOM     16  O   UNL A   1      32.626  24.692  23.595  1.00  0.00    -0.449 OA
BRANCH  16  17
ATOM     17  C   UNL A   1      32.249  26.054  23.474  1.00  0.00     0.248 C 
BRANCH  17  18
ATOM     18  C   UNL A   1      31.750  26.752  24.763  1.00  0.00     0.088 C 
ATOM     19  C   UNL A   1      32.648  27.746  25.497  1.00  0.00    -0.029 A 
ATOM     20  C   UNL A   1      30.628  27.683  24.274  1.00  0.00    -0.029 A 
ATOM     21  C   UNL A   1      33.769  27.501  26.279  1.00  0.00     0.005 A 
ATOM     22  C   UNL A   1      32.156  29.064  25.341  1.00  0.00    -0.014 A 
ATOM     23  C   UNL A   1      30.977  29.027  24.508  1.00  0.00    -0.014 A 
ATOM     24  C   UNL A   1      29.535  27.336  23.493  1.00  0.00     0.005 A 
ATOM     25  C   UNL A   1      34.399  28.587  26.900  1.00  0.00     0.000 A 
ATOM     26  C   UNL A   1      32.783  30.141  25.952  1.00  0.00     0.009 A 
ATOM     27  C   UNL A   1      30.278  30.045  23.882  1.00  0.00     0.009 A 
ATOM     28  C   UNL A   1      28.834  28.361  22.863  1.00  0.00     0.000 A 
ATOM     29  C   UNL A   1      33.908  29.895  26.744  1.00  0.00     0.001 A 
ATOM     30  C   UNL A   1      29.214  29.701  23.040  1.00  0.00     0.001 A 
ENDBRANCH  17  18
ENDBRANCH  16  17
ENDBRANCH  14  16
ENDBRANCH   6  12
BRANCH  11  31
ATOM     31  C   UNL A   1      32.415  22.816  26.675  1.00  0.00    -0.045 A 
ATOM     32  C   UNL A   1      31.312  22.042  26.283  1.00  0.00     0.004 A 
ATOM     33  C   UNL A   1      32.153  24.159  27.000  1.00  0.00     0.004 A 
ATOM     34  C   UNL A   1      30.034  22.591  26.130  1.00  0.00     0.000 A 
ATOM     35  C   UNL A   1      30.870  24.708  26.878  1.00  0.00     0.000 A 
ATOM     36  C   UNL A   1      29.812  23.928  26.422  1.00  0.00     0.000 A 
ENDBRANCH  11  31
ENDBRANCH   4   6
ENDBRANCH   3   4
ENDBRANCH   2   3
ENDBRANCH   1   2
BRANCH   1  37
ATOM     37  O   UNL A   1      39.897  21.044  26.841  1.00  0.00    -0.374 OA
BRANCH  37  38
ATOM     38  C   UNL A   1      41.279  20.750  26.670  1.00  0.00     0.202 C 
BRANCH  38  39
ATOM     39  C   UNL A   1      42.155  21.836  26.037  1.00  0.00     0.261 C 
BRANCH  39  40
ATOM     40  O   UNL A   1      42.351  22.975  26.895  1.00  0.00    -0.460 OA
BRANCH  40  41
ATOM     41  C   UNL A   1      42.493  24.149  26.234  1.00  0.00     0.338 C 
ATOM     42  O   UNL A   1      42.978  24.321  25.126  1.00  0.00    -0.246 OA
BRANCH  41  43
ATOM     43  C   UNL A   1      41.836  25.248  26.961  1.00  0.00     0.060 A 
ATOM     44  C   UNL A   1      42.413  26.520  26.854  1.00  0.00     0.016 A 
ATOM     45  C   UNL A   1      40.787  25.015  27.853  1.00  0.00     0.016 A 
ATOM     46  C   UNL A   1      41.995  27.548  27.694  1.00  0.00     0.010 A 
ATOM     47  C   UNL A   1      40.373  26.048  28.702  1.00  0.00     0.010 A 
ATOM     48  C   UNL A   1      41.010  27.302  28.659  1.00  0.00    -0.014 A 
BRANCH  48  49
ATOM     49  C   UNL A   1      40.792  28.305  29.730  1.00  0.00     0.031 A 
ATOM     50  C   UNL A   1      41.705  28.306  30.928  1.00  0.00     0.074 A 
ATOM     51  C   UNL A   1      39.838  29.245  29.611  1.00  0.00     0.049 A 
ATOM     52  N   UNL A   1      41.697  29.086  31.978  1.00  0.00    -0.248 NA
ATOM     53  C   UNL A   1      42.773  27.293  30.939  1.00  0.00     0.031 C 
ATOM     54  C   UNL A   1      38.925  29.381  28.477  1.00  0.00     0.029 A 
ATOM     55  N   UNL A   1      39.483  30.266  30.456  1.00  0.00    -0.354 N 
ATOM     56  C   UNL A   1      42.753  28.659  32.775  1.00  0.00     0.074 A 
ATOM     57  C   UNL A   1      43.360  27.531  32.102  1.00  0.00     0.031 C 
ATOM     58  C   UNL A   1      38.106  30.422  28.702  1.00  0.00     0.029 A 
ATOM     59  C   UNL A   1      38.419  31.005  30.006  1.00  0.00     0.049 A 
ATOM     60  H   UNL A   1      39.948  30.450  31.304  1.00  0.00     0.167 HD
ATOM     61  C   UNL A   1      43.186  29.167  33.953  1.00  0.00     0.037 A 
ATOM     62  C   UNL A   1      37.759  32.024  30.591  1.00  0.00     0.037 A 
ATOM     63  C   UNL A   1      42.584  30.291  34.621  1.00  0.00     0.049 A 
ATOM     64  C   UNL A   1      38.213  32.526  31.937  1.00  0.00     0.074 A 
ATOM     65  C   UNL A   1      42.955  30.884  35.816  1.00  0.00     0.029 A 
ATOM     66  N   UNL A   1      41.483  30.989  34.151  1.00  0.00    -0.354 N 
ATOM     67  N   UNL A   1      39.219  32.121  32.674  1.00  0.00    -0.248 NA
ATOM     68  C   UNL A   1      37.440  33.628  32.529  1.00  0.00     0.031 C 
ATOM     69  C   UNL A   1      42.049  31.914  36.091  1.00  0.00     0.029 A 
ATOM     70  C   UNL A   1      41.144  31.993  35.044  1.00  0.00     0.049 A 
ATOM     71  H   UNL A   1      41.010  30.800  33.309  1.00  0.00     0.167 HD
ATOM     72  C   UNL A   1      39.216  32.934  33.802  1.00  0.00     0.074 A 
ATOM     73  C   UNL A   1      38.116  33.862  33.645  1.00  0.00     0.031 C 
ATOM     74  C   UNL A   1      40.050  32.913  34.871  1.00  0.00     0.037 A 
BRANCH  61  75
ATOM     75  C   UNL A   1      44.357  28.494  34.608  1.00  0.00     0.057 A 
ATOM     76  C   UNL A   1      44.194  27.418  35.490  1.00  0.00     0.134 A 
ATOM     77  C   UNL A   1      45.666  28.906  34.326  1.00  0.00     0.134 A 
ATOM     78  F   UNL A   1      42.966  26.984  35.813  1.00  0.00    -0.206 F 
ATOM     79  C   UNL A   1      45.290  26.790  36.085  1.00  0.00     0.040 A 
ATOM     80  C   UNL A   1      46.770  28.270  34.896  1.00  0.00     0.040 A 
ATOM     81  F   UNL A   1      45.892  29.928  33.486  1.00  0.00    -0.206 F 
ATOM     82  C   UNL A   1      46.583  27.212  35.782  1.00  0.00     0.006 A 
ENDBRANCH  61  75
BRANCH  62  83
ATOM     83  C   UNL A   1      36.582  32.629  29.916  1.00  0.00     0.057 A 
ATOM     84  C   UNL A   1      35.277  32.342  30.330  1.00  0.00     0.134 A 
ATOM     85  C   UNL A   1      36.739  33.494  28.827  1.00  0.00     0.134 A 
ATOM     86  F   UNL A   1      35.063  31.500  31.352  1.00  0.00    -0.206 F 
ATOM     87  C   UNL A   1      34.169  32.881  29.675  1.00  0.00     0.040 A 
ATOM     88  C   UNL A   1      35.641  34.061  28.180  1.00  0.00     0.040 A 
ATOM     89  F   UNL A   1      37.965  33.811  28.383  1.00  0.00    -0.206 F 
ATOM     90  C   UNL A   1      34.350  33.749  28.599  1.00  0.00     0.006 A 
ENDBRANCH  62  83
BRANCH  74  91
ATOM     91  C   UNL A   1      39.826  33.943  35.939  1.00  0.00     0.057 A 
ATOM     92  C   UNL A   1      39.089  33.662  37.096  1.00  0.00     0.134 A 
ATOM     93  C   UNL A   1      40.391  35.221  35.826  1.00  0.00     0.134 A 
ATOM     94  F   UNL A   1      38.511  32.462  37.259  1.00  0.00    -0.206 F 
ATOM     95  C   UNL A   1      38.903  34.621  38.093  1.00  0.00     0.040 A 
ATOM     96  C   UNL A   1      40.233  36.179  36.828  1.00  0.00     0.040 A 
ATOM     97  F   UNL A   1      41.117  35.552  34.747  1.00  0.00    -0.206 F 
ATOM     98  C   UNL A   1      39.483  35.883  37.963  1.00  0.00     0.006 A 
ENDBRANCH  74  91
ENDBRANCH  48  49
ENDBRANCH  41  43
ENDBRANCH  40  41
ENDBRANCH  39  40
ENDBRANCH  38  39
ENDBRANCH  37  38
ENDBRANCH   1  37
TORSDOF 19
ENDMDL
