MODEL 1
REMARK VINA RESULT:     -12.3      0.000      0.000
REMARK SMILES Cc1ccc(-c2cc([C@@H](C)C(=O)OCCOCCOC(=O)c3ccc(-c4c5nc(c(-c6c(F)cccc6F)c6ccc([nH]6)c(-c6c(F)cccc6F)c6nc(c(-c7c(F)cccc7F)c7ccc4[nH]7)C=C6)C=C5)cc3)ccc2C[C@H]2CCCC2=O)cc1
REMARK SMILES IDX 15 1 14 2 13 3 11 4 12 5 9 6 10 7 8 8 6 9 7 10 78 11 77 12
REMARK SMILES IDX 76 13 5 14 1 15 2 16 3 17 87 18 4 19 86 20 79 21 80 22 81 23
REMARK SMILES IDX 84 24 82 25 83 26 85 27 16 28 17 29 18 30 19 31 20 32 21 33
REMARK SMILES IDX 22 34 23 35 75 36 24 37 74 38 25 39 26 40 27 41 68 42 28 43
REMARK SMILES IDX 73 44 67 45 69 46 29 47 72 48 66 49 65 50 30 52 56 53 39 54
REMARK SMILES IDX 55 55 40 56 43 57 54 58 70 59 41 60 42 61 53 63 71 64 44 65
REMARK SMILES IDX 31 66 32 67 37 68 33 69 34 70 36 71 38 72 35 73 57 74 58 75
REMARK SMILES IDX 63 76 59 77 60 78 62 79 64 80 61 81 45 82 46 83 51 84 47 85
REMARK SMILES IDX 48 86 50 87 52 88 49 89
REMARK H PARENT 69 51 43 62
REMARK Flexibility Score: inf
ROOT
ATOM      1  C   UNL A   1      32.665  29.185  25.071  1.00  0.00     0.202 C 
ENDROOT
BRANCH   1   2
ATOM      2  C   UNL A   1      31.811  28.061  24.578  1.00  0.00     0.261 C 
BRANCH   2   3
ATOM      3  O   UNL A   1      32.550  26.968  24.026  1.00  0.00    -0.463 OA
BRANCH   3   4
ATOM      4  C   UNL A   1      31.909  26.126  23.153  1.00  0.00     0.313 C 
ATOM      5  O   UNL A   1      30.716  25.936  23.093  1.00  0.00    -0.252 OA
BRANCH   4   6
ATOM      6  C   UNL A   1      32.952  25.519  22.209  1.00  0.00     0.126 C 
ATOM      7  C   UNL A   1      32.511  25.634  20.754  1.00  0.00     0.025 C 
BRANCH   6   8
ATOM      8  C   UNL A   1      33.265  24.096  22.672  1.00  0.00    -0.033 A 
ATOM      9  C   UNL A   1      34.562  22.629  24.149  1.00  0.00    -0.015 A 
ATOM     10  C   UNL A   1      34.352  23.875  23.521  1.00  0.00     0.013 A 
ATOM     11  C   UNL A   1      33.598  21.600  24.001  1.00  0.00    -0.039 A 
ATOM     12  C   UNL A   1      32.522  21.823  23.127  1.00  0.00     0.004 A 
ATOM     13  C   UNL A   1      32.383  23.030  22.441  1.00  0.00     0.005 A 
BRANCH   9  14
ATOM     14  C   UNL A   1      35.864  22.428  24.794  1.00  0.00    -0.018 A 
ATOM     15  C   UNL A   1      39.841  21.772  26.337  1.00  0.00     0.044 C 
ATOM     16  C   UNL A   1      38.457  22.015  25.812  1.00  0.00    -0.051 A 
ATOM     17  C   UNL A   1      37.837  21.026  25.047  1.00  0.00     0.004 A 
ATOM     18  C   UNL A   1      37.779  23.213  26.066  1.00  0.00     0.004 A 
ATOM     19  C   UNL A   1      36.560  21.237  24.536  1.00  0.00     0.009 A 
ATOM     20  C   UNL A   1      36.492  23.419  25.558  1.00  0.00     0.009 A 
ENDBRANCH   9  14
BRANCH  11  21
ATOM     21  C   UNL A   1      33.741  20.222  24.625  1.00  0.00     0.047 C 
BRANCH  21  22
ATOM     22  C   UNL A   1      32.794  19.082  24.222  1.00  0.00     0.060 C 
ATOM     23  C   UNL A   1      33.029  18.429  22.858  1.00  0.00     0.012 C 
ATOM     24  C   UNL A   1      32.780  17.903  25.167  1.00  0.00     0.136 C 
ATOM     25  C   UNL A   1      33.619  17.061  23.146  1.00  0.00     0.009 C 
ATOM     26  C   UNL A   1      33.042  16.599  24.469  1.00  0.00     0.076 C 
ATOM     27  O   UNL A   1      32.528  17.985  26.364  1.00  0.00    -0.299 OA
ENDBRANCH  21  22
ENDBRANCH  11  21
ENDBRANCH   6   8
ENDBRANCH   4   6
ENDBRANCH   3   4
ENDBRANCH   2   3
ENDBRANCH   1   2
BRANCH   1  28
ATOM     28  O   UNL A   1      31.803  30.204  25.550  1.00  0.00    -0.374 OA
BRANCH  28  29
ATOM     29  C   UNL A   1      32.212  30.815  26.760  1.00  0.00     0.202 C 
BRANCH  29  30
ATOM     30  C   UNL A   1      33.579  30.334  27.279  1.00  0.00     0.261 C 
BRANCH  30  31
ATOM     31  O   UNL A   1      34.519  31.427  27.332  1.00  0.00    -0.460 OA
BRANCH  31  32
ATOM     32  C   UNL A   1      35.263  31.534  28.469  1.00  0.00     0.338 C 
ATOM     33  O   UNL A   1      35.414  32.553  29.125  1.00  0.00    -0.246 OA
BRANCH  32  34
ATOM     34  C   UNL A   1      36.118  30.318  28.618  1.00  0.00     0.060 A 
ATOM     35  C   UNL A   1      36.273  29.701  29.876  1.00  0.00     0.016 A 
ATOM     36  C   UNL A   1      37.027  30.047  27.603  1.00  0.00     0.016 A 
ATOM     37  C   UNL A   1      37.428  28.950  30.159  1.00  0.00     0.010 A 
ATOM     38  C   UNL A   1      38.216  29.441  27.933  1.00  0.00     0.010 A 
ATOM     39  C   UNL A   1      38.447  28.897  29.211  1.00  0.00    -0.014 A 
BRANCH  39  40
ATOM     40  C   UNL A   1      39.838  28.467  29.428  1.00  0.00     0.031 A 
ATOM     41  C   UNL A   1      40.243  27.132  28.927  1.00  0.00     0.074 A 
ATOM     42  C   UNL A   1      40.817  29.358  29.734  1.00  0.00     0.049 A 
ATOM     43  N   UNL A   1      41.394  26.603  29.146  1.00  0.00    -0.248 NA
ATOM     44  C   UNL A   1      39.381  26.279  28.115  1.00  0.00     0.031 C 
ATOM     45  C   UNL A   1      42.245  29.278  29.408  1.00  0.00     0.029 A 
ATOM     46  N   UNL A   1      40.736  30.565  30.436  1.00  0.00    -0.354 N 
ATOM     47  C   UNL A   1      41.561  25.575  28.248  1.00  0.00     0.074 A 
ATOM     48  C   UNL A   1      40.257  25.378  27.666  1.00  0.00     0.031 C 
ATOM     49  C   UNL A   1      42.921  30.192  30.125  1.00  0.00     0.029 A 
ATOM     50  C   UNL A   1      41.981  30.794  31.048  1.00  0.00     0.049 A 
ATOM     51  H   UNL A   1      39.946  31.151  30.493  1.00  0.00     0.167 HD
ATOM     52  C   UNL A   1      42.822  25.105  28.023  1.00  0.00     0.037 A 
ATOM     53  C   UNL A   1      42.059  30.906  32.401  1.00  0.00     0.037 A 
ATOM     54  C   UNL A   1      43.809  25.817  28.861  1.00  0.00     0.049 A 
ATOM     55  C   UNL A   1      42.824  29.733  32.958  1.00  0.00     0.074 A 
ATOM     56  C   UNL A   1      44.784  26.775  28.631  1.00  0.00     0.029 A 
ATOM     57  N   UNL A   1      43.642  25.801  30.240  1.00  0.00    -0.354 N 
ATOM     58  N   UNL A   1      43.430  28.859  32.200  1.00  0.00    -0.248 NA
ATOM     59  C   UNL A   1      42.919  29.390  34.370  1.00  0.00     0.031 C 
ATOM     60  C   UNL A   1      45.202  27.308  29.893  1.00  0.00     0.029 A 
ATOM     61  C   UNL A   1      44.501  26.663  30.897  1.00  0.00     0.049 A 
ATOM     62  H   UNL A   1      42.980  25.238  30.702  1.00  0.00     0.167 HD
ATOM     63  C   UNL A   1      43.883  27.816  32.941  1.00  0.00     0.074 A 
ATOM     64  C   UNL A   1      43.547  28.200  34.306  1.00  0.00     0.031 C 
ATOM     65  C   UNL A   1      44.458  26.718  32.359  1.00  0.00     0.037 A 
BRANCH  52  66
ATOM     66  C   UNL A   1      43.179  24.150  26.899  1.00  0.00     0.057 A 
ATOM     67  C   UNL A   1      43.169  22.757  27.102  1.00  0.00     0.134 A 
ATOM     68  C   UNL A   1      43.548  24.527  25.593  1.00  0.00     0.134 A 
ATOM     69  F   UNL A   1      42.738  22.216  28.248  1.00  0.00    -0.206 F 
ATOM     70  C   UNL A   1      43.589  21.836  26.129  1.00  0.00     0.040 A 
ATOM     71  C   UNL A   1      44.032  23.625  24.631  1.00  0.00     0.040 A 
ATOM     72  F   UNL A   1      43.382  25.775  25.141  1.00  0.00    -0.206 F 
ATOM     73  C   UNL A   1      44.060  22.269  24.900  1.00  0.00     0.006 A 
ENDBRANCH  52  66
BRANCH  53  74
ATOM     74  C   UNL A   1      40.839  31.598  32.930  1.00  0.00     0.057 A 
ATOM     75  C   UNL A   1      40.740  32.989  32.691  1.00  0.00     0.134 A 
ATOM     76  C   UNL A   1      39.635  30.912  33.120  1.00  0.00     0.134 A 
ATOM     77  F   UNL A   1      41.850  33.715  32.478  1.00  0.00    -0.206 F 
ATOM     78  C   UNL A   1      39.510  33.627  32.488  1.00  0.00     0.040 A 
ATOM     79  C   UNL A   1      38.396  31.546  32.929  1.00  0.00     0.040 A 
ATOM     80  F   UNL A   1      39.633  29.587  33.329  1.00  0.00    -0.206 F 
ATOM     81  C   UNL A   1      38.333  32.891  32.562  1.00  0.00     0.006 A 
ENDBRANCH  53  74
BRANCH  65  82
ATOM     82  C   UNL A   1      44.974  25.557  33.163  1.00  0.00     0.057 A 
ATOM     83  C   UNL A   1      44.126  24.704  33.881  1.00  0.00     0.134 A 
ATOM     84  C   UNL A   1      46.351  25.285  33.299  1.00  0.00     0.134 A 
ATOM     85  F   UNL A   1      42.814  24.960  33.993  1.00  0.00    -0.206 F 
ATOM     86  C   UNL A   1      44.597  23.566  34.541  1.00  0.00     0.040 A 
ATOM     87  C   UNL A   1      46.839  24.186  34.004  1.00  0.00     0.040 A 
ATOM     88  F   UNL A   1      47.298  26.055  32.749  1.00  0.00    -0.206 F 
ATOM     89  C   UNL A   1      45.959  23.296  34.591  1.00  0.00     0.006 A 
ENDBRANCH  65  82
ENDBRANCH  39  40
ENDBRANCH  32  34
ENDBRANCH  31  32
ENDBRANCH  30  31
ENDBRANCH  29  30
ENDBRANCH  28  29
ENDBRANCH   1  28
TORSDOF 18
ENDMDL
MODEL 2
REMARK VINA RESULT:     -12.1      0.988      1.918
REMARK SMILES Cc1ccc(-c2cc([C@@H](C)C(=O)OCCOCCOC(=O)c3ccc(-c4c5nc(c(-c6c(F)cccc6F)c6ccc([nH]6)c(-c6c(F)cccc6F)c6nc(c(-c7c(F)cccc7F)c7ccc4[nH]7)C=C6)C=C5)cc3)ccc2C[C@H]2CCCC2=O)cc1
REMARK SMILES IDX 15 1 14 2 13 3 11 4 12 5 9 6 10 7 8 8 6 9 7 10 78 11 77 12
REMARK SMILES IDX 76 13 5 14 1 15 2 16 3 17 87 18 4 19 86 20 79 21 80 22 81 23
REMARK SMILES IDX 84 24 82 25 83 26 85 27 16 28 17 29 18 30 19 31 20 32 21 33
REMARK SMILES IDX 22 34 23 35 75 36 24 37 74 38 25 39 26 40 27 41 68 42 28 43
REMARK SMILES IDX 73 44 67 45 69 46 29 47 72 48 66 49 65 50 30 52 56 53 39 54
REMARK SMILES IDX 55 55 40 56 43 57 54 58 70 59 41 60 42 61 53 63 71 64 44 65
REMARK SMILES IDX 31 66 32 67 37 68 33 69 34 70 36 71 38 72 35 73 57 74 58 75
REMARK SMILES IDX 63 76 59 77 60 78 62 79 64 80 61 81 45 82 46 83 51 84 47 85
REMARK SMILES IDX 48 86 50 87 52 88 49 89
REMARK H PARENT 69 51 43 62
REMARK Flexibility Score: inf
ROOT
ATOM      1  C   UNL A   1      32.969  27.481  26.486  1.00  0.00     0.202 C 
ENDROOT
BRANCH   1   2
ATOM      2  C   UNL A   1      32.640  27.341  25.033  1.00  0.00     0.261 C 
BRANCH   2   3
ATOM      3  O   UNL A   1      32.733  26.002  24.541  1.00  0.00    -0.463 OA
BRANCH   3   4
ATOM      4  C   UNL A   1      32.112  25.701  23.356  1.00  0.00     0.313 C 
ATOM      5  O   UNL A   1      30.960  25.940  23.075  1.00  0.00    -0.252 OA
BRANCH   4   6
ATOM      6  C   UNL A   1      33.143  25.077  22.411  1.00  0.00     0.126 C 
ATOM      7  C   UNL A   1      32.651  25.097  20.967  1.00  0.00     0.025 C 
BRANCH   6   8
ATOM      8  C   UNL A   1      33.520  23.693  22.939  1.00  0.00    -0.033 A 
ATOM      9  C   UNL A   1      34.998  22.341  24.355  1.00  0.00    -0.015 A 
ATOM     10  C   UNL A   1      34.704  23.536  23.664  1.00  0.00     0.013 A 
ATOM     11  C   UNL A   1      34.031  21.306  24.404  1.00  0.00    -0.039 A 
ATOM     12  C   UNL A   1      32.855  21.463  23.652  1.00  0.00     0.004 A 
ATOM     13  C   UNL A   1      32.625  22.615  22.899  1.00  0.00     0.005 A 
BRANCH   9  14
ATOM     14  C   UNL A   1      36.370  22.188  24.851  1.00  0.00    -0.018 A 
ATOM     15  C   UNL A   1      40.274  21.838  26.657  1.00  0.00     0.044 C 
ATOM     16  C   UNL A   1      38.921  21.943  26.020  1.00  0.00    -0.051 A 
ATOM     17  C   UNL A   1      38.225  23.150  26.097  1.00  0.00     0.004 A 
ATOM     18  C   UNL A   1      38.338  20.856  25.358  1.00  0.00     0.004 A 
ATOM     19  C   UNL A   1      36.960  23.265  25.528  1.00  0.00     0.009 A 
ATOM     20  C   UNL A   1      37.069  20.977  24.779  1.00  0.00     0.009 A 
ENDBRANCH   9  14
BRANCH  11  21
ATOM     21  C   UNL A   1      34.258  19.979  25.109  1.00  0.00     0.047 C 
BRANCH  21  22
ATOM     22  C   UNL A   1      34.043  18.654  24.364  1.00  0.00     0.060 C 
ATOM     23  C   UNL A   1      35.254  17.731  24.216  1.00  0.00     0.012 C 
ATOM     24  C   UNL A   1      32.995  17.747  24.970  1.00  0.00     0.136 C 
ATOM     25  C   UNL A   1      35.014  16.570  25.164  1.00  0.00     0.009 C 
ATOM     26  C   UNL A   1      33.514  16.364  25.241  1.00  0.00     0.076 C 
ATOM     27  O   UNL A   1      31.833  18.079  25.170  1.00  0.00    -0.299 OA
ENDBRANCH  21  22
ENDBRANCH  11  21
ENDBRANCH   6   8
ENDBRANCH   4   6
ENDBRANCH   3   4
ENDBRANCH   2   3
ENDBRANCH   1   2
BRANCH   1  28
ATOM     28  O   UNL A   1      33.812  28.611  26.631  1.00  0.00    -0.374 OA
BRANCH  28  29
ATOM     29  C   UNL A   1      33.160  29.864  26.527  1.00  0.00     0.202 C 
BRANCH  29  30
ATOM     30  C   UNL A   1      33.539  30.865  27.633  1.00  0.00     0.261 C 
BRANCH  30  31
ATOM     31  O   UNL A   1      34.778  31.533  27.314  1.00  0.00    -0.460 OA
BRANCH  31  32
ATOM     32  C   UNL A   1      35.660  31.698  28.339  1.00  0.00     0.338 C 
ATOM     33  O   UNL A   1      35.952  32.765  28.859  1.00  0.00    -0.246 OA
BRANCH  32  34
ATOM     34  C   UNL A   1      36.451  30.444  28.520  1.00  0.00     0.060 A 
ATOM     35  C   UNL A   1      36.444  29.764  29.755  1.00  0.00     0.016 A 
ATOM     36  C   UNL A   1      37.459  30.185  27.599  1.00  0.00     0.016 A 
ATOM     37  C   UNL A   1      37.534  28.955  30.125  1.00  0.00     0.010 A 
ATOM     38  C   UNL A   1      38.583  29.518  28.028  1.00  0.00     0.010 A 
ATOM     39  C   UNL A   1      38.650  28.907  29.293  1.00  0.00    -0.014 A 
BRANCH  39  40
ATOM     40  C   UNL A   1      39.992  28.413  29.640  1.00  0.00     0.031 A 
ATOM     41  C   UNL A   1      40.440  27.130  29.047  1.00  0.00     0.074 A 
ATOM     42  C   UNL A   1      40.936  29.233  30.173  1.00  0.00     0.049 A 
ATOM     43  N   UNL A   1      41.543  26.545  29.353  1.00  0.00    -0.248 NA
ATOM     44  C   UNL A   1      39.682  26.400  28.037  1.00  0.00     0.031 C 
ATOM     45  C   UNL A   1      42.393  29.147  30.030  1.00  0.00     0.029 A 
ATOM     46  N   UNL A   1      40.780  30.356  30.992  1.00  0.00    -0.354 N 
ATOM     47  C   UNL A   1      41.813  25.619  28.374  1.00  0.00     0.074 A 
ATOM     48  C   UNL A   1      40.596  25.528  27.606  1.00  0.00     0.031 C 
ATOM     49  C   UNL A   1      42.981  29.954  30.930  1.00  0.00     0.029 A 
ATOM     50  C   UNL A   1      41.935  30.478  31.785  1.00  0.00     0.049 A 
ATOM     51  H   UNL A   1      39.999  30.956  31.011  1.00  0.00     0.167 HD
ATOM     52  C   UNL A   1      43.085  25.139  28.264  1.00  0.00     0.037 A 
ATOM     53  C   UNL A   1      41.832  30.435  33.139  1.00  0.00     0.037 A 
ATOM     54  C   UNL A   1      43.962  25.722  29.300  1.00  0.00     0.049 A 
ATOM     55  C   UNL A   1      42.498  29.185  33.654  1.00  0.00     0.074 A 
ATOM     56  C   UNL A   1      44.974  26.670  29.312  1.00  0.00     0.029 A 
ATOM     57  N   UNL A   1      43.611  25.558  30.634  1.00  0.00    -0.354 N 
ATOM     58  N   UNL A   1      43.186  28.382  32.888  1.00  0.00    -0.248 NA
ATOM     59  C   UNL A   1      42.397  28.684  35.018  1.00  0.00     0.031 C 
ATOM     60  C   UNL A   1      45.227  27.045  30.671  1.00  0.00     0.029 A 
ATOM     61  C   UNL A   1      44.388  26.313  31.493  1.00  0.00     0.049 A 
ATOM     62  H   UNL A   1      42.885  24.966  30.938  1.00  0.00     0.167 HD
ATOM     63  C   UNL A   1      43.520  27.249  33.557  1.00  0.00     0.074 A 
ATOM     64  C   UNL A   1      43.009  27.490  34.901  1.00  0.00     0.031 C 
ATOM     65  C   UNL A   1      44.150  26.207  32.934  1.00  0.00     0.037 A 
BRANCH  52  66
ATOM     66  C   UNL A   1      43.575  24.304  27.095  1.00  0.00     0.057 A 
ATOM     67  C   UNL A   1      44.051  24.914  25.919  1.00  0.00     0.134 A 
ATOM     68  C   UNL A   1      43.600  22.895  27.051  1.00  0.00     0.134 A 
ATOM     69  F   UNL A   1      44.201  26.241  25.826  1.00  0.00    -0.206 F 
ATOM     70  C   UNL A   1      44.418  24.191  24.773  1.00  0.00     0.040 A 
ATOM     71  C   UNL A   1      43.901  22.160  25.893  1.00  0.00     0.040 A 
ATOM     72  F   UNL A   1      43.421  22.148  28.145  1.00  0.00    -0.206 F 
ATOM     73  C   UNL A   1      44.308  22.810  24.741  1.00  0.00     0.006 A 
ENDBRANCH  52  66
BRANCH  53  74
ATOM     74  C   UNL A   1      40.564  31.101  33.580  1.00  0.00     0.057 A 
ATOM     75  C   UNL A   1      39.473  30.254  33.889  1.00  0.00     0.134 A 
ATOM     76  C   UNL A   1      40.574  32.354  34.203  1.00  0.00     0.134 A 
ATOM     77  F   UNL A   1      39.402  29.026  33.348  1.00  0.00    -0.206 F 
ATOM     78  C   UNL A   1      38.539  30.570  34.883  1.00  0.00     0.040 A 
ATOM     79  C   UNL A   1      39.635  32.684  35.193  1.00  0.00     0.040 A 
ATOM     80  F   UNL A   1      41.582  33.211  33.987  1.00  0.00    -0.206 F 
ATOM     81  C   UNL A   1      38.648  31.772  35.572  1.00  0.00     0.006 A 
ENDBRANCH  53  74
BRANCH  65  82
ATOM     82  C   UNL A   1      44.536  24.948  33.659  1.00  0.00     0.057 A 
ATOM     83  C   UNL A   1      45.843  24.444  33.645  1.00  0.00     0.134 A 
ATOM     84  C   UNL A   1      43.596  24.156  34.351  1.00  0.00     0.134 A 
ATOM     85  F   UNL A   1      46.792  24.992  32.872  1.00  0.00    -0.206 F 
ATOM     86  C   UNL A   1      46.222  23.332  34.403  1.00  0.00     0.040 A 
ATOM     87  C   UNL A   1      43.950  23.012  35.064  1.00  0.00     0.040 A 
ATOM     88  F   UNL A   1      42.291  24.449  34.388  1.00  0.00    -0.206 F 
ATOM     89  C   UNL A   1      45.275  22.621  35.129  1.00  0.00     0.006 A 
ENDBRANCH  65  82
ENDBRANCH  39  40
ENDBRANCH  32  34
ENDBRANCH  31  32
ENDBRANCH  30  31
ENDBRANCH  29  30
ENDBRANCH  28  29
ENDBRANCH   1  28
TORSDOF 18
ENDMDL
MODEL 3
REMARK VINA RESULT:     -12.0      1.600      2.213
REMARK SMILES Cc1ccc(-c2cc([C@@H](C)C(=O)OCCOCCOC(=O)c3ccc(-c4c5nc(c(-c6c(F)cccc6F)c6ccc([nH]6)c(-c6c(F)cccc6F)c6nc(c(-c7c(F)cccc7F)c7ccc4[nH]7)C=C6)C=C5)cc3)ccc2C[C@H]2CCCC2=O)cc1
REMARK SMILES IDX 15 1 14 2 13 3 11 4 12 5 9 6 10 7 8 8 6 9 7 10 78 11 77 12
REMARK SMILES IDX 76 13 5 14 1 15 2 16 3 17 87 18 4 19 86 20 79 21 80 22 81 23
REMARK SMILES IDX 84 24 82 25 83 26 85 27 16 28 17 29 18 30 19 31 20 32 21 33
REMARK SMILES IDX 22 34 23 35 75 36 24 37 74 38 25 39 26 40 27 41 68 42 28 43
REMARK SMILES IDX 73 44 67 45 69 46 29 47 72 48 66 49 65 50 30 52 56 53 39 54
REMARK SMILES IDX 55 55 40 56 43 57 54 58 70 59 41 60 42 61 53 63 71 64 44 65
REMARK SMILES IDX 31 66 32 67 37 68 33 69 34 70 36 71 38 72 35 73 57 74 58 75
REMARK SMILES IDX 63 76 59 77 60 78 62 79 64 80 61 81 45 82 46 83 51 84 47 85
REMARK SMILES IDX 48 86 50 87 52 88 49 89
REMARK H PARENT 69 51 43 62
REMARK Flexibility Score: inf
ROOT
ATOM      1  C   UNL A   1      32.150  29.548  26.223  1.00  0.00     0.202 C 
ENDROOT
BRANCH   1   2
ATOM      2  C   UNL A   1      31.295  29.694  25.005  1.00  0.00     0.261 C 
BRANCH   2   3
ATOM      3  O   UNL A   1      30.970  28.456  24.369  1.00  0.00    -0.463 OA
BRANCH   3   4
ATOM      4  C   UNL A   1      31.411  28.249  23.087  1.00  0.00     0.313 C 
ATOM      5  O   UNL A   1      30.775  28.439  22.075  1.00  0.00    -0.252 OA
BRANCH   4   6
ATOM      6  C   UNL A   1      32.876  27.807  23.142  1.00  0.00     0.126 C 
ATOM      7  C   UNL A   1      33.682  28.427  22.005  1.00  0.00     0.025 C 
BRANCH   6   8
ATOM      8  C   UNL A   1      32.928  26.281  23.204  1.00  0.00    -0.033 A 
ATOM      9  C   UNL A   1      34.020  24.273  24.095  1.00  0.00    -0.015 A 
ATOM     10  C   UNL A   1      34.017  25.656  23.817  1.00  0.00     0.013 A 
ATOM     11  C   UNL A   1      32.855  23.506  23.841  1.00  0.00    -0.039 A 
ATOM     12  C   UNL A   1      31.774  24.137  23.203  1.00  0.00     0.004 A 
ATOM     13  C   UNL A   1      31.827  25.486  22.851  1.00  0.00     0.005 A 
BRANCH   9  14
ATOM     14  C   UNL A   1      35.305  23.682  24.486  1.00  0.00    -0.018 A 
ATOM     15  C   UNL A   1      38.931  21.887  25.987  1.00  0.00     0.044 C 
ATOM     16  C   UNL A   1      37.673  22.501  25.449  1.00  0.00    -0.051 A 
ATOM     17  C   UNL A   1      37.132  23.616  26.090  1.00  0.00     0.004 A 
ATOM     18  C   UNL A   1      37.025  21.974  24.325  1.00  0.00     0.004 A 
ATOM     19  C   UNL A   1      35.957  24.192  25.619  1.00  0.00     0.009 A 
ATOM     20  C   UNL A   1      35.847  22.561  23.848  1.00  0.00     0.009 A 
ENDBRANCH   9  14
BRANCH  11  21
ATOM     21  C   UNL A   1      32.764  22.010  24.092  1.00  0.00     0.047 C 
BRANCH  21  22
ATOM     22  C   UNL A   1      32.498  21.473  25.506  1.00  0.00     0.060 C 
ATOM     23  C   UNL A   1      33.615  20.663  26.167  1.00  0.00     0.012 C 
ATOM     24  C   UNL A   1      32.187  22.532  26.540  1.00  0.00     0.136 C 
ATOM     25  C   UNL A   1      34.202  21.558  27.243  1.00  0.00     0.009 C 
ATOM     26  C   UNL A   1      33.076  22.440  27.747  1.00  0.00     0.076 C 
ATOM     27  O   UNL A   1      31.276  23.344  26.438  1.00  0.00    -0.299 OA
ENDBRANCH  21  22
ENDBRANCH  11  21
ENDBRANCH   6   8
ENDBRANCH   4   6
ENDBRANCH   3   4
ENDBRANCH   2   3
ENDBRANCH   1   2
BRANCH   1  28
ATOM     28  O   UNL A   1      32.768  30.799  26.470  1.00  0.00    -0.374 OA
BRANCH  28  29
ATOM     29  C   UNL A   1      33.852  30.762  27.382  1.00  0.00     0.202 C 
BRANCH  29  30
ATOM     30  C   UNL A   1      34.161  32.116  28.047  1.00  0.00     0.261 C 
BRANCH  30  31
ATOM     31  O   UNL A   1      34.576  31.929  29.416  1.00  0.00    -0.460 OA
BRANCH  31  32
ATOM     32  C   UNL A   1      35.894  32.152  29.687  1.00  0.00     0.338 C 
ATOM     33  O   UNL A   1      36.413  33.248  29.831  1.00  0.00    -0.246 OA
BRANCH  32  34
ATOM     34  C   UNL A   1      36.665  30.891  29.468  1.00  0.00     0.060 A 
ATOM     35  C   UNL A   1      36.597  29.837  30.402  1.00  0.00     0.016 A 
ATOM     36  C   UNL A   1      37.711  30.933  28.553  1.00  0.00     0.016 A 
ATOM     37  C   UNL A   1      37.663  28.927  30.522  1.00  0.00     0.010 A 
ATOM     38  C   UNL A   1      38.809  30.135  28.778  1.00  0.00     0.010 A 
ATOM     39  C   UNL A   1      38.814  29.135  29.767  1.00  0.00    -0.014 A 
BRANCH  39  40
ATOM     40  C   UNL A   1      40.136  28.522  29.981  1.00  0.00     0.031 A 
ATOM     41  C   UNL A   1      40.412  27.214  29.341  1.00  0.00     0.074 A 
ATOM     42  C   UNL A   1      41.193  29.251  30.424  1.00  0.00     0.049 A 
ATOM     43  N   UNL A   1      41.484  26.532  29.537  1.00  0.00    -0.248 NA
ATOM     44  C   UNL A   1      39.501  26.565  28.405  1.00  0.00     0.031 C 
ATOM     45  C   UNL A   1      42.617  29.042  30.142  1.00  0.00     0.029 A 
ATOM     46  N   UNL A   1      41.214  30.373  31.261  1.00  0.00    -0.354 N 
ATOM     47  C   UNL A   1      41.578  25.600  28.531  1.00  0.00     0.074 A 
ATOM     48  C   UNL A   1      40.290  25.624  27.884  1.00  0.00     0.031 C 
ATOM     49  C   UNL A   1      43.356  29.784  30.985  1.00  0.00     0.029 A 
ATOM     50  C   UNL A   1      42.446  30.384  31.939  1.00  0.00     0.049 A 
ATOM     51  H   UNL A   1      40.493  31.037  31.358  1.00  0.00     0.167 HD
ATOM     52  C   UNL A   1      42.788  25.013  28.298  1.00  0.00     0.037 A 
ATOM     53  C   UNL A   1      42.469  30.333  33.297  1.00  0.00     0.037 A 
ATOM     54  C   UNL A   1      43.806  25.505  29.248  1.00  0.00     0.049 A 
ATOM     55  C   UNL A   1      43.070  29.023  33.739  1.00  0.00     0.074 A 
ATOM     56  C   UNL A   1      44.893  26.362  29.167  1.00  0.00     0.029 A 
ATOM     57  N   UNL A   1      43.571  25.354  30.608  1.00  0.00    -0.354 N 
ATOM     58  N   UNL A   1      43.610  28.174  32.906  1.00  0.00    -0.248 NA
ATOM     59  C   UNL A   1      43.056  28.514  35.104  1.00  0.00     0.031 C 
ATOM     60  C   UNL A   1      45.307  26.697  30.497  1.00  0.00     0.029 A 
ATOM     61  C   UNL A   1      44.489  26.029  31.392  1.00  0.00     0.049 A 
ATOM     62  H   UNL A   1      42.828  24.823  30.977  1.00  0.00     0.167 HD
ATOM     63  C   UNL A   1      43.906  27.008  33.535  1.00  0.00     0.074 A 
ATOM     64  C   UNL A   1      43.549  27.273  34.923  1.00  0.00     0.031 C 
ATOM     65  C   UNL A   1      44.381  25.924  32.849  1.00  0.00     0.037 A 
BRANCH  52  66
ATOM     66  C   UNL A   1      43.089  24.155  27.082  1.00  0.00     0.057 A 
ATOM     67  C   UNL A   1      43.138  22.752  27.181  1.00  0.00     0.134 A 
ATOM     68  C   UNL A   1      43.348  24.640  25.785  1.00  0.00     0.134 A 
ATOM     69  F   UNL A   1      42.810  22.114  28.311  1.00  0.00    -0.206 F 
ATOM     70  C   UNL A   1      43.513  21.920  26.114  1.00  0.00     0.040 A 
ATOM     71  C   UNL A   1      43.787  23.828  24.726  1.00  0.00     0.040 A 
ATOM     72  F   UNL A   1      43.110  25.910  25.441  1.00  0.00    -0.206 F 
ATOM     73  C   UNL A   1      43.877  22.458  24.890  1.00  0.00     0.006 A 
ENDBRANCH  52  66
BRANCH  53  74
ATOM     74  C   UNL A   1      41.311  31.099  33.861  1.00  0.00     0.057 A 
ATOM     75  C   UNL A   1      40.200  30.341  34.304  1.00  0.00     0.134 A 
ATOM     76  C   UNL A   1      41.485  32.354  34.454  1.00  0.00     0.134 A 
ATOM     77  F   UNL A   1      39.978  29.117  33.799  1.00  0.00    -0.206 F 
ATOM     78  C   UNL A   1      39.409  30.740  35.388  1.00  0.00     0.040 A 
ATOM     79  C   UNL A   1      40.688  32.767  35.535  1.00  0.00     0.040 A 
ATOM     80  F   UNL A   1      42.524  33.129  34.112  1.00  0.00    -0.206 F 
ATOM     81  C   UNL A   1      39.684  31.938  36.037  1.00  0.00     0.006 A 
ENDBRANCH  53  74
BRANCH  65  82
ATOM     82  C   UNL A   1      44.724  24.627  33.528  1.00  0.00     0.057 A 
ATOM     83  C   UNL A   1      43.751  23.805  34.112  1.00  0.00     0.134 A 
ATOM     84  C   UNL A   1      46.053  24.180  33.677  1.00  0.00     0.134 A 
ATOM     85  F   UNL A   1      42.474  24.201  34.209  1.00  0.00    -0.206 F 
ATOM     86  C   UNL A   1      44.058  22.553  34.651  1.00  0.00     0.040 A 
ATOM     87  C   UNL A   1      46.379  22.959  34.265  1.00  0.00     0.040 A 
ATOM     88  F   UNL A   1      47.106  24.890  33.253  1.00  0.00    -0.206 F 
ATOM     89  C   UNL A   1      45.377  22.119  34.714  1.00  0.00     0.006 A 
ENDBRANCH  65  82
ENDBRANCH  39  40
ENDBRANCH  32  34
ENDBRANCH  31  32
ENDBRANCH  30  31
ENDBRANCH  29  30
ENDBRANCH  28  29
ENDBRANCH   1  28
TORSDOF 18
ENDMDL
