MODEL 1
REMARK VINA RESULT:     -10.9      0.000      0.000
REMARK SMILES COc1cc(/C=C2\SC(=S)N([C@H](C)C(=O)OCCOCCOC(=O)c3ccc(-c4c5nc(c(-c6c(F)cccc6F)c6ccc([nH]6)c(-c6c(F)cccc6F)c6nc(c(-c7c(F)cccc7F)c7ccc4[nH]7)C=C6)C=C5)cc3)C2=O)ccc1OCc1ccc(Cl)cc1Cl
REMARK SMILES IDX 17 1 16 2 14 3 15 4 12 5 13 6 11 7 6 8 7 9 8 10 79 11 9 12
REMARK SMILES IDX 80 13 10 14 5 15 3 16 4 17 83 18 82 19 81 20 2 21 1 22 84 23
REMARK SMILES IDX 85 24 86 25 87 26 92 27 88 28 91 29 93 30 89 31 90 32 18 33
REMARK SMILES IDX 19 34 20 35 21 36 22 37 23 38 24 39 25 40 26 41 78 42 27 43
REMARK SMILES IDX 77 44 28 45 29 46 30 47 71 48 31 49 76 50 70 51 72 52 32 53
REMARK SMILES IDX 75 54 69 55 68 56 33 58 59 59 42 60 58 61 43 62 46 63 57 64
REMARK SMILES IDX 73 65 44 66 45 67 56 69 74 70 47 71 34 72 35 73 40 74 36 75
REMARK SMILES IDX 37 76 39 77 41 78 38 79 60 80 61 81 66 82 62 83 63 84 65 85
REMARK SMILES IDX 67 86 64 87 48 88 49 89 54 90 50 91 51 92 53 93 55 94 52 95
REMARK H PARENT 72 57 46 68
REMARK Flexibility Score: inf
ROOT
ATOM      1  C   UNL A   1      31.024  28.942  24.412  1.00  0.00     0.261 C 
ENDROOT
BRANCH   1   2
ATOM      2  O   UNL A   1      31.899  27.976  23.815  1.00  0.00    -0.462 OA
BRANCH   2   3
ATOM      3  C   UNL A   1      31.300  27.004  23.080  1.00  0.00     0.329 C 
ATOM      4  O   UNL A   1      30.792  27.172  21.975  1.00  0.00    -0.250 OA
BRANCH   3   5
ATOM      5  C   UNL A   1      31.221  25.661  23.818  1.00  0.00     0.199 C 
ATOM      6  C   UNL A   1      30.247  24.597  23.318  1.00  0.00     0.044 C 
BRANCH   5   7
ATOM      7  N   UNL A   1      32.607  25.187  23.880  1.00  0.00    -0.279 N 
ATOM      8  C   UNL A   1      35.114  23.951  26.134  1.00  0.00     0.029 C 
ATOM      9  C   UNL A   1      34.472  24.367  25.036  1.00  0.00     0.081 C 
ATOM     10  S   UNL A   1      34.888  24.111  23.391  1.00  0.00    -0.054 SA
ATOM     11  C   UNL A   1      33.195  25.095  25.132  1.00  0.00     0.266 C 
ATOM     12  C   UNL A   1      33.354  24.746  22.811  1.00  0.00     0.149 C 
ATOM     13  O   UNL A   1      32.729  25.511  26.184  1.00  0.00    -0.268 OA
ATOM     14  S   UNL A   1      32.968  24.797  21.191  1.00  0.00    -0.052 S 
BRANCH   8  15
ATOM     15  C   UNL A   1      36.379  23.229  26.074  1.00  0.00    -0.020 A 
ATOM     16  C   UNL A   1      37.684  21.303  25.375  1.00  0.00     0.161 A 
ATOM     17  C   UNL A   1      36.447  21.947  25.520  1.00  0.00     0.058 A 
ATOM     18  C   UNL A   1      38.855  21.971  25.765  1.00  0.00     0.161 A 
ATOM     19  C   UNL A   1      38.769  23.261  26.305  1.00  0.00     0.051 A 
ATOM     20  C   UNL A   1      37.540  23.883  26.477  1.00  0.00     0.012 A 
BRANCH  16  21
ATOM     21  O   UNL A   1      37.768  20.073  24.777  1.00  0.00    -0.493 OA
ATOM     22  C   UNL A   1      36.598  19.265  24.901  1.00  0.00     0.278 C 
ENDBRANCH  16  21
BRANCH  18  23
ATOM     23  O   UNL A   1      40.146  21.515  25.751  1.00  0.00    -0.485 OA
BRANCH  23  24
ATOM     24  C   UNL A   1      40.770  21.090  26.965  1.00  0.00     0.267 C 
BRANCH  24  25
ATOM     25  C   UNL A   1      41.885  21.984  27.484  1.00  0.00     0.008 A 
ATOM     26  C   UNL A   1      41.759  22.678  28.702  1.00  0.00     0.010 A 
ATOM     27  C   UNL A   1      43.079  22.137  26.759  1.00  0.00     0.049 A 
ATOM     28  C   UNL A   1      42.821  23.417  29.224  1.00  0.00     0.021 A 
ATOM     29  C   UNL A   1      44.138  22.893  27.270  1.00  0.00     0.041 A 
ATOM     30  Cl  UNL A   1      43.305  21.398  25.213  1.00  0.00    -0.084 Cl
ATOM     31  C   UNL A   1      44.009  23.513  28.509  1.00  0.00     0.042 A 
ATOM     32  Cl  UNL A   1      45.327  24.405  29.162  1.00  0.00    -0.084 Cl
ENDBRANCH  24  25
ENDBRANCH  23  24
ENDBRANCH  18  23
ENDBRANCH   8  15
ENDBRANCH   5   7
ENDBRANCH   3   5
ENDBRANCH   2   3
ENDBRANCH   1   2
BRANCH   1  33
ATOM     33  C   UNL A   1      31.761  29.773  25.463  1.00  0.00     0.202 C 
BRANCH  33  34
ATOM     34  O   UNL A   1      31.299  31.110  25.640  1.00  0.00    -0.374 OA
BRANCH  34  35
ATOM     35  C   UNL A   1      31.556  31.753  26.889  1.00  0.00     0.202 C 
BRANCH  35  36
ATOM     36  C   UNL A   1      32.232  33.130  26.841  1.00  0.00     0.261 C 
BRANCH  36  37
ATOM     37  O   UNL A   1      32.182  33.841  28.094  1.00  0.00    -0.460 OA
BRANCH  37  38
ATOM     38  C   UNL A   1      33.312  34.531  28.392  1.00  0.00     0.338 C 
ATOM     39  O   UNL A   1      33.412  35.727  28.607  1.00  0.00    -0.246 OA
BRANCH  38  40
ATOM     40  C   UNL A   1      34.467  33.628  28.554  1.00  0.00     0.060 A 
ATOM     41  C   UNL A   1      34.247  32.403  29.194  1.00  0.00     0.016 A 
ATOM     42  C   UNL A   1      35.764  34.056  28.267  1.00  0.00     0.016 A 
ATOM     43  C   UNL A   1      35.330  31.625  29.604  1.00  0.00     0.010 A 
ATOM     44  C   UNL A   1      36.851  33.276  28.686  1.00  0.00     0.010 A 
ATOM     45  C   UNL A   1      36.639  32.080  29.395  1.00  0.00    -0.014 A 
BRANCH  45  46
ATOM     46  C   UNL A   1      37.770  31.377  30.052  1.00  0.00     0.031 A 
ATOM     47  C   UNL A   1      38.057  31.640  31.507  1.00  0.00     0.074 A 
ATOM     48  C   UNL A   1      38.511  30.481  29.377  1.00  0.00     0.049 A 
ATOM     49  N   UNL A   1      38.997  31.142  32.272  1.00  0.00    -0.248 NA
ATOM     50  C   UNL A   1      37.165  32.589  32.191  1.00  0.00     0.031 C 
ATOM     51  C   UNL A   1      38.314  30.105  27.979  1.00  0.00     0.029 A 
ATOM     52  N   UNL A   1      39.582  29.724  29.784  1.00  0.00    -0.354 N 
ATOM     53  C   UNL A   1      38.811  31.718  33.523  1.00  0.00     0.074 A 
ATOM     54  C   UNL A   1      37.687  32.622  33.409  1.00  0.00     0.031 C 
ATOM     55  C   UNL A   1      39.242  29.192  27.640  1.00  0.00     0.029 A 
ATOM     56  C   UNL A   1      40.109  28.938  28.789  1.00  0.00     0.049 A 
ATOM     57  H   UNL A   1      39.937  29.742  30.702  1.00  0.00     0.167 HD
ATOM     58  C   UNL A   1      39.507  31.506  34.665  1.00  0.00     0.037 A 
ATOM     59  C   UNL A   1      41.179  28.121  28.800  1.00  0.00     0.037 A 
ATOM     60  C   UNL A   1      40.623  30.606  34.787  1.00  0.00     0.049 A 
ATOM     61  C   UNL A   1      41.976  27.951  30.065  1.00  0.00     0.074 A 
ATOM     62  C   UNL A   1      41.377  30.312  35.911  1.00  0.00     0.029 A 
ATOM     63  N   UNL A   1      41.148  29.855  33.747  1.00  0.00    -0.354 N 
ATOM     64  N   UNL A   1      41.778  28.485  31.245  1.00  0.00    -0.248 NA
ATOM     65  C   UNL A   1      43.147  27.062  29.997  1.00  0.00     0.031 C 
ATOM     66  C   UNL A   1      42.383  29.413  35.540  1.00  0.00     0.029 A 
ATOM     67  C   UNL A   1      42.230  29.117  34.196  1.00  0.00     0.049 A 
ATOM     68  H   UNL A   1      40.802  29.848  32.825  1.00  0.00     0.167 HD
ATOM     69  C   UNL A   1      42.780  27.980  32.065  1.00  0.00     0.074 A 
ATOM     70  C   UNL A   1      43.581  27.091  31.250  1.00  0.00     0.031 C 
ATOM     71  C   UNL A   1      43.015  28.231  33.376  1.00  0.00     0.037 A 
BRANCH  58  72
ATOM     72  C   UNL A   1      39.090  32.280  35.879  1.00  0.00     0.057 A 
ATOM     73  C   UNL A   1      38.254  31.726  36.857  1.00  0.00     0.134 A 
ATOM     74  C   UNL A   1      39.559  33.584  36.091  1.00  0.00     0.134 A 
ATOM     75  F   UNL A   1      37.763  30.487  36.707  1.00  0.00    -0.206 F 
ATOM     76  C   UNL A   1      37.885  32.447  37.994  1.00  0.00     0.040 A 
ATOM     77  C   UNL A   1      39.213  34.307  37.233  1.00  0.00     0.040 A 
ATOM     78  F   UNL A   1      40.366  34.170  35.195  1.00  0.00    -0.206 F 
ATOM     79  C   UNL A   1      38.369  33.740  38.187  1.00  0.00     0.006 A 
ENDBRANCH  58  72
BRANCH  59  80
ATOM     80  C   UNL A   1      41.573  27.402  27.563  1.00  0.00     0.057 A 
ATOM     81  C   UNL A   1      41.111  26.109  27.298  1.00  0.00     0.134 A 
ATOM     82  C   UNL A   1      42.434  27.986  26.628  1.00  0.00     0.134 A 
ATOM     83  F   UNL A   1      40.303  25.488  28.171  1.00  0.00    -0.206 F 
ATOM     84  C   UNL A   1      41.502  25.414  26.152  1.00  0.00     0.040 A 
ATOM     85  C   UNL A   1      42.817  27.313  25.467  1.00  0.00     0.040 A 
ATOM     86  F   UNL A   1      42.912  29.224  26.826  1.00  0.00    -0.206 F 
ATOM     87  C   UNL A   1      42.355  26.020  25.230  1.00  0.00     0.006 A 
ENDBRANCH  59  80
BRANCH  71  88
ATOM     88  C   UNL A   1      44.164  27.512  34.020  1.00  0.00     0.057 A 
ATOM     89  C   UNL A   1      45.442  28.080  34.090  1.00  0.00     0.134 A 
ATOM     90  C   UNL A   1      43.979  26.256  34.612  1.00  0.00     0.134 A 
ATOM     91  F   UNL A   1      45.687  29.274  33.531  1.00  0.00    -0.206 F 
ATOM     92  C   UNL A   1      46.501  27.414  34.711  1.00  0.00     0.040 A 
ATOM     93  C   UNL A   1      45.024  25.591  35.254  1.00  0.00     0.040 A 
ATOM     94  F   UNL A   1      42.776  25.662  34.586  1.00  0.00    -0.206 F 
ATOM     95  C   UNL A   1      46.291  26.169  35.301  1.00  0.00     0.006 A 
ENDBRANCH  71  88
ENDBRANCH  45  46
ENDBRANCH  38  40
ENDBRANCH  37  38
ENDBRANCH  36  37
ENDBRANCH  35  36
ENDBRANCH  34  35
ENDBRANCH  33  34
ENDBRANCH   1  33
TORSDOF 20
ENDMDL
MODEL 2
REMARK VINA RESULT:     -10.8      4.123     10.385
REMARK SMILES COc1cc(/C=C2\SC(=S)N([C@H](C)C(=O)OCCOCCOC(=O)c3ccc(-c4c5nc(c(-c6c(F)cccc6F)c6ccc([nH]6)c(-c6c(F)cccc6F)c6nc(c(-c7c(F)cccc7F)c7ccc4[nH]7)C=C6)C=C5)cc3)C2=O)ccc1OCc1ccc(Cl)cc1Cl
REMARK SMILES IDX 17 1 16 2 14 3 15 4 12 5 13 6 11 7 6 8 7 9 8 10 79 11 9 12
REMARK SMILES IDX 80 13 10 14 5 15 3 16 4 17 83 18 82 19 81 20 2 21 1 22 84 23
REMARK SMILES IDX 85 24 86 25 87 26 92 27 88 28 91 29 93 30 89 31 90 32 18 33
REMARK SMILES IDX 19 34 20 35 21 36 22 37 23 38 24 39 25 40 26 41 78 42 27 43
REMARK SMILES IDX 77 44 28 45 29 46 30 47 71 48 31 49 76 50 70 51 72 52 32 53
REMARK SMILES IDX 75 54 69 55 68 56 33 58 59 59 42 60 58 61 43 62 46 63 57 64
REMARK SMILES IDX 73 65 44 66 45 67 56 69 74 70 47 71 34 72 35 73 40 74 36 75
REMARK SMILES IDX 37 76 39 77 41 78 38 79 60 80 61 81 66 82 62 83 63 84 65 85
REMARK SMILES IDX 67 86 64 87 48 88 49 89 54 90 50 91 51 92 53 93 55 94 52 95
REMARK H PARENT 72 57 46 68
REMARK Flexibility Score: inf
ROOT
ATOM      1  C   UNL A   1      35.846  23.424  24.273  1.00  0.00     0.261 C 
ENDROOT
BRANCH   1   2
ATOM      2  O   UNL A   1      34.626  23.286  23.532  1.00  0.00    -0.462 OA
BRANCH   2   3
ATOM      3  C   UNL A   1      33.531  22.928  24.249  1.00  0.00     0.329 C 
ATOM      4  O   UNL A   1      33.528  22.113  25.167  1.00  0.00    -0.250 OA
BRANCH   3   5
ATOM      5  C   UNL A   1      32.239  23.575  23.730  1.00  0.00     0.199 C 
ATOM      6  C   UNL A   1      30.894  23.005  24.174  1.00  0.00     0.044 C 
BRANCH   5   7
ATOM      7  N   UNL A   1      32.387  25.001  24.035  1.00  0.00    -0.279 N 
ATOM      8  C   UNL A   1      32.960  27.312  26.723  1.00  0.00     0.029 C 
ATOM      9  C   UNL A   1      32.732  26.784  25.515  1.00  0.00     0.081 C 
ATOM     10  S   UNL A   1      32.937  27.510  23.972  1.00  0.00    -0.054 SA
ATOM     11  C   UNL A   1      32.307  25.381  25.365  1.00  0.00     0.266 C 
ATOM     12  C   UNL A   1      32.680  25.992  23.124  1.00  0.00     0.149 C 
ATOM     13  O   UNL A   1      31.976  24.670  26.303  1.00  0.00    -0.268 OA
ATOM     14  S   UNL A   1      32.765  25.875  21.464  1.00  0.00    -0.052 S 
BRANCH   8  15
ATOM     15  C   UNL A   1      33.380  28.695  26.905  1.00  0.00    -0.020 A 
ATOM     16  C   UNL A   1      32.848  31.053  27.150  1.00  0.00     0.161 A 
ATOM     17  C   UNL A   1      32.448  29.738  26.873  1.00  0.00     0.058 A 
ATOM     18  C   UNL A   1      34.186  31.308  27.487  1.00  0.00     0.161 A 
ATOM     19  C   UNL A   1      35.104  30.249  27.527  1.00  0.00     0.051 A 
ATOM     20  C   UNL A   1      34.712  28.952  27.222  1.00  0.00     0.012 A 
BRANCH  16  21
ATOM     21  O   UNL A   1      31.932  32.072  27.182  1.00  0.00    -0.493 OA
ATOM     22  C   UNL A   1      30.969  32.046  26.129  1.00  0.00     0.278 C 
ENDBRANCH  16  21
BRANCH  18  23
ATOM     23  O   UNL A   1      34.791  32.508  27.747  1.00  0.00    -0.485 OA
BRANCH  23  24
ATOM     24  C   UNL A   1      34.750  33.063  29.064  1.00  0.00     0.267 C 
BRANCH  24  25
ATOM     25  C   UNL A   1      36.006  32.877  29.899  1.00  0.00     0.008 A 
ATOM     26  C   UNL A   1      37.277  32.781  29.300  1.00  0.00     0.010 A 
ATOM     27  C   UNL A   1      35.932  32.800  31.300  1.00  0.00     0.049 A 
ATOM     28  C   UNL A   1      38.436  32.711  30.074  1.00  0.00     0.021 A 
ATOM     29  C   UNL A   1      37.091  32.709  32.078  1.00  0.00     0.041 A 
ATOM     30  Cl  UNL A   1      34.417  32.820  32.132  1.00  0.00    -0.084 Cl
ATOM     31  C   UNL A   1      38.337  32.685  31.460  1.00  0.00     0.042 A 
ATOM     32  Cl  UNL A   1      39.765  32.622  32.415  1.00  0.00    -0.084 Cl
ENDBRANCH  24  25
ENDBRANCH  23  24
ENDBRANCH  18  23
ENDBRANCH   8  15
ENDBRANCH   5   7
ENDBRANCH   3   5
ENDBRANCH   2   3
ENDBRANCH   1   2
BRANCH   1  33
ATOM     33  C   UNL A   1      36.906  22.443  23.772  1.00  0.00     0.202 C 
BRANCH  33  34
ATOM     34  O   UNL A   1      37.094  21.269  24.558  1.00  0.00    -0.374 OA
BRANCH  34  35
ATOM     35  C   UNL A   1      38.247  21.195  25.397  1.00  0.00     0.202 C 
BRANCH  35  36
ATOM     36  C   UNL A   1      39.018  19.869  25.412  1.00  0.00     0.261 C 
BRANCH  36  37
ATOM     37  O   UNL A   1      39.892  19.723  26.550  1.00  0.00    -0.460 OA
BRANCH  37  38
ATOM     38  C   UNL A   1      41.201  19.556  26.234  1.00  0.00     0.338 C 
ATOM     39  O   UNL A   1      41.724  18.563  25.757  1.00  0.00    -0.246 OA
BRANCH  38  40
ATOM     40  C   UNL A   1      41.964  20.804  26.425  1.00  0.00     0.060 A 
ATOM     41  C   UNL A   1      42.200  21.225  27.738  1.00  0.00     0.016 A 
ATOM     42  C   UNL A   1      42.264  21.639  25.347  1.00  0.00     0.016 A 
ATOM     43  C   UNL A   1      42.684  22.510  27.983  1.00  0.00     0.010 A 
ATOM     44  C   UNL A   1      42.744  22.932  25.595  1.00  0.00     0.010 A 
ATOM     45  C   UNL A   1      42.914  23.389  26.915  1.00  0.00    -0.014 A 
BRANCH  45  46
ATOM     46  C   UNL A   1      43.183  24.822  27.194  1.00  0.00     0.031 A 
ATOM     47  C   UNL A   1      44.491  25.426  26.752  1.00  0.00     0.074 A 
ATOM     48  C   UNL A   1      42.261  25.593  27.795  1.00  0.00     0.049 A 
ATOM     49  N   UNL A   1      44.932  26.651  26.901  1.00  0.00    -0.248 NA
ATOM     50  C   UNL A   1      45.423  24.532  26.048  1.00  0.00     0.031 C 
ATOM     51  C   UNL A   1      40.942  25.144  28.237  1.00  0.00     0.029 A 
ATOM     52  N   UNL A   1      42.298  26.922  28.138  1.00  0.00    -0.354 N 
ATOM     53  C   UNL A   1      46.191  26.672  26.313  1.00  0.00     0.074 A 
ATOM     54  C   UNL A   1      46.455  25.334  25.829  1.00  0.00     0.031 C 
ATOM     55  C   UNL A   1      40.297  26.179  28.801  1.00  0.00     0.029 A 
ATOM     56  C   UNL A   1      41.166  27.356  28.781  1.00  0.00     0.049 A 
ATOM     57  H   UNL A   1      43.065  27.508  27.941  1.00  0.00     0.167 HD
ATOM     58  C   UNL A   1      47.047  27.713  26.179  1.00  0.00     0.037 A 
ATOM     59  C   UNL A   1      40.869  28.559  29.308  1.00  0.00     0.037 A 
ATOM     60  C   UNL A   1      46.790  29.048  26.653  1.00  0.00     0.049 A 
ATOM     61  C   UNL A   1      41.863  29.684  29.203  1.00  0.00     0.074 A 
ATOM     62  C   UNL A   1      47.591  30.172  26.545  1.00  0.00     0.029 A 
ATOM     63  N   UNL A   1      45.645  29.437  27.330  1.00  0.00    -0.354 N 
ATOM     64  N   UNL A   1      43.040  29.697  28.628  1.00  0.00    -0.248 NA
ATOM     65  C   UNL A   1      41.485  30.964  29.824  1.00  0.00     0.031 C 
ATOM     66  C   UNL A   1      46.947  31.232  27.191  1.00  0.00     0.029 A 
ATOM     67  C   UNL A   1      45.728  30.777  27.667  1.00  0.00     0.049 A 
ATOM     68  H   UNL A   1      44.885  28.847  27.541  1.00  0.00     0.167 HD
ATOM     69  C   UNL A   1      43.531  30.987  28.793  1.00  0.00     0.074 A 
ATOM     70  C   UNL A   1      42.521  31.731  29.516  1.00  0.00     0.031 C 
ATOM     71  C   UNL A   1      44.713  31.508  28.381  1.00  0.00     0.037 A 
BRANCH  58  72
ATOM     72  C   UNL A   1      48.358  27.446  25.503  1.00  0.00     0.057 A 
ATOM     73  C   UNL A   1      48.487  27.470  24.108  1.00  0.00     0.134 A 
ATOM     74  C   UNL A   1      49.512  27.196  26.257  1.00  0.00     0.134 A 
ATOM     75  F   UNL A   1      47.417  27.692  23.331  1.00  0.00    -0.206 F 
ATOM     76  C   UNL A   1      49.716  27.237  23.487  1.00  0.00     0.040 A 
ATOM     77  C   UNL A   1      50.749  26.982  25.648  1.00  0.00     0.040 A 
ATOM     78  F   UNL A   1      49.456  27.164  27.597  1.00  0.00    -0.206 F 
ATOM     79  C   UNL A   1      50.853  26.998  24.258  1.00  0.00     0.006 A 
ENDBRANCH  58  72
BRANCH  59  80
ATOM     80  C   UNL A   1      39.572  28.765  29.998  1.00  0.00     0.057 A 
ATOM     81  C   UNL A   1      39.452  28.593  31.381  1.00  0.00     0.134 A 
ATOM     82  C   UNL A   1      38.421  29.120  29.287  1.00  0.00     0.134 A 
ATOM     83  F   UNL A   1      40.516  28.228  32.112  1.00  0.00    -0.206 F 
ATOM     84  C   UNL A   1      38.228  28.755  32.033  1.00  0.00     0.040 A 
ATOM     85  C   UNL A   1      37.195  29.306  29.927  1.00  0.00     0.040 A 
ATOM     86  F   UNL A   1      38.473  29.297  27.958  1.00  0.00    -0.206 F 
ATOM     87  C   UNL A   1      37.096  29.118  31.304  1.00  0.00     0.006 A 
ENDBRANCH  59  80
BRANCH  71  88
ATOM     88  C   UNL A   1      44.966  32.957  28.675  1.00  0.00     0.057 A 
ATOM     89  C   UNL A   1      45.662  33.367  29.820  1.00  0.00     0.134 A 
ATOM     90  C   UNL A   1      44.545  33.951  27.782  1.00  0.00     0.134 A 
ATOM     91  F   UNL A   1      46.082  32.464  30.719  1.00  0.00    -0.206 F 
ATOM     92  C   UNL A   1      45.914  34.716  30.074  1.00  0.00     0.040 A 
ATOM     93  C   UNL A   1      44.810  35.301  28.015  1.00  0.00     0.040 A 
ATOM     94  F   UNL A   1      43.880  33.623  26.664  1.00  0.00    -0.206 F 
ATOM     95  C   UNL A   1      45.493  35.687  29.167  1.00  0.00     0.006 A 
ENDBRANCH  71  88
ENDBRANCH  45  46
ENDBRANCH  38  40
ENDBRANCH  37  38
ENDBRANCH  36  37
ENDBRANCH  35  36
ENDBRANCH  34  35
ENDBRANCH  33  34
ENDBRANCH   1  33
TORSDOF 20
ENDMDL
MODEL 3
REMARK VINA RESULT:     -10.8      4.016      9.108
REMARK SMILES COc1cc(/C=C2\SC(=S)N([C@H](C)C(=O)OCCOCCOC(=O)c3ccc(-c4c5nc(c(-c6c(F)cccc6F)c6ccc([nH]6)c(-c6c(F)cccc6F)c6nc(c(-c7c(F)cccc7F)c7ccc4[nH]7)C=C6)C=C5)cc3)C2=O)ccc1OCc1ccc(Cl)cc1Cl
REMARK SMILES IDX 17 1 16 2 14 3 15 4 12 5 13 6 11 7 6 8 7 9 8 10 79 11 9 12
REMARK SMILES IDX 80 13 10 14 5 15 3 16 4 17 83 18 82 19 81 20 2 21 1 22 84 23
REMARK SMILES IDX 85 24 86 25 87 26 92 27 88 28 91 29 93 30 89 31 90 32 18 33
REMARK SMILES IDX 19 34 20 35 21 36 22 37 23 38 24 39 25 40 26 41 78 42 27 43
REMARK SMILES IDX 77 44 28 45 29 46 30 47 71 48 31 49 76 50 70 51 72 52 32 53
REMARK SMILES IDX 75 54 69 55 68 56 33 58 59 59 42 60 58 61 43 62 46 63 57 64
REMARK SMILES IDX 73 65 44 66 45 67 56 69 74 70 47 71 34 72 35 73 40 74 36 75
REMARK SMILES IDX 37 76 39 77 41 78 38 79 60 80 61 81 66 82 62 83 63 84 65 85
REMARK SMILES IDX 67 86 64 87 48 88 49 89 54 90 50 91 51 92 53 93 55 94 52 95
REMARK H PARENT 72 57 46 68
REMARK Flexibility Score: inf
ROOT
ATOM      1  C   UNL A   1      34.663  21.383  26.226  1.00  0.00     0.261 C 
ENDROOT
BRANCH   1   2
ATOM      2  O   UNL A   1      34.147  22.677  26.565  1.00  0.00    -0.462 OA
BRANCH   2   3
ATOM      3  C   UNL A   1      32.798  22.770  26.678  1.00  0.00     0.329 C 
ATOM      4  O   UNL A   1      32.147  22.394  27.650  1.00  0.00    -0.250 OA
BRANCH   3   5
ATOM      5  C   UNL A   1      32.128  23.307  25.407  1.00  0.00     0.199 C 
ATOM      6  C   UNL A   1      30.633  23.074  25.201  1.00  0.00     0.044 C 
BRANCH   5   7
ATOM      7  N   UNL A   1      32.499  24.725  25.360  1.00  0.00    -0.279 N 
ATOM      8  C   UNL A   1      32.331  27.794  27.218  1.00  0.00     0.029 C 
ATOM      9  C   UNL A   1      32.572  26.884  26.266  1.00  0.00     0.081 C 
ATOM     10  S   UNL A   1      33.680  26.971  24.958  1.00  0.00    -0.054 SA
ATOM     11  C   UNL A   1      31.902  25.572  26.280  1.00  0.00     0.266 C 
ATOM     12  C   UNL A   1      33.452  25.280  24.535  1.00  0.00     0.149 C 
ATOM     13  O   UNL A   1      30.980  25.290  27.034  1.00  0.00    -0.268 OA
ATOM     14  S   UNL A   1      34.283  24.555  23.287  1.00  0.00    -0.052 S 
BRANCH   8  15
ATOM     15  C   UNL A   1      32.976  29.100  27.232  1.00  0.00    -0.020 A 
ATOM     16  C   UNL A   1      32.843  31.525  27.191  1.00  0.00     0.161 A 
ATOM     17  C   UNL A   1      32.228  30.271  27.075  1.00  0.00     0.058 A 
ATOM     18  C   UNL A   1      34.212  31.593  27.496  1.00  0.00     0.161 A 
ATOM     19  C   UNL A   1      34.943  30.409  27.663  1.00  0.00     0.051 A 
ATOM     20  C   UNL A   1      34.338  29.168  27.516  1.00  0.00     0.012 A 
BRANCH  16  21
ATOM     21  O   UNL A   1      32.108  32.678  27.101  1.00  0.00    -0.493 OA
ATOM     22  C   UNL A   1      31.073  32.654  26.119  1.00  0.00     0.278 C 
ENDBRANCH  16  21
BRANCH  18  23
ATOM     23  O   UNL A   1      35.011  32.699  27.610  1.00  0.00    -0.485 OA
BRANCH  23  24
ATOM     24  C   UNL A   1      34.903  33.548  28.755  1.00  0.00     0.267 C 
BRANCH  24  25
ATOM     25  C   UNL A   1      36.171  33.714  29.577  1.00  0.00     0.008 A 
ATOM     26  C   UNL A   1      37.443  33.697  28.973  1.00  0.00     0.010 A 
ATOM     27  C   UNL A   1      36.105  33.895  30.968  1.00  0.00     0.049 A 
ATOM     28  C   UNL A   1      38.597  33.949  29.715  1.00  0.00     0.021 A 
ATOM     29  C   UNL A   1      37.263  34.128  31.718  1.00  0.00     0.041 A 
ATOM     30  Cl  UNL A   1      34.603  33.847  31.822  1.00  0.00    -0.084 Cl
ATOM     31  C   UNL A   1      38.500  34.173  31.083  1.00  0.00     0.042 A 
ATOM     32  Cl  UNL A   1      39.919  34.507  31.995  1.00  0.00    -0.084 Cl
ENDBRANCH  24  25
ENDBRANCH  23  24
ENDBRANCH  18  23
ENDBRANCH   8  15
ENDBRANCH   5   7
ENDBRANCH   3   5
ENDBRANCH   2   3
ENDBRANCH   1   2
BRANCH   1  33
ATOM     33  C   UNL A   1      35.500  21.443  24.949  1.00  0.00     0.202 C 
BRANCH  33  34
ATOM     34  O   UNL A   1      36.871  21.075  25.080  1.00  0.00    -0.374 OA
BRANCH  34  35
ATOM     35  C   UNL A   1      37.208  19.689  25.009  1.00  0.00     0.202 C 
BRANCH  35  36
ATOM     36  C   UNL A   1      38.699  19.330  25.032  1.00  0.00     0.261 C 
BRANCH  36  37
ATOM     37  O   UNL A   1      39.311  19.488  26.329  1.00  0.00    -0.460 OA
BRANCH  37  38
ATOM     38  C   UNL A   1      40.614  19.867  26.291  1.00  0.00     0.338 C 
ATOM     39  O   UNL A   1      41.546  19.255  25.799  1.00  0.00    -0.246 OA
BRANCH  38  40
ATOM     40  C   UNL A   1      40.795  21.226  26.835  1.00  0.00     0.060 A 
ATOM     41  C   UNL A   1      40.252  22.292  26.111  1.00  0.00     0.016 A 
ATOM     42  C   UNL A   1      41.644  21.463  27.918  1.00  0.00     0.016 A 
ATOM     43  C   UNL A   1      40.604  23.604  26.429  1.00  0.00     0.010 A 
ATOM     44  C   UNL A   1      42.001  22.781  28.232  1.00  0.00     0.010 A 
ATOM     45  C   UNL A   1      41.518  23.854  27.461  1.00  0.00    -0.014 A 
BRANCH  45  46
ATOM     46  C   UNL A   1      42.076  25.220  27.627  1.00  0.00     0.031 A 
ATOM     47  C   UNL A   1      41.286  26.253  28.386  1.00  0.00     0.074 A 
ATOM     48  C   UNL A   1      43.293  25.531  27.146  1.00  0.00     0.049 A 
ATOM     49  N   UNL A   1      41.582  27.504  28.640  1.00  0.00    -0.248 NA
ATOM     50  C   UNL A   1      39.991  25.819  28.932  1.00  0.00     0.031 C 
ATOM     51  C   UNL A   1      44.177  24.614  26.429  1.00  0.00     0.029 A 
ATOM     52  N   UNL A   1      43.993  26.711  27.191  1.00  0.00    -0.354 N 
ATOM     53  C   UNL A   1      40.511  28.004  29.371  1.00  0.00     0.074 A 
ATOM     54  C   UNL A   1      39.547  26.932  29.497  1.00  0.00     0.031 C 
ATOM     55  C   UNL A   1      45.301  25.270  26.093  1.00  0.00     0.029 A 
ATOM     56  C   UNL A   1      45.206  26.655  26.550  1.00  0.00     0.049 A 
ATOM     57  H   UNL A   1      43.657  27.520  27.642  1.00  0.00     0.167 HD
ATOM     58  C   UNL A   1      40.349  29.241  29.899  1.00  0.00     0.037 A 
ATOM     59  C   UNL A   1      46.126  27.616  26.342  1.00  0.00     0.037 A 
ATOM     60  C   UNL A   1      41.304  30.311  29.781  1.00  0.00     0.049 A 
ATOM     61  C   UNL A   1      45.893  29.001  26.883  1.00  0.00     0.074 A 
ATOM     62  C   UNL A   1      41.234  31.593  30.300  1.00  0.00     0.029 A 
ATOM     63  N   UNL A   1      42.505  30.224  29.094  1.00  0.00    -0.354 N 
ATOM     64  N   UNL A   1      44.888  29.456  27.588  1.00  0.00    -0.248 NA
ATOM     65  C   UNL A   1      46.928  30.008  26.596  1.00  0.00     0.031 C 
ATOM     66  C   UNL A   1      42.374  32.293  29.893  1.00  0.00     0.029 A 
ATOM     67  C   UNL A   1      43.173  31.435  29.155  1.00  0.00     0.049 A 
ATOM     68  H   UNL A   1      42.834  29.420  28.631  1.00  0.00     0.167 HD
ATOM     69  C   UNL A   1      45.178  30.789  27.852  1.00  0.00     0.074 A 
ATOM     70  C   UNL A   1      46.458  31.069  27.236  1.00  0.00     0.031 C 
ATOM     71  C   UNL A   1      44.449  31.700  28.543  1.00  0.00     0.037 A 
BRANCH  58  72
ATOM     72  C   UNL A   1      39.075  29.513  30.640  1.00  0.00     0.057 A 
ATOM     73  C   UNL A   1      38.939  29.223  32.004  1.00  0.00     0.134 A 
ATOM     74  C   UNL A   1      37.982  30.103  29.992  1.00  0.00     0.134 A 
ATOM     75  F   UNL A   1      39.945  28.646  32.679  1.00  0.00    -0.206 F 
ATOM     76  C   UNL A   1      37.755  29.495  32.692  1.00  0.00     0.040 A 
ATOM     77  C   UNL A   1      36.801  30.398  30.673  1.00  0.00     0.040 A 
ATOM     78  F   UNL A   1      38.050  30.409  28.687  1.00  0.00    -0.206 F 
ATOM     79  C   UNL A   1      36.683  30.090  32.028  1.00  0.00     0.006 A 
ENDBRANCH  58  72
BRANCH  59  80
ATOM     80  C   UNL A   1      47.356  27.308  25.572  1.00  0.00     0.057 A 
ATOM     81  C   UNL A   1      48.485  26.767  26.196  1.00  0.00     0.134 A 
ATOM     82  C   UNL A   1      47.435  27.564  24.199  1.00  0.00     0.134 A 
ATOM     83  F   UNL A   1      48.477  26.524  27.515  1.00  0.00    -0.206 F 
ATOM     84  C   UNL A   1      49.656  26.504  25.483  1.00  0.00     0.040 A 
ATOM     85  C   UNL A   1      48.592  27.286  23.470  1.00  0.00     0.040 A 
ATOM     86  F   UNL A   1      46.385  28.083  23.544  1.00  0.00    -0.206 F 
ATOM     87  C   UNL A   1      49.709  26.760  24.114  1.00  0.00     0.006 A 
ENDBRANCH  59  80
BRANCH  71  88
ATOM     88  C   UNL A   1      45.031  33.074  28.696  1.00  0.00     0.057 A 
ATOM     89  C   UNL A   1      44.712  34.112  27.812  1.00  0.00     0.134 A 
ATOM     90  C   UNL A   1      45.886  33.372  29.765  1.00  0.00     0.134 A 
ATOM     91  F   UNL A   1      43.908  33.888  26.762  1.00  0.00    -0.206 F 
ATOM     92  C   UNL A   1      45.239  35.395  27.975  1.00  0.00     0.040 A 
ATOM     93  C   UNL A   1      46.402  34.655  29.950  1.00  0.00     0.040 A 
ATOM     94  F   UNL A   1      46.224  32.423  30.651  1.00  0.00    -0.206 F 
ATOM     95  C   UNL A   1      46.082  35.670  29.051  1.00  0.00     0.006 A 
ENDBRANCH  71  88
ENDBRANCH  45  46
ENDBRANCH  38  40
ENDBRANCH  37  38
ENDBRANCH  36  37
ENDBRANCH  35  36
ENDBRANCH  34  35
ENDBRANCH  33  34
ENDBRANCH   1  33
TORSDOF 20
ENDMDL
