MODEL 1
REMARK VINA RESULT:      -9.7      0.000      0.000
REMARK SMILES CC(C)[C@@H](CCC(=O)OCCOCCOC(=O)c1ccc(-c2c3nc(c(-c4c(F)cccc4F)c4ccc([nH]4)c(-c4c(F)cccc4F)c4nc(c(-c5c(F)cccc5F)c5ccc2[nH]5)C=C4)C=C3)cc1)CC[NH+]1CC2(CC2)C1
REMARK SMILES IDX 10 1 9 2 7 3 8 4 6 5 5 6 4 7 2 8 1 9 3 10 72 11 73 12 74 13
REMARK SMILES IDX 75 14 79 15 76 17 77 18 78 19 11 20 12 21 13 22 14 23 15 24
REMARK SMILES IDX 16 25 17 26 18 27 19 28 71 29 20 30 70 31 21 32 22 33 23 34
REMARK SMILES IDX 64 35 24 36 69 37 63 38 65 39 25 40 68 41 62 42 61 43 26 45
REMARK SMILES IDX 52 46 35 47 51 48 36 49 39 50 50 51 66 52 37 53 38 54 49 56
REMARK SMILES IDX 67 57 40 58 27 59 28 60 33 61 29 62 30 63 32 64 34 65 31 66
REMARK SMILES IDX 53 67 54 68 59 69 55 70 56 71 58 72 60 73 57 74 41 75 42 76
REMARK SMILES IDX 47 77 43 78 44 79 46 80 48 81 45 82
REMARK H PARENT 74 16 65 44 39 55
REMARK Flexibility Score: inf
ROOT
ATOM      1  C   UNL A   1      34.443  31.343  27.736  1.00  0.00     0.261 C 
ENDROOT
BRANCH   1   2
ATOM      2  O   UNL A   1      33.116  30.791  27.636  1.00  0.00    -0.463 OA
BRANCH   2   3
ATOM      3  C   UNL A   1      32.915  29.852  26.682  1.00  0.00     0.305 C 
ATOM      4  O   UNL A   1      32.854  30.067  25.479  1.00  0.00    -0.252 OA
BRANCH   3   5
ATOM      5  C   UNL A   1      32.716  28.486  27.291  1.00  0.00     0.123 C 
BRANCH   5   6
ATOM      6  C   UNL A   1      31.744  27.548  26.562  1.00  0.00     0.016 C 
BRANCH   6   7
ATOM      7  C   UNL A   1      32.244  26.174  25.991  1.00  0.00    -0.002 C 
BRANCH   7   8
ATOM      8  C   UNL A   1      33.653  26.284  25.333  1.00  0.00    -0.014 C 
ATOM      9  C   UNL A   1      34.383  24.937  25.451  1.00  0.00     0.007 C 
ATOM     10  C   UNL A   1      33.686  26.716  23.869  1.00  0.00     0.007 C 
ENDBRANCH   7   8
BRANCH   7  11
ATOM     11  C   UNL A   1      31.138  25.453  25.187  1.00  0.00     0.065 C 
BRANCH  11  12
ATOM     12  C   UNL A   1      29.803  26.176  24.864  1.00  0.00     0.262 C 
BRANCH  12  13
ATOM     13  N   UNL A   1      29.378  26.622  23.533  1.00  0.00    -0.334 N 
ATOM     14  C   UNL A   1      28.386  27.696  23.499  1.00  0.00     0.275 C 
ATOM     15  C   UNL A   1      30.360  27.439  22.829  1.00  0.00     0.275 C 
ATOM     16  H   UNL A   1      29.114  25.709  23.162  1.00  0.00     0.348 HD
ATOM     17  C   UNL A   1      29.474  28.594  23.057  1.00  0.00     0.068 C 
ATOM     18  C   UNL A   1      29.901  29.925  23.589  1.00  0.00     0.020 C 
ATOM     19  C   UNL A   1      29.350  29.808  22.193  1.00  0.00     0.020 C 
ENDBRANCH  12  13
ENDBRANCH  11  12
ENDBRANCH   7  11
ENDBRANCH   6   7
ENDBRANCH   5   6
ENDBRANCH   3   5
ENDBRANCH   2   3
ENDBRANCH   1   2
BRANCH   1  20
ATOM     20  C   UNL A   1      34.387  32.791  28.221  1.00  0.00     0.202 C 
BRANCH  20  21
ATOM     21  O   UNL A   1      34.022  32.903  29.598  1.00  0.00    -0.374 OA
BRANCH  21  22
ATOM     22  C   UNL A   1      34.205  34.199  30.168  1.00  0.00     0.202 C 
BRANCH  22  23
ATOM     23  C   UNL A   1      34.431  34.167  31.683  1.00  0.00     0.261 C 
BRANCH  23  24
ATOM     24  O   UNL A   1      35.820  33.954  31.998  1.00  0.00    -0.460 OA
BRANCH  24  25
ATOM     25  C   UNL A   1      36.118  32.808  32.660  1.00  0.00     0.338 C 
ATOM     26  O   UNL A   1      35.534  32.327  33.614  1.00  0.00    -0.246 OA
BRANCH  25  27
ATOM     27  C   UNL A   1      37.197  32.115  31.926  1.00  0.00     0.060 A 
ATOM     28  C   UNL A   1      38.110  31.334  32.640  1.00  0.00     0.016 A 
ATOM     29  C   UNL A   1      37.303  32.216  30.540  1.00  0.00     0.016 A 
ATOM     30  C   UNL A   1      39.133  30.660  31.964  1.00  0.00     0.010 A 
ATOM     31  C   UNL A   1      38.282  31.486  29.860  1.00  0.00     0.010 A 
ATOM     32  C   UNL A   1      39.236  30.733  30.566  1.00  0.00    -0.014 A 
BRANCH  32  33
ATOM     33  C   UNL A   1      40.415  30.163  29.847  1.00  0.00     0.031 A 
ATOM     34  C   UNL A   1      41.614  31.046  29.593  1.00  0.00     0.074 A 
ATOM     35  C   UNL A   1      40.439  28.886  29.416  1.00  0.00     0.049 A 
ATOM     36  N   UNL A   1      42.714  30.790  28.929  1.00  0.00    -0.248 NA
ATOM     37  C   UNL A   1      41.553  32.412  30.139  1.00  0.00     0.031 C 
ATOM     38  C   UNL A   1      39.359  27.912  29.568  1.00  0.00     0.029 A 
ATOM     39  N   UNL A   1      41.423  28.189  28.754  1.00  0.00    -0.354 N 
ATOM     40  C   UNL A   1      43.448  31.970  28.945  1.00  0.00     0.074 A 
ATOM     41  C   UNL A   1      42.646  32.958  29.632  1.00  0.00     0.031 C 
ATOM     42  C   UNL A   1      39.749  26.739  29.037  1.00  0.00     0.029 A 
ATOM     43  C   UNL A   1      41.090  26.884  28.474  1.00  0.00     0.049 A 
ATOM     44  H   UNL A   1      42.288  28.587  28.503  1.00  0.00     0.167 HD
ATOM     45  C   UNL A   1      44.690  32.214  28.466  1.00  0.00     0.037 A 
ATOM     46  C   UNL A   1      41.781  25.921  27.832  1.00  0.00     0.037 A 
ATOM     47  C   UNL A   1      45.527  31.228  27.839  1.00  0.00     0.049 A 
ATOM     48  C   UNL A   1      43.162  26.212  27.300  1.00  0.00     0.074 A 
ATOM     49  C   UNL A   1      46.826  31.368  27.383  1.00  0.00     0.029 A 
ATOM     50  N   UNL A   1      45.150  29.919  27.588  1.00  0.00    -0.354 N 
ATOM     51  N   UNL A   1      43.861  27.319  27.369  1.00  0.00    -0.248 NA
ATOM     52  C   UNL A   1      43.853  25.116  26.601  1.00  0.00     0.031 C 
ATOM     53  C   UNL A   1      47.224  30.151  26.820  1.00  0.00     0.029 A 
ATOM     54  C   UNL A   1      46.188  29.243  26.968  1.00  0.00     0.049 A 
ATOM     55  H   UNL A   1      44.276  29.528  27.815  1.00  0.00     0.167 HD
ATOM     56  C   UNL A   1      45.079  27.042  26.758  1.00  0.00     0.074 A 
ATOM     57  C   UNL A   1      45.029  25.661  26.331  1.00  0.00     0.031 C 
ATOM     58  C   UNL A   1      46.142  27.860  26.569  1.00  0.00     0.037 A 
BRANCH  45  59
ATOM     59  C   UNL A   1      45.225  33.608  28.614  1.00  0.00     0.057 A 
ATOM     60  C   UNL A   1      45.974  34.000  29.732  1.00  0.00     0.134 A 
ATOM     61  C   UNL A   1      45.000  34.567  27.618  1.00  0.00     0.134 A 
ATOM     62  F   UNL A   1      46.212  33.133  30.729  1.00  0.00    -0.206 F 
ATOM     63  C   UNL A   1      46.451  35.305  29.870  1.00  0.00     0.040 A 
ATOM     64  C   UNL A   1      45.500  35.865  27.730  1.00  0.00     0.040 A 
ATOM     65  F   UNL A   1      44.299  34.255  26.518  1.00  0.00    -0.206 F 
ATOM     66  C   UNL A   1      46.219  36.240  28.863  1.00  0.00     0.006 A 
ENDBRANCH  45  59
BRANCH  46  67
ATOM     67  C   UNL A   1      41.192  24.567  27.654  1.00  0.00     0.057 A 
ATOM     68  C   UNL A   1      41.658  23.474  28.398  1.00  0.00     0.134 A 
ATOM     69  C   UNL A   1      40.190  24.321  26.709  1.00  0.00     0.134 A 
ATOM     70  F   UNL A   1      42.636  23.640  29.300  1.00  0.00    -0.206 F 
ATOM     71  C   UNL A   1      41.166  22.184  28.191  1.00  0.00     0.040 A 
ATOM     72  C   UNL A   1      39.670  23.040  26.509  1.00  0.00     0.040 A 
ATOM     73  F   UNL A   1      39.702  25.323  25.964  1.00  0.00    -0.206 F 
ATOM     74  C   UNL A   1      40.165  21.965  27.245  1.00  0.00     0.006 A 
ENDBRANCH  46  67
BRANCH  58  75
ATOM     75  C   UNL A   1      47.365  27.284  25.916  1.00  0.00     0.057 A 
ATOM     76  C   UNL A   1      48.365  26.638  26.652  1.00  0.00     0.134 A 
ATOM     77  C   UNL A   1      47.507  27.316  24.521  1.00  0.00     0.134 A 
ATOM     78  F   UNL A   1      48.295  26.581  27.991  1.00  0.00    -0.206 F 
ATOM     79  C   UNL A   1      49.469  26.054  26.028  1.00  0.00     0.040 A 
ATOM     80  C   UNL A   1      48.593  26.714  23.884  1.00  0.00     0.040 A 
ATOM     81  F   UNL A   1      46.580  27.910  23.755  1.00  0.00    -0.206 F 
ATOM     82  C   UNL A   1      49.580  26.084  24.638  1.00  0.00     0.006 A 
ENDBRANCH  58  75
ENDBRANCH  32  33
ENDBRANCH  25  27
ENDBRANCH  24  25
ENDBRANCH  23  24
ENDBRANCH  22  23
ENDBRANCH  21  22
ENDBRANCH  20  21
ENDBRANCH   1  20
TORSDOF 20
ENDMDL
MODEL 2
REMARK VINA RESULT:      -9.6      5.504     10.526
REMARK SMILES CC(C)[C@@H](CCC(=O)OCCOCCOC(=O)c1ccc(-c2c3nc(c(-c4c(F)cccc4F)c4ccc([nH]4)c(-c4c(F)cccc4F)c4nc(c(-c5c(F)cccc5F)c5ccc2[nH]5)C=C4)C=C3)cc1)CC[NH+]1CC2(CC2)C1
REMARK SMILES IDX 10 1 9 2 7 3 8 4 6 5 5 6 4 7 2 8 1 9 3 10 72 11 73 12 74 13
REMARK SMILES IDX 75 14 79 15 76 17 77 18 78 19 11 20 12 21 13 22 14 23 15 24
REMARK SMILES IDX 16 25 17 26 18 27 19 28 71 29 20 30 70 31 21 32 22 33 23 34
REMARK SMILES IDX 64 35 24 36 69 37 63 38 65 39 25 40 68 41 62 42 61 43 26 45
REMARK SMILES IDX 52 46 35 47 51 48 36 49 39 50 50 51 66 52 37 53 38 54 49 56
REMARK SMILES IDX 67 57 40 58 27 59 28 60 33 61 29 62 30 63 32 64 34 65 31 66
REMARK SMILES IDX 53 67 54 68 59 69 55 70 56 71 58 72 60 73 57 74 41 75 42 76
REMARK SMILES IDX 47 77 43 78 44 79 46 80 48 81 45 82
REMARK H PARENT 74 16 65 44 39 55
REMARK Flexibility Score: inf
ROOT
ATOM      1  C   UNL A   1      40.101  21.578  26.371  1.00  0.00     0.261 C 
ENDROOT
BRANCH   1   2
ATOM      2  O   UNL A   1      39.404  22.765  26.798  1.00  0.00    -0.463 OA
BRANCH   2   3
ATOM      3  C   UNL A   1      38.281  23.093  26.118  1.00  0.00     0.305 C 
ATOM      4  O   UNL A   1      37.682  24.155  26.210  1.00  0.00    -0.252 OA
BRANCH   3   5
ATOM      5  C   UNL A   1      37.812  21.949  25.252  1.00  0.00     0.123 C 
BRANCH   5   6
ATOM      6  C   UNL A   1      37.059  22.328  23.969  1.00  0.00     0.016 C 
BRANCH   6   7
ATOM      7  C   UNL A   1      35.490  22.342  23.944  1.00  0.00    -0.002 C 
BRANCH   7   8
ATOM      8  C   UNL A   1      34.918  23.718  23.485  1.00  0.00    -0.014 C 
ATOM      9  C   UNL A   1      33.646  23.493  22.651  1.00  0.00     0.007 C 
ATOM     10  C   UNL A   1      34.590  24.719  24.591  1.00  0.00     0.007 C 
ENDBRANCH   7   8
BRANCH   7  11
ATOM     11  C   UNL A   1      34.893  21.714  25.225  1.00  0.00     0.065 C 
BRANCH  11  12
ATOM     12  C   UNL A   1      33.786  20.630  25.127  1.00  0.00     0.262 C 
BRANCH  12  13
ATOM     13  N   UNL A   1      33.928  19.230  25.540  1.00  0.00    -0.334 N 
ATOM     14  C   UNL A   1      32.786  18.359  25.271  1.00  0.00     0.275 C 
ATOM     15  C   UNL A   1      34.801  18.434  24.684  1.00  0.00     0.275 C 
ATOM     16  H   UNL A   1      34.186  19.402  26.513  1.00  0.00     0.348 HD
ATOM     17  C   UNL A   1      33.593  17.746  24.195  1.00  0.00     0.068 C 
ATOM     18  C   UNL A   1      33.256  17.499  22.759  1.00  0.00     0.020 C 
ATOM     19  C   UNL A   1      33.509  16.342  23.688  1.00  0.00     0.020 C 
ENDBRANCH  12  13
ENDBRANCH  11  12
ENDBRANCH   7  11
ENDBRANCH   6   7
ENDBRANCH   5   6
ENDBRANCH   3   5
ENDBRANCH   2   3
ENDBRANCH   1   2
BRANCH   1  20
ATOM     20  C   UNL A   1      40.911  20.987  27.525  1.00  0.00     0.202 C 
BRANCH  20  21
ATOM     21  O   UNL A   1      42.281  20.767  27.187  1.00  0.00    -0.374 OA
BRANCH  21  22
ATOM     22  C   UNL A   1      42.612  21.004  25.819  1.00  0.00     0.202 C 
BRANCH  22  23
ATOM     23  C   UNL A   1      43.982  21.665  25.633  1.00  0.00     0.261 C 
BRANCH  23  24
ATOM     24  O   UNL A   1      44.099  22.856  26.434  1.00  0.00    -0.460 OA
BRANCH  24  25
ATOM     25  C   UNL A   1      43.743  24.020  25.835  1.00  0.00     0.338 C 
ATOM     26  O   UNL A   1      43.688  24.257  24.643  1.00  0.00    -0.246 OA
BRANCH  25  27
ATOM     27  C   UNL A   1      43.254  24.947  26.878  1.00  0.00     0.060 A 
ATOM     28  C   UNL A   1      43.794  26.234  26.948  1.00  0.00     0.016 A 
ATOM     29  C   UNL A   1      42.258  24.561  27.772  1.00  0.00     0.016 A 
ATOM     30  C   UNL A   1      43.338  27.132  27.919  1.00  0.00     0.010 A 
ATOM     31  C   UNL A   1      41.755  25.481  28.697  1.00  0.00     0.010 A 
ATOM     32  C   UNL A   1      42.318  26.765  28.811  1.00  0.00    -0.014 A 
BRANCH  32  33
ATOM     33  C   UNL A   1      41.940  27.644  29.957  1.00  0.00     0.031 A 
ATOM     34  C   UNL A   1      40.727  28.535  29.828  1.00  0.00     0.074 A 
ATOM     35  C   UNL A   1      42.651  27.668  31.103  1.00  0.00     0.049 A 
ATOM     36  N   UNL A   1      40.255  29.429  30.661  1.00  0.00    -0.248 NA
ATOM     37  C   UNL A   1      39.958  28.421  28.578  1.00  0.00     0.031 C 
ATOM     38  C   UNL A   1      43.852  26.882  31.380  1.00  0.00     0.029 A 
ATOM     39  N   UNL A   1      42.456  28.393  32.256  1.00  0.00    -0.354 N 
ATOM     40  C   UNL A   1      39.167  30.006  30.017  1.00  0.00     0.074 A 
ATOM     41  C   UNL A   1      39.083  29.405  28.705  1.00  0.00     0.031 C 
ATOM     42  C   UNL A   1      44.273  27.150  32.629  1.00  0.00     0.029 A 
ATOM     43  C   UNL A   1      43.396  28.152  33.231  1.00  0.00     0.049 A 
ATOM     44  H   UNL A   1      41.712  29.027  32.373  1.00  0.00     0.167 HD
ATOM     45  C   UNL A   1      38.289  30.928  30.477  1.00  0.00     0.037 A 
ATOM     46  C   UNL A   1      43.537  28.683  34.462  1.00  0.00     0.037 A 
ATOM     47  C   UNL A   1      38.318  31.489  31.800  1.00  0.00     0.049 A 
ATOM     48  C   UNL A   1      42.552  29.713  34.956  1.00  0.00     0.074 A 
ATOM     49  C   UNL A   1      37.429  32.379  32.376  1.00  0.00     0.029 A 
ATOM     50  N   UNL A   1      39.281  31.206  32.755  1.00  0.00    -0.354 N 
ATOM     51  N   UNL A   1      41.499  30.210  34.353  1.00  0.00    -0.248 NA
ATOM     52  C   UNL A   1      42.775  30.256  36.306  1.00  0.00     0.031 C 
ATOM     53  C   UNL A   1      37.876  32.666  33.670  1.00  0.00     0.029 A 
ATOM     54  C   UNL A   1      39.016  31.918  33.912  1.00  0.00     0.049 A 
ATOM     55  H   UNL A   1      40.039  30.592  32.629  1.00  0.00     0.167 HD
ATOM     56  C   UNL A   1      40.919  31.091  35.260  1.00  0.00     0.074 A 
ATOM     57  C   UNL A   1      41.730  31.057  36.456  1.00  0.00     0.031 C 
ATOM     58  C   UNL A   1      39.813  31.859  35.111  1.00  0.00     0.037 A 
BRANCH  45  59
ATOM     59  C   UNL A   1      37.210  31.381  29.538  1.00  0.00     0.057 A 
ATOM     60  C   UNL A   1      36.071  30.605  29.287  1.00  0.00     0.134 A 
ATOM     61  C   UNL A   1      37.304  32.619  28.888  1.00  0.00     0.134 A 
ATOM     62  F   UNL A   1      35.927  29.403  29.866  1.00  0.00    -0.206 F 
ATOM     63  C   UNL A   1      35.082  31.026  28.396  1.00  0.00     0.040 A 
ATOM     64  C   UNL A   1      36.306  33.065  28.021  1.00  0.00     0.040 A 
ATOM     65  F   UNL A   1      38.364  33.416  29.091  1.00  0.00    -0.206 F 
ATOM     66  C   UNL A   1      35.195  32.263  27.766  1.00  0.00     0.006 A 
ENDBRANCH  45  59
BRANCH  46  67
ATOM     67  C   UNL A   1      44.655  28.249  35.343  1.00  0.00     0.057 A 
ATOM     68  C   UNL A   1      44.490  27.197  36.252  1.00  0.00     0.134 A 
ATOM     69  C   UNL A   1      45.892  28.903  35.332  1.00  0.00     0.134 A 
ATOM     70  F   UNL A   1      43.319  26.549  36.330  1.00  0.00    -0.206 F 
ATOM     71  C   UNL A   1      45.506  26.826  37.135  1.00  0.00     0.040 A 
ATOM     72  C   UNL A   1      46.926  28.526  36.191  1.00  0.00     0.040 A 
ATOM     73  F   UNL A   1      46.114  29.919  34.486  1.00  0.00    -0.206 F 
ATOM     74  C   UNL A   1      46.731  27.490  37.104  1.00  0.00     0.006 A 
ENDBRANCH  46  67
BRANCH  58  75
ATOM     75  C   UNL A   1      39.373  32.692  36.280  1.00  0.00     0.057 A 
ATOM     76  C   UNL A   1      38.443  32.227  37.215  1.00  0.00     0.134 A 
ATOM     77  C   UNL A   1      39.945  33.952  36.509  1.00  0.00     0.134 A 
ATOM     78  F   UNL A   1      37.851  31.034  37.051  1.00  0.00    -0.206 F 
ATOM     79  C   UNL A   1      38.086  32.987  38.331  1.00  0.00     0.040 A 
ATOM     80  C   UNL A   1      39.616  34.710  37.632  1.00  0.00     0.040 A 
ATOM     81  F   UNL A   1      40.852  34.454  35.656  1.00  0.00    -0.206 F 
ATOM     82  C   UNL A   1      38.681  34.230  38.546  1.00  0.00     0.006 A 
ENDBRANCH  58  75
ENDBRANCH  32  33
ENDBRANCH  25  27
ENDBRANCH  24  25
ENDBRANCH  23  24
ENDBRANCH  22  23
ENDBRANCH  21  22
ENDBRANCH  20  21
ENDBRANCH   1  20
TORSDOF 20
ENDMDL
MODEL 3
REMARK VINA RESULT:      -9.6      0.842      2.449
REMARK SMILES CC(C)[C@@H](CCC(=O)OCCOCCOC(=O)c1ccc(-c2c3nc(c(-c4c(F)cccc4F)c4ccc([nH]4)c(-c4c(F)cccc4F)c4nc(c(-c5c(F)cccc5F)c5ccc2[nH]5)C=C4)C=C3)cc1)CC[NH+]1CC2(CC2)C1
REMARK SMILES IDX 10 1 9 2 7 3 8 4 6 5 5 6 4 7 2 8 1 9 3 10 72 11 73 12 74 13
REMARK SMILES IDX 75 14 79 15 76 17 77 18 78 19 11 20 12 21 13 22 14 23 15 24
REMARK SMILES IDX 16 25 17 26 18 27 19 28 71 29 20 30 70 31 21 32 22 33 23 34
REMARK SMILES IDX 64 35 24 36 69 37 63 38 65 39 25 40 68 41 62 42 61 43 26 45
REMARK SMILES IDX 52 46 35 47 51 48 36 49 39 50 50 51 66 52 37 53 38 54 49 56
REMARK SMILES IDX 67 57 40 58 27 59 28 60 33 61 29 62 30 63 32 64 34 65 31 66
REMARK SMILES IDX 53 67 54 68 59 69 55 70 56 71 58 72 60 73 57 74 41 75 42 76
REMARK SMILES IDX 47 77 43 78 44 79 46 80 48 81 45 82
REMARK H PARENT 74 16 65 44 39 55
REMARK Flexibility Score: inf
ROOT
ATOM      1  C   UNL A   1      34.588  32.125  28.404  1.00  0.00     0.261 C 
ENDROOT
BRANCH   1   2
ATOM      2  O   UNL A   1      33.487  31.545  27.677  1.00  0.00    -0.463 OA
BRANCH   2   3
ATOM      3  C   UNL A   1      33.645  30.274  27.240  1.00  0.00     0.305 C 
ATOM      4  O   UNL A   1      34.711  29.679  27.165  1.00  0.00    -0.252 OA
BRANCH   3   5
ATOM      5  C   UNL A   1      32.331  29.679  26.797  1.00  0.00     0.123 C 
BRANCH   5   6
ATOM      6  C   UNL A   1      32.176  29.409  25.294  1.00  0.00     0.016 C 
BRANCH   6   7
ATOM      7  C   UNL A   1      31.497  28.086  24.791  1.00  0.00    -0.002 C 
BRANCH   7   8
ATOM      8  C   UNL A   1      30.325  28.362  23.800  1.00  0.00    -0.014 C 
ATOM      9  C   UNL A   1      30.064  29.875  23.722  1.00  0.00     0.007 C 
ATOM     10  C   UNL A   1      30.501  27.836  22.378  1.00  0.00     0.007 C 
ENDBRANCH   7   8
BRANCH   7  11
ATOM     11  C   UNL A   1      31.229  27.104  25.955  1.00  0.00     0.065 C 
BRANCH  11  12
ATOM     12  C   UNL A   1      30.426  25.797  25.711  1.00  0.00     0.262 C 
BRANCH  12  13
ATOM     13  N   UNL A   1      30.983  24.540  25.199  1.00  0.00    -0.334 N 
ATOM     14  C   UNL A   1      31.013  24.394  23.745  1.00  0.00     0.275 C 
ATOM     15  C   UNL A   1      32.435  24.443  25.290  1.00  0.00     0.275 C 
ATOM     16  H   UNL A   1      30.394  23.903  25.737  1.00  0.00     0.348 HD
ATOM     17  C   UNL A   1      32.477  24.590  23.825  1.00  0.00     0.068 C 
ATOM     18  C   UNL A   1      33.366  25.526  23.071  1.00  0.00     0.020 C 
ATOM     19  C   UNL A   1      33.515  24.038  22.901  1.00  0.00     0.020 C 
ENDBRANCH  12  13
ENDBRANCH  11  12
ENDBRANCH   7  11
ENDBRANCH   6   7
ENDBRANCH   5   6
ENDBRANCH   3   5
ENDBRANCH   2   3
ENDBRANCH   1   2
BRANCH   1  20
ATOM     20  C   UNL A   1      34.501  33.651  28.382  1.00  0.00     0.202 C 
BRANCH  20  21
ATOM     21  O   UNL A   1      34.993  34.254  29.579  1.00  0.00    -0.374 OA
BRANCH  21  22
ATOM     22  C   UNL A   1      34.039  34.371  30.633  1.00  0.00     0.202 C 
BRANCH  22  23
ATOM     23  C   UNL A   1      34.611  34.020  32.010  1.00  0.00     0.261 C 
BRANCH  23  24
ATOM     24  O   UNL A   1      35.094  32.664  32.042  1.00  0.00    -0.460 OA
BRANCH  24  25
ATOM     25  C   UNL A   1      36.123  32.412  32.890  1.00  0.00     0.338 C 
ATOM     26  O   UNL A   1      36.141  32.549  34.099  1.00  0.00    -0.246 OA
BRANCH  25  27
ATOM     27  C   UNL A   1      37.208  31.765  32.123  1.00  0.00     0.060 A 
ATOM     28  C   UNL A   1      38.197  31.057  32.813  1.00  0.00     0.016 A 
ATOM     29  C   UNL A   1      37.247  31.837  30.732  1.00  0.00     0.016 A 
ATOM     30  C   UNL A   1      39.228  30.427  32.106  1.00  0.00     0.010 A 
ATOM     31  C   UNL A   1      38.236  31.148  30.025  1.00  0.00     0.010 A 
ATOM     32  C   UNL A   1      39.264  30.471  30.703  1.00  0.00    -0.014 A 
BRANCH  32  33
ATOM     33  C   UNL A   1      40.442  29.953  29.945  1.00  0.00     0.031 A 
ATOM     34  C   UNL A   1      41.611  30.876  29.689  1.00  0.00     0.074 A 
ATOM     35  C   UNL A   1      40.492  28.688  29.480  1.00  0.00     0.049 A 
ATOM     36  N   UNL A   1      42.702  30.667  28.995  1.00  0.00    -0.248 NA
ATOM     37  C   UNL A   1      41.524  32.225  30.272  1.00  0.00     0.031 C 
ATOM     38  C   UNL A   1      39.443  27.681  29.630  1.00  0.00     0.029 A 
ATOM     39  N   UNL A   1      41.480  28.036  28.779  1.00  0.00    -0.354 N 
ATOM     40  C   UNL A   1      43.403  31.867  29.027  1.00  0.00     0.074 A 
ATOM     41  C   UNL A   1      42.590  32.814  29.756  1.00  0.00     0.031 C 
ATOM     42  C   UNL A   1      39.853  26.533  29.060  1.00  0.00     0.029 A 
ATOM     43  C   UNL A   1      41.176  26.730  28.472  1.00  0.00     0.049 A 
ATOM     44  H   UNL A   1      42.328  28.465  28.521  1.00  0.00     0.167 HD
ATOM     45  C   UNL A   1      44.628  32.158  28.527  1.00  0.00     0.037 A 
ATOM     46  C   UNL A   1      41.879  25.804  27.790  1.00  0.00     0.037 A 
ATOM     47  C   UNL A   1      45.477  31.213  27.857  1.00  0.00     0.049 A 
ATOM     48  C   UNL A   1      43.240  26.148  27.237  1.00  0.00     0.074 A 
ATOM     49  C   UNL A   1      46.762  31.400  27.377  1.00  0.00     0.029 A 
ATOM     50  N   UNL A   1      45.131  29.900  27.579  1.00  0.00    -0.354 N 
ATOM     51  N   UNL A   1      43.910  27.272  27.321  1.00  0.00    -0.248 NA
ATOM     52  C   UNL A   1      43.945  25.090  26.495  1.00  0.00     0.031 C 
ATOM     53  C   UNL A   1      47.180  30.210  26.774  1.00  0.00     0.029 A 
ATOM     54  C   UNL A   1      46.173  29.270  26.920  1.00  0.00     0.049 A 
ATOM     55  H   UNL A   1      44.273  29.479  27.815  1.00  0.00     0.167 HD
ATOM     56  C   UNL A   1      45.122  27.044  26.677  1.00  0.00     0.074 A 
ATOM     57  C   UNL A   1      45.100  25.674  26.214  1.00  0.00     0.031 C 
ATOM     58  C   UNL A   1      46.157  27.897  26.486  1.00  0.00     0.037 A 
BRANCH  45  59
ATOM     59  C   UNL A   1      45.127  33.562  28.701  1.00  0.00     0.057 A 
ATOM     60  C   UNL A   1      44.855  34.567  27.762  1.00  0.00     0.134 A 
ATOM     61  C   UNL A   1      45.876  33.918  29.829  1.00  0.00     0.134 A 
ATOM     62  F   UNL A   1      44.155  34.288  26.652  1.00  0.00    -0.206 F 
ATOM     63  C   UNL A   1      45.340  35.866  27.923  1.00  0.00     0.040 A 
ATOM     64  C   UNL A   1      46.339  35.222  30.017  1.00  0.00     0.040 A 
ATOM     65  F   UNL A   1      46.164  33.007  30.771  1.00  0.00    -0.206 F 
ATOM     66  C   UNL A   1      46.079  36.197  29.056  1.00  0.00     0.006 A 
ENDBRANCH  45  59
BRANCH  46  67
ATOM     67  C   UNL A   1      41.325  24.439  27.590  1.00  0.00     0.057 A 
ATOM     68  C   UNL A   1      40.292  24.206  26.674  1.00  0.00     0.134 A 
ATOM     69  C   UNL A   1      41.777  23.347  28.341  1.00  0.00     0.134 A 
ATOM     70  F   UNL A   1      39.796  25.216  25.945  1.00  0.00    -0.206 F 
ATOM     71  C   UNL A   1      39.713  22.944  26.527  1.00  0.00     0.040 A 
ATOM     72  C   UNL A   1      41.225  22.074  28.186  1.00  0.00     0.040 A 
ATOM     73  F   UNL A   1      42.763  23.503  29.236  1.00  0.00    -0.206 F 
ATOM     74  C   UNL A   1      40.182  21.872  27.284  1.00  0.00     0.006 A 
ENDBRANCH  46  67
BRANCH  58  75
ATOM     75  C   UNL A   1      47.381  27.373  25.792  1.00  0.00     0.057 A 
ATOM     76  C   UNL A   1      47.558  27.491  24.409  1.00  0.00     0.134 A 
ATOM     77  C   UNL A   1      48.428  26.805  26.532  1.00  0.00     0.134 A 
ATOM     78  F   UNL A   1      46.592  28.017  23.642  1.00  0.00    -0.206 F 
ATOM     79  C   UNL A   1      48.727  27.053  23.784  1.00  0.00     0.040 A 
ATOM     80  C   UNL A   1      49.610  26.386  25.922  1.00  0.00     0.040 A 
ATOM     81  F   UNL A   1      48.326  26.671  27.864  1.00  0.00    -0.206 F 
ATOM     82  C   UNL A   1      49.762  26.507  24.543  1.00  0.00     0.006 A 
ENDBRANCH  58  75
ENDBRANCH  32  33
ENDBRANCH  25  27
ENDBRANCH  24  25
ENDBRANCH  23  24
ENDBRANCH  22  23
ENDBRANCH  21  22
ENDBRANCH  20  21
ENDBRANCH   1  20
TORSDOF 20
ENDMDL
