MODEL 1
REMARK VINA RESULT:     -11.0      0.000      0.000
REMARK SMILES C[C@@H]1CCC[C@@H](C)C1[N@H+]1CCO[C@H](CC(=O)OCCOCCOC(=O)c2ccc(-c3c4nc(c(-c5c(F)cccc5F)c5ccc([nH]5)c(-c5c(F)cccc5F)c5nc(c(-c6c(F)cccc6F)c6ccc3[nH]6)C=C5)C=C4)cc2)C1
REMARK SMILES IDX 20 1 19 2 18 3 17 4 15 5 16 6 14 7 13 8 9 9 10 10 80 11
REMARK SMILES IDX 11 13 12 14 8 15 1 16 2 17 3 18 4 19 6 20 5 21 7 22 21 23
REMARK SMILES IDX 22 24 23 25 24 26 25 27 26 28 27 29 79 30 28 31 78 32 29 33
REMARK SMILES IDX 30 34 31 35 72 36 32 37 77 38 71 39 73 40 33 41 76 42 70 43
REMARK SMILES IDX 69 44 34 46 60 47 43 48 59 49 44 50 47 51 58 52 74 53 45 54
REMARK SMILES IDX 46 55 57 57 75 58 48 59 35 60 36 61 41 62 37 63 38 64 40 65
REMARK SMILES IDX 42 66 39 67 61 68 62 69 67 70 63 71 64 72 66 73 68 74 65 75
REMARK SMILES IDX 49 76 50 77 55 78 51 79 52 80 54 81 56 82 53 83
REMARK H PARENT 9 12 73 45 47 56
REMARK Flexibility Score: inf
ROOT
ATOM      1  O   UNL A   1      33.871  33.915  30.856  1.00  0.00    -0.374 OA
ENDROOT
BRANCH   1   2
ATOM      2  C   UNL A   1      34.237  34.434  29.577  1.00  0.00     0.202 C 
BRANCH   2   3
ATOM      3  C   UNL A   1      35.346  33.661  28.856  1.00  0.00     0.261 C 
BRANCH   3   4
ATOM      4  O   UNL A   1      34.840  33.022  27.667  1.00  0.00    -0.463 OA
BRANCH   4   5
ATOM      5  C   UNL A   1      34.598  31.690  27.752  1.00  0.00     0.308 C 
ATOM      6  O   UNL A   1      35.426  30.851  28.088  1.00  0.00    -0.252 OA
BRANCH   5   7
ATOM      7  C   UNL A   1      33.197  31.298  27.342  1.00  0.00     0.160 C 
BRANCH   7   8
ATOM      8  C   UNL A   1      33.058  29.948  26.640  1.00  0.00     0.184 C 
ATOM      9  N   UNL A   1      31.615  28.745  24.919  1.00  0.00    -0.328 N 
ATOM     10  C   UNL A   1      31.456  27.697  25.917  1.00  0.00     0.291 C 
ATOM     11  C   UNL A   1      31.987  30.036  25.517  1.00  0.00     0.295 C 
ATOM     12  H   UNL A   1      30.651  28.762  24.587  1.00  0.00     0.348 HD
ATOM     13  C   UNL A   1      32.538  27.687  27.002  1.00  0.00     0.222 C 
ATOM     14  O   UNL A   1      32.662  28.972  27.616  1.00  0.00    -0.366 OA
BRANCH   9  15
ATOM     15  C   UNL A   1      32.032  28.502  23.533  1.00  0.00     0.189 C 
ATOM     16  C   UNL A   1      34.108  28.388  22.060  1.00  0.00     0.014 C 
ATOM     17  C   UNL A   1      33.467  27.919  23.380  1.00  0.00     0.045 C 
ATOM     18  C   UNL A   1      33.500  26.387  23.479  1.00  0.00     0.009 C 
ATOM     19  C   UNL A   1      32.538  25.699  22.519  1.00  0.00     0.001 C 
ATOM     20  C   UNL A   1      31.024  27.742  22.608  1.00  0.00     0.045 C 
ATOM     21  C   UNL A   1      31.111  26.208  22.669  1.00  0.00     0.009 C 
ATOM     22  C   UNL A   1      29.577  28.220  22.764  1.00  0.00     0.014 C 
ENDBRANCH   9  15
ENDBRANCH   7   8
ENDBRANCH   5   7
ENDBRANCH   4   5
ENDBRANCH   3   4
ENDBRANCH   2   3
ENDBRANCH   1   2
BRANCH   1  23
ATOM     23  C   UNL A   1      34.306  34.645  32.002  1.00  0.00     0.202 C 
BRANCH  23  24
ATOM     24  C   UNL A   1      34.589  33.795  33.244  1.00  0.00     0.261 C 
BRANCH  24  25
ATOM     25  O   UNL A   1      35.109  32.495  32.903  1.00  0.00    -0.460 OA
BRANCH  25  26
ATOM     26  C   UNL A   1      36.308  32.207  33.461  1.00  0.00     0.338 C 
ATOM     27  O   UNL A   1      36.714  32.549  34.564  1.00  0.00    -0.246 OA
BRANCH  26  28
ATOM     28  C   UNL A   1      37.087  31.290  32.610  1.00  0.00     0.060 A 
ATOM     29  C   UNL A   1      38.229  30.710  33.173  1.00  0.00     0.016 A 
ATOM     30  C   UNL A   1      36.815  31.144  31.248  1.00  0.00     0.016 A 
ATOM     31  C   UNL A   1      39.148  30.050  32.360  1.00  0.00     0.010 A 
ATOM     32  C   UNL A   1      37.737  30.474  30.432  1.00  0.00     0.010 A 
ATOM     33  C   UNL A   1      38.937  29.978  30.975  1.00  0.00    -0.014 A 
BRANCH  33  34
ATOM     34  C   UNL A   1      40.070  29.573  30.102  1.00  0.00     0.031 A 
ATOM     35  C   UNL A   1      41.188  30.555  29.861  1.00  0.00     0.074 A 
ATOM     36  C   UNL A   1      40.155  28.330  29.600  1.00  0.00     0.049 A 
ATOM     37  N   UNL A   1      42.309  30.394  29.202  1.00  0.00    -0.248 NA
ATOM     38  C   UNL A   1      41.022  31.897  30.441  1.00  0.00     0.031 C 
ATOM     39  C   UNL A   1      39.158  27.275  29.778  1.00  0.00     0.029 A 
ATOM     40  N   UNL A   1      41.140  27.741  28.847  1.00  0.00    -0.354 N 
ATOM     41  C   UNL A   1      42.979  31.608  29.291  1.00  0.00     0.074 A 
ATOM     42  C   UNL A   1      42.124  32.509  30.033  1.00  0.00     0.031 C 
ATOM     43  C   UNL A   1      39.587  26.163  29.155  1.00  0.00     0.029 A 
ATOM     44  C   UNL A   1      40.882  26.431  28.529  1.00  0.00     0.049 A 
ATOM     45  H   UNL A   1      41.955  28.214  28.560  1.00  0.00     0.167 HD
ATOM     46  C   UNL A   1      44.202  31.943  28.814  1.00  0.00     0.037 A 
ATOM     47  C   UNL A   1      41.610  25.547  27.819  1.00  0.00     0.037 A 
ATOM     48  C   UNL A   1      45.064  31.054  28.085  1.00  0.00     0.049 A 
ATOM     49  C   UNL A   1      42.956  25.949  27.277  1.00  0.00     0.074 A 
ATOM     50  C   UNL A   1      46.324  31.303  27.567  1.00  0.00     0.029 A 
ATOM     51  N   UNL A   1      44.758  29.739  27.774  1.00  0.00    -0.354 N 
ATOM     52  N   UNL A   1      43.587  27.092  27.392  1.00  0.00    -0.248 NA
ATOM     53  C   UNL A   1      43.697  24.930  26.519  1.00  0.00     0.031 C 
ATOM     54  C   UNL A   1      46.768  30.147  26.917  1.00  0.00     0.029 A 
ATOM     55  C   UNL A   1      45.799  29.167  27.062  1.00  0.00     0.049 A 
ATOM     56  H   UNL A   1      43.923  29.279  28.022  1.00  0.00     0.167 HD
ATOM     57  C   UNL A   1      44.808  26.919  26.751  1.00  0.00     0.074 A 
ATOM     58  C   UNL A   1      44.833  25.560  26.255  1.00  0.00     0.031 C 
ATOM     59  C   UNL A   1      45.819  27.807  26.590  1.00  0.00     0.037 A 
BRANCH  46  60
ATOM     60  C   UNL A   1      44.673  33.345  29.064  1.00  0.00     0.057 A 
ATOM     61  C   UNL A   1      45.420  33.679  30.200  1.00  0.00     0.134 A 
ATOM     62  C   UNL A   1      44.393  34.366  28.147  1.00  0.00     0.134 A 
ATOM     63  F   UNL A   1      45.707  32.747  31.122  1.00  0.00    -0.206 F 
ATOM     64  C   UNL A   1      45.855  34.985  30.428  1.00  0.00     0.040 A 
ATOM     65  C   UNL A   1      44.841  35.671  28.354  1.00  0.00     0.040 A 
ATOM     66  F   UNL A   1      43.683  34.111  27.038  1.00  0.00    -0.206 F 
ATOM     67  C   UNL A   1      45.570  35.985  29.500  1.00  0.00     0.006 A 
ENDBRANCH  46  60
BRANCH  47  68
ATOM     68  C   UNL A   1      41.093  24.175  27.593  1.00  0.00     0.057 A 
ATOM     69  C   UNL A   1      41.614  23.079  28.288  1.00  0.00     0.134 A 
ATOM     70  C   UNL A   1      40.084  23.927  26.655  1.00  0.00     0.134 A 
ATOM     71  F   UNL A   1      42.600  23.252  29.180  1.00  0.00    -0.206 F 
ATOM     72  C   UNL A   1      41.163  21.780  28.047  1.00  0.00     0.040 A 
ATOM     73  C   UNL A   1      39.609  22.637  26.419  1.00  0.00     0.040 A 
ATOM     74  F   UNL A   1      39.547  24.937  25.955  1.00  0.00    -0.206 F 
ATOM     75  C   UNL A   1      40.154  21.557  27.113  1.00  0.00     0.006 A 
ENDBRANCH  47  68
BRANCH  59  76
ATOM     76  C   UNL A   1      47.055  27.325  25.891  1.00  0.00     0.057 A 
ATOM     77  C   UNL A   1      47.245  27.510  24.516  1.00  0.00     0.134 A 
ATOM     78  C   UNL A   1      48.081  26.700  26.610  1.00  0.00     0.134 A 
ATOM     79  F   UNL A   1      46.294  28.093  23.770  1.00  0.00    -0.206 F 
ATOM     80  C   UNL A   1      48.405  27.068  23.875  1.00  0.00     0.040 A 
ATOM     81  C   UNL A   1      49.253  26.274  25.985  1.00  0.00     0.040 A 
ATOM     82  F   UNL A   1      47.964  26.502  27.931  1.00  0.00    -0.206 F 
ATOM     83  C   UNL A   1      49.415  26.452  24.612  1.00  0.00     0.006 A 
ENDBRANCH  59  76
ENDBRANCH  33  34
ENDBRANCH  26  28
ENDBRANCH  25  26
ENDBRANCH  24  25
ENDBRANCH  23  24
ENDBRANCH   1  23
TORSDOF 16
ENDMDL
MODEL 2
REMARK VINA RESULT:     -10.8      3.930      6.781
REMARK SMILES C[C@@H]1CCC[C@@H](C)C1[N@H+]1CCO[C@H](CC(=O)OCCOCCOC(=O)c2ccc(-c3c4nc(c(-c5c(F)cccc5F)c5ccc([nH]5)c(-c5c(F)cccc5F)c5nc(c(-c6c(F)cccc6F)c6ccc3[nH]6)C=C5)C=C4)cc2)C1
REMARK SMILES IDX 20 1 19 2 18 3 17 4 15 5 16 6 14 7 13 8 9 9 10 10 80 11
REMARK SMILES IDX 11 13 12 14 8 15 1 16 2 17 3 18 4 19 6 20 5 21 7 22 21 23
REMARK SMILES IDX 22 24 23 25 24 26 25 27 26 28 27 29 79 30 28 31 78 32 29 33
REMARK SMILES IDX 30 34 31 35 72 36 32 37 77 38 71 39 73 40 33 41 76 42 70 43
REMARK SMILES IDX 69 44 34 46 60 47 43 48 59 49 44 50 47 51 58 52 74 53 45 54
REMARK SMILES IDX 46 55 57 57 75 58 48 59 35 60 36 61 41 62 37 63 38 64 40 65
REMARK SMILES IDX 42 66 39 67 61 68 62 69 67 70 63 71 64 72 66 73 68 74 65 75
REMARK SMILES IDX 49 76 50 77 55 78 51 79 52 80 54 81 56 82 53 83
REMARK H PARENT 9 12 73 45 47 56
REMARK Flexibility Score: inf
ROOT
ATOM      1  O   UNL A   1      32.324  29.084  25.488  1.00  0.00    -0.374 OA
ENDROOT
BRANCH   1   2
ATOM      2  C   UNL A   1      33.338  28.929  24.495  1.00  0.00     0.202 C 
BRANCH   2   3
ATOM      3  C   UNL A   1      32.823  28.663  23.078  1.00  0.00     0.261 C 
BRANCH   3   4
ATOM      4  O   UNL A   1      32.254  27.342  22.974  1.00  0.00    -0.463 OA
BRANCH   4   5
ATOM      5  C   UNL A   1      30.917  27.273  22.758  1.00  0.00     0.308 C 
ATOM      6  O   UNL A   1      30.295  28.010  22.001  1.00  0.00    -0.252 OA
BRANCH   5   7
ATOM      7  C   UNL A   1      30.220  26.216  23.583  1.00  0.00     0.160 C 
BRANCH   7   8
ATOM      8  C   UNL A   1      31.128  25.294  24.395  1.00  0.00     0.184 C 
ATOM      9  N   UNL A   1      31.923  22.875  24.495  1.00  0.00    -0.328 N 
ATOM     10  C   UNL A   1      31.501  22.888  25.888  1.00  0.00     0.291 C 
ATOM     11  C   UNL A   1      31.249  23.911  23.696  1.00  0.00     0.295 C 
ATOM     12  H   UNL A   1      31.573  21.947  24.257  1.00  0.00     0.348 HD
ATOM     13  C   UNL A   1      31.384  24.288  26.501  1.00  0.00     0.222 C 
ATOM     14  O   UNL A   1      30.553  25.132  25.701  1.00  0.00    -0.366 OA
BRANCH   9  15
ATOM     15  C   UNL A   1      33.247  22.434  24.042  1.00  0.00     0.189 C 
ATOM     16  C   UNL A   1      35.516  23.337  23.317  1.00  0.00     0.014 C 
ATOM     17  C   UNL A   1      34.409  23.411  24.384  1.00  0.00     0.045 C 
ATOM     18  C   UNL A   1      34.995  23.172  25.784  1.00  0.00     0.009 C 
ATOM     19  C   UNL A   1      35.422  21.729  26.020  1.00  0.00     0.001 C 
ATOM     20  C   UNL A   1      33.654  20.957  24.363  1.00  0.00     0.045 C 
ATOM     21  C   UNL A   1      34.298  20.741  25.742  1.00  0.00     0.009 C 
ATOM     22  C   UNL A   1      32.527  19.949  24.116  1.00  0.00     0.014 C 
ENDBRANCH   9  15
ENDBRANCH   7   8
ENDBRANCH   5   7
ENDBRANCH   4   5
ENDBRANCH   3   4
ENDBRANCH   2   3
ENDBRANCH   1   2
BRANCH   1  23
ATOM     23  C   UNL A   1      31.375  30.131  25.290  1.00  0.00     0.202 C 
BRANCH  23  24
ATOM     24  C   UNL A   1      31.504  31.314  26.253  1.00  0.00     0.261 C 
BRANCH  24  25
ATOM     25  O   UNL A   1      32.488  31.074  27.278  1.00  0.00    -0.460 OA
BRANCH  25  26
ATOM     26  C   UNL A   1      33.278  32.137  27.557  1.00  0.00     0.338 C 
ATOM     27  O   UNL A   1      32.925  33.294  27.745  1.00  0.00    -0.246 OA
BRANCH  26  28
ATOM     28  C   UNL A   1      34.682  31.727  27.738  1.00  0.00     0.060 A 
ATOM     29  C   UNL A   1      34.942  30.355  27.821  1.00  0.00     0.016 A 
ATOM     30  C   UNL A   1      35.690  32.659  28.001  1.00  0.00     0.016 A 
ATOM     31  C   UNL A   1      36.191  29.908  28.249  1.00  0.00     0.010 A 
ATOM     32  C   UNL A   1      36.946  32.207  28.426  1.00  0.00     0.010 A 
ATOM     33  C   UNL A   1      37.183  30.832  28.609  1.00  0.00    -0.014 A 
BRANCH  33  34
ATOM     34  C   UNL A   1      38.366  30.346  29.368  1.00  0.00     0.031 A 
ATOM     35  C   UNL A   1      38.535  30.776  30.803  1.00  0.00     0.074 A 
ATOM     36  C   UNL A   1      39.231  29.472  28.827  1.00  0.00     0.049 A 
ATOM     37  N   UNL A   1      39.443  30.417  31.677  1.00  0.00    -0.248 NA
ATOM     38  C   UNL A   1      37.550  31.737  31.323  1.00  0.00     0.031 C 
ATOM     39  C   UNL A   1      39.169  28.955  27.461  1.00  0.00     0.029 A 
ATOM     40  N   UNL A   1      40.327  28.852  29.374  1.00  0.00    -0.354 N 
ATOM     41  C   UNL A   1      39.137  31.103  32.845  1.00  0.00     0.074 A 
ATOM     42  C   UNL A   1      37.984  31.930  32.560  1.00  0.00     0.031 C 
ATOM     43  C   UNL A   1      40.181  28.088  27.279  1.00  0.00     0.029 A 
ATOM     44  C   UNL A   1      40.966  27.998  28.510  1.00  0.00     0.049 A 
ATOM     45  H   UNL A   1      40.627  29.006  30.300  1.00  0.00     0.167 HD
ATOM     46  C   UNL A   1      39.746  31.043  34.053  1.00  0.00     0.037 A 
ATOM     47  C   UNL A   1      42.055  27.226  28.694  1.00  0.00     0.037 A 
ATOM     48  C   UNL A   1      40.884  30.217  34.352  1.00  0.00     0.049 A 
ATOM     49  C   UNL A   1      42.730  27.194  30.039  1.00  0.00     0.074 A 
ATOM     50  C   UNL A   1      41.566  30.086  35.550  1.00  0.00     0.029 A 
ATOM     51  N   UNL A   1      41.507  29.377  33.444  1.00  0.00    -0.354 N 
ATOM     52  N   UNL A   1      42.414  27.829  31.141  1.00  0.00    -0.248 NA
ATOM     53  C   UNL A   1      43.909  26.323  30.167  1.00  0.00     0.031 C 
ATOM     54  C   UNL A   1      42.621  29.187  35.358  1.00  0.00     0.029 A 
ATOM     55  C   UNL A   1      42.572  28.732  34.050  1.00  0.00     0.049 A 
ATOM     56  H   UNL A   1      41.234  29.257  32.506  1.00  0.00     0.167 HD
ATOM     57  C   UNL A   1      43.330  27.410  32.099  1.00  0.00     0.074 A 
ATOM     58  C   UNL A   1      44.212  26.463  31.451  1.00  0.00     0.031 C 
ATOM     59  C   UNL A   1      43.430  27.777  33.399  1.00  0.00     0.037 A 
BRANCH  46  60
ATOM     60  C   UNL A   1      39.189  31.908  35.145  1.00  0.00     0.057 A 
ATOM     61  C   UNL A   1      39.499  33.271  35.232  1.00  0.00     0.134 A 
ATOM     62  C   UNL A   1      38.321  31.376  36.105  1.00  0.00     0.134 A 
ATOM     63  F   UNL A   1      40.337  33.836  34.351  1.00  0.00    -0.206 F 
ATOM     64  C   UNL A   1      38.979  34.072  36.251  1.00  0.00     0.040 A 
ATOM     65  C   UNL A   1      37.778  32.171  37.115  1.00  0.00     0.040 A 
ATOM     66  F   UNL A   1      37.985  30.078  36.075  1.00  0.00    -0.206 F 
ATOM     67  C   UNL A   1      38.111  33.523  37.193  1.00  0.00     0.006 A 
ENDBRANCH  46  60
BRANCH  47  68
ATOM     68  C   UNL A   1      42.570  26.396  27.579  1.00  0.00     0.057 A 
ATOM     69  C   UNL A   1      43.465  26.918  26.639  1.00  0.00     0.134 A 
ATOM     70  C   UNL A   1      42.158  25.069  27.412  1.00  0.00     0.134 A 
ATOM     71  F   UNL A   1      43.877  28.191  26.732  1.00  0.00    -0.206 F 
ATOM     72  C   UNL A   1      43.920  26.156  25.561  1.00  0.00     0.040 A 
ATOM     73  C   UNL A   1      42.621  24.288  26.352  1.00  0.00     0.040 A 
ATOM     74  F   UNL A   1      41.299  24.513  28.280  1.00  0.00    -0.206 F 
ATOM     75  C   UNL A   1      43.501  24.835  25.419  1.00  0.00     0.006 A 
ENDBRANCH  47  68
BRANCH  59  76
ATOM     76  C   UNL A   1      44.499  27.120  34.220  1.00  0.00     0.057 A 
ATOM     77  C   UNL A   1      45.771  27.687  34.367  1.00  0.00     0.134 A 
ATOM     78  C   UNL A   1      44.239  25.924  34.899  1.00  0.00     0.134 A 
ATOM     79  F   UNL A   1      46.086  28.826  33.733  1.00  0.00    -0.206 F 
ATOM     80  C   UNL A   1      46.756  27.073  35.144  1.00  0.00     0.040 A 
ATOM     81  C   UNL A   1      45.208  25.312  35.696  1.00  0.00     0.040 A 
ATOM     82  F   UNL A   1      43.037  25.335  34.807  1.00  0.00    -0.206 F 
ATOM     83  C   UNL A   1      46.474  25.884  35.814  1.00  0.00     0.006 A 
ENDBRANCH  59  76
ENDBRANCH  33  34
ENDBRANCH  26  28
ENDBRANCH  25  26
ENDBRANCH  24  25
ENDBRANCH  23  24
ENDBRANCH   1  23
TORSDOF 16
ENDMDL
MODEL 3
REMARK VINA RESULT:     -10.8      0.744      1.402
REMARK SMILES C[C@@H]1CCC[C@@H](C)C1[N@H+]1CCO[C@H](CC(=O)OCCOCCOC(=O)c2ccc(-c3c4nc(c(-c5c(F)cccc5F)c5ccc([nH]5)c(-c5c(F)cccc5F)c5nc(c(-c6c(F)cccc6F)c6ccc3[nH]6)C=C5)C=C4)cc2)C1
REMARK SMILES IDX 20 1 19 2 18 3 17 4 15 5 16 6 14 7 13 8 9 9 10 10 80 11
REMARK SMILES IDX 11 13 12 14 8 15 1 16 2 17 3 18 4 19 6 20 5 21 7 22 21 23
REMARK SMILES IDX 22 24 23 25 24 26 25 27 26 28 27 29 79 30 28 31 78 32 29 33
REMARK SMILES IDX 30 34 31 35 72 36 32 37 77 38 71 39 73 40 33 41 76 42 70 43
REMARK SMILES IDX 69 44 34 46 60 47 43 48 59 49 44 50 47 51 58 52 74 53 45 54
REMARK SMILES IDX 46 55 57 57 75 58 48 59 35 60 36 61 41 62 37 63 38 64 40 65
REMARK SMILES IDX 42 66 39 67 61 68 62 69 67 70 63 71 64 72 66 73 68 74 65 75
REMARK SMILES IDX 49 76 50 77 55 78 51 79 52 80 54 81 56 82 53 83
REMARK H PARENT 9 12 73 45 47 56
REMARK Flexibility Score: inf
ROOT
ATOM      1  O   UNL A   1      33.640  34.387  30.358  1.00  0.00    -0.374 OA
ENDROOT
BRANCH   1   2
ATOM      2  C   UNL A   1      34.256  34.632  29.093  1.00  0.00     0.202 C 
BRANCH   2   3
ATOM      3  C   UNL A   1      35.026  33.446  28.506  1.00  0.00     0.261 C 
BRANCH   3   4
ATOM      4  O   UNL A   1      34.365  32.201  28.804  1.00  0.00    -0.463 OA
BRANCH   4   5
ATOM      5  C   UNL A   1      34.470  31.221  27.873  1.00  0.00     0.308 C 
ATOM      6  O   UNL A   1      35.516  30.659  27.568  1.00  0.00    -0.252 OA
BRANCH   5   7
ATOM      7  C   UNL A   1      33.166  30.893  27.183  1.00  0.00     0.160 C 
BRANCH   7   8
ATOM      8  C   UNL A   1      32.917  29.413  26.893  1.00  0.00     0.184 C 
ATOM      9  N   UNL A   1      32.567  27.803  24.949  1.00  0.00    -0.328 N 
ATOM     10  C   UNL A   1      31.359  27.374  25.639  1.00  0.00     0.291 C 
ATOM     11  C   UNL A   1      33.002  29.146  25.364  1.00  0.00     0.295 C 
ATOM     12  H   UNL A   1      32.184  27.820  24.004  1.00  0.00     0.348 HD
ATOM     13  C   UNL A   1      31.339  27.691  27.138  1.00  0.00     0.222 C 
ATOM     14  O   UNL A   1      31.606  29.075  27.374  1.00  0.00    -0.366 OA
BRANCH   9  15
ATOM     15  C   UNL A   1      33.601  26.885  24.456  1.00  0.00     0.189 C 
ATOM     16  C   UNL A   1      34.947  24.834  25.144  1.00  0.00     0.014 C 
ATOM     17  C   UNL A   1      33.539  25.452  25.062  1.00  0.00     0.045 C 
ATOM     18  C   UNL A   1      32.588  24.522  24.296  1.00  0.00     0.009 C 
ATOM     19  C   UNL A   1      32.879  24.460  22.802  1.00  0.00     0.001 C 
ATOM     20  C   UNL A   1      33.818  26.821  22.907  1.00  0.00     0.045 C 
ATOM     21  C   UNL A   1      32.902  25.840  22.159  1.00  0.00     0.009 C 
ATOM     22  C   UNL A   1      33.816  28.199  22.237  1.00  0.00     0.014 C 
ENDBRANCH   9  15
ENDBRANCH   7   8
ENDBRANCH   5   7
ENDBRANCH   4   5
ENDBRANCH   3   4
ENDBRANCH   2   3
ENDBRANCH   1   2
BRANCH   1  23
ATOM     23  C   UNL A   1      34.424  34.647  31.522  1.00  0.00     0.202 C 
BRANCH  23  24
ATOM     24  C   UNL A   1      34.233  33.650  32.668  1.00  0.00     0.261 C 
BRANCH  24  25
ATOM     25  O   UNL A   1      34.847  32.377  32.388  1.00  0.00    -0.460 OA
BRANCH  25  26
ATOM     26  C   UNL A   1      35.992  32.144  33.070  1.00  0.00     0.338 C 
ATOM     27  O   UNL A   1      36.283  32.548  34.189  1.00  0.00    -0.246 OA
BRANCH  26  28
ATOM     28  C   UNL A   1      36.866  31.207  32.344  1.00  0.00     0.060 A 
ATOM     29  C   UNL A   1      38.083  30.868  32.948  1.00  0.00     0.016 A 
ATOM     30  C   UNL A   1      36.591  30.813  31.032  1.00  0.00     0.016 A 
ATOM     31  C   UNL A   1      39.064  30.206  32.212  1.00  0.00     0.010 A 
ATOM     32  C   UNL A   1      37.577  30.142  30.297  1.00  0.00     0.010 A 
ATOM     33  C   UNL A   1      38.840  29.889  30.865  1.00  0.00    -0.014 A 
BRANCH  33  34
ATOM     34  C   UNL A   1      40.000  29.493  30.024  1.00  0.00     0.031 A 
ATOM     35  C   UNL A   1      41.108  30.490  29.799  1.00  0.00     0.074 A 
ATOM     36  C   UNL A   1      40.116  28.246  29.537  1.00  0.00     0.049 A 
ATOM     37  N   UNL A   1      42.247  30.340  29.168  1.00  0.00    -0.248 NA
ATOM     38  C   UNL A   1      40.907  31.835  30.360  1.00  0.00     0.031 C 
ATOM     39  C   UNL A   1      39.132  27.178  29.703  1.00  0.00     0.029 A 
ATOM     40  N   UNL A   1      41.128  27.665  28.814  1.00  0.00    -0.354 N 
ATOM     41  C   UNL A   1      42.895  31.565  29.260  1.00  0.00     0.074 A 
ATOM     42  C   UNL A   1      42.009  32.461  29.972  1.00  0.00     0.031 C 
ATOM     43  C   UNL A   1      39.593  26.066  29.103  1.00  0.00     0.029 A 
ATOM     44  C   UNL A   1      40.899  26.348  28.505  1.00  0.00     0.049 A 
ATOM     45  H   UNL A   1      41.942  28.148  28.543  1.00  0.00     0.167 HD
ATOM     46  C   UNL A   1      44.123  31.915  28.809  1.00  0.00     0.037 A 
ATOM     47  C   UNL A   1      41.657  25.468  27.822  1.00  0.00     0.037 A 
ATOM     48  C   UNL A   1      45.017  31.032  28.110  1.00  0.00     0.049 A 
ATOM     49  C   UNL A   1      43.009  25.886  27.309  1.00  0.00     0.074 A 
ATOM     50  C   UNL A   1      46.285  31.296  27.620  1.00  0.00     0.029 A 
ATOM     51  N   UNL A   1      44.739  29.709  27.807  1.00  0.00    -0.354 N 
ATOM     52  N   UNL A   1      43.619  27.040  27.426  1.00  0.00    -0.248 NA
ATOM     53  C   UNL A   1      43.784  24.871  26.579  1.00  0.00     0.031 C 
ATOM     54  C   UNL A   1      46.762  30.140  26.993  1.00  0.00     0.029 A 
ATOM     55  C   UNL A   1      45.806  29.146  27.126  1.00  0.00     0.049 A 
ATOM     56  H   UNL A   1      43.906  29.239  28.040  1.00  0.00     0.167 HD
ATOM     57  C   UNL A   1      44.858  26.880  26.817  1.00  0.00     0.074 A 
ATOM     58  C   UNL A   1      44.916  25.516  26.336  1.00  0.00     0.031 C 
ATOM     59  C   UNL A   1      45.858  27.782  26.670  1.00  0.00     0.037 A 
BRANCH  46  60
ATOM     60  C   UNL A   1      44.567  33.327  29.054  1.00  0.00     0.057 A 
ATOM     61  C   UNL A   1      45.265  33.687  30.213  1.00  0.00     0.134 A 
ATOM     62  C   UNL A   1      44.308  34.330  28.113  1.00  0.00     0.134 A 
ATOM     63  F   UNL A   1      45.530  32.774  31.159  1.00  0.00    -0.206 F 
ATOM     64  C   UNL A   1      45.674  35.003  30.437  1.00  0.00     0.040 A 
ATOM     65  C   UNL A   1      44.731  35.644  28.316  1.00  0.00     0.040 A 
ATOM     66  F   UNL A   1      43.644  34.048  26.982  1.00  0.00    -0.206 F 
ATOM     67  C   UNL A   1      45.412  35.985  29.484  1.00  0.00     0.006 A 
ENDBRANCH  46  60
BRANCH  47  68
ATOM     68  C   UNL A   1      41.168  24.086  27.599  1.00  0.00     0.057 A 
ATOM     69  C   UNL A   1      41.702  23.003  28.305  1.00  0.00     0.134 A 
ATOM     70  C   UNL A   1      40.172  23.814  26.653  1.00  0.00     0.134 A 
ATOM     71  F   UNL A   1      42.675  23.199  29.206  1.00  0.00    -0.206 F 
ATOM     72  C   UNL A   1      41.277  21.695  28.067  1.00  0.00     0.040 A 
ATOM     73  C   UNL A   1      39.722  22.514  26.420  1.00  0.00     0.040 A 
ATOM     74  F   UNL A   1      39.623  24.811  25.943  1.00  0.00    -0.206 F 
ATOM     75  C   UNL A   1      40.280  21.449  27.125  1.00  0.00     0.006 A 
ENDBRANCH  47  68
BRANCH  59  76
ATOM     76  C   UNL A   1      47.118  27.312  26.006  1.00  0.00     0.057 A 
ATOM     77  C   UNL A   1      48.138  26.675  26.723  1.00  0.00     0.134 A 
ATOM     78  C   UNL A   1      47.294  27.469  24.626  1.00  0.00     0.134 A 
ATOM     79  F   UNL A   1      48.033  26.505  28.049  1.00  0.00    -0.206 F 
ATOM     80  C   UNL A   1      49.303  26.231  26.092  1.00  0.00     0.040 A 
ATOM     81  C   UNL A   1      48.444  27.009  23.981  1.00  0.00     0.040 A 
ATOM     82  F   UNL A   1      46.350  28.062  23.881  1.00  0.00    -0.206 F 
ATOM     83  C   UNL A   1      49.455  26.394  24.717  1.00  0.00     0.006 A 
ENDBRANCH  59  76
ENDBRANCH  33  34
ENDBRANCH  26  28
ENDBRANCH  25  26
ENDBRANCH  24  25
ENDBRANCH  23  24
ENDBRANCH   1  23
TORSDOF 16
ENDMDL
