MODEL 1
REMARK VINA RESULT:     -12.2      0.000      0.000
REMARK SMILES O=C(OCCOCCOC(=O)[C@H]1O[C@@H](Oc2c(-c3cc(O)c(O)c(O)c3)oc3cc(O)cc(O)c3c2=O)[C@H](O)[C@@H](O)[C@@H]1O)c1ccc(-c2c3nc(c(-c4c(F)cccc4F)c4ccc([nH]4)c(-c4c(F)cccc4F)c4nc(c(-c5c(F)cccc5F)c5ccc2[nH]5)C=C4)C=C3)cc1
REMARK SMILES IDX 7 1 6 2 5 3 4 4 3 5 2 6 1 7 44 8 45 9 97 10 46 11 96 12
REMARK SMILES IDX 47 13 48 14 49 15 90 16 50 17 95 18 89 19 91 20 51 21 94 22
REMARK SMILES IDX 88 23 87 24 52 26 78 27 61 28 77 29 62 30 65 31 76 32 92 33
REMARK SMILES IDX 63 34 64 35 75 37 93 38 66 39 53 40 54 41 59 42 55 43 56 44
REMARK SMILES IDX 58 45 60 46 57 47 79 48 80 49 85 50 81 51 82 52 84 53 86 54
REMARK SMILES IDX 83 55 67 56 68 57 73 58 69 59 70 60 72 61 74 62 71 63 8 64
REMARK SMILES IDX 9 65 10 66 11 67 12 68 13 69 42 70 14 71 40 72 38 73 43 74
REMARK SMILES IDX 15 76 16 77 17 78 36 79 27 80 35 81 37 82 28 83 33 84 29 85
REMARK SMILES IDX 32 86 30 87 18 88 19 89 26 90 20 91 24 92 22 93 21 94 25 96
REMARK SMILES IDX 23 98 34 100 31 102 41 104 39 106
REMARK H PARENT 91 25 65 36 43 75 21 95 25 97 23 99 34 101 31 103 41 105
REMARK H PARENT 39 107
REMARK Flexibility Score: inf
ROOT
ATOM      1  C   UNL A   1      32.130  28.828  27.490  1.00  0.00     0.202 C 
ENDROOT
BRANCH   1   2
ATOM      2  O   UNL A   1      31.395  29.889  26.868  1.00  0.00    -0.374 OA
BRANCH   2   3
ATOM      3  C   UNL A   1      32.150  31.068  26.580  1.00  0.00     0.202 C 
BRANCH   3   4
ATOM      4  C   UNL A   1      31.481  32.390  26.966  1.00  0.00     0.261 C 
BRANCH   4   5
ATOM      5  O   UNL A   1      32.428  33.463  26.979  1.00  0.00    -0.460 OA
BRANCH   5   6
ATOM      6  C   UNL A   1      33.116  33.928  28.049  1.00  0.00     0.338 C 
ATOM      7  O   UNL A   1      32.711  34.942  28.614  1.00  0.00    -0.246 OA
BRANCH   6   8
ATOM      8  C   UNL A   1      34.315  33.240  28.620  1.00  0.00     0.060 A 
ATOM      9  C   UNL A   1      34.363  31.911  29.047  1.00  0.00     0.016 A 
ATOM     10  C   UNL A   1      35.505  33.985  28.656  1.00  0.00     0.016 A 
ATOM     11  C   UNL A   1      35.523  31.341  29.526  1.00  0.00     0.010 A 
ATOM     12  C   UNL A   1      36.693  33.413  29.115  1.00  0.00     0.010 A 
ATOM     13  C   UNL A   1      36.691  32.088  29.557  1.00  0.00    -0.014 A 
BRANCH  13  14
ATOM     14  C   UNL A   1      37.852  31.453  30.181  1.00  0.00     0.031 A 
ATOM     15  C   UNL A   1      38.071  31.684  31.639  1.00  0.00     0.074 A 
ATOM     16  C   UNL A   1      38.556  30.552  29.474  1.00  0.00     0.049 A 
ATOM     17  N   UNL A   1      39.030  31.249  32.407  1.00  0.00    -0.248 NA
ATOM     18  C   UNL A   1      37.057  32.499  32.335  1.00  0.00     0.031 C 
ATOM     19  C   UNL A   1      38.277  30.162  28.087  1.00  0.00     0.029 A 
ATOM     20  N   UNL A   1      39.621  29.775  29.829  1.00  0.00    -0.354 N 
ATOM     21  C   UNL A   1      38.757  31.766  33.665  1.00  0.00     0.074 A 
ATOM     22  C   UNL A   1      37.540  32.537  33.567  1.00  0.00     0.031 C 
ATOM     23  C   UNL A   1      39.149  29.214  27.714  1.00  0.00     0.029 A 
ATOM     24  C   UNL A   1      40.087  28.989  28.804  1.00  0.00     0.049 A 
ATOM     25  H   UNL A   1      40.016  29.779  30.732  1.00  0.00     0.167 HD
ATOM     26  C   UNL A   1      39.485  31.612  34.791  1.00  0.00     0.037 A 
ATOM     27  C   UNL A   1      41.187  28.218  28.757  1.00  0.00     0.037 A 
ATOM     28  C   UNL A   1      40.691  30.832  34.835  1.00  0.00     0.049 A 
ATOM     29  C   UNL A   1      42.040  28.159  29.995  1.00  0.00     0.074 A 
ATOM     30  C   UNL A   1      41.560  30.639  35.891  1.00  0.00     0.029 A 
ATOM     31  N   UNL A   1      41.196  30.115  33.757  1.00  0.00    -0.354 N 
ATOM     32  N   UNL A   1      41.825  28.699  31.173  1.00  0.00    -0.248 NA
ATOM     33  C   UNL A   1      43.292  27.401  29.900  1.00  0.00     0.031 C 
ATOM     34  C   UNL A   1      42.617  29.845  35.435  1.00  0.00     0.029 A 
ATOM     35  C   UNL A   1      42.377  29.494  34.113  1.00  0.00     0.049 A 
ATOM     36  H   UNL A   1      40.774  30.060  32.868  1.00  0.00     0.167 HD
ATOM     37  C   UNL A   1      42.903  28.334  31.964  1.00  0.00     0.074 A 
ATOM     38  C   UNL A   1      43.756  27.502  31.136  1.00  0.00     0.031 C 
ATOM     39  C   UNL A   1      43.177  28.659  33.251  1.00  0.00     0.037 A 
BRANCH  26  40
ATOM     40  C   UNL A   1      39.039  32.362  36.007  1.00  0.00     0.057 A 
ATOM     41  C   UNL A   1      39.453  33.673  36.276  1.00  0.00     0.134 A 
ATOM     42  C   UNL A   1      38.193  31.748  36.940  1.00  0.00     0.134 A 
ATOM     43  F   UNL A   1      40.292  34.307  35.442  1.00  0.00    -0.206 F 
ATOM     44  C   UNL A   1      39.053  34.340  37.437  1.00  0.00     0.040 A 
ATOM     45  C   UNL A   1      37.767  32.412  38.090  1.00  0.00     0.040 A 
ATOM     46  F   UNL A   1      37.772  30.488  36.749  1.00  0.00    -0.206 F 
ATOM     47  C   UNL A   1      38.202  33.711  38.344  1.00  0.00     0.006 A 
ENDBRANCH  26  40
BRANCH  27  48
ATOM     48  C   UNL A   1      41.580  27.525  27.503  1.00  0.00     0.057 A 
ATOM     49  C   UNL A   1      41.330  26.162  27.308  1.00  0.00     0.134 A 
ATOM     50  C   UNL A   1      42.259  28.203  26.480  1.00  0.00     0.134 A 
ATOM     51  F   UNL A   1      40.699  25.449  28.253  1.00  0.00    -0.206 F 
ATOM     52  C   UNL A   1      41.766  25.493  26.160  1.00  0.00     0.040 A 
ATOM     53  C   UNL A   1      42.671  27.556  25.314  1.00  0.00     0.040 A 
ATOM     54  F   UNL A   1      42.533  29.511  26.598  1.00  0.00    -0.206 F 
ATOM     55  C   UNL A   1      42.436  26.192  25.158  1.00  0.00     0.006 A 
ENDBRANCH  27  48
BRANCH  39  56
ATOM     56  C   UNL A   1      44.420  28.068  33.842  1.00  0.00     0.057 A 
ATOM     57  C   UNL A   1      44.414  26.822  34.479  1.00  0.00     0.134 A 
ATOM     58  C   UNL A   1      45.644  28.737  33.723  1.00  0.00     0.134 A 
ATOM     59  F   UNL A   1      43.268  26.142  34.635  1.00  0.00    -0.206 F 
ATOM     60  C   UNL A   1      45.583  26.270  35.000  1.00  0.00     0.040 A 
ATOM     61  C   UNL A   1      46.824  28.181  34.211  1.00  0.00     0.040 A 
ATOM     62  F   UNL A   1      45.712  29.930  33.112  1.00  0.00    -0.206 F 
ATOM     63  C   UNL A   1      46.794  26.947  34.857  1.00  0.00     0.006 A 
ENDBRANCH  39  56
ENDBRANCH  13  14
ENDBRANCH   6   8
ENDBRANCH   5   6
ENDBRANCH   4   5
ENDBRANCH   3   4
ENDBRANCH   2   3
ENDBRANCH   1   2
BRANCH   1  64
ATOM     64  C   UNL A   1      32.065  27.551  26.658  1.00  0.00     0.261 C 
BRANCH  64  65
ATOM     65  O   UNL A   1      33.399  27.176  26.296  1.00  0.00    -0.461 OA
BRANCH  65  66
ATOM     66  C   UNL A   1      33.750  27.593  25.053  1.00  0.00     0.338 C 
ATOM     67  O   UNL A   1      34.010  28.759  24.770  1.00  0.00    -0.249 OA
BRANCH  66  68
ATOM     68  C   UNL A   1      33.683  26.484  24.021  1.00  0.00     0.263 C 
ATOM     69  O   UNL A   1      33.354  25.277  24.741  1.00  0.00    -0.322 OA
ATOM     70  C   UNL A   1      32.677  26.542  22.874  1.00  0.00     0.186 C 
ATOM     71  C   UNL A   1      33.858  24.143  24.069  1.00  0.00     0.340 C 
ATOM     72  C   UNL A   1      33.038  25.408  21.913  1.00  0.00     0.181 C 
ATOM     73  C   UNL A   1      33.295  24.064  22.617  1.00  0.00     0.214 C 
BRANCH  70  74
ATOM     74  O   UNL A   1      32.666  27.753  22.123  1.00  0.00    -0.387 OA
ATOM     75  H   UNL A   1      33.127  28.446  22.621  1.00  0.00     0.211 HD
ENDBRANCH  70  74
BRANCH  71  76
ATOM     76  O   UNL A   1      33.693  22.901  24.788  1.00  0.00    -0.454 OA
BRANCH  76  77
ATOM     77  C   UNL A   1      34.808  22.159  25.175  1.00  0.00     0.214 A 
ATOM     78  C   UNL A   1      34.947  20.852  24.859  1.00  0.00     0.181 A 
ATOM     79  C   UNL A   1      36.035  22.866  25.682  1.00  0.00     0.239 A 
ATOM     80  O   UNL A   1      36.063  20.082  25.092  1.00  0.00    -0.452 OA
ATOM     81  C   UNL A   1      37.297  22.068  25.756  1.00  0.00     0.111 A 
ATOM     82  O   UNL A   1      35.989  24.059  25.966  1.00  0.00    -0.285 OA
ATOM     83  C   UNL A   1      37.227  20.712  25.436  1.00  0.00     0.146 A 
ATOM     84  C   UNL A   1      38.556  22.602  26.090  1.00  0.00     0.134 A 
ATOM     85  C   UNL A   1      38.368  19.905  25.434  1.00  0.00     0.094 A 
ATOM     86  C   UNL A   1      39.707  21.798  26.082  1.00  0.00     0.093 A 
ATOM     87  C   UNL A   1      39.601  20.454  25.745  1.00  0.00     0.123 A 
BRANCH  78  88
ATOM     88  C   UNL A   1      33.834  20.075  24.294  1.00  0.00     0.029 A 
ATOM     89  C   UNL A   1      33.015  20.690  23.330  1.00  0.00     0.062 A 
ATOM     90  C   UNL A   1      33.721  18.698  24.542  1.00  0.00     0.062 A 
ATOM     91  C   UNL A   1      32.219  19.897  22.514  1.00  0.00     0.162 A 
ATOM     92  C   UNL A   1      32.909  17.927  23.722  1.00  0.00     0.162 A 
ATOM     93  C   UNL A   1      32.193  18.519  22.688  1.00  0.00     0.200 A 
BRANCH  91  94
ATOM     94  O   UNL A   1      31.562  20.486  21.473  1.00  0.00    -0.504 OA
ATOM     95  H   UNL A   1      31.846  20.333  20.593  1.00  0.00     0.293 HD
ENDBRANCH  91  94
BRANCH  92  96
ATOM     96  O   UNL A   1      32.950  16.568  23.853  1.00  0.00    -0.504 OA
ATOM     97  H   UNL A   1      33.771  16.136  23.987  1.00  0.00     0.293 HD
ENDBRANCH  92  96
BRANCH  93  98
ATOM     98  O   UNL A   1      31.586  17.721  21.756  1.00  0.00    -0.502 OA
ATOM     99  H   UNL A   1      32.037  17.498  20.965  1.00  0.00     0.293 HD
ENDBRANCH  93  98
ENDBRANCH  78  88
BRANCH  84 100
ATOM    100  O   UNL A   1      38.694  23.919  26.420  1.00  0.00    -0.507 OA
ATOM    101  H   UNL A   1      38.233  24.269  27.157  1.00  0.00     0.293 HD
ENDBRANCH  84 100
BRANCH  87 102
ATOM    102  O   UNL A   1      40.688  19.633  25.697  1.00  0.00    -0.508 OA
ATOM    103  H   UNL A   1      40.713  18.858  26.223  1.00  0.00     0.293 HD
ENDBRANCH  87 102
ENDBRANCH  76  77
ENDBRANCH  71  76
BRANCH  72 104
ATOM    104  O   UNL A   1      31.983  25.302  20.924  1.00  0.00    -0.387 OA
ATOM    105  H   UNL A   1      31.835  24.368  20.708  1.00  0.00     0.211 HD
ENDBRANCH  72 104
BRANCH  73 106
ATOM    106  O   UNL A   1      34.124  23.295  21.731  1.00  0.00    -0.384 OA
ATOM    107  H   UNL A   1      34.901  22.973  22.214  1.00  0.00     0.211 HD
ENDBRANCH  73 106
ENDBRANCH  66  68
ENDBRANCH  65  66
ENDBRANCH  64  65
ENDBRANCH   1  64
TORSDOF 25
ENDMDL
MODEL 2
REMARK VINA RESULT:     -11.6      1.000      5.767
REMARK SMILES O=C(OCCOCCOC(=O)[C@H]1O[C@@H](Oc2c(-c3cc(O)c(O)c(O)c3)oc3cc(O)cc(O)c3c2=O)[C@H](O)[C@@H](O)[C@@H]1O)c1ccc(-c2c3nc(c(-c4c(F)cccc4F)c4ccc([nH]4)c(-c4c(F)cccc4F)c4nc(c(-c5c(F)cccc5F)c5ccc2[nH]5)C=C4)C=C3)cc1
REMARK SMILES IDX 7 1 6 2 5 3 4 4 3 5 2 6 1 7 44 8 45 9 97 10 46 11 96 12
REMARK SMILES IDX 47 13 48 14 49 15 90 16 50 17 95 18 89 19 91 20 51 21 94 22
REMARK SMILES IDX 88 23 87 24 52 26 78 27 61 28 77 29 62 30 65 31 76 32 92 33
REMARK SMILES IDX 63 34 64 35 75 37 93 38 66 39 53 40 54 41 59 42 55 43 56 44
REMARK SMILES IDX 58 45 60 46 57 47 79 48 80 49 85 50 81 51 82 52 84 53 86 54
REMARK SMILES IDX 83 55 67 56 68 57 73 58 69 59 70 60 72 61 74 62 71 63 8 64
REMARK SMILES IDX 9 65 10 66 11 67 12 68 13 69 42 70 14 71 40 72 38 73 43 74
REMARK SMILES IDX 15 76 16 77 17 78 36 79 27 80 35 81 37 82 28 83 33 84 29 85
REMARK SMILES IDX 32 86 30 87 18 88 19 89 26 90 20 91 24 92 22 93 21 94 25 96
REMARK SMILES IDX 23 98 34 100 31 102 41 104 39 106
REMARK H PARENT 91 25 65 36 43 75 21 95 25 97 23 99 34 101 31 103 41 105
REMARK H PARENT 39 107
REMARK Flexibility Score: inf
ROOT
ATOM      1  C   UNL A   1      31.838  29.967  26.501  1.00  0.00     0.202 C 
ENDROOT
BRANCH   1   2
ATOM      2  O   UNL A   1      31.112  30.980  25.794  1.00  0.00    -0.374 OA
BRANCH   2   3
ATOM      3  C   UNL A   1      31.172  32.288  26.366  1.00  0.00     0.202 C 
BRANCH   3   4
ATOM      4  C   UNL A   1      32.374  32.553  27.277  1.00  0.00     0.261 C 
BRANCH   4   5
ATOM      5  O   UNL A   1      32.455  33.937  27.634  1.00  0.00    -0.460 OA
BRANCH   5   6
ATOM      6  C   UNL A   1      33.087  34.463  28.711  1.00  0.00     0.338 C 
ATOM      7  O   UNL A   1      32.647  35.501  29.202  1.00  0.00    -0.246 OA
BRANCH   6   8
ATOM      8  C   UNL A   1      34.261  33.818  29.373  1.00  0.00     0.060 A 
ATOM      9  C   UNL A   1      34.198  32.832  30.359  1.00  0.00     0.016 A 
ATOM     10  C   UNL A   1      35.530  34.195  28.901  1.00  0.00     0.016 A 
ATOM     11  C   UNL A   1      35.333  32.258  30.892  1.00  0.00     0.010 A 
ATOM     12  C   UNL A   1      36.687  33.605  29.414  1.00  0.00     0.010 A 
ATOM     13  C   UNL A   1      36.579  32.641  30.418  1.00  0.00    -0.014 A 
BRANCH  13  14
ATOM     14  C   UNL A   1      37.739  32.073  31.108  1.00  0.00     0.031 A 
ATOM     15  C   UNL A   1      38.577  31.089  30.362  1.00  0.00     0.074 A 
ATOM     16  C   UNL A   1      38.105  32.590  32.294  1.00  0.00     0.049 A 
ATOM     17  N   UNL A   1      39.635  30.440  30.760  1.00  0.00    -0.248 NA
ATOM     18  C   UNL A   1      38.186  30.815  28.966  1.00  0.00     0.031 C 
ATOM     19  C   UNL A   1      37.409  33.677  32.991  1.00  0.00     0.029 A 
ATOM     20  N   UNL A   1      39.166  32.299  33.103  1.00  0.00    -0.354 N 
ATOM     21  C   UNL A   1      40.012  29.654  29.682  1.00  0.00     0.074 A 
ATOM     22  C   UNL A   1      39.084  29.912  28.606  1.00  0.00     0.031 C 
ATOM     23  C   UNL A   1      38.070  33.964  34.123  1.00  0.00     0.029 A 
ATOM     24  C   UNL A   1      39.181  33.034  34.263  1.00  0.00     0.049 A 
ATOM     25  H   UNL A   1      39.851  31.630  32.876  1.00  0.00     0.167 HD
ATOM     26  C   UNL A   1      41.043  28.784  29.620  1.00  0.00     0.037 A 
ATOM     27  C   UNL A   1      39.986  32.915  35.333  1.00  0.00     0.037 A 
ATOM     28  C   UNL A   1      41.939  28.564  30.721  1.00  0.00     0.049 A 
ATOM     29  C   UNL A   1      41.052  31.856  35.278  1.00  0.00     0.074 A 
ATOM     30  C   UNL A   1      42.987  27.671  30.819  1.00  0.00     0.029 A 
ATOM     31  N   UNL A   1      41.881  29.257  31.925  1.00  0.00    -0.354 N 
ATOM     32  N   UNL A   1      41.376  31.060  34.285  1.00  0.00    -0.248 NA
ATOM     33  C   UNL A   1      41.855  31.663  36.490  1.00  0.00     0.031 C 
ATOM     34  C   UNL A   1      43.532  27.790  32.102  1.00  0.00     0.029 A 
ATOM     35  C   UNL A   1      42.861  28.798  32.782  1.00  0.00     0.049 A 
ATOM     36  H   UNL A   1      41.234  29.969  32.135  1.00  0.00     0.167 HD
ATOM     37  C   UNL A   1      42.429  30.284  34.743  1.00  0.00     0.074 A 
ATOM     38  C   UNL A   1      42.706  30.727  36.097  1.00  0.00     0.031 C 
ATOM     39  C   UNL A   1      43.104  29.290  34.116  1.00  0.00     0.037 A 
BRANCH  26  40
ATOM     40  C   UNL A   1      41.181  27.968  28.373  1.00  0.00     0.057 A 
ATOM     41  C   UNL A   1      40.566  26.719  28.218  1.00  0.00     0.134 A 
ATOM     42  C   UNL A   1      41.967  28.436  27.312  1.00  0.00     0.134 A 
ATOM     43  F   UNL A   1      39.828  26.196  29.209  1.00  0.00    -0.206 F 
ATOM     44  C   UNL A   1      40.741  25.959  27.059  1.00  0.00     0.040 A 
ATOM     45  C   UNL A   1      42.130  27.698  26.140  1.00  0.00     0.040 A 
ATOM     46  F   UNL A   1      42.596  29.618  27.402  1.00  0.00    -0.206 F 
ATOM     47  C   UNL A   1      41.519  26.452  26.013  1.00  0.00     0.006 A 
ENDBRANCH  26  40
BRANCH  27  48
ATOM     48  C   UNL A   1      39.767  33.743  36.548  1.00  0.00     0.057 A 
ATOM     49  C   UNL A   1      38.923  33.321  37.581  1.00  0.00     0.134 A 
ATOM     50  C   UNL A   1      40.367  35.003  36.686  1.00  0.00     0.134 A 
ATOM     51  F   UNL A   1      38.304  32.134  37.506  1.00  0.00    -0.206 F 
ATOM     52  C   UNL A   1      38.659  34.132  38.689  1.00  0.00     0.040 A 
ATOM     53  C   UNL A   1      40.139  35.809  37.803  1.00  0.00     0.040 A 
ATOM     54  F   UNL A   1      41.189  35.471  35.735  1.00  0.00    -0.206 F 
ATOM     55  C   UNL A   1      39.271  35.379  38.803  1.00  0.00     0.006 A 
ENDBRANCH  27  48
BRANCH  39  56
ATOM     56  C   UNL A   1      44.231  28.662  34.876  1.00  0.00     0.057 A 
ATOM     57  C   UNL A   1      44.037  27.545  35.697  1.00  0.00     0.134 A 
ATOM     58  C   UNL A   1      45.535  29.155  34.741  1.00  0.00     0.134 A 
ATOM     59  F   UNL A   1      42.807  27.038  35.876  1.00  0.00    -0.206 F 
ATOM     60  C   UNL A   1      45.099  26.953  36.378  1.00  0.00     0.040 A 
ATOM     61  C   UNL A   1      46.609  28.552  35.390  1.00  0.00     0.040 A 
ATOM     62  F   UNL A   1      45.784  30.217  33.959  1.00  0.00    -0.206 F 
ATOM     63  C   UNL A   1      46.391  27.452  36.216  1.00  0.00     0.006 A 
ENDBRANCH  39  56
ENDBRANCH  13  14
ENDBRANCH   6   8
ENDBRANCH   5   6
ENDBRANCH   4   5
ENDBRANCH   3   4
ENDBRANCH   2   3
ENDBRANCH   1   2
BRANCH   1  64
ATOM     64  C   UNL A   1      31.502  28.577  25.972  1.00  0.00     0.261 C 
BRANCH  64  65
ATOM     65  O   UNL A   1      32.700  27.792  25.963  1.00  0.00    -0.461 OA
BRANCH  65  66
ATOM     66  C   UNL A   1      33.464  28.000  24.860  1.00  0.00     0.338 C 
ATOM     67  O   UNL A   1      34.137  29.009  24.674  1.00  0.00    -0.249 OA
BRANCH  66  68
ATOM     68  C   UNL A   1      33.315  26.900  23.827  1.00  0.00     0.263 C 
ATOM     69  O   UNL A   1      33.005  25.694  24.557  1.00  0.00    -0.322 OA
ATOM     70  C   UNL A   1      32.244  26.986  22.741  1.00  0.00     0.186 C 
ATOM     71  C   UNL A   1      33.447  24.556  23.849  1.00  0.00     0.340 C 
ATOM     72  C   UNL A   1      32.526  25.853  21.753  1.00  0.00     0.181 C 
ATOM     73  C   UNL A   1      32.798  24.499  22.432  1.00  0.00     0.214 C 
BRANCH  70  74
ATOM     74  O   UNL A   1      32.213  28.202  22.000  1.00  0.00    -0.387 OA
ATOM     75  H   UNL A   1      32.605  28.914  22.530  1.00  0.00     0.211 HD
ENDBRANCH  70  74
BRANCH  71  76
ATOM     76  O   UNL A   1      33.300  23.312  24.569  1.00  0.00    -0.454 OA
BRANCH  76  77
ATOM     77  C   UNL A   1      34.422  22.652  25.069  1.00  0.00     0.214 A 
ATOM     78  C   UNL A   1      34.647  21.340  24.840  1.00  0.00     0.181 A 
ATOM     79  C   UNL A   1      35.576  23.451  25.612  1.00  0.00     0.239 A 
ATOM     80  O   UNL A   1      35.781  20.644  25.189  1.00  0.00    -0.452 OA
ATOM     81  C   UNL A   1      36.868  22.727  25.814  1.00  0.00     0.111 A 
ATOM     82  O   UNL A   1      35.451  24.654  25.823  1.00  0.00    -0.285 OA
ATOM     83  C   UNL A   1      36.887  21.354  25.570  1.00  0.00     0.146 A 
ATOM     84  C   UNL A   1      38.073  23.344  26.197  1.00  0.00     0.134 A 
ATOM     85  C   UNL A   1      38.064  20.609  25.688  1.00  0.00     0.094 A 
ATOM     86  C   UNL A   1      39.261  22.604  26.309  1.00  0.00     0.093 A 
ATOM     87  C   UNL A   1      39.245  21.240  26.045  1.00  0.00     0.123 A 
BRANCH  78  88
ATOM     88  C   UNL A   1      33.614  20.475  24.250  1.00  0.00     0.029 A 
ATOM     89  C   UNL A   1      32.849  20.982  23.184  1.00  0.00     0.062 A 
ATOM     90  C   UNL A   1      33.538  19.115  24.590  1.00  0.00     0.062 A 
ATOM     91  C   UNL A   1      32.153  20.098  22.371  1.00  0.00     0.162 A 
ATOM     92  C   UNL A   1      32.825  18.251  23.770  1.00  0.00     0.162 A 
ATOM     93  C   UNL A   1      32.170  18.735  22.643  1.00  0.00     0.200 A 
BRANCH  91  94
ATOM     94  O   UNL A   1      31.558  20.582  21.243  1.00  0.00    -0.504 OA
ATOM     95  H   UNL A   1      30.983  21.320  21.296  1.00  0.00     0.293 HD
ENDBRANCH  91  94
BRANCH  92  96
ATOM     96  O   UNL A   1      32.911  16.909  24.002  1.00  0.00    -0.504 OA
ATOM     97  H   UNL A   1      32.214  16.342  23.736  1.00  0.00     0.293 HD
ENDBRANCH  92  96
BRANCH  93  98
ATOM     98  O   UNL A   1      31.671  17.847  21.729  1.00  0.00    -0.502 OA
ATOM     99  H   UNL A   1      31.876  17.945  20.820  1.00  0.00     0.293 HD
ENDBRANCH  93  98
ENDBRANCH  78  88
BRANCH  84 100
ATOM    100  O   UNL A   1      38.124  24.684  26.457  1.00  0.00    -0.507 OA
ATOM    101  H   UNL A   1      38.952  25.113  26.545  1.00  0.00     0.293 HD
ENDBRANCH  84 100
BRANCH  87 102
ATOM    102  O   UNL A   1      40.372  20.476  26.116  1.00  0.00    -0.508 OA
ATOM    103  H   UNL A   1      41.093  20.654  25.545  1.00  0.00     0.293 HD
ENDBRANCH  87 102
ENDBRANCH  76  77
ENDBRANCH  71  76
BRANCH  72 104
ATOM    104  O   UNL A   1      31.413  25.775  20.827  1.00  0.00    -0.387 OA
ATOM    105  H   UNL A   1      30.985  24.907  20.909  1.00  0.00     0.211 HD
ENDBRANCH  72 104
BRANCH  73 106
ATOM    106  O   UNL A   1      33.558  23.721  21.494  1.00  0.00    -0.384 OA
ATOM    107  H   UNL A   1      33.189  23.837  20.604  1.00  0.00     0.211 HD
ENDBRANCH  73 106
ENDBRANCH  66  68
ENDBRANCH  65  66
ENDBRANCH  64  65
ENDBRANCH   1  64
TORSDOF 25
ENDMDL
MODEL 3
REMARK VINA RESULT:     -11.5      2.262      4.114
REMARK SMILES O=C(OCCOCCOC(=O)[C@H]1O[C@@H](Oc2c(-c3cc(O)c(O)c(O)c3)oc3cc(O)cc(O)c3c2=O)[C@H](O)[C@@H](O)[C@@H]1O)c1ccc(-c2c3nc(c(-c4c(F)cccc4F)c4ccc([nH]4)c(-c4c(F)cccc4F)c4nc(c(-c5c(F)cccc5F)c5ccc2[nH]5)C=C4)C=C3)cc1
REMARK SMILES IDX 7 1 6 2 5 3 4 4 3 5 2 6 1 7 44 8 45 9 97 10 46 11 96 12
REMARK SMILES IDX 47 13 48 14 49 15 90 16 50 17 95 18 89 19 91 20 51 21 94 22
REMARK SMILES IDX 88 23 87 24 52 26 78 27 61 28 77 29 62 30 65 31 76 32 92 33
REMARK SMILES IDX 63 34 64 35 75 37 93 38 66 39 53 40 54 41 59 42 55 43 56 44
REMARK SMILES IDX 58 45 60 46 57 47 79 48 80 49 85 50 81 51 82 52 84 53 86 54
REMARK SMILES IDX 83 55 67 56 68 57 73 58 69 59 70 60 72 61 74 62 71 63 8 64
REMARK SMILES IDX 9 65 10 66 11 67 12 68 13 69 42 70 14 71 40 72 38 73 43 74
REMARK SMILES IDX 15 76 16 77 17 78 36 79 27 80 35 81 37 82 28 83 33 84 29 85
REMARK SMILES IDX 32 86 30 87 18 88 19 89 26 90 20 91 24 92 22 93 21 94 25 96
REMARK SMILES IDX 23 98 34 100 31 102 41 104 39 106
REMARK H PARENT 91 25 65 36 43 75 21 95 25 97 23 99 34 101 31 103 41 105
REMARK H PARENT 39 107
REMARK Flexibility Score: inf
ROOT
ATOM      1  C   UNL A   1      31.068  29.699  24.708  1.00  0.00     0.202 C 
ENDROOT
BRANCH   1   2
ATOM      2  O   UNL A   1      31.429  28.810  25.773  1.00  0.00    -0.374 OA
BRANCH   2   3
ATOM      3  C   UNL A   1      31.780  29.443  27.005  1.00  0.00     0.202 C 
BRANCH   3   4
ATOM      4  C   UNL A   1      32.561  30.754  26.873  1.00  0.00     0.261 C 
BRANCH   4   5
ATOM      5  O   UNL A   1      33.960  30.545  27.093  1.00  0.00    -0.460 OA
BRANCH   5   6
ATOM      6  C   UNL A   1      34.766  31.248  27.924  1.00  0.00     0.338 C 
ATOM      7  O   UNL A   1      34.380  32.340  28.335  1.00  0.00    -0.246 OA
BRANCH   6   8
ATOM      8  C   UNL A   1      36.083  30.740  28.418  1.00  0.00     0.060 A 
ATOM      9  C   UNL A   1      37.321  31.352  28.209  1.00  0.00     0.016 A 
ATOM     10  C   UNL A   1      36.048  29.588  29.221  1.00  0.00     0.016 A 
ATOM     11  C   UNL A   1      38.487  30.838  28.734  1.00  0.00     0.010 A 
ATOM     12  C   UNL A   1      37.218  29.070  29.779  1.00  0.00     0.010 A 
ATOM     13  C   UNL A   1      38.438  29.699  29.524  1.00  0.00    -0.014 A 
BRANCH  13  14
ATOM     14  C   UNL A   1      39.725  29.149  29.952  1.00  0.00     0.031 A 
ATOM     15  C   UNL A   1      40.328  29.689  31.206  1.00  0.00     0.074 A 
ATOM     16  C   UNL A   1      40.213  28.070  29.316  1.00  0.00     0.049 A 
ATOM     17  N   UNL A   1      41.459  29.379  31.775  1.00  0.00    -0.248 NA
ATOM     18  C   UNL A   1      39.539  30.701  31.933  1.00  0.00     0.031 C 
ATOM     19  C   UNL A   1      39.571  27.397  28.181  1.00  0.00     0.029 A 
ATOM     20  N   UNL A   1      41.336  27.329  29.551  1.00  0.00    -0.354 N 
ATOM     21  C   UNL A   1      41.535  30.182  32.903  1.00  0.00     0.074 A 
ATOM     22  C   UNL A   1      40.336  30.985  32.952  1.00  0.00     0.031 C 
ATOM     23  C   UNL A   1      40.312  26.337  27.825  1.00  0.00     0.029 A 
ATOM     24  C   UNL A   1      41.509  26.305  28.652  1.00  0.00     0.049 A 
ATOM     25  H   UNL A   1      41.958  27.511  30.291  1.00  0.00     0.167 HD
ATOM     26  C   UNL A   1      42.539  30.240  33.804  1.00  0.00     0.037 A 
ATOM     27  C   UNL A   1      42.556  25.476  28.500  1.00  0.00     0.037 A 
ATOM     28  C   UNL A   1      43.713  29.417  33.711  1.00  0.00     0.049 A 
ATOM     29  C   UNL A   1      43.711  25.645  29.449  1.00  0.00     0.074 A 
ATOM     30  C   UNL A   1      44.834  29.414  34.517  1.00  0.00     0.029 A 
ATOM     31  N   UNL A   1      43.910  28.446  32.736  1.00  0.00    -0.354 N 
ATOM     32  N   UNL A   1      43.821  26.448  30.483  1.00  0.00    -0.248 NA
ATOM     33  C   UNL A   1      44.891  24.809  29.209  1.00  0.00     0.031 C 
ATOM     34  C   UNL A   1      45.730  28.473  33.998  1.00  0.00     0.029 A 
ATOM     35  C   UNL A   1      45.143  27.849  32.905  1.00  0.00     0.049 A 
ATOM     36  H   UNL A   1      43.264  28.219  32.028  1.00  0.00     0.167 HD
ATOM     37  C   UNL A   1      45.072  26.205  31.025  1.00  0.00     0.074 A 
ATOM     38  C   UNL A   1      45.672  25.157  30.221  1.00  0.00     0.031 C 
ATOM     39  C   UNL A   1      45.682  26.794  32.084  1.00  0.00     0.037 A 
BRANCH  26  40
ATOM     40  C   UNL A   1      42.437  31.272  34.884  1.00  0.00     0.057 A 
ATOM     41  C   UNL A   1      41.903  30.988  36.147  1.00  0.00     0.134 A 
ATOM     42  C   UNL A   1      42.862  32.585  34.642  1.00  0.00     0.134 A 
ATOM     43  F   UNL A   1      41.444  29.760  36.432  1.00  0.00    -0.206 F 
ATOM     44  C   UNL A   1      41.783  31.977  37.127  1.00  0.00     0.040 A 
ATOM     45  C   UNL A   1      42.771  33.575  35.620  1.00  0.00     0.040 A 
ATOM     46  F   UNL A   1      43.369  32.926  33.448  1.00  0.00    -0.206 F 
ATOM     47  C   UNL A   1      42.225  33.274  36.866  1.00  0.00     0.006 A 
ENDBRANCH  26  40
BRANCH  27  48
ATOM     48  C   UNL A   1      42.598  24.496  27.385  1.00  0.00     0.057 A 
ATOM     49  C   UNL A   1      42.148  23.180  27.546  1.00  0.00     0.134 A 
ATOM     50  C   UNL A   1      43.132  24.839  26.134  1.00  0.00     0.134 A 
ATOM     51  F   UNL A   1      41.640  22.780  28.721  1.00  0.00    -0.206 F 
ATOM     52  C   UNL A   1      42.255  22.237  26.520  1.00  0.00     0.040 A 
ATOM     53  C   UNL A   1      43.214  23.917  25.089  1.00  0.00     0.040 A 
ATOM     54  F   UNL A   1      43.581  26.083  25.907  1.00  0.00    -0.206 F 
ATOM     55  C   UNL A   1      42.788  22.607  25.286  1.00  0.00     0.006 A 
ENDBRANCH  27  48
BRANCH  39  56
ATOM     56  C   UNL A   1      47.039  26.275  32.449  1.00  0.00     0.057 A 
ATOM     57  C   UNL A   1      48.210  26.848  31.941  1.00  0.00     0.134 A 
ATOM     58  C   UNL A   1      47.168  25.220  33.361  1.00  0.00     0.134 A 
ATOM     59  F   UNL A   1      48.147  27.852  31.053  1.00  0.00    -0.206 F 
ATOM     60  C   UNL A   1      49.467  26.373  32.311  1.00  0.00     0.040 A 
ATOM     61  C   UNL A   1      48.419  24.759  33.763  1.00  0.00     0.040 A 
ATOM     62  F   UNL A   1      46.080  24.638  33.889  1.00  0.00    -0.206 F 
ATOM     63  C   UNL A   1      49.573  25.331  33.232  1.00  0.00     0.006 A 
ENDBRANCH  39  56
ENDBRANCH  13  14
ENDBRANCH   6   8
ENDBRANCH   5   6
ENDBRANCH   4   5
ENDBRANCH   3   4
ENDBRANCH   2   3
ENDBRANCH   1   2
BRANCH   1  64
ATOM     64  C   UNL A   1      31.738  29.293  23.400  1.00  0.00     0.261 C 
BRANCH  64  65
ATOM     65  O   UNL A   1      32.120  27.916  23.492  1.00  0.00    -0.461 OA
BRANCH  65  66
ATOM     66  C   UNL A   1      33.465  27.736  23.514  1.00  0.00     0.338 C 
ATOM     67  O   UNL A   1      34.272  28.635  23.730  1.00  0.00    -0.249 OA
BRANCH  66  68
ATOM     68  C   UNL A   1      33.874  26.326  23.135  1.00  0.00     0.263 C 
ATOM     69  O   UNL A   1      33.713  25.521  24.322  1.00  0.00    -0.322 OA
ATOM     70  C   UNL A   1      33.131  25.563  22.040  1.00  0.00     0.186 C 
ATOM     71  C   UNL A   1      34.600  24.424  24.304  1.00  0.00     0.340 C 
ATOM     72  C   UNL A   1      33.940  24.295  21.761  1.00  0.00     0.181 C 
ATOM     73  C   UNL A   1      34.372  23.547  23.035  1.00  0.00     0.214 C 
BRANCH  70  74
ATOM     74  O   UNL A   1      32.976  26.253  20.803  1.00  0.00    -0.387 OA
ATOM     75  H   UNL A   1      33.189  25.654  20.071  1.00  0.00     0.211 HD
ENDBRANCH  70  74
BRANCH  71  76
ATOM     76  O   UNL A   1      34.603  23.640  25.518  1.00  0.00    -0.454 OA
BRANCH  76  77
ATOM     77  C   UNL A   1      34.154  22.320  25.504  1.00  0.00     0.214 A 
ATOM     78  C   UNL A   1      32.858  22.003  25.295  1.00  0.00     0.181 A 
ATOM     79  C   UNL A   1      35.149  21.196  25.407  1.00  0.00     0.239 A 
ATOM     80  O   UNL A   1      32.354  20.733  25.143  1.00  0.00    -0.452 OA
ATOM     81  C   UNL A   1      34.615  19.845  25.055  1.00  0.00     0.111 A 
ATOM     82  O   UNL A   1      36.347  21.414  25.563  1.00  0.00    -0.285 OA
ATOM     83  C   UNL A   1      33.232  19.707  24.930  1.00  0.00     0.146 A 
ATOM     84  C   UNL A   1      35.415  18.714  24.806  1.00  0.00     0.134 A 
ATOM     85  C   UNL A   1      32.653  18.490  24.558  1.00  0.00     0.094 A 
ATOM     86  C   UNL A   1      34.840  17.491  24.423  1.00  0.00     0.093 A 
ATOM     87  C   UNL A   1      33.460  17.395  24.296  1.00  0.00     0.123 A 
BRANCH  78  88
ATOM     88  C   UNL A   1      31.805  23.031  25.301  1.00  0.00     0.029 A 
ATOM     89  C   UNL A   1      31.795  23.968  26.349  1.00  0.00     0.062 A 
ATOM     90  C   UNL A   1      30.970  23.209  24.186  1.00  0.00     0.062 A 
ATOM     91  C   UNL A   1      31.081  25.149  26.194  1.00  0.00     0.162 A 
ATOM     92  C   UNL A   1      30.255  24.392  24.058  1.00  0.00     0.162 A 
ATOM     93  C   UNL A   1      30.342  25.373  25.039  1.00  0.00     0.200 A 
BRANCH  91  94
ATOM     94  O   UNL A   1      31.217  26.121  27.141  1.00  0.00    -0.504 OA
ATOM     95  H   UNL A   1      30.801  26.025  27.976  1.00  0.00     0.293 HD
ENDBRANCH  91  94
BRANCH  92  96
ATOM     96  O   UNL A   1      29.596  24.633  22.887  1.00  0.00    -0.504 OA
ATOM     97  H   UNL A   1      29.488  23.945  22.260  1.00  0.00     0.293 HD
ENDBRANCH  92  96
BRANCH  93  98
ATOM     98  O   UNL A   1      29.820  26.613  24.789  1.00  0.00    -0.502 OA
ATOM     99  H   UNL A   1      30.377  27.306  24.493  1.00  0.00     0.293 HD
ENDBRANCH  93  98
ENDBRANCH  78  88
BRANCH  84 100
ATOM    100  O   UNL A   1      36.774  18.778  24.916  1.00  0.00    -0.507 OA
ATOM    101  H   UNL A   1      37.165  19.231  25.638  1.00  0.00     0.293 HD
ENDBRANCH  84 100
BRANCH  87 102
ATOM    102  O   UNL A   1      32.849  16.240  23.905  1.00  0.00    -0.508 OA
ATOM    103  H   UNL A   1      32.474  15.669  24.545  1.00  0.00     0.293 HD
ENDBRANCH  87 102
ENDBRANCH  76  77
ENDBRANCH  71  76
BRANCH  72 104
ATOM    104  O   UNL A   1      33.159  23.447  20.881  1.00  0.00    -0.387 OA
ATOM    105  H   UNL A   1      33.620  22.603  20.753  1.00  0.00     0.211 HD
ENDBRANCH  72 104
BRANCH  73 106
ATOM    106  O   UNL A   1      35.521  22.764  22.676  1.00  0.00    -0.384 OA
ATOM    107  H   UNL A   1      35.333  21.825  22.832  1.00  0.00     0.211 HD
ENDBRANCH  73 106
ENDBRANCH  66  68
ENDBRANCH  65  66
ENDBRANCH  64  65
ENDBRANCH   1  64
TORSDOF 25
ENDMDL
