MODEL 1
REMARK VINA RESULT:     -10.8      0.000      0.000
REMARK SMILES C[C@@H](NC(=O)c1cc(C(=O)OCCOCCOC(=O)c2ccc(-c3c4nc(c(-c5c(F)cccc5F)c5ccc([nH]5)c(-c5c(F)cccc5F)c5nc(c(-c6c(F)cccc6F)c6ccc3[nH]6)C=C5)C=C4)cc2)n(C)n1)c1ccccc1
REMARK SMILES IDX 13 1 12 2 11 3 9 4 10 5 8 6 6 7 7 8 76 9 74 10 75 11 4 12
REMARK SMILES IDX 3 13 5 15 2 16 1 17 77 18 78 19 82 20 79 21 81 22 80 23
REMARK SMILES IDX 14 24 15 25 16 26 17 27 18 28 19 29 20 30 21 31 73 32 22 33
REMARK SMILES IDX 72 34 23 35 24 36 25 37 66 38 26 39 71 40 65 41 67 42 27 43
REMARK SMILES IDX 70 44 64 45 63 46 28 48 54 49 37 50 53 51 38 52 41 53 52 54
REMARK SMILES IDX 68 55 39 56 40 57 51 59 69 60 42 61 29 62 30 63 35 64 31 65
REMARK SMILES IDX 32 66 34 67 36 68 33 69 55 70 56 71 61 72 57 73 58 74 60 75
REMARK SMILES IDX 62 76 59 77 43 78 44 79 49 80 45 81 46 82 48 83 50 84 47 85
REMARK H PARENT 3 14 67 47 41 58
REMARK Flexibility Score: inf
ROOT
ATOM      1  C   UNL A   1      35.991  21.616  24.728  1.00  0.00     0.202 C 
ENDROOT
BRANCH   1   2
ATOM      2  C   UNL A   1      34.857  20.581  24.871  1.00  0.00     0.261 C 
BRANCH   2   3
ATOM      3  O   UNL A   1      33.615  21.073  24.300  1.00  0.00    -0.459 OA
BRANCH   3   4
ATOM      4  C   UNL A   1      32.504  20.849  25.077  1.00  0.00     0.356 C 
ATOM      5  O   UNL A   1      32.028  19.746  25.276  1.00  0.00    -0.244 OA
BRANCH   4   6
ATOM      6  C   UNL A   1      32.055  22.069  25.717  1.00  0.00     0.146 A 
ATOM      7  C   UNL A   1      30.903  23.931  26.271  1.00  0.00     0.151 A 
ATOM      8  C   UNL A   1      31.140  22.994  25.226  1.00  0.00     0.071 A 
ATOM      9  N   UNL A   1      31.766  23.708  27.280  1.00  0.00    -0.167 NA
ATOM     10  N   UNL A   1      32.449  22.599  26.919  1.00  0.00    -0.260 N 
ATOM     11  C   UNL A   1      33.560  22.199  27.754  1.00  0.00     0.174 C 
BRANCH   7  12
ATOM     12  C   UNL A   1      30.005  25.102  26.257  1.00  0.00     0.272 C 
ATOM     13  N   UNL A   1      30.330  26.290  25.622  1.00  0.00    -0.344 N 
ATOM     14  H   UNL A   1      29.553  26.767  25.250  1.00  0.00     0.164 HD
ATOM     15  O   UNL A   1      28.896  25.050  26.792  1.00  0.00    -0.267 OA
BRANCH  13  16
ATOM     16  C   UNL A   1      31.607  26.975  25.397  1.00  0.00     0.109 C 
ATOM     17  C   UNL A   1      31.393  28.414  24.916  1.00  0.00     0.036 C 
BRANCH  16  18
ATOM     18  C   UNL A   1      32.536  26.235  24.481  1.00  0.00    -0.026 A 
ATOM     19  C   UNL A   1      32.169  25.886  23.172  1.00  0.00     0.006 A 
ATOM     20  C   UNL A   1      33.732  25.756  25.019  1.00  0.00     0.006 A 
ATOM     21  C   UNL A   1      32.920  24.961  22.461  1.00  0.00     0.000 A 
ATOM     22  C   UNL A   1      34.459  24.814  24.322  1.00  0.00     0.000 A 
ATOM     23  C   UNL A   1      34.028  24.384  23.063  1.00  0.00     0.000 A 
ENDBRANCH  16  18
ENDBRANCH  13  16
ENDBRANCH   7  12
ENDBRANCH   4   6
ENDBRANCH   3   4
ENDBRANCH   2   3
ENDBRANCH   1   2
BRANCH   1  24
ATOM     24  O   UNL A   1      37.304  21.128  25.059  1.00  0.00    -0.374 OA
BRANCH  24  25
ATOM     25  C   UNL A   1      37.437  19.711  24.989  1.00  0.00     0.202 C 
BRANCH  25  26
ATOM     26  C   UNL A   1      38.820  19.177  25.375  1.00  0.00     0.261 C 
BRANCH  26  27
ATOM     27  O   UNL A   1      39.666  20.273  25.756  1.00  0.00    -0.460 OA
BRANCH  27  28
ATOM     28  C   UNL A   1      40.923  19.892  26.068  1.00  0.00     0.338 C 
ATOM     29  O   UNL A   1      41.450  18.812  25.863  1.00  0.00    -0.246 OA
BRANCH  28  30
ATOM     30  C   UNL A   1      41.688  21.064  26.512  1.00  0.00     0.060 A 
ATOM     31  C   UNL A   1      41.701  21.306  27.889  1.00  0.00     0.016 A 
ATOM     32  C   UNL A   1      42.288  21.952  25.616  1.00  0.00     0.016 A 
ATOM     33  C   UNL A   1      42.237  22.491  28.374  1.00  0.00     0.010 A 
ATOM     34  C   UNL A   1      42.831  23.144  26.108  1.00  0.00     0.010 A 
ATOM     35  C   UNL A   1      42.754  23.439  27.482  1.00  0.00    -0.014 A 
BRANCH  35  36
ATOM     36  C   UNL A   1      43.031  24.801  27.995  1.00  0.00     0.031 A 
ATOM     37  C   UNL A   1      44.460  25.240  28.153  1.00  0.00     0.074 A 
ATOM     38  C   UNL A   1      42.025  25.666  28.213  1.00  0.00     0.049 A 
ATOM     39  N   UNL A   1      44.936  26.405  28.510  1.00  0.00    -0.248 NA
ATOM     40  C   UNL A   1      45.495  24.233  27.862  1.00  0.00     0.031 C 
ATOM     41  C   UNL A   1      40.604  25.368  28.045  1.00  0.00     0.029 A 
ATOM     42  N   UNL A   1      42.052  26.979  28.605  1.00  0.00    -0.354 N 
ATOM     43  C   UNL A   1      46.319  26.273  28.483  1.00  0.00     0.074 A 
ATOM     44  C   UNL A   1      46.607  24.905  28.112  1.00  0.00     0.031 C 
ATOM     45  C   UNL A   1      39.892  26.472  28.328  1.00  0.00     0.029 A 
ATOM     46  C   UNL A   1      40.806  27.544  28.718  1.00  0.00     0.049 A 
ATOM     47  H   UNL A   1      42.886  27.470  28.789  1.00  0.00     0.167 HD
ATOM     48  C   UNL A   1      47.263  27.211  28.730  1.00  0.00     0.037 A 
ATOM     49  C   UNL A   1      40.447  28.783  29.102  1.00  0.00     0.037 A 
ATOM     50  C   UNL A   1      46.974  28.573  29.094  1.00  0.00     0.049 A 
ATOM     51  C   UNL A   1      41.515  29.788  29.439  1.00  0.00     0.074 A 
ATOM     52  C   UNL A   1      47.860  29.603  29.354  1.00  0.00     0.029 A 
ATOM     53  N   UNL A   1      45.698  29.091  29.254  1.00  0.00    -0.354 N 
ATOM     54  N   UNL A   1      42.819  29.658  29.390  1.00  0.00    -0.248 NA
ATOM     55  C   UNL A   1      41.061  31.115  29.882  1.00  0.00     0.031 C 
ATOM     56  C   UNL A   1      47.120  30.733  29.717  1.00  0.00     0.029 A 
ATOM     57  C   UNL A   1      45.772  30.420  29.636  1.00  0.00     0.049 A 
ATOM     58  H   UNL A   1      44.863  28.588  29.116  1.00  0.00     0.167 HD
ATOM     59  C   UNL A   1      43.341  30.889  29.770  1.00  0.00     0.074 A 
ATOM     60  C   UNL A   1      42.211  31.757  30.033  1.00  0.00     0.031 C 
ATOM     61  C   UNL A   1      44.636  31.268  29.891  1.00  0.00     0.037 A 
BRANCH  48  62
ATOM     62  C   UNL A   1      48.699  26.786  28.639  1.00  0.00     0.057 A 
ATOM     63  C   UNL A   1      49.381  26.242  29.735  1.00  0.00     0.134 A 
ATOM     64  C   UNL A   1      49.401  26.900  27.432  1.00  0.00     0.134 A 
ATOM     65  F   UNL A   1      48.772  26.121  30.925  1.00  0.00    -0.206 F 
ATOM     66  C   UNL A   1      50.716  25.843  29.639  1.00  0.00     0.040 A 
ATOM     67  C   UNL A   1      50.728  26.483  27.317  1.00  0.00     0.040 A 
ATOM     68  F   UNL A   1      48.805  27.411  26.345  1.00  0.00    -0.206 F 
ATOM     69  C   UNL A   1      51.391  25.957  28.424  1.00  0.00     0.006 A 
ENDBRANCH  48  62
BRANCH  49  70
ATOM     70  C   UNL A   1      39.010  29.142  29.196  1.00  0.00     0.057 A 
ATOM     71  C   UNL A   1      38.310  29.040  30.404  1.00  0.00     0.134 A 
ATOM     72  C   UNL A   1      38.299  29.580  28.073  1.00  0.00     0.134 A 
ATOM     73  F   UNL A   1      38.931  28.606  31.509  1.00  0.00    -0.206 F 
ATOM     74  C   UNL A   1      36.951  29.346  30.487  1.00  0.00     0.040 A 
ATOM     75  C   UNL A   1      36.945  29.914  28.147  1.00  0.00     0.040 A 
ATOM     76  F   UNL A   1      38.914  29.701  26.886  1.00  0.00    -0.206 F 
ATOM     77  C   UNL A   1      36.266  29.790  29.356  1.00  0.00     0.006 A 
ENDBRANCH  49  70
BRANCH  61  78
ATOM     78  C   UNL A   1      44.901  32.688  30.299  1.00  0.00     0.057 A 
ATOM     79  C   UNL A   1      45.089  33.048  31.639  1.00  0.00     0.134 A 
ATOM     80  C   UNL A   1      45.007  33.699  29.336  1.00  0.00     0.134 A 
ATOM     81  F   UNL A   1      44.988  32.128  32.611  1.00  0.00    -0.206 F 
ATOM     82  C   UNL A   1      45.350  34.368  32.009  1.00  0.00     0.040 A 
ATOM     83  C   UNL A   1      45.293  35.018  29.691  1.00  0.00     0.040 A 
ATOM     84  F   UNL A   1      44.848  33.419  28.034  1.00  0.00    -0.206 F 
ATOM     85  C   UNL A   1      45.459  35.356  31.033  1.00  0.00     0.006 A 
ENDBRANCH  61  78
ENDBRANCH  35  36
ENDBRANCH  28  30
ENDBRANCH  27  28
ENDBRANCH  26  27
ENDBRANCH  25  26
ENDBRANCH  24  25
ENDBRANCH   1  24
TORSDOF 17
ENDMDL
MODEL 2
REMARK VINA RESULT:     -10.8      4.398      9.186
REMARK SMILES C[C@@H](NC(=O)c1cc(C(=O)OCCOCCOC(=O)c2ccc(-c3c4nc(c(-c5c(F)cccc5F)c5ccc([nH]5)c(-c5c(F)cccc5F)c5nc(c(-c6c(F)cccc6F)c6ccc3[nH]6)C=C5)C=C4)cc2)n(C)n1)c1ccccc1
REMARK SMILES IDX 13 1 12 2 11 3 9 4 10 5 8 6 6 7 7 8 76 9 74 10 75 11 4 12
REMARK SMILES IDX 3 13 5 15 2 16 1 17 77 18 78 19 82 20 79 21 81 22 80 23
REMARK SMILES IDX 14 24 15 25 16 26 17 27 18 28 19 29 20 30 21 31 73 32 22 33
REMARK SMILES IDX 72 34 23 35 24 36 25 37 66 38 26 39 71 40 65 41 67 42 27 43
REMARK SMILES IDX 70 44 64 45 63 46 28 48 54 49 37 50 53 51 38 52 41 53 52 54
REMARK SMILES IDX 68 55 39 56 40 57 51 59 69 60 42 61 29 62 30 63 35 64 31 65
REMARK SMILES IDX 32 66 34 67 36 68 33 69 55 70 56 71 61 72 57 73 58 74 60 75
REMARK SMILES IDX 62 76 59 77 43 78 44 79 49 80 45 81 46 82 48 83 50 84 47 85
REMARK H PARENT 3 14 67 47 41 58
REMARK Flexibility Score: inf
ROOT
ATOM      1  C   UNL A   1      32.986  30.021  26.477  1.00  0.00     0.202 C 
ENDROOT
BRANCH   1   2
ATOM      2  C   UNL A   1      32.972  28.534  26.884  1.00  0.00     0.261 C 
BRANCH   2   3
ATOM      3  O   UNL A   1      33.711  27.718  25.936  1.00  0.00    -0.459 OA
BRANCH   3   4
ATOM      4  C   UNL A   1      32.924  27.032  25.042  1.00  0.00     0.356 C 
ATOM      5  O   UNL A   1      32.725  27.395  23.897  1.00  0.00    -0.244 OA
BRANCH   4   6
ATOM      6  C   UNL A   1      32.468  25.775  25.600  1.00  0.00     0.146 A 
ATOM      7  C   UNL A   1      32.359  23.791  26.673  1.00  0.00     0.151 A 
ATOM      8  C   UNL A   1      33.250  24.735  26.090  1.00  0.00     0.071 A 
ATOM      9  N   UNL A   1      31.088  24.135  26.389  1.00  0.00    -0.167 NA
ATOM     10  N   UNL A   1      31.182  25.317  25.738  1.00  0.00    -0.260 N 
ATOM     11  C   UNL A   1      29.970  25.866  25.175  1.00  0.00     0.174 C 
BRANCH   7  12
ATOM     12  C   UNL A   1      32.690  22.515  27.337  1.00  0.00     0.272 C 
ATOM     13  N   UNL A   1      33.042  21.372  26.637  1.00  0.00    -0.344 N 
ATOM     14  H   UNL A   1      33.686  20.798  27.112  1.00  0.00     0.164 HD
ATOM     15  O   UNL A   1      32.700  22.431  28.568  1.00  0.00    -0.267 OA
BRANCH  13  16
ATOM     16  C   UNL A   1      32.640  20.853  25.326  1.00  0.00     0.109 C 
ATOM     17  C   UNL A   1      33.130  19.415  25.120  1.00  0.00     0.036 C 
BRANCH  16  18
ATOM     18  C   UNL A   1      33.049  21.728  24.178  1.00  0.00    -0.026 A 
ATOM     19  C   UNL A   1      34.393  22.049  23.928  1.00  0.00     0.006 A 
ATOM     20  C   UNL A   1      32.036  22.353  23.448  1.00  0.00     0.006 A 
ATOM     21  C   UNL A   1      34.712  23.080  23.056  1.00  0.00     0.000 A 
ATOM     22  C   UNL A   1      32.356  23.398  22.606  1.00  0.00     0.000 A 
ATOM     23  C   UNL A   1      33.688  23.789  22.445  1.00  0.00     0.000 A 
ENDBRANCH  16  18
ENDBRANCH  13  16
ENDBRANCH   7  12
ENDBRANCH   4   6
ENDBRANCH   3   4
ENDBRANCH   2   3
ENDBRANCH   1   2
BRANCH   1  24
ATOM     24  O   UNL A   1      32.104  30.868  27.238  1.00  0.00    -0.374 OA
BRANCH  24  25
ATOM     25  C   UNL A   1      31.464  31.885  26.473  1.00  0.00     0.202 C 
BRANCH  25  26
ATOM     26  C   UNL A   1      31.861  33.316  26.851  1.00  0.00     0.261 C 
BRANCH  26  27
ATOM     27  O   UNL A   1      32.303  33.345  28.217  1.00  0.00    -0.460 OA
BRANCH  27  28
ATOM     28  C   UNL A   1      33.334  34.191  28.427  1.00  0.00     0.338 C 
ATOM     29  O   UNL A   1      33.285  35.388  28.651  1.00  0.00    -0.246 OA
BRANCH  28  30
ATOM     30  C   UNL A   1      34.573  33.417  28.574  1.00  0.00     0.060 A 
ATOM     31  C   UNL A   1      34.437  32.133  29.111  1.00  0.00     0.016 A 
ATOM     32  C   UNL A   1      35.831  33.954  28.294  1.00  0.00     0.016 A 
ATOM     33  C   UNL A   1      35.570  31.411  29.460  1.00  0.00     0.010 A 
ATOM     34  C   UNL A   1      36.971  33.223  28.643  1.00  0.00     0.010 A 
ATOM     35  C   UNL A   1      36.839  31.974  29.278  1.00  0.00    -0.014 A 
BRANCH  35  36
ATOM     36  C   UNL A   1      37.994  31.317  29.934  1.00  0.00     0.031 A 
ATOM     37  C   UNL A   1      38.264  31.604  31.386  1.00  0.00     0.074 A 
ATOM     38  C   UNL A   1      38.721  30.398  29.275  1.00  0.00     0.049 A 
ATOM     39  N   UNL A   1      39.166  31.088  32.180  1.00  0.00    -0.248 NA
ATOM     40  C   UNL A   1      37.397  32.603  32.032  1.00  0.00     0.031 C 
ATOM     41  C   UNL A   1      38.519  30.001  27.883  1.00  0.00     0.029 A 
ATOM     42  N   UNL A   1      39.765  29.620  29.702  1.00  0.00    -0.354 N 
ATOM     43  C   UNL A   1      38.973  31.693  33.416  1.00  0.00     0.074 A 
ATOM     44  C   UNL A   1      37.894  32.643  33.258  1.00  0.00     0.031 C 
ATOM     45  C   UNL A   1      39.411  29.046  27.570  1.00  0.00     0.029 A 
ATOM     46  C   UNL A   1      40.258  28.783  28.731  1.00  0.00     0.049 A 
ATOM     47  H   UNL A   1      40.128  29.657  30.616  1.00  0.00     0.167 HD
ATOM     48  C   UNL A   1      39.626  31.466  34.580  1.00  0.00     0.037 A 
ATOM     49  C   UNL A   1      41.283  27.910  28.776  1.00  0.00     0.037 A 
ATOM     50  C   UNL A   1      40.696  30.517  34.735  1.00  0.00     0.049 A 
ATOM     51  C   UNL A   1      42.038  27.727  30.065  1.00  0.00     0.074 A 
ATOM     52  C   UNL A   1      41.414  30.206  35.876  1.00  0.00     0.029 A 
ATOM     53  N   UNL A   1      41.204  29.730  33.713  1.00  0.00    -0.354 N 
ATOM     54  N   UNL A   1      41.833  28.290  31.232  1.00  0.00    -0.248 NA
ATOM     55  C   UNL A   1      43.166  26.785  30.044  1.00  0.00     0.031 C 
ATOM     56  C   UNL A   1      42.388  29.263  35.533  1.00  0.00     0.029 A 
ATOM     57  C   UNL A   1      42.245  28.951  34.190  1.00  0.00     0.049 A 
ATOM     58  H   UNL A   1      40.873  29.725  32.786  1.00  0.00     0.167 HD
ATOM     59  C   UNL A   1      42.787  27.753  32.088  1.00  0.00     0.074 A 
ATOM     60  C   UNL A   1      43.562  26.810  31.308  1.00  0.00     0.031 C 
ATOM     61  C   UNL A   1      43.003  28.016  33.399  1.00  0.00     0.037 A 
BRANCH  48  62
ATOM     62  C   UNL A   1      39.214  32.280  35.771  1.00  0.00     0.057 A 
ATOM     63  C   UNL A   1      38.316  31.790  36.728  1.00  0.00     0.134 A 
ATOM     64  C   UNL A   1      39.744  33.560  35.977  1.00  0.00     0.134 A 
ATOM     65  F   UNL A   1      37.759  30.578  36.580  1.00  0.00    -0.206 F 
ATOM     66  C   UNL A   1      37.943  32.552  37.838  1.00  0.00     0.040 A 
ATOM     67  C   UNL A   1      39.398  34.321  37.095  1.00  0.00     0.040 A 
ATOM     68  F   UNL A   1      40.611  34.087  35.100  1.00  0.00    -0.206 F 
ATOM     69  C   UNL A   1      38.491  33.820  38.026  1.00  0.00     0.006 A 
ENDBRANCH  48  62
BRANCH  49  70
ATOM     70  C   UNL A   1      41.660  27.148  27.560  1.00  0.00     0.057 A 
ATOM     71  C   UNL A   1      41.187  25.850  27.337  1.00  0.00     0.134 A 
ATOM     72  C   UNL A   1      42.519  27.696  26.600  1.00  0.00     0.134 A 
ATOM     73  F   UNL A   1      40.380  25.262  28.231  1.00  0.00    -0.206 F 
ATOM     74  C   UNL A   1      41.567  25.118  26.210  1.00  0.00     0.040 A 
ATOM     75  C   UNL A   1      42.887  26.986  25.456  1.00  0.00     0.040 A 
ATOM     76  F   UNL A   1      43.004  28.937  26.755  1.00  0.00    -0.206 F 
ATOM     77  C   UNL A   1      42.416  25.690  25.263  1.00  0.00     0.006 A 
ENDBRANCH  49  70
BRANCH  61  78
ATOM     78  C   UNL A   1      44.103  27.254  34.080  1.00  0.00     0.057 A 
ATOM     79  C   UNL A   1      43.878  26.006  34.673  1.00  0.00     0.134 A 
ATOM     80  C   UNL A   1      45.409  27.759  34.108  1.00  0.00     0.134 A 
ATOM     81  F   UNL A   1      42.647  25.473  34.690  1.00  0.00    -0.206 F 
ATOM     82  C   UNL A   1      44.910  25.297  35.290  1.00  0.00     0.040 A 
ATOM     83  C   UNL A   1      46.454  27.047  34.699  1.00  0.00     0.040 A 
ATOM     84  F   UNL A   1      45.694  28.944  33.548  1.00  0.00    -0.206 F 
ATOM     85  C   UNL A   1      46.203  25.814  35.298  1.00  0.00     0.006 A 
ENDBRANCH  61  78
ENDBRANCH  35  36
ENDBRANCH  28  30
ENDBRANCH  27  28
ENDBRANCH  26  27
ENDBRANCH  25  26
ENDBRANCH  24  25
ENDBRANCH   1  24
TORSDOF 17
ENDMDL
MODEL 3
REMARK VINA RESULT:     -10.5      4.451      9.367
REMARK SMILES C[C@@H](NC(=O)c1cc(C(=O)OCCOCCOC(=O)c2ccc(-c3c4nc(c(-c5c(F)cccc5F)c5ccc([nH]5)c(-c5c(F)cccc5F)c5nc(c(-c6c(F)cccc6F)c6ccc3[nH]6)C=C5)C=C4)cc2)n(C)n1)c1ccccc1
REMARK SMILES IDX 13 1 12 2 11 3 9 4 10 5 8 6 6 7 7 8 76 9 74 10 75 11 4 12
REMARK SMILES IDX 3 13 5 15 2 16 1 17 77 18 78 19 82 20 79 21 81 22 80 23
REMARK SMILES IDX 14 24 15 25 16 26 17 27 18 28 19 29 20 30 21 31 73 32 22 33
REMARK SMILES IDX 72 34 23 35 24 36 25 37 66 38 26 39 71 40 65 41 67 42 27 43
REMARK SMILES IDX 70 44 64 45 63 46 28 48 54 49 37 50 53 51 38 52 41 53 52 54
REMARK SMILES IDX 68 55 39 56 40 57 51 59 69 60 42 61 29 62 30 63 35 64 31 65
REMARK SMILES IDX 32 66 34 67 36 68 33 69 55 70 56 71 61 72 57 73 58 74 60 75
REMARK SMILES IDX 62 76 59 77 43 78 44 79 49 80 45 81 46 82 48 83 50 84 47 85
REMARK H PARENT 3 14 67 47 41 58
REMARK Flexibility Score: inf
ROOT
ATOM      1  C   UNL A   1      32.611  30.039  25.291  1.00  0.00     0.202 C 
ENDROOT
BRANCH   1   2
ATOM      2  C   UNL A   1      31.662  28.912  24.837  1.00  0.00     0.261 C 
BRANCH   2   3
ATOM      3  O   UNL A   1      30.552  29.434  24.060  1.00  0.00    -0.459 OA
BRANCH   3   4
ATOM      4  C   UNL A   1      30.452  28.917  22.791  1.00  0.00     0.356 C 
ATOM      5  O   UNL A   1      30.175  29.581  21.809  1.00  0.00    -0.244 OA
BRANCH   4   6
ATOM      6  C   UNL A   1      30.836  27.521  22.761  1.00  0.00     0.146 A 
ATOM      7  C   UNL A   1      31.980  25.590  22.502  1.00  0.00     0.151 A 
ATOM      8  C   UNL A   1      31.930  26.958  22.113  1.00  0.00     0.071 A 
ATOM      9  N   UNL A   1      30.871  25.279  23.199  1.00  0.00    -0.167 NA
ATOM     10  N   UNL A   1      30.200  26.446  23.330  1.00  0.00    -0.260 N 
ATOM     11  C   UNL A   1      28.880  26.394  23.917  1.00  0.00     0.174 C 
BRANCH   7  12
ATOM     12  C   UNL A   1      32.959  24.563  22.096  1.00  0.00     0.272 C 
ATOM     13  N   UNL A   1      33.708  23.836  23.008  1.00  0.00    -0.344 N 
ATOM     14  H   UNL A   1      33.911  22.919  22.713  1.00  0.00     0.164 HD
ATOM     15  O   UNL A   1      33.122  24.286  20.906  1.00  0.00    -0.267 OA
BRANCH  13  16
ATOM     16  C   UNL A   1      34.255  24.169  24.327  1.00  0.00     0.109 C 
ATOM     17  C   UNL A   1      34.243  25.683  24.571  1.00  0.00     0.036 C 
BRANCH  16  18
ATOM     18  C   UNL A   1      35.619  23.597  24.577  1.00  0.00    -0.026 A 
ATOM     19  C   UNL A   1      36.110  22.499  23.854  1.00  0.00     0.006 A 
ATOM     20  C   UNL A   1      36.338  24.090  25.668  1.00  0.00     0.006 A 
ATOM     21  C   UNL A   1      37.233  21.817  24.300  1.00  0.00     0.000 A 
ATOM     22  C   UNL A   1      37.436  23.391  26.126  1.00  0.00     0.000 A 
ATOM     23  C   UNL A   1      37.855  22.231  25.469  1.00  0.00     0.000 A 
ENDBRANCH  16  18
ENDBRANCH  13  16
ENDBRANCH   7  12
ENDBRANCH   4   6
ENDBRANCH   3   4
ENDBRANCH   2   3
ENDBRANCH   1   2
BRANCH   1  24
ATOM     24  O   UNL A   1      32.322  30.591  26.589  1.00  0.00    -0.374 OA
BRANCH  24  25
ATOM     25  C   UNL A   1      31.380  31.661  26.573  1.00  0.00     0.202 C 
BRANCH  25  26
ATOM     26  C   UNL A   1      31.989  33.052  26.780  1.00  0.00     0.261 C 
BRANCH  26  27
ATOM     27  O   UNL A   1      32.306  33.234  28.168  1.00  0.00    -0.460 OA
BRANCH  27  28
ATOM     28  C   UNL A   1      33.332  34.088  28.373  1.00  0.00     0.338 C 
ATOM     29  O   UNL A   1      33.275  35.287  28.589  1.00  0.00    -0.246 OA
BRANCH  28  30
ATOM     30  C   UNL A   1      34.575  33.323  28.527  1.00  0.00     0.060 A 
ATOM     31  C   UNL A   1      34.450  32.050  29.091  1.00  0.00     0.016 A 
ATOM     32  C   UNL A   1      35.829  33.860  28.225  1.00  0.00     0.016 A 
ATOM     33  C   UNL A   1      35.589  31.340  29.446  1.00  0.00     0.010 A 
ATOM     34  C   UNL A   1      36.975  33.142  28.580  1.00  0.00     0.010 A 
ATOM     35  C   UNL A   1      36.854  31.905  29.242  1.00  0.00    -0.014 A 
BRANCH  35  36
ATOM     36  C   UNL A   1      38.017  31.267  29.903  1.00  0.00     0.031 A 
ATOM     37  C   UNL A   1      38.284  31.567  31.352  1.00  0.00     0.074 A 
ATOM     38  C   UNL A   1      38.755  30.352  29.250  1.00  0.00     0.049 A 
ATOM     39  N   UNL A   1      39.192  31.068  32.150  1.00  0.00    -0.248 NA
ATOM     40  C   UNL A   1      37.404  32.559  31.992  1.00  0.00     0.031 C 
ATOM     41  C   UNL A   1      38.558  29.944  27.861  1.00  0.00     0.029 A 
ATOM     42  N   UNL A   1      39.809  29.590  29.682  1.00  0.00    -0.354 N 
ATOM     43  C   UNL A   1      38.992  31.679  33.381  1.00  0.00     0.074 A 
ATOM     44  C   UNL A   1      37.900  32.614  33.217  1.00  0.00     0.031 C 
ATOM     45  C   UNL A   1      39.462  28.998  27.554  1.00  0.00     0.029 A 
ATOM     46  C   UNL A   1      40.313  28.753  28.717  1.00  0.00     0.049 A 
ATOM     47  H   UNL A   1      40.172  29.639  30.596  1.00  0.00     0.167 HD
ATOM     48  C   UNL A   1      39.647  31.469  34.547  1.00  0.00     0.037 A 
ATOM     49  C   UNL A   1      41.348  27.894  28.768  1.00  0.00     0.037 A 
ATOM     50  C   UNL A   1      40.729  30.534  34.708  1.00  0.00     0.049 A 
ATOM     51  C   UNL A   1      42.106  27.729  30.058  1.00  0.00     0.074 A 
ATOM     52  C   UNL A   1      41.450  30.239  35.852  1.00  0.00     0.029 A 
ATOM     53  N   UNL A   1      41.246  29.746  33.692  1.00  0.00    -0.354 N 
ATOM     54  N   UNL A   1      41.894  28.297  31.220  1.00  0.00    -0.248 NA
ATOM     55  C   UNL A   1      43.245  26.801  30.043  1.00  0.00     0.031 C 
ATOM     56  C   UNL A   1      42.437  29.306  35.515  1.00  0.00     0.029 A 
ATOM     57  C   UNL A   1      42.297  28.984  34.174  1.00  0.00     0.049 A 
ATOM     58  H   UNL A   1      40.915  29.731  32.765  1.00  0.00     0.167 HD
ATOM     59  C   UNL A   1      42.854  27.778  32.080  1.00  0.00     0.074 A 
ATOM     60  C   UNL A   1      43.641  26.839  31.307  1.00  0.00     0.031 C 
ATOM     61  C   UNL A   1      43.067  28.053  33.390  1.00  0.00     0.037 A 
BRANCH  48  62
ATOM     62  C   UNL A   1      39.225  32.285  35.733  1.00  0.00     0.057 A 
ATOM     63  C   UNL A   1      39.683  33.595  35.931  1.00  0.00     0.134 A 
ATOM     64  C   UNL A   1      38.331  31.764  36.676  1.00  0.00     0.134 A 
ATOM     65  F   UNL A   1      40.555  34.148  35.073  1.00  0.00    -0.206 F 
ATOM     66  C   UNL A   1      39.280  34.350  37.034  1.00  0.00     0.040 A 
ATOM     67  C   UNL A   1      37.902  32.517  37.770  1.00  0.00     0.040 A 
ATOM     68  F   UNL A   1      37.854  30.517  36.544  1.00  0.00    -0.206 F 
ATOM     69  C   UNL A   1      38.382  33.812  37.954  1.00  0.00     0.006 A 
ENDBRANCH  48  62
BRANCH  49  70
ATOM     70  C   UNL A   1      41.735  27.128  27.557  1.00  0.00     0.057 A 
ATOM     71  C   UNL A   1      42.599  27.668  26.598  1.00  0.00     0.134 A 
ATOM     72  C   UNL A   1      41.233  25.842  27.323  1.00  0.00     0.134 A 
ATOM     73  F   UNL A   1      43.095  28.903  26.755  1.00  0.00    -0.206 F 
ATOM     74  C   UNL A   1      42.939  26.962  25.442  1.00  0.00     0.040 A 
ATOM     75  C   UNL A   1      41.583  25.115  26.185  1.00  0.00     0.040 A 
ATOM     76  F   UNL A   1      40.401  25.269  28.206  1.00  0.00    -0.206 F 
ATOM     77  C   UNL A   1      42.434  25.678  25.236  1.00  0.00     0.006 A 
ENDBRANCH  49  70
BRANCH  61  78
ATOM     78  C   UNL A   1      44.176  27.310  34.076  1.00  0.00     0.057 A 
ATOM     79  C   UNL A   1      45.470  27.837  34.171  1.00  0.00     0.134 A 
ATOM     80  C   UNL A   1      43.936  26.069  34.681  1.00  0.00     0.134 A 
ATOM     81  F   UNL A   1      45.767  29.016  33.603  1.00  0.00    -0.206 F 
ATOM     82  C   UNL A   1      46.491  27.146  34.824  1.00  0.00     0.040 A 
ATOM     83  C   UNL A   1      44.943  25.381  35.359  1.00  0.00     0.040 A 
ATOM     84  F   UNL A   1      42.716  25.513  34.635  1.00  0.00    -0.206 F 
ATOM     85  C   UNL A   1      46.227  25.918  35.426  1.00  0.00     0.006 A 
ENDBRANCH  61  78
ENDBRANCH  35  36
ENDBRANCH  28  30
ENDBRANCH  27  28
ENDBRANCH  26  27
ENDBRANCH  25  26
ENDBRANCH  24  25
ENDBRANCH   1  24
TORSDOF 17
ENDMDL
