MODEL 1
REMARK VINA RESULT:     -10.0      0.000      0.000
REMARK SMILES C[N@H+](CC(=O)OCCOCCOC(=O)c1ccc(-c2c3nc(c(-c4c(F)cccc4F)c4ccc([nH]4)c(-c4c(F)cccc4F)c4nc(c(-c5c(F)cccc5F)c5ccc2[nH]5)C=C4)C=C3)cc1)Cc1nc(-c2ccsc2)no1
REMARK SMILES IDX 8 1 7 2 6 3 4 4 5 5 3 6 2 7 1 8 69 10 70 11 71 12 79 13
REMARK SMILES IDX 72 14 78 15 73 16 74 17 77 18 75 19 76 20 9 21 10 22 11 23
REMARK SMILES IDX 12 24 13 25 14 26 15 27 16 28 68 29 17 30 67 31 18 32 19 33
REMARK SMILES IDX 20 34 61 35 21 36 66 37 60 38 62 39 22 40 65 41 59 42 58 43
REMARK SMILES IDX 23 45 49 46 32 47 48 48 33 49 36 50 47 51 63 52 34 53 35 54
REMARK SMILES IDX 46 56 64 57 37 58 24 59 25 60 30 61 26 62 27 63 29 64 31 65
REMARK SMILES IDX 28 66 50 67 51 68 56 69 52 70 53 71 55 72 57 73 54 74 38 75
REMARK SMILES IDX 39 76 44 77 40 78 41 79 43 80 45 81 42 82
REMARK H PARENT 2 9 62 44 36 55
REMARK Flexibility Score: inf
ROOT
ATOM      1  C   UNL A   1      41.525  20.745  26.922  1.00  0.00     0.202 C 
ENDROOT
BRANCH   1   2
ATOM      2  C   UNL A   1      40.148  21.235  26.448  1.00  0.00     0.261 C 
BRANCH   2   3
ATOM      3  O   UNL A   1      39.765  22.467  27.088  1.00  0.00    -0.459 OA
BRANCH   3   4
ATOM      4  C   UNL A   1      38.827  23.227  26.457  1.00  0.00     0.361 C 
ATOM      5  O   UNL A   1      38.845  24.454  26.411  1.00  0.00    -0.245 OA
BRANCH   4   6
ATOM      6  C   UNL A   1      37.817  22.400  25.644  1.00  0.00     0.386 C 
BRANCH   6   7
ATOM      7  N   UNL A   1      36.877  23.199  24.828  1.00  0.00    -0.320 N 
ATOM      8  C   UNL A   1      36.743  22.656  23.477  1.00  0.00     0.333 C 
ATOM      9  H   UNL A   1      37.293  24.126  24.740  1.00  0.00     0.348 HD
BRANCH   7  10
ATOM     10  C   UNL A   1      35.574  23.433  25.487  1.00  0.00     0.364 C 
BRANCH  10  11
ATOM     11  C   UNL A   1      34.610  22.294  25.268  1.00  0.00     0.282 A 
ATOM     12  N   UNL A   1      34.557  21.088  25.799  1.00  0.00    -0.186 NA
ATOM     13  O   UNL A   1      33.711  22.461  24.247  1.00  0.00    -0.333 OA
ATOM     14  C   UNL A   1      33.686  20.437  24.956  1.00  0.00     0.203 A 
ATOM     15  N   UNL A   1      33.113  21.217  24.029  1.00  0.00    -0.057 NA
BRANCH  14  16
ATOM     16  C   UNL A   1      33.643  18.971  24.942  1.00  0.00     0.033 A 
ATOM     17  C   UNL A   1      34.665  18.182  24.325  1.00  0.00     0.024 A 
ATOM     18  C   UNL A   1      32.720  18.185  25.597  1.00  0.00     0.077 A 
ATOM     19  C   UNL A   1      34.532  16.839  24.613  1.00  0.00     0.065 A 
ATOM     20  S   UNL A   1      33.118  16.518  25.520  1.00  0.00    -0.152 S 
ENDBRANCH  14  16
ENDBRANCH  10  11
ENDBRANCH   7  10
ENDBRANCH   6   7
ENDBRANCH   4   6
ENDBRANCH   3   4
ENDBRANCH   2   3
ENDBRANCH   1   2
BRANCH   1  21
ATOM     21  O   UNL A   1      42.515  20.540  25.920  1.00  0.00    -0.374 OA
BRANCH  21  22
ATOM     22  C   UNL A   1      43.605  21.453  25.862  1.00  0.00     0.202 C 
BRANCH  22  23
ATOM     23  C   UNL A   1      43.754  22.335  24.615  1.00  0.00     0.261 C 
BRANCH  23  24
ATOM     24  O   UNL A   1      43.220  23.677  24.708  1.00  0.00    -0.460 OA
BRANCH  24  25
ATOM     25  C   UNL A   1      44.112  24.610  25.127  1.00  0.00     0.338 C 
ATOM     26  O   UNL A   1      45.197  24.818  24.602  1.00  0.00    -0.246 OA
BRANCH  25  27
ATOM     27  C   UNL A   1      43.653  25.469  26.255  1.00  0.00     0.060 A 
ATOM     28  C   UNL A   1      42.646  24.913  27.052  1.00  0.00     0.016 A 
ATOM     29  C   UNL A   1      44.066  26.783  26.511  1.00  0.00     0.016 A 
ATOM     30  C   UNL A   1      42.045  25.650  28.069  1.00  0.00     0.010 A 
ATOM     31  C   UNL A   1      43.464  27.532  27.545  1.00  0.00     0.010 A 
ATOM     32  C   UNL A   1      42.450  26.965  28.333  1.00  0.00    -0.014 A 
BRANCH  32  33
ATOM     33  C   UNL A   1      41.902  27.606  29.557  1.00  0.00     0.031 A 
ATOM     34  C   UNL A   1      42.624  27.583  30.872  1.00  0.00     0.074 A 
ATOM     35  C   UNL A   1      40.805  28.374  29.405  1.00  0.00     0.049 A 
ATOM     36  N   UNL A   1      42.372  28.268  31.960  1.00  0.00    -0.248 NA
ATOM     37  C   UNL A   1      43.779  26.683  30.980  1.00  0.00     0.031 C 
ATOM     38  C   UNL A   1      40.057  28.509  28.153  1.00  0.00     0.029 A 
ATOM     39  N   UNL A   1      40.166  29.222  30.272  1.00  0.00    -0.354 N 
ATOM     40  C   UNL A   1      43.342  27.896  32.883  1.00  0.00     0.074 A 
ATOM     41  C   UNL A   1      44.171  26.901  32.232  1.00  0.00     0.031 C 
ATOM     42  C   UNL A   1      39.094  29.426  28.318  1.00  0.00     0.029 A 
ATOM     43  C   UNL A   1      39.128  29.910  29.693  1.00  0.00     0.049 A 
ATOM     44  H   UNL A   1      40.425  29.327  31.216  1.00  0.00     0.167 HD
ATOM     45  C   UNL A   1      43.521  28.351  34.149  1.00  0.00     0.037 A 
ATOM     46  C   UNL A   1      38.291  30.830  30.208  1.00  0.00     0.037 A 
ATOM     47  C   UNL A   1      42.680  29.336  34.789  1.00  0.00     0.049 A 
ATOM     48  C   UNL A   1      38.464  31.256  31.635  1.00  0.00     0.074 A 
ATOM     49  C   UNL A   1      42.794  29.877  36.060  1.00  0.00     0.029 A 
ATOM     50  N   UNL A   1      41.561  29.920  34.212  1.00  0.00    -0.354 N 
ATOM     51  N   UNL A   1      39.403  30.917  32.486  1.00  0.00    -0.248 NA
ATOM     52  C   UNL A   1      37.458  32.175  32.180  1.00  0.00     0.031 C 
ATOM     53  C   UNL A   1      41.714  30.742  36.271  1.00  0.00     0.029 A 
ATOM     54  C   UNL A   1      40.950  30.777  35.115  1.00  0.00     0.049 A 
ATOM     55  H   UNL A   1      41.247  29.751  33.294  1.00  0.00     0.167 HD
ATOM     56  C   UNL A   1      39.099  31.577  33.668  1.00  0.00     0.074 A 
ATOM     57  C   UNL A   1      37.907  32.360  33.415  1.00  0.00     0.031 C 
ATOM     58  C   UNL A   1      39.747  31.530  34.857  1.00  0.00     0.037 A 
BRANCH  45  59
ATOM     59  C   UNL A   1      44.652  27.766  34.948  1.00  0.00     0.057 A 
ATOM     60  C   UNL A   1      44.497  26.603  35.714  1.00  0.00     0.134 A 
ATOM     61  C   UNL A   1      45.928  28.345  34.911  1.00  0.00     0.134 A 
ATOM     62  F   UNL A   1      43.304  25.996  35.792  1.00  0.00    -0.206 F 
ATOM     63  C   UNL A   1      45.562  26.054  36.434  1.00  0.00     0.040 A 
ATOM     64  C   UNL A   1      47.004  27.793  35.607  1.00  0.00     0.040 A 
ATOM     65  F   UNL A   1      46.154  29.450  34.184  1.00  0.00    -0.206 F 
ATOM     66  C   UNL A   1      46.821  26.647  36.378  1.00  0.00     0.006 A 
ENDBRANCH  45  59
BRANCH  46  67
ATOM     67  C   UNL A   1      37.205  31.383  29.362  1.00  0.00     0.057 A 
ATOM     68  C   UNL A   1      36.039  30.659  29.097  1.00  0.00     0.134 A 
ATOM     69  C   UNL A   1      37.298  32.676  28.827  1.00  0.00     0.134 A 
ATOM     70  F   UNL A   1      35.900  29.409  29.564  1.00  0.00    -0.206 F 
ATOM     71  C   UNL A   1      35.003  31.199  28.333  1.00  0.00     0.040 A 
ATOM     72  C   UNL A   1      36.259  33.238  28.086  1.00  0.00     0.040 A 
ATOM     73  F   UNL A   1      38.389  33.424  29.049  1.00  0.00    -0.206 F 
ATOM     74  C   UNL A   1      35.107  32.497  27.836  1.00  0.00     0.006 A 
ENDBRANCH  46  67
BRANCH  58  75
ATOM     75  C   UNL A   1      39.158  32.331  35.980  1.00  0.00     0.057 A 
ATOM     76  C   UNL A   1      38.225  31.774  36.863  1.00  0.00     0.134 A 
ATOM     77  C   UNL A   1      39.543  33.659  36.198  1.00  0.00     0.134 A 
ATOM     78  F   UNL A   1      37.802  30.511  36.696  1.00  0.00    -0.206 F 
ATOM     79  C   UNL A   1      37.684  32.513  37.915  1.00  0.00     0.040 A 
ATOM     80  C   UNL A   1      39.025  34.403  37.259  1.00  0.00     0.040 A 
ATOM     81  F   UNL A   1      40.435  34.253  35.389  1.00  0.00    -0.206 F 
ATOM     82  C   UNL A   1      38.089  33.831  38.119  1.00  0.00     0.006 A 
ENDBRANCH  58  75
ENDBRANCH  32  33
ENDBRANCH  25  27
ENDBRANCH  24  25
ENDBRANCH  23  24
ENDBRANCH  22  23
ENDBRANCH  21  22
ENDBRANCH   1  21
TORSDOF 18
ENDMDL
MODEL 2
REMARK VINA RESULT:      -9.9      0.717      6.265
REMARK SMILES C[N@H+](CC(=O)OCCOCCOC(=O)c1ccc(-c2c3nc(c(-c4c(F)cccc4F)c4ccc([nH]4)c(-c4c(F)cccc4F)c4nc(c(-c5c(F)cccc5F)c5ccc2[nH]5)C=C4)C=C3)cc1)Cc1nc(-c2ccsc2)no1
REMARK SMILES IDX 8 1 7 2 6 3 4 4 5 5 3 6 2 7 1 8 69 10 70 11 71 12 79 13
REMARK SMILES IDX 72 14 78 15 73 16 74 17 77 18 75 19 76 20 9 21 10 22 11 23
REMARK SMILES IDX 12 24 13 25 14 26 15 27 16 28 68 29 17 30 67 31 18 32 19 33
REMARK SMILES IDX 20 34 61 35 21 36 66 37 60 38 62 39 22 40 65 41 59 42 58 43
REMARK SMILES IDX 23 45 49 46 32 47 48 48 33 49 36 50 47 51 63 52 34 53 35 54
REMARK SMILES IDX 46 56 64 57 37 58 24 59 25 60 30 61 26 62 27 63 29 64 31 65
REMARK SMILES IDX 28 66 50 67 51 68 56 69 52 70 53 71 55 72 57 73 54 74 38 75
REMARK SMILES IDX 39 76 44 77 40 78 41 79 43 80 45 81 42 82
REMARK H PARENT 2 9 62 44 36 55
REMARK Flexibility Score: inf
ROOT
ATOM      1  C   UNL A   1      40.996  20.738  26.922  1.00  0.00     0.202 C 
ENDROOT
BRANCH   1   2
ATOM      2  C   UNL A   1      39.999  21.905  26.990  1.00  0.00     0.261 C 
BRANCH   2   3
ATOM      3  O   UNL A   1      39.475  22.243  25.692  1.00  0.00    -0.459 OA
BRANCH   3   4
ATOM      4  C   UNL A   1      38.175  21.919  25.446  1.00  0.00     0.361 C 
ATOM      5  O   UNL A   1      37.761  20.772  25.306  1.00  0.00    -0.245 OA
BRANCH   4   6
ATOM      6  C   UNL A   1      37.220  23.121  25.530  1.00  0.00     0.386 C 
BRANCH   6   7
ATOM      7  N   UNL A   1      35.794  22.768  25.700  1.00  0.00    -0.320 N 
ATOM      8  C   UNL A   1      35.095  23.746  26.533  1.00  0.00     0.333 C 
ATOM      9  H   UNL A   1      35.778  21.880  26.202  1.00  0.00     0.348 HD
BRANCH   7  10
ATOM     10  C   UNL A   1      35.096  22.493  24.427  1.00  0.00     0.364 C 
BRANCH  10  11
ATOM     11  C   UNL A   1      34.183  21.296  24.521  1.00  0.00     0.282 A 
ATOM     12  N   UNL A   1      34.309  20.159  25.176  1.00  0.00    -0.186 NA
ATOM     13  O   UNL A   1      33.098  21.306  23.684  1.00  0.00    -0.333 OA
ATOM     14  C   UNL A   1      33.338  19.378  24.593  1.00  0.00     0.203 A 
ATOM     15  N   UNL A   1      32.551  20.020  23.719  1.00  0.00    -0.057 NA
BRANCH  14  16
ATOM     16  C   UNL A   1      33.388  17.920  24.742  1.00  0.00     0.033 A 
ATOM     17  C   UNL A   1      34.605  17.179  24.605  1.00  0.00     0.024 A 
ATOM     18  C   UNL A   1      32.343  17.113  25.135  1.00  0.00     0.077 A 
ATOM     19  C   UNL A   1      34.459  15.862  24.991  1.00  0.00     0.065 A 
ATOM     20  S   UNL A   1      32.839  15.491  25.398  1.00  0.00    -0.152 S 
ENDBRANCH  14  16
ENDBRANCH  10  11
ENDBRANCH   7  10
ENDBRANCH   6   7
ENDBRANCH   4   6
ENDBRANCH   3   4
ENDBRANCH   2   3
ENDBRANCH   1   2
BRANCH   1  21
ATOM     21  O   UNL A   1      41.887  20.716  25.811  1.00  0.00    -0.374 OA
BRANCH  21  22
ATOM     22  C   UNL A   1      43.198  21.235  25.996  1.00  0.00     0.202 C 
BRANCH  22  23
ATOM     23  C   UNL A   1      43.738  22.238  24.967  1.00  0.00     0.261 C 
BRANCH  23  24
ATOM     24  O   UNL A   1      43.014  23.485  24.842  1.00  0.00    -0.460 OA
BRANCH  24  25
ATOM     25  C   UNL A   1      43.717  24.585  25.210  1.00  0.00     0.338 C 
ATOM     26  O   UNL A   1      44.707  25.004  24.623  1.00  0.00    -0.246 OA
BRANCH  25  27
ATOM     27  C   UNL A   1      43.156  25.346  26.361  1.00  0.00     0.060 A 
ATOM     28  C   UNL A   1      43.739  26.598  26.585  1.00  0.00     0.016 A 
ATOM     29  C   UNL A   1      42.192  24.879  27.266  1.00  0.00     0.016 A 
ATOM     30  C   UNL A   1      43.391  27.364  27.695  1.00  0.00     0.010 A 
ATOM     31  C   UNL A   1      41.832  25.657  28.388  1.00  0.00     0.010 A 
ATOM     32  C   UNL A   1      42.429  26.908  28.605  1.00  0.00    -0.014 A 
BRANCH  32  33
ATOM     33  C   UNL A   1      41.973  27.870  29.643  1.00  0.00     0.031 A 
ATOM     34  C   UNL A   1      40.736  28.704  29.481  1.00  0.00     0.074 A 
ATOM     35  C   UNL A   1      42.615  27.840  30.827  1.00  0.00     0.049 A 
ATOM     36  N   UNL A   1      40.109  29.424  30.378  1.00  0.00    -0.248 NA
ATOM     37  C   UNL A   1      40.122  28.730  28.148  1.00  0.00     0.031 C 
ATOM     38  C   UNL A   1      43.797  27.022  31.107  1.00  0.00     0.029 A 
ATOM     39  N   UNL A   1      42.341  28.454  32.022  1.00  0.00    -0.354 N 
ATOM     40  C   UNL A   1      39.015  29.981  29.727  1.00  0.00     0.074 A 
ATOM     41  C   UNL A   1      39.084  29.536  28.348  1.00  0.00     0.031 C 
ATOM     42  C   UNL A   1      44.115  27.145  32.403  1.00  0.00     0.029 A 
ATOM     43  C   UNL A   1      43.190  28.079  33.034  1.00  0.00     0.049 A 
ATOM     44  H   UNL A   1      41.607  29.100  32.142  1.00  0.00     0.167 HD
ATOM     45  C   UNL A   1      38.046  30.783  30.238  1.00  0.00     0.037 A 
ATOM     46  C   UNL A   1      43.226  28.445  34.329  1.00  0.00     0.037 A 
ATOM     47  C   UNL A   1      37.995  31.227  31.611  1.00  0.00     0.049 A 
ATOM     48  C   UNL A   1      42.188  29.394  34.847  1.00  0.00     0.074 A 
ATOM     49  C   UNL A   1      37.042  32.022  32.229  1.00  0.00     0.029 A 
ATOM     50  N   UNL A   1      38.944  30.926  32.579  1.00  0.00    -0.354 N 
ATOM     51  N   UNL A   1      41.144  29.890  34.227  1.00  0.00    -0.248 NA
ATOM     52  C   UNL A   1      42.338  29.848  36.235  1.00  0.00     0.031 C 
ATOM     53  C   UNL A   1      37.445  32.247  33.551  1.00  0.00     0.029 A 
ATOM     54  C   UNL A   1      38.626  31.556  33.772  1.00  0.00     0.049 A 
ATOM     55  H   UNL A   1      39.729  30.349  32.438  1.00  0.00     0.167 HD
ATOM     56  C   UNL A   1      40.515  30.717  35.146  1.00  0.00     0.074 A 
ATOM     57  C   UNL A   1      41.277  30.633  36.375  1.00  0.00     0.031 C 
ATOM     58  C   UNL A   1      39.410  31.484  34.981  1.00  0.00     0.037 A 
BRANCH  45  59
ATOM     59  C   UNL A   1      36.972  31.264  29.303  1.00  0.00     0.057 A 
ATOM     60  C   UNL A   1      35.900  30.447  28.920  1.00  0.00     0.134 A 
ATOM     61  C   UNL A   1      36.982  32.579  28.818  1.00  0.00     0.134 A 
ATOM     62  F   UNL A   1      35.826  29.178  29.349  1.00  0.00    -0.206 F 
ATOM     63  C   UNL A   1      34.893  30.912  28.069  1.00  0.00     0.040 A 
ATOM     64  C   UNL A   1      35.970  33.062  27.986  1.00  0.00     0.040 A 
ATOM     65  F   UNL A   1      37.969  33.422  29.157  1.00  0.00    -0.206 F 
ATOM     66  C   UNL A   1      34.925  32.225  27.603  1.00  0.00     0.006 A 
ENDBRANCH  45  59
BRANCH  46  67
ATOM     67  C   UNL A   1      44.301  27.920  35.205  1.00  0.00     0.057 A 
ATOM     68  C   UNL A   1      44.138  26.744  35.943  1.00  0.00     0.134 A 
ATOM     69  C   UNL A   1      45.540  28.572  35.294  1.00  0.00     0.134 A 
ATOM     70  F   UNL A   1      42.969  26.086  35.915  1.00  0.00    -0.206 F 
ATOM     71  C   UNL A   1      45.167  26.232  36.737  1.00  0.00     0.040 A 
ATOM     72  C   UNL A   1      46.585  28.057  36.061  1.00  0.00     0.040 A 
ATOM     73  F   UNL A   1      45.761  29.702  34.607  1.00  0.00    -0.206 F 
ATOM     74  C   UNL A   1      46.399  26.884  36.787  1.00  0.00     0.006 A 
ENDBRANCH  46  67
BRANCH  58  75
ATOM     75  C   UNL A   1      38.979  32.311  36.155  1.00  0.00     0.057 A 
ATOM     76  C   UNL A   1      38.152  31.784  37.155  1.00  0.00     0.134 A 
ATOM     77  C   UNL A   1      39.412  33.634  36.304  1.00  0.00     0.134 A 
ATOM     78  F   UNL A   1      37.688  30.528  37.061  1.00  0.00    -0.206 F 
ATOM     79  C   UNL A   1      37.758  32.548  38.254  1.00  0.00     0.040 A 
ATOM     80  C   UNL A   1      39.042  34.402  37.410  1.00  0.00     0.040 A 
ATOM     81  F   UNL A   1      40.208  34.200  35.383  1.00  0.00    -0.206 F 
ATOM     82  C   UNL A   1      38.209  33.860  38.387  1.00  0.00     0.006 A 
ENDBRANCH  58  75
ENDBRANCH  32  33
ENDBRANCH  25  27
ENDBRANCH  24  25
ENDBRANCH  23  24
ENDBRANCH  22  23
ENDBRANCH  21  22
ENDBRANCH   1  21
TORSDOF 18
ENDMDL
MODEL 3
REMARK VINA RESULT:      -9.8      4.664      9.538
REMARK SMILES C[N@H+](CC(=O)OCCOCCOC(=O)c1ccc(-c2c3nc(c(-c4c(F)cccc4F)c4ccc([nH]4)c(-c4c(F)cccc4F)c4nc(c(-c5c(F)cccc5F)c5ccc2[nH]5)C=C4)C=C3)cc1)Cc1nc(-c2ccsc2)no1
REMARK SMILES IDX 8 1 7 2 6 3 4 4 5 5 3 6 2 7 1 8 69 10 70 11 71 12 79 13
REMARK SMILES IDX 72 14 78 15 73 16 74 17 77 18 75 19 76 20 9 21 10 22 11 23
REMARK SMILES IDX 12 24 13 25 14 26 15 27 16 28 68 29 17 30 67 31 18 32 19 33
REMARK SMILES IDX 20 34 61 35 21 36 66 37 60 38 62 39 22 40 65 41 59 42 58 43
REMARK SMILES IDX 23 45 49 46 32 47 48 48 33 49 36 50 47 51 63 52 34 53 35 54
REMARK SMILES IDX 46 56 64 57 37 58 24 59 25 60 30 61 26 62 27 63 29 64 31 65
REMARK SMILES IDX 28 66 50 67 51 68 56 69 52 70 53 71 55 72 57 73 54 74 38 75
REMARK SMILES IDX 39 76 44 77 40 78 41 79 43 80 45 81 42 82
REMARK H PARENT 2 9 62 44 36 55
REMARK Flexibility Score: inf
ROOT
ATOM      1  C   UNL A   1      33.951  30.071  26.929  1.00  0.00     0.202 C 
ENDROOT
BRANCH   1   2
ATOM      2  C   UNL A   1      33.727  28.572  27.181  1.00  0.00     0.261 C 
BRANCH   2   3
ATOM      3  O   UNL A   1      32.344  28.270  27.442  1.00  0.00    -0.459 OA
BRANCH   3   4
ATOM      4  C   UNL A   1      31.689  27.516  26.516  1.00  0.00     0.361 C 
ATOM      5  O   UNL A   1      30.941  26.581  26.786  1.00  0.00    -0.245 OA
BRANCH   4   6
ATOM      6  C   UNL A   1      31.829  28.053  25.081  1.00  0.00     0.386 C 
BRANCH   6   7
ATOM      7  N   UNL A   1      32.296  27.060  24.091  1.00  0.00    -0.320 N 
ATOM      8  C   UNL A   1      33.343  26.202  24.643  1.00  0.00     0.333 C 
ATOM      9  H   UNL A   1      32.715  27.593  23.328  1.00  0.00     0.348 HD
BRANCH   7  10
ATOM     10  C   UNL A   1      31.200  26.295  23.458  1.00  0.00     0.364 C 
BRANCH  10  11
ATOM     11  C   UNL A   1      30.046  27.178  23.054  1.00  0.00     0.282 A 
ATOM     12  N   UNL A   1      30.007  28.275  22.325  1.00  0.00    -0.186 NA
ATOM     13  O   UNL A   1      28.843  26.895  23.647  1.00  0.00    -0.333 OA
ATOM     14  C   UNL A   1      28.756  28.771  22.613  1.00  0.00     0.203 A 
ATOM     15  N   UNL A   1      27.994  27.969  23.368  1.00  0.00    -0.057 NA
BRANCH  14  16
ATOM     16  C   UNL A   1      28.445  30.176  22.327  1.00  0.00     0.033 A 
ATOM     17  C   UNL A   1      28.538  31.198  23.324  1.00  0.00     0.024 A 
ATOM     18  C   UNL A   1      28.152  30.701  21.087  1.00  0.00     0.077 A 
ATOM     19  C   UNL A   1      28.406  32.462  22.788  1.00  0.00     0.065 A 
ATOM     20  S   UNL A   1      28.053  32.413  21.115  1.00  0.00    -0.152 S 
ENDBRANCH  14  16
ENDBRANCH  10  11
ENDBRANCH   7  10
ENDBRANCH   6   7
ENDBRANCH   4   6
ENDBRANCH   3   4
ENDBRANCH   2   3
ENDBRANCH   1   2
BRANCH   1  21
ATOM     21  O   UNL A   1      33.115  30.977  27.640  1.00  0.00    -0.374 OA
BRANCH  21  22
ATOM     22  C   UNL A   1      32.152  31.717  26.902  1.00  0.00     0.202 C 
BRANCH  22  23
ATOM     23  C   UNL A   1      32.191  33.249  26.980  1.00  0.00     0.261 C 
BRANCH  23  24
ATOM     24  O   UNL A   1      32.219  33.826  28.307  1.00  0.00    -0.460 OA
BRANCH  24  25
ATOM     25  C   UNL A   1      33.288  34.624  28.553  1.00  0.00     0.338 C 
ATOM     26  O   UNL A   1      33.288  35.842  28.426  1.00  0.00    -0.246 OA
BRANCH  25  27
ATOM     27  C   UNL A   1      34.492  33.930  29.090  1.00  0.00     0.060 A 
ATOM     28  C   UNL A   1      34.235  32.992  30.096  1.00  0.00     0.016 A 
ATOM     29  C   UNL A   1      35.823  34.205  28.749  1.00  0.00     0.016 A 
ATOM     30  C   UNL A   1      35.275  32.354  30.766  1.00  0.00     0.010 A 
ATOM     31  C   UNL A   1      36.880  33.555  29.422  1.00  0.00     0.010 A 
ATOM     32  C   UNL A   1      36.610  32.621  30.433  1.00  0.00    -0.014 A 
BRANCH  32  33
ATOM     33  C   UNL A   1      37.646  31.754  31.053  1.00  0.00     0.031 A 
ATOM     34  C   UNL A   1      38.379  30.697  30.282  1.00  0.00     0.074 A 
ATOM     35  C   UNL A   1      38.039  32.071  32.302  1.00  0.00     0.049 A 
ATOM     36  N   UNL A   1      39.442  30.013  30.631  1.00  0.00    -0.248 NA
ATOM     37  C   UNL A   1      37.861  30.367  28.948  1.00  0.00     0.031 C 
ATOM     38  C   UNL A   1      37.428  33.120  33.122  1.00  0.00     0.029 A 
ATOM     39  N   UNL A   1      39.068  31.598  33.075  1.00  0.00    -0.354 N 
ATOM     40  C   UNL A   1      39.733  29.180  29.558  1.00  0.00     0.074 A 
ATOM     41  C   UNL A   1      38.714  29.426  28.556  1.00  0.00     0.031 C 
ATOM     42  C   UNL A   1      38.124  33.246  34.259  1.00  0.00     0.029 A 
ATOM     43  C   UNL A   1      39.201  32.263  34.270  1.00  0.00     0.049 A 
ATOM     44  H   UNL A   1      39.654  30.855  32.801  1.00  0.00     0.167 HD
ATOM     45  C   UNL A   1      40.758  28.301  29.426  1.00  0.00     0.037 A 
ATOM     46  C   UNL A   1      40.089  32.101  35.269  1.00  0.00     0.037 A 
ATOM     47  C   UNL A   1      41.762  28.058  30.437  1.00  0.00     0.049 A 
ATOM     48  C   UNL A   1      41.165  31.066  35.128  1.00  0.00     0.074 A 
ATOM     49  C   UNL A   1      42.851  27.204  30.388  1.00  0.00     0.029 A 
ATOM     50  N   UNL A   1      41.790  28.663  31.686  1.00  0.00    -0.354 N 
ATOM     51  N   UNL A   1      41.444  30.306  34.096  1.00  0.00    -0.248 NA
ATOM     52  C   UNL A   1      42.037  30.854  36.289  1.00  0.00     0.031 C 
ATOM     53  C   UNL A   1      43.504  27.249  31.625  1.00  0.00     0.029 A 
ATOM     54  C   UNL A   1      42.849  28.166  32.432  1.00  0.00     0.049 A 
ATOM     55  H   UNL A   1      41.153  29.345  31.998  1.00  0.00     0.167 HD
ATOM     56  C   UNL A   1      42.520  29.522  34.485  1.00  0.00     0.074 A 
ATOM     57  C   UNL A   1      42.862  29.920  35.835  1.00  0.00     0.031 C 
ATOM     58  C   UNL A   1      43.161  28.553  33.787  1.00  0.00     0.037 A 
BRANCH  45  59
ATOM     59  C   UNL A   1      40.835  27.504  28.154  1.00  0.00     0.057 A 
ATOM     60  C   UNL A   1      41.579  27.938  27.049  1.00  0.00     0.134 A 
ATOM     61  C   UNL A   1      40.199  26.259  28.050  1.00  0.00     0.134 A 
ATOM     62  F   UNL A   1      42.215  29.118  27.080  1.00  0.00    -0.206 F 
ATOM     63  C   UNL A   1      41.663  27.178  25.879  1.00  0.00     0.040 A 
ATOM     64  C   UNL A   1      40.295  25.480  26.895  1.00  0.00     0.040 A 
ATOM     65  F   UNL A   1      39.484  25.772  29.075  1.00  0.00    -0.206 F 
ATOM     66  C   UNL A   1      41.023  25.942  25.802  1.00  0.00     0.006 A 
ENDBRANCH  45  59
BRANCH  46  67
ATOM     67  C   UNL A   1      39.970  32.933  36.492  1.00  0.00     0.057 A 
ATOM     68  C   UNL A   1      39.067  32.614  37.511  1.00  0.00     0.134 A 
ATOM     69  C   UNL A   1      40.793  34.052  36.684  1.00  0.00     0.134 A 
ATOM     70  F   UNL A   1      38.240  31.567  37.377  1.00  0.00    -0.206 F 
ATOM     71  C   UNL A   1      38.987  33.376  38.678  1.00  0.00     0.040 A 
ATOM     72  C   UNL A   1      40.742  34.805  37.856  1.00  0.00     0.040 A 
ATOM     73  F   UNL A   1      41.683  34.407  35.745  1.00  0.00    -0.206 F 
ATOM     74  C   UNL A   1      39.835  34.468  38.857  1.00  0.00     0.006 A 
ENDBRANCH  46  67
BRANCH  58  75
ATOM     75  C   UNL A   1      44.280  27.841  34.487  1.00  0.00     0.057 A 
ATOM     76  C   UNL A   1      45.591  28.331  34.450  1.00  0.00     0.134 A 
ATOM     77  C   UNL A   1      44.044  26.674  35.223  1.00  0.00     0.134 A 
ATOM     78  F   UNL A   1      45.885  29.435  33.747  1.00  0.00    -0.206 F 
ATOM     79  C   UNL A   1      46.633  27.677  35.110  1.00  0.00     0.040 A 
ATOM     80  C   UNL A   1      45.074  26.022  35.904  1.00  0.00     0.040 A 
ATOM     81  F   UNL A   1      42.810  26.153  35.300  1.00  0.00    -0.206 F 
ATOM     82  C   UNL A   1      46.373  26.522  35.845  1.00  0.00     0.006 A 
ENDBRANCH  58  75
ENDBRANCH  32  33
ENDBRANCH  25  27
ENDBRANCH  24  25
ENDBRANCH  23  24
ENDBRANCH  22  23
ENDBRANCH  21  22
ENDBRANCH   1  21
TORSDOF 18
ENDMDL
