MODEL 1
REMARK VINA RESULT:     -10.7      0.000      0.000
REMARK SMILES CO[C@@H]1C[C@H](C(=O)OCCOCCOC(=O)c2ccc(-c3c4nc(c(-c5c(F)cccc5F)c5ccc([nH]5)c(-c5c(F)cccc5F)c5nc(c(-c6c(F)cccc6F)c6ccc3[nH]6)C=C5)C=C4)cc2)N(C(=O)c2ccn(C)c(=O)c2)C1
REMARK SMILES IDX 11 1 10 2 9 3 8 4 6 5 7 6 5 7 3 8 4 9 82 10 71 11 2 12 1 13
REMARK SMILES IDX 72 14 73 15 74 16 75 17 81 18 76 19 79 20 77 21 80 22 78 23
REMARK SMILES IDX 12 24 13 25 14 26 15 27 16 28 17 29 18 30 70 31 19 32 69 33
REMARK SMILES IDX 20 34 21 35 22 36 63 37 23 38 68 39 62 40 64 41 24 42 67 43
REMARK SMILES IDX 61 44 60 45 25 47 51 48 34 49 50 50 35 51 38 52 49 53 65 54
REMARK SMILES IDX 36 55 37 56 48 58 66 59 39 60 26 61 27 62 32 63 28 64 29 65
REMARK SMILES IDX 31 66 33 67 30 68 52 69 53 70 58 71 54 72 55 73 57 74 59 75
REMARK SMILES IDX 56 76 40 77 41 78 46 79 42 80 43 81 45 82 47 83 44 84
REMARK H PARENT 64 46 38 57
REMARK Flexibility Score: inf
ROOT
ATOM      1  O   UNL A   1      36.909  21.342  25.409  1.00  0.00    -0.374 OA
ENDROOT
BRANCH   1   2
ATOM      2  C   UNL A   1      36.145  22.182  24.546  1.00  0.00     0.202 C 
BRANCH   2   3
ATOM      3  C   UNL A   1      35.965  23.632  24.997  1.00  0.00     0.261 C 
BRANCH   3   4
ATOM      4  O   UNL A   1      34.949  24.289  24.229  1.00  0.00    -0.462 OA
BRANCH   4   5
ATOM      5  C   UNL A   1      33.871  24.707  24.941  1.00  0.00     0.329 C 
ATOM      6  O   UNL A   1      33.496  25.875  24.995  1.00  0.00    -0.250 OA
BRANCH   5   7
ATOM      7  C   UNL A   1      33.118  23.559  25.639  1.00  0.00     0.198 C 
ATOM      8  C   UNL A   1      30.809  24.002  26.344  1.00  0.00     0.140 C 
ATOM      9  C   UNL A   1      32.257  23.919  26.853  1.00  0.00     0.071 C 
ATOM     10  C   UNL A   1      30.869  23.596  24.870  1.00  0.00     0.152 C 
ATOM     11  N   UNL A   1      32.169  22.985  24.691  1.00  0.00    -0.322 N 
BRANCH   8  12
ATOM     12  O   UNL A   1      30.309  25.330  26.484  1.00  0.00    -0.380 OA
ATOM     13  C   UNL A   1      29.808  25.849  25.256  1.00  0.00     0.195 C 
ENDBRANCH   8  12
BRANCH  11  14
ATOM     14  C   UNL A   1      32.417  22.139  23.633  1.00  0.00     0.254 C 
ATOM     15  O   UNL A   1      32.572  22.543  22.483  1.00  0.00    -0.269 OA
BRANCH  14  16
ATOM     16  C   UNL A   1      32.504  20.681  23.915  1.00  0.00     0.046 A 
ATOM     17  C   UNL A   1      32.763  20.208  25.254  1.00  0.00     0.032 A 
ATOM     18  C   UNL A   1      32.396  19.821  22.893  1.00  0.00     0.085 A 
ATOM     19  C   UNL A   1      32.847  18.895  25.491  1.00  0.00     0.089 A 
ATOM     20  C   UNL A   1      32.473  18.360  23.148  1.00  0.00     0.251 A 
ATOM     21  N   UNL A   1      32.704  17.974  24.468  1.00  0.00    -0.319 N 
ATOM     22  O   UNL A   1      32.319  17.590  22.203  1.00  0.00    -0.269 OA
ATOM     23  C   UNL A   1      32.804  16.560  24.791  1.00  0.00     0.153 C 
ENDBRANCH  14  16
ENDBRANCH  11  14
ENDBRANCH   5   7
ENDBRANCH   4   5
ENDBRANCH   3   4
ENDBRANCH   2   3
ENDBRANCH   1   2
BRANCH   1  24
ATOM     24  C   UNL A   1      37.209  20.015  24.971  1.00  0.00     0.202 C 
BRANCH  24  25
ATOM     25  C   UNL A   1      38.608  19.472  25.287  1.00  0.00     0.261 C 
BRANCH  25  26
ATOM     26  O   UNL A   1      39.589  20.522  25.406  1.00  0.00    -0.460 OA
BRANCH  26  27
ATOM     27  C   UNL A   1      40.348  20.461  26.526  1.00  0.00     0.338 C 
ATOM     28  O   UNL A   1      40.947  19.486  26.964  1.00  0.00    -0.246 OA
BRANCH  27  29
ATOM     29  C   UNL A   1      40.529  21.802  27.105  1.00  0.00     0.060 A 
ATOM     30  C   UNL A   1      39.841  22.866  26.506  1.00  0.00     0.016 A 
ATOM     31  C   UNL A   1      41.452  22.037  28.126  1.00  0.00     0.016 A 
ATOM     32  C   UNL A   1      40.116  24.178  26.885  1.00  0.00     0.010 A 
ATOM     33  C   UNL A   1      41.734  23.356  28.498  1.00  0.00     0.010 A 
ATOM     34  C   UNL A   1      41.100  24.432  27.849  1.00  0.00    -0.014 A 
BRANCH  34  35
ATOM     35  C   UNL A   1      41.590  25.818  28.038  1.00  0.00     0.031 A 
ATOM     36  C   UNL A   1      42.947  26.189  27.499  1.00  0.00     0.074 A 
ATOM     37  C   UNL A   1      40.831  26.746  28.644  1.00  0.00     0.049 A 
ATOM     38  N   UNL A   1      43.594  27.322  27.585  1.00  0.00    -0.248 NA
ATOM     39  C   UNL A   1      43.667  25.136  26.764  1.00  0.00     0.031 C 
ATOM     40  C   UNL A   1      39.483  26.528  29.163  1.00  0.00     0.029 A 
ATOM     41  N   UNL A   1      41.095  28.063  28.927  1.00  0.00    -0.354 N 
ATOM     42  C   UNL A   1      44.799  27.117  26.923  1.00  0.00     0.074 A 
ATOM     43  C   UNL A   1      44.803  25.746  26.463  1.00  0.00     0.031 C 
ATOM     44  C   UNL A   1      39.041  27.672  29.716  1.00  0.00     0.029 A 
ATOM     45  C   UNL A   1      40.084  28.690  29.614  1.00  0.00     0.049 A 
ATOM     46  H   UNL A   1      41.929  28.515  28.664  1.00  0.00     0.167 HD
ATOM     47  C   UNL A   1      45.808  27.996  26.712  1.00  0.00     0.037 A 
ATOM     48  C   UNL A   1      40.022  29.936  30.121  1.00  0.00     0.037 A 
ATOM     49  C   UNL A   1      45.803  29.362  27.164  1.00  0.00     0.049 A 
ATOM     50  C   UNL A   1      41.186  30.872  29.936  1.00  0.00     0.074 A 
ATOM     51  C   UNL A   1      46.774  30.333  26.989  1.00  0.00     0.029 A 
ATOM     52  N   UNL A   1      44.775  29.949  27.884  1.00  0.00    -0.354 N 
ATOM     53  N   UNL A   1      42.316  30.674  29.302  1.00  0.00    -0.248 NA
ATOM     54  C   UNL A   1      41.065  32.210  30.537  1.00  0.00     0.031 C 
ATOM     55  C   UNL A   1      46.350  31.496  27.639  1.00  0.00     0.029 A 
ATOM     56  C   UNL A   1      45.097  31.263  28.180  1.00  0.00     0.049 A 
ATOM     57  H   UNL A   1      43.939  29.499  28.145  1.00  0.00     0.167 HD
ATOM     58  C   UNL A   1      43.027  31.864  29.404  1.00  0.00     0.074 A 
ATOM     59  C   UNL A   1      42.197  32.783  30.154  1.00  0.00     0.031 C 
ATOM     60  C   UNL A   1      44.254  32.169  28.918  1.00  0.00     0.037 A 
BRANCH  47  61
ATOM     61  C   UNL A   1      47.015  27.494  25.978  1.00  0.00     0.057 A 
ATOM     62  C   UNL A   1      47.118  27.571  24.583  1.00  0.00     0.134 A 
ATOM     63  C   UNL A   1      48.099  26.949  26.678  1.00  0.00     0.134 A 
ATOM     64  F   UNL A   1      46.108  28.068  23.853  1.00  0.00    -0.206 F 
ATOM     65  C   UNL A   1      48.249  27.106  23.910  1.00  0.00     0.040 A 
ATOM     66  C   UNL A   1      49.244  26.502  26.018  1.00  0.00     0.040 A 
ATOM     67  F   UNL A   1      48.063  26.848  28.016  1.00  0.00    -0.206 F 
ATOM     68  C   UNL A   1      49.319  26.575  24.628  1.00  0.00     0.006 A 
ENDBRANCH  47  61
BRANCH  48  69
ATOM     69  C   UNL A   1      38.820  30.371  30.874  1.00  0.00     0.057 A 
ATOM     70  C   UNL A   1      37.778  31.060  30.244  1.00  0.00     0.134 A 
ATOM     71  C   UNL A   1      38.695  30.126  32.248  1.00  0.00     0.134 A 
ATOM     72  F   UNL A   1      37.853  31.346  28.936  1.00  0.00    -0.206 F 
ATOM     73  C   UNL A   1      36.662  31.505  30.954  1.00  0.00     0.040 A 
ATOM     74  C   UNL A   1      37.574  30.544  32.966  1.00  0.00     0.040 A 
ATOM     75  F   UNL A   1      39.661  29.473  32.909  1.00  0.00    -0.206 F 
ATOM     76  C   UNL A   1      36.555  31.242  32.319  1.00  0.00     0.006 A 
ENDBRANCH  48  69
BRANCH  60  77
ATOM     77  C   UNL A   1      44.761  33.562  29.148  1.00  0.00     0.057 A 
ATOM     78  C   UNL A   1      45.557  33.886  30.253  1.00  0.00     0.134 A 
ATOM     79  C   UNL A   1      44.486  34.580  28.226  1.00  0.00     0.134 A 
ATOM     80  F   UNL A   1      45.847  32.958  31.179  1.00  0.00    -0.206 F 
ATOM     81  C   UNL A   1      46.048  35.179  30.443  1.00  0.00     0.040 A 
ATOM     82  C   UNL A   1      44.989  35.871  28.394  1.00  0.00     0.040 A 
ATOM     83  F   UNL A   1      43.737  34.332  27.142  1.00  0.00    -0.206 F 
ATOM     84  C   UNL A   1      45.769  36.174  29.507  1.00  0.00     0.006 A 
ENDBRANCH  60  77
ENDBRANCH  34  35
ENDBRANCH  27  29
ENDBRANCH  26  27
ENDBRANCH  25  26
ENDBRANCH  24  25
ENDBRANCH   1  24
TORSDOF 17
ENDMDL
MODEL 2
REMARK VINA RESULT:     -10.7      4.165      9.235
REMARK SMILES CO[C@@H]1C[C@H](C(=O)OCCOCCOC(=O)c2ccc(-c3c4nc(c(-c5c(F)cccc5F)c5ccc([nH]5)c(-c5c(F)cccc5F)c5nc(c(-c6c(F)cccc6F)c6ccc3[nH]6)C=C5)C=C4)cc2)N(C(=O)c2ccn(C)c(=O)c2)C1
REMARK SMILES IDX 11 1 10 2 9 3 8 4 6 5 7 6 5 7 3 8 4 9 82 10 71 11 2 12 1 13
REMARK SMILES IDX 72 14 73 15 74 16 75 17 81 18 76 19 79 20 77 21 80 22 78 23
REMARK SMILES IDX 12 24 13 25 14 26 15 27 16 28 17 29 18 30 70 31 19 32 69 33
REMARK SMILES IDX 20 34 21 35 22 36 63 37 23 38 68 39 62 40 64 41 24 42 67 43
REMARK SMILES IDX 61 44 60 45 25 47 51 48 34 49 50 50 35 51 38 52 49 53 65 54
REMARK SMILES IDX 36 55 37 56 48 58 66 59 39 60 26 61 27 62 32 63 28 64 29 65
REMARK SMILES IDX 31 66 33 67 30 68 52 69 53 70 58 71 54 72 55 73 57 74 59 75
REMARK SMILES IDX 56 76 40 77 41 78 46 79 42 80 43 81 45 82 47 83 44 84
REMARK H PARENT 64 46 38 57
REMARK Flexibility Score: inf
ROOT
ATOM      1  O   UNL A   1      32.194  30.915  26.655  1.00  0.00    -0.374 OA
ENDROOT
BRANCH   1   2
ATOM      2  C   UNL A   1      32.100  29.904  25.652  1.00  0.00     0.202 C 
BRANCH   2   3
ATOM      3  C   UNL A   1      33.347  29.047  25.435  1.00  0.00     0.261 C 
BRANCH   3   4
ATOM      4  O   UNL A   1      33.059  27.919  24.599  1.00  0.00    -0.462 OA
BRANCH   4   5
ATOM      5  C   UNL A   1      32.579  26.829  25.250  1.00  0.00     0.329 C 
ATOM      6  O   UNL A   1      32.914  26.505  26.385  1.00  0.00    -0.250 OA
BRANCH   5   7
ATOM      7  C   UNL A   1      31.517  26.056  24.445  1.00  0.00     0.198 C 
ATOM      8  C   UNL A   1      29.955  27.382  23.094  1.00  0.00     0.140 C 
ATOM      9  C   UNL A   1      30.097  26.628  24.425  1.00  0.00     0.071 C 
ATOM     10  C   UNL A   1      31.268  27.142  22.345  1.00  0.00     0.152 C 
ATOM     11  N   UNL A   1      31.915  26.050  23.041  1.00  0.00    -0.322 N 
BRANCH   8  12
ATOM     12  O   UNL A   1      29.753  28.773  23.329  1.00  0.00    -0.380 OA
ATOM     13  C   UNL A   1      30.183  29.573  22.233  1.00  0.00     0.195 C 
ENDBRANCH   8  12
BRANCH  11  14
ATOM     14  C   UNL A   1      32.887  25.292  22.428  1.00  0.00     0.254 C 
ATOM     15  O   UNL A   1      33.465  25.656  21.406  1.00  0.00    -0.269 OA
BRANCH  14  16
ATOM     16  C   UNL A   1      33.243  23.985  23.044  1.00  0.00     0.046 A 
ATOM     17  C   UNL A   1      32.377  22.842  22.886  1.00  0.00     0.032 A 
ATOM     18  C   UNL A   1      34.350  23.909  23.795  1.00  0.00     0.085 A 
ATOM     19  C   UNL A   1      32.705  21.676  23.452  1.00  0.00     0.089 A 
ATOM     20  C   UNL A   1      34.731  22.614  24.416  1.00  0.00     0.251 A 
ATOM     21  N   UNL A   1      33.859  21.547  24.205  1.00  0.00    -0.319 N 
ATOM     22  O   UNL A   1      35.778  22.556  25.056  1.00  0.00    -0.269 OA
ATOM     23  C   UNL A   1      34.161  20.252  24.793  1.00  0.00     0.153 C 
ENDBRANCH  14  16
ENDBRANCH  11  14
ENDBRANCH   5   7
ENDBRANCH   4   5
ENDBRANCH   3   4
ENDBRANCH   2   3
ENDBRANCH   1   2
BRANCH   1  24
ATOM     24  C   UNL A   1      31.314  32.038  26.569  1.00  0.00     0.202 C 
BRANCH  24  25
ATOM     25  C   UNL A   1      31.915  33.421  26.848  1.00  0.00     0.261 C 
BRANCH  25  26
ATOM     26  O   UNL A   1      32.374  33.555  28.208  1.00  0.00    -0.460 OA
BRANCH  26  27
ATOM     27  C   UNL A   1      33.483  34.318  28.358  1.00  0.00     0.338 C 
ATOM     28  O   UNL A   1      33.534  35.537  28.471  1.00  0.00    -0.246 OA
BRANCH  27  29
ATOM     29  C   UNL A   1      34.673  33.474  28.551  1.00  0.00     0.060 A 
ATOM     30  C   UNL A   1      34.471  32.152  28.967  1.00  0.00     0.016 A 
ATOM     31  C   UNL A   1      35.963  34.000  28.457  1.00  0.00     0.016 A 
ATOM     32  C   UNL A   1      35.555  31.365  29.348  1.00  0.00     0.010 A 
ATOM     33  C   UNL A   1      37.050  33.212  28.851  1.00  0.00     0.010 A 
ATOM     34  C   UNL A   1      36.847  31.908  29.338  1.00  0.00    -0.014 A 
BRANCH  34  35
ATOM     35  C   UNL A   1      37.947  31.176  30.010  1.00  0.00     0.031 A 
ATOM     36  C   UNL A   1      38.220  31.452  31.465  1.00  0.00     0.074 A 
ATOM     37  C   UNL A   1      38.669  30.253  29.353  1.00  0.00     0.049 A 
ATOM     38  N   UNL A   1      39.153  30.965  32.242  1.00  0.00    -0.248 NA
ATOM     39  C   UNL A   1      37.317  32.406  32.130  1.00  0.00     0.031 C 
ATOM     40  C   UNL A   1      38.471  29.858  27.961  1.00  0.00     0.029 A 
ATOM     41  N   UNL A   1      39.723  29.482  29.778  1.00  0.00    -0.354 N 
ATOM     42  C   UNL A   1      38.955  31.558  33.483  1.00  0.00     0.074 A 
ATOM     43  C   UNL A   1      37.830  32.458  33.349  1.00  0.00     0.031 C 
ATOM     44  C   UNL A   1      39.385  28.925  27.640  1.00  0.00     0.029 A 
ATOM     45  C   UNL A   1      40.247  28.680  28.795  1.00  0.00     0.049 A 
ATOM     46  H   UNL A   1      40.070  29.503  30.699  1.00  0.00     0.167 HD
ATOM     47  C   UNL A   1      39.644  31.364  34.633  1.00  0.00     0.037 A 
ATOM     48  C   UNL A   1      41.316  27.861  28.820  1.00  0.00     0.037 A 
ATOM     49  C   UNL A   1      40.759  30.466  34.770  1.00  0.00     0.049 A 
ATOM     50  C   UNL A   1      42.111  27.717  30.091  1.00  0.00     0.074 A 
ATOM     51  C   UNL A   1      41.515  30.194  35.897  1.00  0.00     0.029 A 
ATOM     52  N   UNL A   1      41.280  29.696  33.742  1.00  0.00    -0.354 N 
ATOM     53  N   UNL A   1      41.911  28.273  31.260  1.00  0.00    -0.248 NA
ATOM     54  C   UNL A   1      43.282  26.828  30.044  1.00  0.00     0.031 C 
ATOM     55  C   UNL A   1      42.520  29.288  35.540  1.00  0.00     0.029 A 
ATOM     56  C   UNL A   1      42.361  28.964  34.203  1.00  0.00     0.049 A 
ATOM     57  H   UNL A   1      40.933  29.672  32.821  1.00  0.00     0.167 HD
ATOM     58  C   UNL A   1      42.910  27.783  32.094  1.00  0.00     0.074 A 
ATOM     59  C   UNL A   1      43.711  26.878  31.297  1.00  0.00     0.031 C 
ATOM     60  C   UNL A   1      43.141  28.058  33.400  1.00  0.00     0.037 A 
BRANCH  47  61
ATOM     61  C   UNL A   1      39.223  32.163  35.831  1.00  0.00     0.057 A 
ATOM     62  C   UNL A   1      38.345  31.646  36.793  1.00  0.00     0.134 A 
ATOM     63  C   UNL A   1      39.721  33.455  36.036  1.00  0.00     0.134 A 
ATOM     64  F   UNL A   1      37.821  30.420  36.646  1.00  0.00    -0.206 F 
ATOM     65  C   UNL A   1      37.964  32.395  37.907  1.00  0.00     0.040 A 
ATOM     66  C   UNL A   1      39.364  34.205  37.157  1.00  0.00     0.040 A 
ATOM     67  F   UNL A   1      40.566  34.007  35.152  1.00  0.00    -0.206 F 
ATOM     68  C   UNL A   1      38.479  33.677  38.095  1.00  0.00     0.006 A 
ENDBRANCH  47  61
BRANCH  48  69
ATOM     69  C   UNL A   1      41.715  27.124  27.596  1.00  0.00     0.057 A 
ATOM     70  C   UNL A   1      41.320  25.798  27.385  1.00  0.00     0.134 A 
ATOM     71  C   UNL A   1      42.521  27.721  26.619  1.00  0.00     0.134 A 
ATOM     72  F   UNL A   1      40.569  25.165  28.298  1.00  0.00    -0.206 F 
ATOM     73  C   UNL A   1      41.722  25.087  26.254  1.00  0.00     0.040 A 
ATOM     74  C   UNL A   1      42.912  27.030  25.471  1.00  0.00     0.040 A 
ATOM     75  F   UNL A   1      42.935  28.988  26.765  1.00  0.00    -0.206 F 
ATOM     76  C   UNL A   1      42.517  25.705  25.290  1.00  0.00     0.006 A 
ENDBRANCH  48  69
BRANCH  60  77
ATOM     77  C   UNL A   1      44.282  27.343  34.063  1.00  0.00     0.057 A 
ATOM     78  C   UNL A   1      45.565  27.900  34.129  1.00  0.00     0.134 A 
ATOM     79  C   UNL A   1      44.081  26.104  34.684  1.00  0.00     0.134 A 
ATOM     80  F   UNL A   1      45.826  29.079  33.544  1.00  0.00    -0.206 F 
ATOM     81  C   UNL A   1      46.613  27.240  34.773  1.00  0.00     0.040 A 
ATOM     82  C   UNL A   1      45.115  25.445  35.350  1.00  0.00     0.040 A 
ATOM     83  F   UNL A   1      42.873  25.521  34.664  1.00  0.00    -0.206 F 
ATOM     84  C   UNL A   1      46.386  26.011  35.392  1.00  0.00     0.006 A 
ENDBRANCH  60  77
ENDBRANCH  34  35
ENDBRANCH  27  29
ENDBRANCH  26  27
ENDBRANCH  25  26
ENDBRANCH  24  25
ENDBRANCH   1  24
TORSDOF 17
ENDMDL
MODEL 3
REMARK VINA RESULT:     -10.6      1.839      7.353
REMARK SMILES CO[C@@H]1C[C@H](C(=O)OCCOCCOC(=O)c2ccc(-c3c4nc(c(-c5c(F)cccc5F)c5ccc([nH]5)c(-c5c(F)cccc5F)c5nc(c(-c6c(F)cccc6F)c6ccc3[nH]6)C=C5)C=C4)cc2)N(C(=O)c2ccn(C)c(=O)c2)C1
REMARK SMILES IDX 11 1 10 2 9 3 8 4 6 5 7 6 5 7 3 8 4 9 82 10 71 11 2 12 1 13
REMARK SMILES IDX 72 14 73 15 74 16 75 17 81 18 76 19 79 20 77 21 80 22 78 23
REMARK SMILES IDX 12 24 13 25 14 26 15 27 16 28 17 29 18 30 70 31 19 32 69 33
REMARK SMILES IDX 20 34 21 35 22 36 63 37 23 38 68 39 62 40 64 41 24 42 67 43
REMARK SMILES IDX 61 44 60 45 25 47 51 48 34 49 50 50 35 51 38 52 49 53 65 54
REMARK SMILES IDX 36 55 37 56 48 58 66 59 39 60 26 61 27 62 32 63 28 64 29 65
REMARK SMILES IDX 31 66 33 67 30 68 52 69 53 70 58 71 54 72 55 73 57 74 59 75
REMARK SMILES IDX 56 76 40 77 41 78 46 79 42 80 43 81 45 82 47 83 44 84
REMARK H PARENT 64 46 38 57
REMARK Flexibility Score: inf
ROOT
ATOM      1  O   UNL A   1      35.590  20.564  25.343  1.00  0.00    -0.374 OA
ENDROOT
BRANCH   1   2
ATOM      2  C   UNL A   1      34.179  20.531  25.138  1.00  0.00     0.202 C 
BRANCH   2   3
ATOM      3  C   UNL A   1      33.330  21.316  26.138  1.00  0.00     0.261 C 
BRANCH   3   4
ATOM      4  O   UNL A   1      32.813  22.516  25.547  1.00  0.00    -0.462 OA
BRANCH   4   5
ATOM      5  C   UNL A   1      32.631  23.549  26.409  1.00  0.00     0.329 C 
ATOM      6  O   UNL A   1      31.785  23.560  27.297  1.00  0.00    -0.250 OA
BRANCH   5   7
ATOM      7  C   UNL A   1      33.636  24.699  26.203  1.00  0.00     0.198 C 
ATOM      8  C   UNL A   1      34.625  24.933  23.969  1.00  0.00     0.140 C 
ATOM      9  C   UNL A   1      34.893  24.395  25.384  1.00  0.00     0.071 C 
ATOM     10  C   UNL A   1      33.256  25.614  24.043  1.00  0.00     0.152 C 
ATOM     11  N   UNL A   1      32.974  25.762  25.455  1.00  0.00    -0.322 N 
BRANCH   8  12
ATOM     12  O   UNL A   1      34.609  23.865  23.026  1.00  0.00    -0.380 OA
ATOM     13  C   UNL A   1      35.794  23.079  23.082  1.00  0.00     0.195 C 
ENDBRANCH   8  12
BRANCH  11  14
ATOM     14  C   UNL A   1      32.057  26.685  25.904  1.00  0.00     0.254 C 
ATOM     15  O   UNL A   1      30.850  26.457  25.940  1.00  0.00    -0.269 OA
BRANCH  14  16
ATOM     16  C   UNL A   1      32.566  28.005  26.365  1.00  0.00     0.046 A 
ATOM     17  C   UNL A   1      33.915  28.136  26.860  1.00  0.00     0.032 A 
ATOM     18  C   UNL A   1      31.730  29.052  26.367  1.00  0.00     0.085 A 
ATOM     19  C   UNL A   1      34.357  29.326  27.280  1.00  0.00     0.089 A 
ATOM     20  C   UNL A   1      32.216  30.382  26.817  1.00  0.00     0.251 A 
ATOM     21  N   UNL A   1      33.535  30.439  27.262  1.00  0.00    -0.319 N 
ATOM     22  O   UNL A   1      31.446  31.338  26.760  1.00  0.00    -0.269 OA
ATOM     23  C   UNL A   1      34.076  31.706  27.730  1.00  0.00     0.153 C 
ENDBRANCH  14  16
ENDBRANCH  11  14
ENDBRANCH   5   7
ENDBRANCH   4   5
ENDBRANCH   3   4
ENDBRANCH   2   3
ENDBRANCH   1   2
BRANCH   1  24
ATOM     24  C   UNL A   1      36.360  19.430  24.939  1.00  0.00     0.202 C 
BRANCH  24  25
ATOM     25  C   UNL A   1      37.872  19.631  24.778  1.00  0.00     0.261 C 
BRANCH  25  26
ATOM     26  O   UNL A   1      38.341  20.820  25.444  1.00  0.00    -0.460 OA
BRANCH  26  27
ATOM     27  C   UNL A   1      39.502  20.667  26.123  1.00  0.00     0.338 C 
ATOM     28  O   UNL A   1      40.235  19.685  26.125  1.00  0.00    -0.246 OA
BRANCH  27  29
ATOM     29  C   UNL A   1      39.904  21.932  26.759  1.00  0.00     0.060 A 
ATOM     30  C   UNL A   1      39.309  23.111  26.291  1.00  0.00     0.016 A 
ATOM     31  C   UNL A   1      40.936  21.980  27.698  1.00  0.00     0.016 A 
ATOM     32  C   UNL A   1      39.783  24.350  26.718  1.00  0.00     0.010 A 
ATOM     33  C   UNL A   1      41.418  23.226  28.117  1.00  0.00     0.010 A 
ATOM     34  C   UNL A   1      40.873  24.414  27.595  1.00  0.00    -0.014 A 
BRANCH  34  35
ATOM     35  C   UNL A   1      41.552  25.713  27.817  1.00  0.00     0.031 A 
ATOM     36  C   UNL A   1      40.820  26.795  28.567  1.00  0.00     0.074 A 
ATOM     37  C   UNL A   1      42.810  25.919  27.396  1.00  0.00     0.049 A 
ATOM     38  N   UNL A   1      41.197  28.017  28.839  1.00  0.00    -0.248 NA
ATOM     39  C   UNL A   1      39.483  26.448  29.077  1.00  0.00     0.031 C 
ATOM     40  C   UNL A   1      43.642  24.937  26.706  1.00  0.00     0.029 A 
ATOM     41  N   UNL A   1      43.606  27.034  27.487  1.00  0.00    -0.354 N 
ATOM     42  C   UNL A   1      40.144  28.587  29.544  1.00  0.00     0.074 A 
ATOM     43  C   UNL A   1      39.103  27.586  29.636  1.00  0.00     0.031 C 
ATOM     44  C   UNL A   1      44.832  25.499  26.422  1.00  0.00     0.029 A 
ATOM     45  C   UNL A   1      44.831  26.885  26.885  1.00  0.00     0.049 A 
ATOM     46  H   UNL A   1      43.325  27.862  27.939  1.00  0.00     0.167 HD
ATOM     47  C   UNL A   1      40.054  29.831  30.073  1.00  0.00     0.037 A 
ATOM     48  C   UNL A   1      45.827  27.775  26.710  1.00  0.00     0.037 A 
ATOM     49  C   UNL A   1      41.089  30.826  29.987  1.00  0.00     0.049 A 
ATOM     50  C   UNL A   1      45.675  29.174  27.244  1.00  0.00     0.074 A 
ATOM     51  C   UNL A   1      41.096  32.111  30.501  1.00  0.00     0.029 A 
ATOM     52  N   UNL A   1      42.302  30.646  29.342  1.00  0.00    -0.354 N 
ATOM     53  N   UNL A   1      44.680  29.700  27.917  1.00  0.00    -0.248 NA
ATOM     54  C   UNL A   1      46.787  30.104  26.995  1.00  0.00     0.031 C 
ATOM     55  C   UNL A   1      42.298  32.723  30.131  1.00  0.00     0.029 A 
ATOM     56  C   UNL A   1      43.057  31.804  29.425  1.00  0.00     0.049 A 
ATOM     57  H   UNL A   1      42.586  29.818  28.891  1.00  0.00     0.167 HD
ATOM     58  C   UNL A   1      45.056  31.010  28.194  1.00  0.00     0.074 A 
ATOM     59  C   UNL A   1      46.374  31.195  27.624  1.00  0.00     0.031 C 
ATOM     60  C   UNL A   1      44.373  31.969  28.862  1.00  0.00     0.037 A 
BRANCH  47  61
ATOM     61  C   UNL A   1      38.777  30.191  30.772  1.00  0.00     0.057 A 
ATOM     62  C   UNL A   1      37.710  30.796  30.095  1.00  0.00     0.134 A 
ATOM     63  C   UNL A   1      38.603  29.906  32.131  1.00  0.00     0.134 A 
ATOM     64  F   UNL A   1      37.819  31.110  28.795  1.00  0.00    -0.206 F 
ATOM     65  C   UNL A   1      36.523  31.123  30.753  1.00  0.00     0.040 A 
ATOM     66  C   UNL A   1      37.413  30.206  32.794  1.00  0.00     0.040 A 
ATOM     67  F   UNL A   1      39.587  29.325  32.836  1.00  0.00    -0.206 F 
ATOM     68  C   UNL A   1      36.370  30.822  32.105  1.00  0.00     0.006 A 
ENDBRANCH  47  61
BRANCH  48  69
ATOM     69  C   UNL A   1      47.054  27.379  25.976  1.00  0.00     0.057 A 
ATOM     70  C   UNL A   1      47.152  27.533  24.588  1.00  0.00     0.134 A 
ATOM     71  C   UNL A   1      48.149  26.816  26.642  1.00  0.00     0.134 A 
ATOM     72  F   UNL A   1      46.124  28.043  23.893  1.00  0.00    -0.206 F 
ATOM     73  C   UNL A   1      48.287  27.129  23.886  1.00  0.00     0.040 A 
ATOM     74  C   UNL A   1      49.301  26.428  25.956  1.00  0.00     0.040 A 
ATOM     75  F   UNL A   1      48.115  26.639  27.970  1.00  0.00    -0.206 F 
ATOM     76  C   UNL A   1      49.370  26.579  24.572  1.00  0.00     0.006 A 
ENDBRANCH  48  69
BRANCH  60  77
ATOM     77  C   UNL A   1      45.050  33.296  29.048  1.00  0.00     0.057 A 
ATOM     78  C   UNL A   1      44.852  34.357  28.158  1.00  0.00     0.134 A 
ATOM     79  C   UNL A   1      45.872  33.525  30.158  1.00  0.00     0.134 A 
ATOM     80  F   UNL A   1      44.085  34.199  27.068  1.00  0.00    -0.206 F 
ATOM     81  C   UNL A   1      45.464  35.597  28.355  1.00  0.00     0.040 A 
ATOM     82  C   UNL A   1      46.471  34.766  30.379  1.00  0.00     0.040 A 
ATOM     83  F   UNL A   1      46.094  32.551  31.054  1.00  0.00    -0.206 F 
ATOM     84  C   UNL A   1      46.271  35.804  29.473  1.00  0.00     0.006 A 
ENDBRANCH  60  77
ENDBRANCH  34  35
ENDBRANCH  27  29
ENDBRANCH  26  27
ENDBRANCH  25  26
ENDBRANCH  24  25
ENDBRANCH   1  24
TORSDOF 17
ENDMDL
