MODEL 1
REMARK VINA RESULT:     -11.9      0.000      0.000
REMARK SMILES Cc1ccnc(C(=O)c2[nH]c3ccc(F)cc3c2CC(=O)OCCOCCOC(=O)c2ccc(-c3c4nc(c(-c5c(F)cccc5F)c5ccc([nH]5)c(-c5c(F)cccc5F)c5nc(c(-c6c(F)cccc6F)c6ccc3[nH]6)C=C5)C=C4)cc2)c1
REMARK SMILES IDX 24 1 23 2 22 3 20 4 21 5 19 6 18 7 9 8 10 9 11 10 17 12
REMARK SMILES IDX 12 13 16 14 13 15 14 16 15 17 7 18 8 19 6 20 1 21 2 22 3 23
REMARK SMILES IDX 85 24 4 25 5 26 25 27 26 28 27 29 28 30 29 31 30 32 31 33
REMARK SMILES IDX 32 34 84 35 33 36 83 37 34 38 35 39 36 40 77 41 37 42 82 43
REMARK SMILES IDX 76 44 78 45 38 46 81 47 75 48 74 49 39 51 65 52 48 53 64 54
REMARK SMILES IDX 49 55 52 56 63 57 79 58 50 59 51 60 62 62 80 63 53 64 40 65
REMARK SMILES IDX 41 66 46 67 42 68 43 69 45 70 47 71 44 72 66 73 67 74 72 75
REMARK SMILES IDX 68 76 69 77 71 78 73 79 70 80 54 81 55 82 60 83 56 84 57 85
REMARK SMILES IDX 59 86 61 87 58 88
REMARK H PARENT 10 11 78 50 52 61
REMARK Flexibility Score: inf
ROOT
ATOM      1  C   UNL A   1      36.105  22.175  24.751  1.00  0.00     0.202 C 
ENDROOT
BRANCH   1   2
ATOM      2  C   UNL A   1      35.635  23.388  23.910  1.00  0.00     0.261 C 
BRANCH   2   3
ATOM      3  O   UNL A   1      34.698  23.046  22.864  1.00  0.00    -0.463 OA
BRANCH   3   4
ATOM      4  C   UNL A   1      33.592  23.846  22.760  1.00  0.00     0.310 C 
ATOM      5  O   UNL A   1      33.622  25.023  22.420  1.00  0.00    -0.252 OA
BRANCH   4   6
ATOM      6  C   UNL A   1      32.302  23.143  23.139  1.00  0.00     0.161 C 
BRANCH   6   7
ATOM      7  C   UNL A   1      32.402  22.091  24.213  1.00  0.00     0.000 A 
ATOM      8  C   UNL A   1      32.437  22.227  25.610  1.00  0.00     0.093 A 
ATOM      9  N   UNL A   1      32.803  20.968  26.084  1.00  0.00    -0.352 N 
ATOM     10  C   UNL A   1      32.679  19.997  25.122  1.00  0.00     0.046 A 
ATOM     11  H   UNL A   1      33.115  20.795  27.001  1.00  0.00     0.167 HD
ATOM     12  C   UNL A   1      32.468  20.665  23.921  1.00  0.00     0.007 A 
ATOM     13  C   UNL A   1      32.702  18.596  25.239  1.00  0.00     0.030 A 
ATOM     14  C   UNL A   1      32.317  19.882  22.753  1.00  0.00     0.049 A 
ATOM     15  C   UNL A   1      32.489  17.848  24.079  1.00  0.00     0.041 A 
ATOM     16  C   UNL A   1      32.311  18.488  22.860  1.00  0.00     0.123 A 
ATOM     17  F   UNL A   1      32.101  17.748  21.762  1.00  0.00    -0.207 F 
BRANCH   8  18
ATOM     18  C   UNL A   1      32.331  23.296  26.620  1.00  0.00     0.227 C 
ATOM     19  O   UNL A   1      32.241  22.931  27.798  1.00  0.00    -0.285 OA
BRANCH  18  20
ATOM     20  C   UNL A   1      32.129  24.793  26.384  1.00  0.00     0.113 A 
ATOM     21  C   UNL A   1      33.809  27.973  25.084  1.00  0.00     0.044 C 
ATOM     22  C   UNL A   1      32.766  26.984  25.530  1.00  0.00    -0.047 A 
ATOM     23  C   UNL A   1      31.423  27.342  25.514  1.00  0.00     0.023 A 
ATOM     24  C   UNL A   1      33.113  25.696  25.985  1.00  0.00     0.036 A 
ATOM     25  C   UNL A   1      30.500  26.402  25.932  1.00  0.00     0.112 A 
ATOM     26  N   UNL A   1      30.817  25.160  26.365  1.00  0.00    -0.253 NA
ENDBRANCH  18  20
ENDBRANCH   8  18
ENDBRANCH   6   7
ENDBRANCH   4   6
ENDBRANCH   3   4
ENDBRANCH   2   3
ENDBRANCH   1   2
BRANCH   1  27
ATOM     27  O   UNL A   1      37.243  21.435  24.270  1.00  0.00    -0.374 OA
BRANCH  27  28
ATOM     28  C   UNL A   1      37.339  20.167  24.916  1.00  0.00     0.202 C 
BRANCH  28  29
ATOM     29  C   UNL A   1      38.726  19.561  25.125  1.00  0.00     0.261 C 
BRANCH  29  30
ATOM     30  O   UNL A   1      39.452  20.232  26.107  1.00  0.00    -0.460 OA
BRANCH  30  31
ATOM     31  C   UNL A   1      40.763  19.912  26.178  1.00  0.00     0.338 C 
ATOM     32  O   UNL A   1      41.356  18.973  25.715  1.00  0.00    -0.246 OA
BRANCH  31  33
ATOM     33  C   UNL A   1      41.301  21.176  26.678  1.00  0.00     0.060 A 
ATOM     34  C   UNL A   1      41.834  21.200  27.967  1.00  0.00     0.016 A 
ATOM     35  C   UNL A   1      41.533  22.193  25.740  1.00  0.00     0.016 A 
ATOM     36  C   UNL A   1      42.625  22.276  28.325  1.00  0.00     0.010 A 
ATOM     37  C   UNL A   1      42.405  23.196  26.057  1.00  0.00     0.010 A 
ATOM     38  C   UNL A   1      42.895  23.262  27.367  1.00  0.00    -0.014 A 
BRANCH  38  39
ATOM     39  C   UNL A   1      43.467  24.549  27.746  1.00  0.00     0.031 A 
ATOM     40  C   UNL A   1      42.483  25.590  28.178  1.00  0.00     0.074 A 
ATOM     41  C   UNL A   1      44.772  24.773  27.558  1.00  0.00     0.049 A 
ATOM     42  N   UNL A   1      42.656  26.868  28.348  1.00  0.00    -0.248 NA
ATOM     43  C   UNL A   1      41.091  25.135  28.377  1.00  0.00     0.031 C 
ATOM     44  C   UNL A   1      45.750  23.788  27.093  1.00  0.00     0.029 A 
ATOM     45  N   UNL A   1      45.488  25.922  27.706  1.00  0.00    -0.354 N 
ATOM     46  C   UNL A   1      41.394  27.367  28.640  1.00  0.00     0.074 A 
ATOM     47  C   UNL A   1      40.453  26.278  28.549  1.00  0.00     0.031 C 
ATOM     48  C   UNL A   1      46.951  24.382  26.998  1.00  0.00     0.029 A 
ATOM     49  C   UNL A   1      46.805  25.789  27.356  1.00  0.00     0.049 A 
ATOM     50  H   UNL A   1      45.097  26.765  28.033  1.00  0.00     0.167 HD
ATOM     51  C   UNL A   1      41.066  28.629  28.984  1.00  0.00     0.037 A 
ATOM     52  C   UNL A   1      47.765  26.729  27.324  1.00  0.00     0.037 A 
ATOM     53  C   UNL A   1      42.048  29.671  29.081  1.00  0.00     0.049 A 
ATOM     54  C   UNL A   1      47.381  28.127  27.729  1.00  0.00     0.074 A 
ATOM     55  C   UNL A   1      41.883  30.985  29.466  1.00  0.00     0.029 A 
ATOM     56  N   UNL A   1      43.395  29.495  28.783  1.00  0.00    -0.354 N 
ATOM     57  N   UNL A   1      46.200  28.595  28.066  1.00  0.00    -0.248 NA
ATOM     58  C   UNL A   1      48.456  29.122  27.760  1.00  0.00     0.031 C 
ATOM     59  C   UNL A   1      43.127  31.615  29.363  1.00  0.00     0.029 A 
ATOM     60  C   UNL A   1      44.076  30.681  28.964  1.00  0.00     0.049 A 
ATOM     61  H   UNL A   1      43.803  28.649  28.489  1.00  0.00     0.167 HD
ATOM     62  C   UNL A   1      46.392  29.934  28.376  1.00  0.00     0.074 A 
ATOM     63  C   UNL A   1      47.809  30.193  28.197  1.00  0.00     0.031 C 
ATOM     64  C   UNL A   1      45.492  30.870  28.771  1.00  0.00     0.037 A 
BRANCH  51  65
ATOM     65  C   UNL A   1      39.620  28.914  29.258  1.00  0.00     0.057 A 
ATOM     66  C   UNL A   1      39.058  28.749  30.534  1.00  0.00     0.134 A 
ATOM     67  C   UNL A   1      38.765  29.317  28.227  1.00  0.00     0.134 A 
ATOM     68  F   UNL A   1      39.812  28.331  31.561  1.00  0.00    -0.206 F 
ATOM     69  C   UNL A   1      37.694  28.943  30.765  1.00  0.00     0.040 A 
ATOM     70  C   UNL A   1      37.406  29.547  28.452  1.00  0.00     0.040 A 
ATOM     71  F   UNL A   1      39.230  29.480  26.980  1.00  0.00    -0.206 F 
ATOM     72  C   UNL A   1      36.866  29.351  29.722  1.00  0.00     0.006 A 
ENDBRANCH  51  65
BRANCH  52  73
ATOM     73  C   UNL A   1      49.148  26.364  26.941  1.00  0.00     0.057 A 
ATOM     74  C   UNL A   1      50.050  25.873  27.893  1.00  0.00     0.134 A 
ATOM     75  C   UNL A   1      49.595  26.454  25.617  1.00  0.00     0.134 A 
ATOM     76  F   UNL A   1      49.684  25.765  29.177  1.00  0.00    -0.206 F 
ATOM     77  C   UNL A   1      51.351  25.502  27.546  1.00  0.00     0.040 A 
ATOM     78  C   UNL A   1      50.885  26.066  25.252  1.00  0.00     0.040 A 
ATOM     79  F   UNL A   1      48.774  26.897  24.654  1.00  0.00    -0.206 F 
ATOM     80  C   UNL A   1      51.770  25.593  26.220  1.00  0.00     0.006 A 
ENDBRANCH  52  73
BRANCH  64  81
ATOM     81  C   UNL A   1      46.034  32.235  29.065  1.00  0.00     0.057 A 
ATOM     82  C   UNL A   1      46.591  32.555  30.309  1.00  0.00     0.134 A 
ATOM     83  C   UNL A   1      46.045  33.219  28.069  1.00  0.00     0.134 A 
ATOM     84  F   UNL A   1      46.598  31.654  31.303  1.00  0.00    -0.206 F 
ATOM     85  C   UNL A   1      47.119  33.820  30.561  1.00  0.00     0.040 A 
ATOM     86  C   UNL A   1      46.599  34.476  28.299  1.00  0.00     0.040 A 
ATOM     87  F   UNL A   1      45.540  32.965  26.852  1.00  0.00    -0.206 F 
ATOM     88  C   UNL A   1      47.130  34.781  29.551  1.00  0.00     0.006 A 
ENDBRANCH  64  81
ENDBRANCH  38  39
ENDBRANCH  31  33
ENDBRANCH  30  31
ENDBRANCH  29  30
ENDBRANCH  28  29
ENDBRANCH  27  28
ENDBRANCH   1  27
TORSDOF 17
ENDMDL
MODEL 2
REMARK VINA RESULT:     -11.9      4.975      9.826
REMARK SMILES Cc1ccnc(C(=O)c2[nH]c3ccc(F)cc3c2CC(=O)OCCOCCOC(=O)c2ccc(-c3c4nc(c(-c5c(F)cccc5F)c5ccc([nH]5)c(-c5c(F)cccc5F)c5nc(c(-c6c(F)cccc6F)c6ccc3[nH]6)C=C5)C=C4)cc2)c1
REMARK SMILES IDX 24 1 23 2 22 3 20 4 21 5 19 6 18 7 9 8 10 9 11 10 17 12
REMARK SMILES IDX 12 13 16 14 13 15 14 16 15 17 7 18 8 19 6 20 1 21 2 22 3 23
REMARK SMILES IDX 85 24 4 25 5 26 25 27 26 28 27 29 28 30 29 31 30 32 31 33
REMARK SMILES IDX 32 34 84 35 33 36 83 37 34 38 35 39 36 40 77 41 37 42 82 43
REMARK SMILES IDX 76 44 78 45 38 46 81 47 75 48 74 49 39 51 65 52 48 53 64 54
REMARK SMILES IDX 49 55 52 56 63 57 79 58 50 59 51 60 62 62 80 63 53 64 40 65
REMARK SMILES IDX 41 66 46 67 42 68 43 69 45 70 47 71 44 72 66 73 67 74 72 75
REMARK SMILES IDX 68 76 69 77 71 78 73 79 70 80 54 81 55 82 60 83 56 84 57 85
REMARK SMILES IDX 59 86 61 87 58 88
REMARK H PARENT 10 11 78 50 52 61
REMARK Flexibility Score: inf
ROOT
ATOM      1  C   UNL A   1      31.734  28.768  27.055  1.00  0.00     0.202 C 
ENDROOT
BRANCH   1   2
ATOM      2  C   UNL A   1      32.097  27.315  26.661  1.00  0.00     0.261 C 
BRANCH   2   3
ATOM      3  O   UNL A   1      30.955  26.437  26.549  1.00  0.00    -0.463 OA
BRANCH   3   4
ATOM      4  C   UNL A   1      31.157  25.269  25.865  1.00  0.00     0.310 C 
ATOM      5  O   UNL A   1      31.858  24.348  26.267  1.00  0.00    -0.252 OA
BRANCH   4   6
ATOM      6  C   UNL A   1      30.446  25.224  24.526  1.00  0.00     0.161 C 
BRANCH   6   7
ATOM      7  C   UNL A   1      30.729  26.361  23.578  1.00  0.00     0.000 A 
ATOM      8  C   UNL A   1      31.876  26.636  22.815  1.00  0.00     0.093 A 
ATOM      9  N   UNL A   1      31.688  27.935  22.343  1.00  0.00    -0.352 N 
ATOM     10  C   UNL A   1      30.390  28.354  22.482  1.00  0.00     0.046 A 
ATOM     11  H   UNL A   1      32.405  28.487  21.956  1.00  0.00     0.167 HD
ATOM     12  C   UNL A   1      29.762  27.411  23.289  1.00  0.00     0.007 A 
ATOM     13  C   UNL A   1      29.730  29.465  21.927  1.00  0.00     0.030 A 
ATOM     14  C   UNL A   1      28.398  27.618  23.599  1.00  0.00     0.049 A 
ATOM     15  C   UNL A   1      28.368  29.610  22.201  1.00  0.00     0.041 A 
ATOM     16  C   UNL A   1      27.725  28.705  23.032  1.00  0.00     0.123 A 
ATOM     17  F   UNL A   1      26.415  28.861  23.274  1.00  0.00    -0.207 F 
BRANCH   8  18
ATOM     18  C   UNL A   1      33.181  26.018  22.517  1.00  0.00     0.227 C 
ATOM     19  O   UNL A   1      33.798  26.478  21.551  1.00  0.00    -0.285 OA
BRANCH  18  20
ATOM     20  C   UNL A   1      33.784  24.757  23.135  1.00  0.00     0.113 A 
ATOM     21  C   UNL A   1      35.961  23.451  25.997  1.00  0.00     0.044 C 
ATOM     22  C   UNL A   1      34.981  23.514  24.857  1.00  0.00    -0.047 A 
ATOM     23  C   UNL A   1      34.336  22.357  24.435  1.00  0.00     0.023 A 
ATOM     24  C   UNL A   1      34.703  24.720  24.183  1.00  0.00     0.036 A 
ATOM     25  C   UNL A   1      33.444  22.461  23.385  1.00  0.00     0.112 A 
ATOM     26  N   UNL A   1      33.162  23.613  22.733  1.00  0.00    -0.253 NA
ENDBRANCH  18  20
ENDBRANCH   8  18
ENDBRANCH   6   7
ENDBRANCH   4   6
ENDBRANCH   3   4
ENDBRANCH   2   3
ENDBRANCH   1   2
BRANCH   1  27
ATOM     27  O   UNL A   1      32.367  29.834  26.321  1.00  0.00    -0.374 OA
BRANCH  27  28
ATOM     28  C   UNL A   1      31.424  30.844  25.969  1.00  0.00     0.202 C 
BRANCH  28  29
ATOM     29  C   UNL A   1      31.567  32.226  26.606  1.00  0.00     0.261 C 
BRANCH  29  30
ATOM     30  O   UNL A   1      32.567  32.258  27.575  1.00  0.00    -0.460 OA
BRANCH  30  31
ATOM     31  C   UNL A   1      33.034  33.488  27.884  1.00  0.00     0.338 C 
ATOM     32  O   UNL A   1      32.453  34.539  27.960  1.00  0.00    -0.246 OA
BRANCH  31  33
ATOM     33  C   UNL A   1      34.348  33.130  28.413  1.00  0.00     0.060 A 
ATOM     34  C   UNL A   1      35.401  34.028  28.228  1.00  0.00     0.016 A 
ATOM     35  C   UNL A   1      34.404  32.072  29.334  1.00  0.00     0.016 A 
ATOM     36  C   UNL A   1      36.542  33.860  28.989  1.00  0.00     0.010 A 
ATOM     37  C   UNL A   1      35.486  31.977  30.164  1.00  0.00     0.010 A 
ATOM     38  C   UNL A   1      36.572  32.833  29.942  1.00  0.00    -0.014 A 
BRANCH  38  39
ATOM     39  C   UNL A   1      37.822  32.416  30.566  1.00  0.00     0.031 A 
ATOM     40  C   UNL A   1      38.502  31.246  29.929  1.00  0.00     0.074 A 
ATOM     41  C   UNL A   1      38.208  32.981  31.716  1.00  0.00     0.049 A 
ATOM     42  N   UNL A   1      39.480  30.514  30.378  1.00  0.00    -0.248 NA
ATOM     43  C   UNL A   1      37.953  30.794  28.632  1.00  0.00     0.031 C 
ATOM     44  C   UNL A   1      37.537  34.096  32.387  1.00  0.00     0.029 A 
ATOM     45  N   UNL A   1      39.247  32.662  32.537  1.00  0.00    -0.354 N 
ATOM     46  C   UNL A   1      39.637  29.506  29.437  1.00  0.00     0.074 A 
ATOM     47  C   UNL A   1      38.612  29.667  28.436  1.00  0.00     0.031 C 
ATOM     48  C   UNL A   1      38.192  34.372  33.527  1.00  0.00     0.029 A 
ATOM     49  C   UNL A   1      39.294  33.426  33.672  1.00  0.00     0.049 A 
ATOM     50  H   UNL A   1      39.899  31.954  32.333  1.00  0.00     0.167 HD
ATOM     51  C   UNL A   1      40.585  28.546  29.409  1.00  0.00     0.037 A 
ATOM     52  C   UNL A   1      40.143  33.337  34.710  1.00  0.00     0.037 A 
ATOM     53  C   UNL A   1      41.596  28.445  30.421  1.00  0.00     0.049 A 
ATOM     54  C   UNL A   1      41.203  32.270  34.649  1.00  0.00     0.074 A 
ATOM     55  C   UNL A   1      42.653  27.564  30.506  1.00  0.00     0.029 A 
ATOM     56  N   UNL A   1      41.663  29.277  31.534  1.00  0.00    -0.354 N 
ATOM     57  N   UNL A   1      41.397  31.348  33.733  1.00  0.00    -0.248 NA
ATOM     58  C   UNL A   1      42.165  32.235  35.753  1.00  0.00     0.031 C 
ATOM     59  C   UNL A   1      43.338  27.838  31.694  1.00  0.00     0.029 A 
ATOM     60  C   UNL A   1      42.739  28.923  32.322  1.00  0.00     0.049 A 
ATOM     61  H   UNL A   1      41.037  30.011  31.730  1.00  0.00     0.167 HD
ATOM     62  C   UNL A   1      42.519  30.638  34.133  1.00  0.00     0.074 A 
ATOM     63  C   UNL A   1      42.967  31.250  35.371  1.00  0.00     0.031 C 
ATOM     64  C   UNL A   1      43.132  29.579  33.545  1.00  0.00     0.037 A 
BRANCH  51  65
ATOM     65  C   UNL A   1      40.540  27.570  28.273  1.00  0.00     0.057 A 
ATOM     66  C   UNL A   1      39.823  26.366  28.353  1.00  0.00     0.134 A 
ATOM     67  C   UNL A   1      41.257  27.812  27.096  1.00  0.00     0.134 A 
ATOM     68  F   UNL A   1      39.141  26.053  29.465  1.00  0.00    -0.206 F 
ATOM     69  C   UNL A   1      39.847  25.427  27.320  1.00  0.00     0.040 A 
ATOM     70  C   UNL A   1      41.262  26.896  26.042  1.00  0.00     0.040 A 
ATOM     71  F   UNL A   1      41.977  28.934  26.955  1.00  0.00    -0.206 F 
ATOM     72  C   UNL A   1      40.564  25.696  26.156  1.00  0.00     0.006 A 
ENDBRANCH  51  65
BRANCH  52  73
ATOM     73  C   UNL A   1      40.040  34.292  35.837  1.00  0.00     0.057 A 
ATOM     74  C   UNL A   1      40.661  35.545  35.775  1.00  0.00     0.134 A 
ATOM     75  C   UNL A   1      39.290  34.001  36.983  1.00  0.00     0.134 A 
ATOM     76  F   UNL A   1      41.395  35.881  34.705  1.00  0.00    -0.206 F 
ATOM     77  C   UNL A   1      40.556  36.467  36.818  1.00  0.00     0.040 A 
ATOM     78  C   UNL A   1      39.158  34.922  38.024  1.00  0.00     0.040 A 
ATOM     79  F   UNL A   1      38.653  32.827  37.097  1.00  0.00    -0.206 F 
ATOM     80  C   UNL A   1      39.797  36.158  37.945  1.00  0.00     0.006 A 
ENDBRANCH  52  73
BRANCH  64  81
ATOM     81  C   UNL A   1      44.361  29.057  34.222  1.00  0.00     0.057 A 
ATOM     82  C   UNL A   1      44.304  28.002  35.141  1.00  0.00     0.134 A 
ATOM     83  C   UNL A   1      45.619  29.583  33.906  1.00  0.00     0.134 A 
ATOM     84  F   UNL A   1      43.124  27.467  35.489  1.00  0.00    -0.206 F 
ATOM     85  C   UNL A   1      45.458  27.505  35.743  1.00  0.00     0.040 A 
ATOM     86  C   UNL A   1      46.783  29.073  34.476  1.00  0.00     0.040 A 
ATOM     87  F   UNL A   1      45.737  30.583  33.019  1.00  0.00    -0.206 F 
ATOM     88  C   UNL A   1      46.702  28.036  35.405  1.00  0.00     0.006 A 
ENDBRANCH  64  81
ENDBRANCH  38  39
ENDBRANCH  31  33
ENDBRANCH  30  31
ENDBRANCH  29  30
ENDBRANCH  28  29
ENDBRANCH  27  28
ENDBRANCH   1  27
TORSDOF 17
ENDMDL
MODEL 3
REMARK VINA RESULT:     -11.9      5.271     10.099
REMARK SMILES Cc1ccnc(C(=O)c2[nH]c3ccc(F)cc3c2CC(=O)OCCOCCOC(=O)c2ccc(-c3c4nc(c(-c5c(F)cccc5F)c5ccc([nH]5)c(-c5c(F)cccc5F)c5nc(c(-c6c(F)cccc6F)c6ccc3[nH]6)C=C5)C=C4)cc2)c1
REMARK SMILES IDX 24 1 23 2 22 3 20 4 21 5 19 6 18 7 9 8 10 9 11 10 17 12
REMARK SMILES IDX 12 13 16 14 13 15 14 16 15 17 7 18 8 19 6 20 1 21 2 22 3 23
REMARK SMILES IDX 85 24 4 25 5 26 25 27 26 28 27 29 28 30 29 31 30 32 31 33
REMARK SMILES IDX 32 34 84 35 33 36 83 37 34 38 35 39 36 40 77 41 37 42 82 43
REMARK SMILES IDX 76 44 78 45 38 46 81 47 75 48 74 49 39 51 65 52 48 53 64 54
REMARK SMILES IDX 49 55 52 56 63 57 79 58 50 59 51 60 62 62 80 63 53 64 40 65
REMARK SMILES IDX 41 66 46 67 42 68 43 69 45 70 47 71 44 72 66 73 67 74 72 75
REMARK SMILES IDX 68 76 69 77 71 78 73 79 70 80 54 81 55 82 60 83 56 84 57 85
REMARK SMILES IDX 59 86 61 87 58 88
REMARK H PARENT 10 11 78 50 52 61
REMARK Flexibility Score: inf
ROOT
ATOM      1  C   UNL A   1      33.272  28.805  26.942  1.00  0.00     0.202 C 
ENDROOT
BRANCH   1   2
ATOM      2  C   UNL A   1      32.913  27.367  26.493  1.00  0.00     0.261 C 
BRANCH   2   3
ATOM      3  O   UNL A   1      31.515  27.186  26.174  1.00  0.00    -0.463 OA
BRANCH   3   4
ATOM      4  C   UNL A   1      31.110  25.898  25.951  1.00  0.00     0.310 C 
ATOM      5  O   UNL A   1      31.183  25.000  26.781  1.00  0.00    -0.252 OA
BRANCH   4   6
ATOM      6  C   UNL A   1      30.578  25.667  24.549  1.00  0.00     0.161 C 
BRANCH   6   7
ATOM      7  C   UNL A   1      30.774  26.790  23.564  1.00  0.00     0.000 A 
ATOM      8  C   UNL A   1      31.896  27.126  22.789  1.00  0.00     0.093 A 
ATOM      9  N   UNL A   1      31.610  28.391  22.276  1.00  0.00    -0.352 N 
ATOM     10  C   UNL A   1      30.283  28.715  22.405  1.00  0.00     0.046 A 
ATOM     11  H   UNL A   1      32.282  28.983  21.868  1.00  0.00     0.167 HD
ATOM     12  C   UNL A   1      29.730  27.754  23.245  1.00  0.00     0.007 A 
ATOM     13  C   UNL A   1      29.541  29.754  21.817  1.00  0.00     0.030 A 
ATOM     14  C   UNL A   1      28.354  27.866  23.552  1.00  0.00     0.049 A 
ATOM     15  C   UNL A   1      28.172  29.804  22.090  1.00  0.00     0.041 A 
ATOM     16  C   UNL A   1      27.600  28.880  22.952  1.00  0.00     0.123 A 
ATOM     17  F   UNL A   1      26.282  28.944  23.193  1.00  0.00    -0.207 F 
BRANCH   8  18
ATOM     18  C   UNL A   1      33.244  26.599  22.507  1.00  0.00     0.227 C 
ATOM     19  O   UNL A   1      33.906  27.210  21.661  1.00  0.00    -0.285 OA
BRANCH  18  20
ATOM     20  C   UNL A   1      33.857  25.285  22.991  1.00  0.00     0.113 A 
ATOM     21  C   UNL A   1      35.371  23.509  26.021  1.00  0.00     0.044 C 
ATOM     22  C   UNL A   1      34.735  23.766  24.682  1.00  0.00    -0.047 A 
ATOM     23  C   UNL A   1      34.425  22.698  23.848  1.00  0.00     0.023 A 
ATOM     24  C   UNL A   1      34.455  25.072  24.232  1.00  0.00     0.036 A 
ATOM     25  C   UNL A   1      33.842  22.980  22.627  1.00  0.00     0.112 A 
ATOM     26  N   UNL A   1      33.561  24.228  22.184  1.00  0.00    -0.253 NA
ENDBRANCH  18  20
ENDBRANCH   8  18
ENDBRANCH   6   7
ENDBRANCH   4   6
ENDBRANCH   3   4
ENDBRANCH   2   3
ENDBRANCH   1   2
BRANCH   1  27
ATOM     27  O   UNL A   1      32.197  29.641  27.414  1.00  0.00    -0.374 OA
BRANCH  27  28
ATOM     28  C   UNL A   1      31.949  30.715  26.508  1.00  0.00     0.202 C 
BRANCH  28  29
ATOM     29  C   UNL A   1      31.830  32.130  27.075  1.00  0.00     0.261 C 
BRANCH  29  30
ATOM     30  O   UNL A   1      33.047  32.808  27.059  1.00  0.00    -0.460 OA
BRANCH  30  31
ATOM     31  C   UNL A   1      33.188  33.766  28.002  1.00  0.00     0.338 C 
ATOM     32  O   UNL A   1      32.390  34.565  28.419  1.00  0.00    -0.246 OA
BRANCH  31  33
ATOM     33  C   UNL A   1      34.455  33.346  28.596  1.00  0.00     0.060 A 
ATOM     34  C   UNL A   1      35.598  34.092  28.305  1.00  0.00     0.016 A 
ATOM     35  C   UNL A   1      34.397  32.426  29.655  1.00  0.00     0.016 A 
ATOM     36  C   UNL A   1      36.715  33.910  29.099  1.00  0.00     0.010 A 
ATOM     37  C   UNL A   1      35.461  32.333  30.506  1.00  0.00     0.010 A 
ATOM     38  C   UNL A   1      36.633  33.029  30.185  1.00  0.00    -0.014 A 
BRANCH  38  39
ATOM     39  C   UNL A   1      37.831  32.571  30.880  1.00  0.00     0.031 A 
ATOM     40  C   UNL A   1      38.518  31.389  30.271  1.00  0.00     0.074 A 
ATOM     41  C   UNL A   1      38.161  33.114  32.057  1.00  0.00     0.049 A 
ATOM     42  N   UNL A   1      39.445  30.626  30.771  1.00  0.00    -0.248 NA
ATOM     43  C   UNL A   1      38.037  30.966  28.939  1.00  0.00     0.031 C 
ATOM     44  C   UNL A   1      37.479  34.240  32.698  1.00  0.00     0.029 A 
ATOM     45  N   UNL A   1      39.138  32.758  32.936  1.00  0.00    -0.354 N 
ATOM     46  C   UNL A   1      39.633  29.623  29.830  1.00  0.00     0.074 A 
ATOM     47  C   UNL A   1      38.676  29.822  28.771  1.00  0.00     0.031 C 
ATOM     48  C   UNL A   1      38.071  34.487  33.880  1.00  0.00     0.029 A 
ATOM     49  C   UNL A   1      39.136  33.509  34.081  1.00  0.00     0.049 A 
ATOM     50  H   UNL A   1      39.782  32.034  32.765  1.00  0.00     0.167 HD
ATOM     51  C   UNL A   1      40.554  28.638  29.849  1.00  0.00     0.037 A 
ATOM     52  C   UNL A   1      39.917  33.386  35.168  1.00  0.00     0.037 A 
ATOM     53  C   UNL A   1      41.498  28.499  30.920  1.00  0.00     0.049 A 
ATOM     54  C   UNL A   1      40.949  32.292  35.160  1.00  0.00     0.074 A 
ATOM     55  C   UNL A   1      42.524  27.589  31.059  1.00  0.00     0.029 A 
ATOM     56  N   UNL A   1      41.520  29.318  32.044  1.00  0.00    -0.354 N 
ATOM     57  N   UNL A   1      41.174  31.374  34.246  1.00  0.00    -0.248 NA
ATOM     58  C   UNL A   1      41.840  32.219  36.320  1.00  0.00     0.031 C 
ATOM     59  C   UNL A   1      43.142  27.832  32.290  1.00  0.00     0.029 A 
ATOM     60  C   UNL A   1      42.535  28.927  32.892  1.00  0.00     0.049 A 
ATOM     61  H   UNL A   1      40.902  30.067  32.210  1.00  0.00     0.167 HD
ATOM     62  C   UNL A   1      42.250  30.629  34.707  1.00  0.00     0.074 A 
ATOM     63  C   UNL A   1      42.637  31.216  35.977  1.00  0.00     0.031 C 
ATOM     64  C   UNL A   1      42.869  29.559  34.144  1.00  0.00     0.037 A 
BRANCH  51  65
ATOM     65  C   UNL A   1      40.553  27.674  28.701  1.00  0.00     0.057 A 
ATOM     66  C   UNL A   1      41.312  27.897  27.542  1.00  0.00     0.134 A 
ATOM     67  C   UNL A   1      39.752  26.528  28.733  1.00  0.00     0.134 A 
ATOM     68  F   UNL A   1      42.077  28.993  27.429  1.00  0.00    -0.206 F 
ATOM     69  C   UNL A   1      41.248  27.033  26.446  1.00  0.00     0.040 A 
ATOM     70  C   UNL A   1      39.704  25.639  27.658  1.00  0.00     0.040 A 
ATOM     71  F   UNL A   1      38.988  26.259  29.802  1.00  0.00    -0.206 F 
ATOM     72  C   UNL A   1      40.447  25.896  26.506  1.00  0.00     0.006 A 
ENDBRANCH  51  65
BRANCH  52  73
ATOM     73  C   UNL A   1      39.770  34.333  36.298  1.00  0.00     0.057 A 
ATOM     74  C   UNL A   1      39.041  33.980  37.439  1.00  0.00     0.134 A 
ATOM     75  C   UNL A   1      40.383  35.592  36.288  1.00  0.00     0.134 A 
ATOM     76  F   UNL A   1      38.428  32.790  37.507  1.00  0.00    -0.206 F 
ATOM     77  C   UNL A   1      38.911  34.851  38.523  1.00  0.00     0.040 A 
ATOM     78  C   UNL A   1      40.281  36.463  37.374  1.00  0.00     0.040 A 
ATOM     79  F   UNL A   1      41.114  35.982  35.234  1.00  0.00    -0.206 F 
ATOM     80  C   UNL A   1      39.537  36.096  38.494  1.00  0.00     0.006 A 
ENDBRANCH  52  73
BRANCH  64  81
ATOM     81  C   UNL A   1      44.039  28.997  34.890  1.00  0.00     0.057 A 
ATOM     82  C   UNL A   1      45.344  29.455  34.669  1.00  0.00     0.134 A 
ATOM     83  C   UNL A   1      43.846  28.025  35.879  1.00  0.00     0.134 A 
ATOM     84  F   UNL A   1      45.590  30.378  33.727  1.00  0.00    -0.206 F 
ATOM     85  C   UNL A   1      46.422  28.944  35.390  1.00  0.00     0.040 A 
ATOM     86  C   UNL A   1      44.910  27.530  36.628  1.00  0.00     0.040 A 
ATOM     87  F   UNL A   1      42.616  27.559  36.146  1.00  0.00    -0.206 F 
ATOM     88  C   UNL A   1      46.204  27.985  36.377  1.00  0.00     0.006 A 
ENDBRANCH  64  81
ENDBRANCH  38  39
ENDBRANCH  31  33
ENDBRANCH  30  31
ENDBRANCH  29  30
ENDBRANCH  28  29
ENDBRANCH  27  28
ENDBRANCH   1  27
TORSDOF 17
ENDMDL
