MODEL 1
REMARK VINA RESULT:     -11.3      0.000      0.000
REMARK SMILES C[NH2+][C@@]1(C(=O)OCCOCCOC(=O)c2ccc(-c3c4nc(c(-c5c(F)cccc5F)c5ccc([nH]5)c(-c5c(F)cccc5F)c5nc(c(-c6c(F)cccc6F)c6ccc3[nH]6)C=C5)C=C4)cc2)C=CC=C(c2ccccc2)C1
REMARK SMILES IDX 10 1 9 2 8 3 7 4 6 5 4 6 5 7 3 8 69 9 79 10 70 11 72 12
REMARK SMILES IDX 71 13 2 14 1 15 73 18 74 19 78 20 75 21 77 22 76 23 11 24
REMARK SMILES IDX 12 25 13 26 14 27 15 28 16 29 68 30 17 31 67 32 18 33 19 34
REMARK SMILES IDX 20 35 61 36 21 37 66 38 60 39 62 40 22 41 65 42 59 43 58 44
REMARK SMILES IDX 23 46 49 47 32 48 48 49 33 50 36 51 47 52 63 53 34 54 35 55
REMARK SMILES IDX 46 57 64 58 37 59 24 60 25 61 30 62 26 63 27 64 29 65 31 66
REMARK SMILES IDX 28 67 50 68 51 69 56 70 52 71 53 72 55 73 57 74 54 75 38 76
REMARK SMILES IDX 39 77 44 78 40 79 41 80 43 81 45 82 42 83
REMARK H PARENT 2 16 2 17 62 45 36 56
REMARK Flexibility Score: inf
ROOT
ATOM      1  C   UNL A   1      43.192  20.715  25.751  1.00  0.00     0.202 C 
ENDROOT
BRANCH   1   2
ATOM      2  O   UNL A   1      42.234  21.094  26.738  1.00  0.00    -0.374 OA
BRANCH   2   3
ATOM      3  C   UNL A   1      40.863  20.799  26.475  1.00  0.00     0.202 C 
BRANCH   3   4
ATOM      4  C   UNL A   1      39.857  21.897  26.824  1.00  0.00     0.261 C 
BRANCH   4   5
ATOM      5  O   UNL A   1      38.823  21.988  25.828  1.00  0.00    -0.458 OA
BRANCH   5   6
ATOM      6  C   UNL A   1      37.928  22.998  26.001  1.00  0.00     0.372 C 
ATOM      7  O   UNL A   1      38.193  24.055  26.574  1.00  0.00    -0.244 OA
BRANCH   6   8
ATOM      8  C   UNL A   1      36.503  22.684  25.433  1.00  0.00     0.217 C 
ATOM      9  C   UNL A   1      35.578  23.244  26.511  1.00  0.00     0.053 C 
ATOM     10  C   UNL A   1      36.197  21.165  25.155  1.00  0.00     0.122 C 
ATOM     11  C   UNL A   1      34.444  22.644  26.896  1.00  0.00     0.003 C 
ATOM     12  C   UNL A   1      34.749  20.771  25.382  1.00  0.00    -0.034 C 
ATOM     13  C   UNL A   1      33.966  21.467  26.225  1.00  0.00     0.004 C 
BRANCH   8  14
ATOM     14  N   UNL A   1      36.274  23.534  24.213  1.00  0.00    -0.331 N 
ATOM     15  C   UNL A   1      36.291  22.809  22.946  1.00  0.00     0.332 C 
ATOM     16  H   UNL A   1      35.364  23.984  24.308  1.00  0.00     0.347 HD
ATOM     17  H   UNL A   1      37.050  24.196  24.175  1.00  0.00     0.347 HD
ENDBRANCH   8  14
BRANCH  12  18
ATOM     18  C   UNL A   1      34.175  19.609  24.679  1.00  0.00    -0.022 A 
ATOM     19  C   UNL A   1      34.922  18.425  24.565  1.00  0.00     0.008 A 
ATOM     20  C   UNL A   1      32.921  19.676  24.061  1.00  0.00     0.008 A 
ATOM     21  C   UNL A   1      34.443  17.343  23.824  1.00  0.00     0.001 A 
ATOM     22  C   UNL A   1      32.443  18.593  23.315  1.00  0.00     0.001 A 
ATOM     23  C   UNL A   1      33.207  17.432  23.191  1.00  0.00     0.000 A 
ENDBRANCH  12  18
ENDBRANCH   6   8
ENDBRANCH   5   6
ENDBRANCH   4   5
ENDBRANCH   3   4
ENDBRANCH   2   3
ENDBRANCH   1   2
BRANCH   1  24
ATOM     24  C   UNL A   1      44.089  21.827  25.196  1.00  0.00     0.261 C 
BRANCH  24  25
ATOM     25  O   UNL A   1      43.342  23.008  24.853  1.00  0.00    -0.460 OA
BRANCH  25  26
ATOM     26  C   UNL A   1      44.018  24.168  25.019  1.00  0.00     0.338 C 
ATOM     27  O   UNL A   1      45.034  24.527  24.435  1.00  0.00    -0.246 OA
BRANCH  26  28
ATOM     28  C   UNL A   1      43.264  25.077  25.900  1.00  0.00     0.060 A 
ATOM     29  C   UNL A   1      43.808  26.348  26.130  1.00  0.00     0.016 A 
ATOM     30  C   UNL A   1      42.093  24.676  26.548  1.00  0.00     0.016 A 
ATOM     31  C   UNL A   1      43.216  27.203  27.053  1.00  0.00     0.010 A 
ATOM     32  C   UNL A   1      41.505  25.533  27.484  1.00  0.00     0.010 A 
ATOM     33  C   UNL A   1      42.087  26.783  27.768  1.00  0.00    -0.014 A 
BRANCH  33  34
ATOM     34  C   UNL A   1      41.624  27.588  28.923  1.00  0.00     0.031 A 
ATOM     35  C   UNL A   1      42.365  27.478  30.227  1.00  0.00     0.074 A 
ATOM     36  C   UNL A   1      40.592  28.439  28.801  1.00  0.00     0.049 A 
ATOM     37  N   UNL A   1      42.136  28.079  31.366  1.00  0.00    -0.248 NA
ATOM     38  C   UNL A   1      43.520  26.566  30.249  1.00  0.00     0.031 C 
ATOM     39  C   UNL A   1      39.822  28.663  27.578  1.00  0.00     0.029 A 
ATOM     40  N   UNL A   1      40.014  29.274  29.723  1.00  0.00    -0.354 N 
ATOM     41  C   UNL A   1      43.117  27.623  32.237  1.00  0.00     0.074 A 
ATOM     42  C   UNL A   1      43.922  26.668  31.507  1.00  0.00     0.031 C 
ATOM     43  C   UNL A   1      38.860  29.568  27.831  1.00  0.00     0.029 A 
ATOM     44  C   UNL A   1      38.934  29.967  29.236  1.00  0.00     0.049 A 
ATOM     45  H   UNL A   1      40.342  29.366  30.647  1.00  0.00     0.167 HD
ATOM     46  C   UNL A   1      43.335  27.976  33.526  1.00  0.00     0.037 A 
ATOM     47  C   UNL A   1      38.091  30.812  29.860  1.00  0.00     0.037 A 
ATOM     48  C   UNL A   1      42.529  28.920  34.254  1.00  0.00     0.049 A 
ATOM     49  C   UNL A   1      38.311  31.137  31.313  1.00  0.00     0.074 A 
ATOM     50  C   UNL A   1      42.671  29.347  35.562  1.00  0.00     0.029 A 
ATOM     51  N   UNL A   1      41.425  29.578  33.734  1.00  0.00    -0.354 N 
ATOM     52  N   UNL A   1      39.252  30.714  32.123  1.00  0.00    -0.248 NA
ATOM     53  C   UNL A   1      37.352  32.060  31.938  1.00  0.00     0.031 C 
ATOM     54  C   UNL A   1      41.627  30.234  35.847  1.00  0.00     0.029 A 
ATOM     55  C   UNL A   1      40.862  30.392  34.702  1.00  0.00     0.049 A 
ATOM     56  H   UNL A   1      41.091  29.481  32.814  1.00  0.00     0.167 HD
ATOM     57  C   UNL A   1      39.015  31.335  33.342  1.00  0.00     0.074 A 
ATOM     58  C   UNL A   1      37.847  32.174  33.163  1.00  0.00     0.031 C 
ATOM     59  C   UNL A   1      39.701  31.222  34.506  1.00  0.00     0.037 A 
BRANCH  46  60
ATOM     60  C   UNL A   1      44.481  27.316  34.233  1.00  0.00     0.057 A 
ATOM     61  C   UNL A   1      44.326  26.107  34.923  1.00  0.00     0.134 A 
ATOM     62  C   UNL A   1      45.759  27.887  34.209  1.00  0.00     0.134 A 
ATOM     63  F   UNL A   1      43.123  25.517  34.998  1.00  0.00    -0.206 F 
ATOM     64  C   UNL A   1      45.395  25.501  35.585  1.00  0.00     0.040 A 
ATOM     65  C   UNL A   1      46.842  27.280  34.847  1.00  0.00     0.040 A 
ATOM     66  F   UNL A   1      45.977  29.044  33.564  1.00  0.00    -0.206 F 
ATOM     67  C   UNL A   1      46.660  26.086  35.543  1.00  0.00     0.006 A 
ENDBRANCH  46  60
BRANCH  47  68
ATOM     68  C   UNL A   1      36.950  31.400  29.116  1.00  0.00     0.057 A 
ATOM     69  C   UNL A   1      36.991  32.715  28.638  1.00  0.00     0.134 A 
ATOM     70  C   UNL A   1      35.786  30.660  28.873  1.00  0.00     0.134 A 
ATOM     71  F   UNL A   1      38.071  33.479  28.860  1.00  0.00    -0.206 F 
ATOM     72  C   UNL A   1      35.911  33.279  27.958  1.00  0.00     0.040 A 
ATOM     73  C   UNL A   1      34.707  31.204  28.174  1.00  0.00     0.040 A 
ATOM     74  F   UNL A   1      35.685  29.395  29.305  1.00  0.00    -0.206 F 
ATOM     75  C   UNL A   1      34.766  32.520  27.720  1.00  0.00     0.006 A 
ENDBRANCH  47  68
BRANCH  59  76
ATOM     76  C   UNL A   1      39.225  32.045  35.667  1.00  0.00     0.057 A 
ATOM     77  C   UNL A   1      38.350  31.527  36.630  1.00  0.00     0.134 A 
ATOM     78  C   UNL A   1      39.683  33.357  35.846  1.00  0.00     0.134 A 
ATOM     79  F   UNL A   1      37.868  30.281  36.509  1.00  0.00    -0.206 F 
ATOM     80  C   UNL A   1      37.932  32.291  37.720  1.00  0.00     0.040 A 
ATOM     81  C   UNL A   1      39.290  34.123  36.945  1.00  0.00     0.040 A 
ATOM     82  F   UNL A   1      40.529  33.910  34.964  1.00  0.00    -0.206 F 
ATOM     83  C   UNL A   1      38.408  33.592  37.882  1.00  0.00     0.006 A 
ENDBRANCH  59  76
ENDBRANCH  33  34
ENDBRANCH  26  28
ENDBRANCH  25  26
ENDBRANCH  24  25
ENDBRANCH   1  24
TORSDOF 16
ENDMDL
MODEL 2
REMARK VINA RESULT:     -11.0      5.154     10.446
REMARK SMILES C[NH2+][C@@]1(C(=O)OCCOCCOC(=O)c2ccc(-c3c4nc(c(-c5c(F)cccc5F)c5ccc([nH]5)c(-c5c(F)cccc5F)c5nc(c(-c6c(F)cccc6F)c6ccc3[nH]6)C=C5)C=C4)cc2)C=CC=C(c2ccccc2)C1
REMARK SMILES IDX 10 1 9 2 8 3 7 4 6 5 4 6 5 7 3 8 69 9 79 10 70 11 72 12
REMARK SMILES IDX 71 13 2 14 1 15 73 18 74 19 78 20 75 21 77 22 76 23 11 24
REMARK SMILES IDX 12 25 13 26 14 27 15 28 16 29 68 30 17 31 67 32 18 33 19 34
REMARK SMILES IDX 20 35 61 36 21 37 66 38 60 39 62 40 22 41 65 42 59 43 58 44
REMARK SMILES IDX 23 46 49 47 32 48 48 49 33 50 36 51 47 52 63 53 34 54 35 55
REMARK SMILES IDX 46 57 64 58 37 59 24 60 25 61 30 62 26 63 27 64 29 65 31 66
REMARK SMILES IDX 28 67 50 68 51 69 56 70 52 71 53 72 55 73 57 74 54 75 38 76
REMARK SMILES IDX 39 77 44 78 40 79 41 80 43 81 45 82 42 83
REMARK H PARENT 2 16 2 17 62 45 36 56
REMARK Flexibility Score: inf
ROOT
ATOM      1  C   UNL A   1      34.893  34.226  30.478  1.00  0.00     0.202 C 
ENDROOT
BRANCH   1   2
ATOM      2  O   UNL A   1      33.996  33.827  29.442  1.00  0.00    -0.374 OA
BRANCH   2   3
ATOM      3  C   UNL A   1      34.503  32.965  28.425  1.00  0.00     0.202 C 
BRANCH   3   4
ATOM      4  C   UNL A   1      33.684  31.706  28.137  1.00  0.00     0.261 C 
BRANCH   4   5
ATOM      5  O   UNL A   1      34.077  31.107  26.889  1.00  0.00    -0.458 OA
BRANCH   5   6
ATOM      6  C   UNL A   1      34.257  29.758  26.917  1.00  0.00     0.372 C 
ATOM      7  O   UNL A   1      35.181  29.204  27.512  1.00  0.00    -0.244 OA
BRANCH   6   8
ATOM      8  C   UNL A   1      33.195  28.962  26.086  1.00  0.00     0.217 C 
ATOM      9  C   UNL A   1      34.039  28.317  24.988  1.00  0.00     0.053 C 
ATOM     10  C   UNL A   1      32.024  29.817  25.475  1.00  0.00     0.122 C 
ATOM     11  C   UNL A   1      33.630  28.195  23.719  1.00  0.00     0.003 C 
ATOM     12  C   UNL A   1      31.512  29.306  24.140  1.00  0.00    -0.034 C 
ATOM     13  C   UNL A   1      32.299  28.576  23.331  1.00  0.00     0.004 C 
BRANCH   8  14
ATOM     14  N   UNL A   1      32.679  27.826  26.928  1.00  0.00    -0.331 N 
ATOM     15  C   UNL A   1      31.489  28.136  27.716  1.00  0.00     0.332 C 
ATOM     16  H   UNL A   1      32.455  27.049  26.308  1.00  0.00     0.347 HD
ATOM     17  H   UNL A   1      33.418  27.608  27.598  1.00  0.00     0.347 HD
ENDBRANCH   8  14
BRANCH  12  18
ATOM     18  C   UNL A   1      30.136  29.608  23.705  1.00  0.00    -0.022 A 
ATOM     19  C   UNL A   1      29.612  30.897  23.898  1.00  0.00     0.008 A 
ATOM     20  C   UNL A   1      29.310  28.619  23.160  1.00  0.00     0.008 A 
ATOM     21  C   UNL A   1      28.282  31.184  23.584  1.00  0.00     0.001 A 
ATOM     22  C   UNL A   1      27.976  28.907  22.849  1.00  0.00     0.001 A 
ATOM     23  C   UNL A   1      27.462  30.185  23.068  1.00  0.00     0.000 A 
ENDBRANCH  12  18
ENDBRANCH   6   8
ENDBRANCH   5   6
ENDBRANCH   4   5
ENDBRANCH   3   4
ENDBRANCH   2   3
ENDBRANCH   1   2
BRANCH   1  24
ATOM     24  C   UNL A   1      34.538  33.791  31.904  1.00  0.00     0.261 C 
BRANCH  24  25
ATOM     25  O   UNL A   1      34.817  32.399  32.134  1.00  0.00    -0.460 OA
BRANCH  25  26
ATOM     26  C   UNL A   1      35.925  32.161  32.872  1.00  0.00     0.338 C 
ATOM     27  O   UNL A   1      36.098  32.417  34.058  1.00  0.00    -0.246 OA
BRANCH  26  28
ATOM     28  C   UNL A   1      36.892  31.363  32.099  1.00  0.00     0.060 A 
ATOM     29  C   UNL A   1      37.973  30.809  32.798  1.00  0.00     0.016 A 
ATOM     30  C   UNL A   1      36.791  31.218  30.713  1.00  0.00     0.016 A 
ATOM     31  C   UNL A   1      38.989  30.157  32.107  1.00  0.00     0.010 A 
ATOM     32  C   UNL A   1      37.819  30.572  30.019  1.00  0.00     0.010 A 
ATOM     33  C   UNL A   1      38.940  30.074  30.709  1.00  0.00    -0.014 A 
BRANCH  33  34
ATOM     34  C   UNL A   1      40.140  29.614  29.972  1.00  0.00     0.031 A 
ATOM     35  C   UNL A   1      41.277  30.576  29.764  1.00  0.00     0.074 A 
ATOM     36  C   UNL A   1      40.238  28.347  29.535  1.00  0.00     0.049 A 
ATOM     37  N   UNL A   1      42.416  30.396  29.146  1.00  0.00    -0.248 NA
ATOM     38  C   UNL A   1      41.105  31.924  30.331  1.00  0.00     0.031 C 
ATOM     39  C   UNL A   1      39.220  27.313  29.711  1.00  0.00     0.029 A 
ATOM     40  N   UNL A   1      41.246  27.718  28.850  1.00  0.00    -0.354 N 
ATOM     41  C   UNL A   1      43.097  31.602  29.252  1.00  0.00     0.074 A 
ATOM     42  C   UNL A   1      42.230  32.518  29.962  1.00  0.00     0.031 C 
ATOM     43  C   UNL A   1      39.652  26.177  29.135  1.00  0.00     0.029 A 
ATOM     44  C   UNL A   1      40.962  26.413  28.531  1.00  0.00     0.049 A 
ATOM     45  H   UNL A   1      42.092  28.160  28.610  1.00  0.00     0.167 HD
ATOM     46  C   UNL A   1      44.337  31.915  28.808  1.00  0.00     0.037 A 
ATOM     47  C   UNL A   1      41.673  25.520  27.817  1.00  0.00     0.037 A 
ATOM     48  C   UNL A   1      45.195  31.006  28.096  1.00  0.00     0.049 A 
ATOM     49  C   UNL A   1      43.020  25.912  27.273  1.00  0.00     0.074 A 
ATOM     50  C   UNL A   1      46.471  31.227  27.607  1.00  0.00     0.029 A 
ATOM     51  N   UNL A   1      44.860  29.702  27.765  1.00  0.00    -0.354 N 
ATOM     52  N   UNL A   1      43.663  27.049  27.394  1.00  0.00    -0.248 NA
ATOM     53  C   UNL A   1      43.743  24.894  26.496  1.00  0.00     0.031 C 
ATOM     54  C   UNL A   1      46.891  30.069  26.944  1.00  0.00     0.029 A 
ATOM     55  C   UNL A   1      45.895  29.113  27.059  1.00  0.00     0.049 A 
ATOM     56  H   UNL A   1      44.011  29.261  27.998  1.00  0.00     0.167 HD
ATOM     57  C   UNL A   1      44.871  26.878  26.731  1.00  0.00     0.074 A 
ATOM     58  C   UNL A   1      44.879  25.522  26.219  1.00  0.00     0.031 C 
ATOM     59  C   UNL A   1      45.885  27.762  26.560  1.00  0.00     0.037 A 
BRANCH  46  60
ATOM     60  C   UNL A   1      44.825  33.310  29.064  1.00  0.00     0.057 A 
ATOM     61  C   UNL A   1      44.505  34.373  28.211  1.00  0.00     0.134 A 
ATOM     62  C   UNL A   1      45.610  33.596  30.188  1.00  0.00     0.134 A 
ATOM     63  F   UNL A   1      43.770  34.162  27.108  1.00  0.00    -0.206 F 
ATOM     64  C   UNL A   1      44.968  35.668  28.451  1.00  0.00     0.040 A 
ATOM     65  C   UNL A   1      46.060  34.891  30.453  1.00  0.00     0.040 A 
ATOM     66  F   UNL A   1      45.951  32.624  31.047  1.00  0.00    -0.206 F 
ATOM     67  C   UNL A   1      45.744  35.930  29.580  1.00  0.00     0.006 A 
ENDBRANCH  46  60
BRANCH  47  68
ATOM     68  C   UNL A   1      41.116  24.168  27.561  1.00  0.00     0.057 A 
ATOM     69  C   UNL A   1      41.604  23.041  28.232  1.00  0.00     0.134 A 
ATOM     70  C   UNL A   1      40.088  23.973  26.632  1.00  0.00     0.134 A 
ATOM     71  F   UNL A   1      42.605  23.162  29.117  1.00  0.00    -0.206 F 
ATOM     72  C   UNL A   1      41.099  21.765  27.978  1.00  0.00     0.040 A 
ATOM     73  C   UNL A   1      39.557  22.706  26.385  1.00  0.00     0.040 A 
ATOM     74  F   UNL A   1      39.578  25.013  25.958  1.00  0.00    -0.206 F 
ATOM     75  C   UNL A   1      40.068  21.596  27.054  1.00  0.00     0.006 A 
ENDBRANCH  47  68
BRANCH  59  76
ATOM     76  C   UNL A   1      47.096  27.283  25.815  1.00  0.00     0.057 A 
ATOM     77  C   UNL A   1      47.244  27.486  24.437  1.00  0.00     0.134 A 
ATOM     78  C   UNL A   1      48.146  26.651  26.493  1.00  0.00     0.134 A 
ATOM     79  F   UNL A   1      46.268  28.075  23.729  1.00  0.00    -0.206 F 
ATOM     80  C   UNL A   1      48.385  27.059  23.755  1.00  0.00     0.040 A 
ATOM     81  C   UNL A   1      49.303  26.240  25.826  1.00  0.00     0.040 A 
ATOM     82  F   UNL A   1      48.072  26.434  27.814  1.00  0.00    -0.206 F 
ATOM     83  C   UNL A   1      49.421  26.440  24.453  1.00  0.00     0.006 A 
ENDBRANCH  59  76
ENDBRANCH  33  34
ENDBRANCH  26  28
ENDBRANCH  25  26
ENDBRANCH  24  25
ENDBRANCH   1  24
TORSDOF 16
ENDMDL
MODEL 3
REMARK VINA RESULT:     -11.0      0.524      6.326
REMARK SMILES C[NH2+][C@@]1(C(=O)OCCOCCOC(=O)c2ccc(-c3c4nc(c(-c5c(F)cccc5F)c5ccc([nH]5)c(-c5c(F)cccc5F)c5nc(c(-c6c(F)cccc6F)c6ccc3[nH]6)C=C5)C=C4)cc2)C=CC=C(c2ccccc2)C1
REMARK SMILES IDX 10 1 9 2 8 3 7 4 6 5 4 6 5 7 3 8 69 9 79 10 70 11 72 12
REMARK SMILES IDX 71 13 2 14 1 15 73 18 74 19 78 20 75 21 77 22 76 23 11 24
REMARK SMILES IDX 12 25 13 26 14 27 15 28 16 29 68 30 17 31 67 32 18 33 19 34
REMARK SMILES IDX 20 35 61 36 21 37 66 38 60 39 62 40 22 41 65 42 59 43 58 44
REMARK SMILES IDX 23 46 49 47 32 48 48 49 33 50 36 51 47 52 63 53 34 54 35 55
REMARK SMILES IDX 46 57 64 58 37 59 24 60 25 61 30 62 26 63 27 64 29 65 31 66
REMARK SMILES IDX 28 67 50 68 51 69 56 70 52 71 53 72 55 73 57 74 54 75 38 76
REMARK SMILES IDX 39 77 44 78 40 79 41 80 43 81 45 82 42 83
REMARK H PARENT 2 16 2 17 62 45 36 56
REMARK Flexibility Score: inf
ROOT
ATOM      1  C   UNL A   1      43.058  21.045  26.351  1.00  0.00     0.202 C 
ENDROOT
BRANCH   1   2
ATOM      2  O   UNL A   1      41.903  20.529  25.691  1.00  0.00    -0.374 OA
BRANCH   2   3
ATOM      3  C   UNL A   1      40.653  20.626  26.373  1.00  0.00     0.202 C 
BRANCH   3   4
ATOM      4  C   UNL A   1      39.942  21.978  26.291  1.00  0.00     0.261 C 
BRANCH   4   5
ATOM      5  O   UNL A   1      38.649  21.846  25.675  1.00  0.00    -0.458 OA
BRANCH   5   6
ATOM      6  C   UNL A   1      37.772  22.854  25.930  1.00  0.00     0.372 C 
ATOM      7  O   UNL A   1      38.071  23.884  26.535  1.00  0.00    -0.244 OA
BRANCH   6   8
ATOM      8  C   UNL A   1      36.320  22.574  25.415  1.00  0.00     0.217 C 
ATOM      9  C   UNL A   1      35.450  23.087  26.560  1.00  0.00     0.053 C 
ATOM     10  C   UNL A   1      35.991  21.072  25.080  1.00  0.00     0.122 C 
ATOM     11  C   UNL A   1      34.330  22.476  26.968  1.00  0.00     0.003 C 
ATOM     12  C   UNL A   1      34.552  20.674  25.355  1.00  0.00    -0.034 C 
ATOM     13  C   UNL A   1      33.814  21.333  26.265  1.00  0.00     0.004 C 
BRANCH   8  14
ATOM     14  N   UNL A   1      36.041  23.482  24.247  1.00  0.00    -0.331 N 
ATOM     15  C   UNL A   1      36.299  22.894  22.936  1.00  0.00     0.332 C 
ATOM     16  H   UNL A   1      35.059  23.753  24.286  1.00  0.00     0.347 HD
ATOM     17  H   UNL A   1      36.682  24.271  24.339  1.00  0.00     0.347 HD
ENDBRANCH   8  14
BRANCH  12  18
ATOM     18  C   UNL A   1      33.938  19.549  24.626  1.00  0.00    -0.022 A 
ATOM     19  C   UNL A   1      34.593  18.307  24.584  1.00  0.00     0.008 A 
ATOM     20  C   UNL A   1      32.743  19.706  23.916  1.00  0.00     0.008 A 
ATOM     21  C   UNL A   1      34.082  17.254  23.822  1.00  0.00     0.001 A 
ATOM     22  C   UNL A   1      32.234  18.651  23.150  1.00  0.00     0.001 A 
ATOM     23  C   UNL A   1      32.907  17.430  23.098  1.00  0.00     0.000 A 
ENDBRANCH  12  18
ENDBRANCH   6   8
ENDBRANCH   5   6
ENDBRANCH   4   5
ENDBRANCH   3   4
ENDBRANCH   2   3
ENDBRANCH   1   2
BRANCH   1  24
ATOM     24  C   UNL A   1      43.878  22.093  25.591  1.00  0.00     0.261 C 
BRANCH  24  25
ATOM     25  O   UNL A   1      43.088  23.234  25.214  1.00  0.00    -0.460 OA
BRANCH  25  26
ATOM     26  C   UNL A   1      43.731  24.420  25.310  1.00  0.00     0.338 C 
ATOM     27  O   UNL A   1      44.668  24.815  24.626  1.00  0.00    -0.246 OA
BRANCH  26  28
ATOM     28  C   UNL A   1      43.036  25.303  26.262  1.00  0.00     0.060 A 
ATOM     29  C   UNL A   1      43.566  26.585  26.455  1.00  0.00     0.016 A 
ATOM     30  C   UNL A   1      41.937  24.868  27.007  1.00  0.00     0.016 A 
ATOM     31  C   UNL A   1      43.037  27.418  27.435  1.00  0.00     0.010 A 
ATOM     32  C   UNL A   1      41.412  25.703  27.999  1.00  0.00     0.010 A 
ATOM     33  C   UNL A   1      41.986  26.965  28.243  1.00  0.00    -0.014 A 
BRANCH  33  34
ATOM     34  C   UNL A   1      41.607  27.749  29.441  1.00  0.00     0.031 A 
ATOM     35  C   UNL A   1      40.427  28.678  29.357  1.00  0.00     0.074 A 
ATOM     36  C   UNL A   1      42.271  27.603  30.600  1.00  0.00     0.049 A 
ATOM     37  N   UNL A   1      39.920  29.463  30.273  1.00  0.00    -0.248 NA
ATOM     38  C   UNL A   1      39.723  28.726  28.065  1.00  0.00     0.031 C 
ATOM     39  C   UNL A   1      43.404  26.705  30.815  1.00  0.00     0.029 A 
ATOM     40  N   UNL A   1      42.086  28.213  31.814  1.00  0.00    -0.354 N 
ATOM     41  C   UNL A   1      38.840  30.096  29.671  1.00  0.00     0.074 A 
ATOM     42  C   UNL A   1      38.784  29.630  28.302  1.00  0.00     0.031 C 
ATOM     43  C   UNL A   1      43.823  26.833  32.087  1.00  0.00     0.029 A 
ATOM     44  C   UNL A   1      43.004  27.838  32.763  1.00  0.00     0.049 A 
ATOM     45  H   UNL A   1      41.364  28.859  31.988  1.00  0.00     0.167 HD
ATOM     46  C   UNL A   1      37.966  30.976  30.213  1.00  0.00     0.037 A 
ATOM     47  C   UNL A   1      43.173  28.271  34.027  1.00  0.00     0.037 A 
ATOM     48  C   UNL A   1      38.026  31.444  31.572  1.00  0.00     0.049 A 
ATOM     49  C   UNL A   1      42.231  29.302  34.588  1.00  0.00     0.074 A 
ATOM     50  C   UNL A   1      37.185  32.333  32.217  1.00  0.00     0.029 A 
ATOM     51  N   UNL A   1      38.990  31.064  32.494  1.00  0.00    -0.354 N 
ATOM     52  N   UNL A   1      41.201  29.881  34.016  1.00  0.00    -0.248 NA
ATOM     53  C   UNL A   1      42.473  29.739  35.970  1.00  0.00     0.031 C 
ATOM     54  C   UNL A   1      37.664  32.522  33.518  1.00  0.00     0.029 A 
ATOM     55  C   UNL A   1      38.777  31.717  33.696  1.00  0.00     0.049 A 
ATOM     56  H   UNL A   1      39.717  30.424  32.319  1.00  0.00     0.167 HD
ATOM     57  C   UNL A   1      40.660  30.729  34.973  1.00  0.00     0.074 A 
ATOM     58  C   UNL A   1      41.467  30.581  36.167  1.00  0.00     0.031 C 
ATOM     59  C   UNL A   1      39.590  31.556  34.875  1.00  0.00     0.037 A 
BRANCH  46  60
ATOM     60  C   UNL A   1      36.883  31.504  29.320  1.00  0.00     0.057 A 
ATOM     61  C   UNL A   1      36.926  32.802  28.794  1.00  0.00     0.134 A 
ATOM     62  C   UNL A   1      35.792  30.699  28.968  1.00  0.00     0.134 A 
ATOM     63  F   UNL A   1      37.935  33.628  29.107  1.00  0.00    -0.206 F 
ATOM     64  C   UNL A   1      35.910  33.290  27.970  1.00  0.00     0.040 A 
ATOM     65  C   UNL A   1      34.782  31.168  28.125  1.00  0.00     0.040 A 
ATOM     66  F   UNL A   1      35.691  29.446  29.436  1.00  0.00    -0.206 F 
ATOM     67  C   UNL A   1      34.837  32.468  27.629  1.00  0.00     0.006 A 
ENDBRANCH  46  60
BRANCH  47  68
ATOM     68  C   UNL A   1      44.290  27.740  34.846  1.00  0.00     0.057 A 
ATOM     69  C   UNL A   1      45.548  28.354  34.848  1.00  0.00     0.134 A 
ATOM     70  C   UNL A   1      44.127  26.599  35.641  1.00  0.00     0.134 A 
ATOM     71  F   UNL A   1      45.771  29.437  34.088  1.00  0.00    -0.206 F 
ATOM     72  C   UNL A   1      46.608  27.845  35.599  1.00  0.00     0.040 A 
ATOM     73  C   UNL A   1      45.172  26.093  36.416  1.00  0.00     0.040 A 
ATOM     74  F   UNL A   1      42.946  25.966  35.683  1.00  0.00    -0.206 F 
ATOM     75  C   UNL A   1      46.419  26.713  36.390  1.00  0.00     0.006 A 
ENDBRANCH  47  68
BRANCH  59  76
ATOM     76  C   UNL A   1      39.214  32.342  36.096  1.00  0.00     0.057 A 
ATOM     77  C   UNL A   1      39.716  33.629  36.329  1.00  0.00     0.134 A 
ATOM     78  C   UNL A   1      38.305  31.822  37.026  1.00  0.00     0.134 A 
ATOM     79  F   UNL A   1      40.598  34.178  35.480  1.00  0.00    -0.206 F 
ATOM     80  C   UNL A   1      39.342  34.364  37.455  1.00  0.00     0.040 A 
ATOM     81  C   UNL A   1      37.906  32.557  38.145  1.00  0.00     0.040 A 
ATOM     82  F   UNL A   1      37.781  30.600  36.858  1.00  0.00    -0.206 F 
ATOM     83  C   UNL A   1      38.429  33.829  38.363  1.00  0.00     0.006 A 
ENDBRANCH  59  76
ENDBRANCH  33  34
ENDBRANCH  26  28
ENDBRANCH  25  26
ENDBRANCH  24  25
ENDBRANCH   1  24
TORSDOF 16
ENDMDL
