MODEL 1
REMARK VINA RESULT:     -11.5      0.000      0.000
REMARK SMILES O=C(COc1ccc(C(=O)/C=C/c2ccc(Cl)c([N+](=O)[O-])c2)cc1)OCCOCCOC(=O)c1ccc(-c2c3nc(c(-c4c(F)cccc4F)c4ccc([nH]4)c(-c4c(F)cccc4F)c4nc(c(-c5c(F)cccc5F)c5ccc2[nH]5)C=C4)C=C3)cc1
REMARK SMILES IDX 26 1 25 2 2 3 1 4 3 5 4 6 5 7 6 8 24 9 7 10 23 11 8 12 9 13
REMARK SMILES IDX 10 14 11 15 12 16 13 17 14 18 22 19 15 20 18 21 16 22 17 23
REMARK SMILES IDX 19 24 20 25 21 26 27 27 28 28 29 29 30 30 31 31 32 32 33 33
REMARK SMILES IDX 34 34 35 35 87 36 36 37 86 38 37 39 38 40 39 41 80 42 40 43
REMARK SMILES IDX 85 44 79 45 81 46 41 47 84 48 78 49 77 50 42 52 68 53 51 54
REMARK SMILES IDX 67 55 52 56 55 57 66 58 82 59 53 60 54 61 65 63 83 64 56 65
REMARK SMILES IDX 43 66 44 67 49 68 45 69 46 70 48 71 50 72 47 73 69 74 70 75
REMARK SMILES IDX 75 76 71 77 72 78 74 79 76 80 73 81 57 82 58 83 63 84 59 85
REMARK SMILES IDX 60 86 62 87 64 88 61 89
REMARK H PARENT 81 51 55 62
REMARK Flexibility Score: inf
ROOT
ATOM      1  C   UNL A   1      42.453  19.422  26.254  1.00  0.00     0.261 C 
ENDROOT
BRANCH   1   2
ATOM      2  O   UNL A   1      41.500  20.424  25.864  1.00  0.00    -0.461 OA
BRANCH   2   3
ATOM      3  C   UNL A   1      40.522  20.900  26.676  1.00  0.00     0.344 C 
ATOM      4  O   UNL A   1      40.657  20.823  27.898  1.00  0.00    -0.248 OA
BRANCH   3   5
ATOM      5  C   UNL A   1      39.254  21.488  26.052  1.00  0.00     0.351 C 
BRANCH   5   6
ATOM      6  O   UNL A   1      38.302  20.680  25.372  1.00  0.00    -0.482 OA
BRANCH   6   7
ATOM      7  C   UNL A   1      37.184  21.355  24.975  1.00  0.00     0.120 A 
ATOM      8  C   UNL A   1      37.349  22.678  24.581  1.00  0.00     0.047 A 
ATOM      9  C   UNL A   1      35.905  20.810  25.041  1.00  0.00     0.047 A 
ATOM     10  C   UNL A   1      36.256  23.389  24.077  1.00  0.00     0.016 A 
ATOM     11  C   UNL A   1      34.813  21.525  24.576  1.00  0.00     0.016 A 
ATOM     12  C   UNL A   1      34.998  22.778  23.997  1.00  0.00     0.022 A 
BRANCH  12  13
ATOM     13  C   UNL A   1      33.886  23.466  23.297  1.00  0.00     0.185 C 
ATOM     14  O   UNL A   1      33.239  22.875  22.438  1.00  0.00    -0.289 OA
BRANCH  13  15
ATOM     15  C   UNL A   1      33.538  24.883  23.633  1.00  0.00     0.053 C 
ATOM     16  C   UNL A   1      32.319  25.433  23.514  1.00  0.00     0.012 C 
BRANCH  16  17
ATOM     17  C   UNL A   1      32.017  26.809  23.903  1.00  0.00    -0.019 A 
ATOM     18  C   UNL A   1      32.633  27.373  25.022  1.00  0.00     0.010 A 
ATOM     19  C   UNL A   1      31.064  27.547  23.199  1.00  0.00     0.095 A 
ATOM     20  C   UNL A   1      32.296  28.667  25.429  1.00  0.00     0.028 A 
ATOM     21  C   UNL A   1      30.709  28.848  23.614  1.00  0.00     0.288 A 
ATOM     22  C   UNL A   1      31.332  29.416  24.735  1.00  0.00     0.118 A 
ATOM     23  Cl  UNL A   1      31.029  30.989  25.383  1.00  0.00    -0.077 Cl
BRANCH  21  24
ATOM     24  N   UNL A   1      29.665  29.531  22.834  1.00  0.00     0.064 N 
ATOM     25  O   UNL A   1      28.625  29.892  23.392  1.00  0.00    -0.258 OA
ATOM     26  O   UNL A   1      29.886  29.705  21.626  1.00  0.00    -0.258 OA
ENDBRANCH  21  24
ENDBRANCH  16  17
ENDBRANCH  13  15
ENDBRANCH  12  13
ENDBRANCH   6   7
ENDBRANCH   5   6
ENDBRANCH   3   5
ENDBRANCH   2   3
ENDBRANCH   1   2
BRANCH   1  27
ATOM     27  C   UNL A   1      43.538  19.199  25.215  1.00  0.00     0.202 C 
BRANCH  27  28
ATOM     28  O   UNL A   1      44.847  19.649  25.534  1.00  0.00    -0.374 OA
BRANCH  28  29
ATOM     29  C   UNL A   1      45.310  20.853  24.917  1.00  0.00     0.202 C 
BRANCH  29  30
ATOM     30  C   UNL A   1      45.440  22.123  25.768  1.00  0.00     0.261 C 
BRANCH  30  31
ATOM     31  O   UNL A   1      44.214  22.511  26.407  1.00  0.00    -0.460 OA
BRANCH  31  32
ATOM     32  C   UNL A   1      43.425  23.335  25.677  1.00  0.00     0.338 C 
ATOM     33  O   UNL A   1      43.026  23.161  24.535  1.00  0.00    -0.246 OA
BRANCH  32  34
ATOM     34  C   UNL A   1      42.907  24.402  26.552  1.00  0.00     0.060 A 
ATOM     35  C   UNL A   1      43.493  25.674  26.468  1.00  0.00     0.016 A 
ATOM     36  C   UNL A   1      41.875  24.149  27.455  1.00  0.00     0.016 A 
ATOM     37  C   UNL A   1      43.064  26.697  27.311  1.00  0.00     0.010 A 
ATOM     38  C   UNL A   1      41.460  25.169  28.311  1.00  0.00     0.010 A 
ATOM     39  C   UNL A   1      42.068  26.437  28.258  1.00  0.00    -0.014 A 
BRANCH  39  40
ATOM     40  C   UNL A   1      41.725  27.447  29.282  1.00  0.00     0.031 A 
ATOM     41  C   UNL A   1      42.459  27.422  30.592  1.00  0.00     0.074 A 
ATOM     42  C   UNL A   1      40.745  28.339  29.055  1.00  0.00     0.049 A 
ATOM     43  N   UNL A   1      42.225  28.101  31.683  1.00  0.00    -0.248 NA
ATOM     44  C   UNL A   1      43.604  26.501  30.687  1.00  0.00     0.031 C 
ATOM     45  C   UNL A   1      39.996  28.471  27.805  1.00  0.00     0.029 A 
ATOM     46  N   UNL A   1      40.190  29.281  29.882  1.00  0.00    -0.354 N 
ATOM     47  C   UNL A   1      43.175  27.674  32.602  1.00  0.00     0.074 A 
ATOM     48  C   UNL A   1      43.984  26.671  31.945  1.00  0.00     0.031 C 
ATOM     49  C   UNL A   1      39.052  29.414  27.961  1.00  0.00     0.029 A 
ATOM     50  C   UNL A   1      39.103  29.918  29.332  1.00  0.00     0.049 A 
ATOM     51  H   UNL A   1      40.536  29.483  30.781  1.00  0.00     0.167 HD
ATOM     52  C   UNL A   1      43.348  28.085  33.878  1.00  0.00     0.037 A 
ATOM     53  C   UNL A   1      38.223  30.769  29.892  1.00  0.00     0.037 A 
ATOM     54  C   UNL A   1      42.541  29.094  34.513  1.00  0.00     0.049 A 
ATOM     55  C   UNL A   1      38.401  31.154  31.339  1.00  0.00     0.074 A 
ATOM     56  C   UNL A   1      42.671  29.623  35.784  1.00  0.00     0.029 A 
ATOM     57  N   UNL A   1      41.448  29.712  33.928  1.00  0.00    -0.354 N 
ATOM     58  N   UNL A   1      39.334  30.789  32.185  1.00  0.00    -0.248 NA
ATOM     59  C   UNL A   1      37.398  32.065  31.911  1.00  0.00     0.031 C 
ATOM     60  C   UNL A   1      41.614  30.513  35.993  1.00  0.00     0.029 A 
ATOM     61  C   UNL A   1      40.864  30.584  34.830  1.00  0.00     0.049 A 
ATOM     62  H   UNL A   1      41.133  29.554  33.008  1.00  0.00     0.167 HD
ATOM     63  C   UNL A   1      39.044  31.440  33.377  1.00  0.00     0.074 A 
ATOM     64  C   UNL A   1      37.864  32.243  33.139  1.00  0.00     0.031 C 
ATOM     65  C   UNL A   1      39.691  31.378  34.567  1.00  0.00     0.037 A 
BRANCH  52  66
ATOM     66  C   UNL A   1      44.424  27.434  34.693  1.00  0.00     0.057 A 
ATOM     67  C   UNL A   1      44.192  26.273  35.442  1.00  0.00     0.134 A 
ATOM     68  C   UNL A   1      45.735  27.928  34.656  1.00  0.00     0.134 A 
ATOM     69  F   UNL A   1      42.958  25.756  35.530  1.00  0.00    -0.206 F 
ATOM     70  C   UNL A   1      45.225  25.629  36.125  1.00  0.00     0.040 A 
ATOM     71  C   UNL A   1      46.780  27.280  35.315  1.00  0.00     0.040 A 
ATOM     72  F   UNL A   1      46.024  29.035  33.957  1.00  0.00    -0.206 F 
ATOM     73  C   UNL A   1      46.526  26.125  36.052  1.00  0.00     0.006 A 
ENDBRANCH  52  66
BRANCH  53  74
ATOM     74  C   UNL A   1      37.060  31.273  29.115  1.00  0.00     0.057 A 
ATOM     75  C   UNL A   1      37.012  32.593  28.651  1.00  0.00     0.134 A 
ATOM     76  C   UNL A   1      35.944  30.464  28.866  1.00  0.00     0.134 A 
ATOM     77  F   UNL A   1      38.039  33.425  28.876  1.00  0.00    -0.206 F 
ATOM     78  C   UNL A   1      35.885  33.100  27.999  1.00  0.00     0.040 A 
ATOM     79  C   UNL A   1      34.825  30.948  28.187  1.00  0.00     0.040 A 
ATOM     80  F   UNL A   1      35.925  29.188  29.277  1.00  0.00    -0.206 F 
ATOM     81  C   UNL A   1      34.788  32.275  27.765  1.00  0.00     0.006 A 
ENDBRANCH  53  74
BRANCH  65  82
ATOM     82  C   UNL A   1      39.152  32.214  35.691  1.00  0.00     0.057 A 
ATOM     83  C   UNL A   1      38.243  31.697  36.623  1.00  0.00     0.134 A 
ATOM     84  C   UNL A   1      39.589  33.532  35.874  1.00  0.00     0.134 A 
ATOM     85  F   UNL A   1      37.776  30.446  36.497  1.00  0.00    -0.206 F 
ATOM     86  C   UNL A   1      37.773  32.469  37.687  1.00  0.00     0.040 A 
ATOM     87  C   UNL A   1      39.150  34.303  36.951  1.00  0.00     0.040 A 
ATOM     88  F   UNL A   1      40.467  34.083  35.024  1.00  0.00    -0.206 F 
ATOM     89  C   UNL A   1      38.235  33.772  37.858  1.00  0.00     0.006 A 
ENDBRANCH  65  82
ENDBRANCH  39  40
ENDBRANCH  32  34
ENDBRANCH  31  32
ENDBRANCH  30  31
ENDBRANCH  29  30
ENDBRANCH  28  29
ENDBRANCH  27  28
ENDBRANCH   1  27
TORSDOF 20
ENDMDL
MODEL 2
REMARK VINA RESULT:     -11.0      2.347      6.826
REMARK SMILES O=C(COc1ccc(C(=O)/C=C/c2ccc(Cl)c([N+](=O)[O-])c2)cc1)OCCOCCOC(=O)c1ccc(-c2c3nc(c(-c4c(F)cccc4F)c4ccc([nH]4)c(-c4c(F)cccc4F)c4nc(c(-c5c(F)cccc5F)c5ccc2[nH]5)C=C4)C=C3)cc1
REMARK SMILES IDX 26 1 25 2 2 3 1 4 3 5 4 6 5 7 6 8 24 9 7 10 23 11 8 12 9 13
REMARK SMILES IDX 10 14 11 15 12 16 13 17 14 18 22 19 15 20 18 21 16 22 17 23
REMARK SMILES IDX 19 24 20 25 21 26 27 27 28 28 29 29 30 30 31 31 32 32 33 33
REMARK SMILES IDX 34 34 35 35 87 36 36 37 86 38 37 39 38 40 39 41 80 42 40 43
REMARK SMILES IDX 85 44 79 45 81 46 41 47 84 48 78 49 77 50 42 52 68 53 51 54
REMARK SMILES IDX 67 55 52 56 55 57 66 58 82 59 53 60 54 61 65 63 83 64 56 65
REMARK SMILES IDX 43 66 44 67 49 68 45 69 46 70 48 71 50 72 47 73 69 74 70 75
REMARK SMILES IDX 75 76 71 77 72 78 74 79 76 80 73 81 57 82 58 83 63 84 59 85
REMARK SMILES IDX 60 86 62 87 64 88 61 89
REMARK H PARENT 81 51 55 62
REMARK Flexibility Score: inf
ROOT
ATOM      1  C   UNL A   1      45.234  20.569  24.235  1.00  0.00     0.261 C 
ENDROOT
BRANCH   1   2
ATOM      2  O   UNL A   1      43.981  19.913  24.486  1.00  0.00    -0.461 OA
BRANCH   2   3
ATOM      3  C   UNL A   1      43.821  18.887  25.360  1.00  0.00     0.344 C 
ATOM      4  O   UNL A   1      44.738  18.082  25.524  1.00  0.00    -0.248 OA
BRANCH   3   5
ATOM      5  C   UNL A   1      42.487  18.733  26.094  1.00  0.00     0.351 C 
BRANCH   5   6
ATOM      6  O   UNL A   1      42.203  19.431  27.299  1.00  0.00    -0.482 OA
BRANCH   6   7
ATOM      7  C   UNL A   1      41.364  20.497  27.139  1.00  0.00     0.120 A 
ATOM      8  C   UNL A   1      41.529  21.570  28.007  1.00  0.00     0.047 A 
ATOM      9  C   UNL A   1      40.316  20.506  26.222  1.00  0.00     0.047 A 
ATOM     10  C   UNL A   1      40.761  22.725  27.831  1.00  0.00     0.016 A 
ATOM     11  C   UNL A   1      39.529  21.636  26.069  1.00  0.00     0.016 A 
ATOM     12  C   UNL A   1      39.815  22.787  26.800  1.00  0.00     0.022 A 
BRANCH  12  13
ATOM     13  C   UNL A   1      39.134  24.070  26.499  1.00  0.00     0.185 C 
ATOM     14  O   UNL A   1      39.705  25.135  26.712  1.00  0.00    -0.289 OA
BRANCH  13  15
ATOM     15  C   UNL A   1      37.749  24.079  25.929  1.00  0.00     0.053 C 
ATOM     16  C   UNL A   1      36.665  23.541  26.511  1.00  0.00     0.012 C 
BRANCH  16  17
ATOM     17  C   UNL A   1      35.324  23.619  25.938  1.00  0.00    -0.019 A 
ATOM     18  C   UNL A   1      34.207  23.321  26.722  1.00  0.00     0.010 A 
ATOM     19  C   UNL A   1      35.152  23.928  24.588  1.00  0.00     0.095 A 
ATOM     20  C   UNL A   1      32.930  23.335  26.155  1.00  0.00     0.028 A 
ATOM     21  C   UNL A   1      33.866  23.929  24.006  1.00  0.00     0.288 A 
ATOM     22  C   UNL A   1      32.745  23.634  24.796  1.00  0.00     0.118 A 
ATOM     23  Cl  UNL A   1      31.102  23.593  24.260  1.00  0.00    -0.077 Cl
BRANCH  21  24
ATOM     24  N   UNL A   1      33.789  24.225  22.567  1.00  0.00     0.064 N 
ATOM     25  O   UNL A   1      33.871  25.394  22.180  1.00  0.00    -0.258 OA
ATOM     26  O   UNL A   1      33.635  23.261  21.801  1.00  0.00    -0.258 OA
ENDBRANCH  21  24
ENDBRANCH  16  17
ENDBRANCH  13  15
ENDBRANCH  12  13
ENDBRANCH   6   7
ENDBRANCH   5   6
ENDBRANCH   3   5
ENDBRANCH   2   3
ENDBRANCH   1   2
BRANCH   1  27
ATOM     27  C   UNL A   1      45.092  22.069  24.045  1.00  0.00     0.202 C 
BRANCH  27  28
ATOM     28  O   UNL A   1      43.783  22.576  23.827  1.00  0.00    -0.374 OA
BRANCH  28  29
ATOM     29  C   UNL A   1      43.170  23.323  24.882  1.00  0.00     0.202 C 
BRANCH  29  30
ATOM     30  C   UNL A   1      43.256  24.855  24.856  1.00  0.00     0.261 C 
BRANCH  30  31
ATOM     31  O   UNL A   1      44.579  25.357  25.102  1.00  0.00    -0.460 OA
BRANCH  31  32
ATOM     32  C   UNL A   1      45.072  25.087  26.336  1.00  0.00     0.338 C 
ATOM     33  O   UNL A   1      46.112  24.507  26.608  1.00  0.00    -0.246 OA
BRANCH  32  34
ATOM     34  C   UNL A   1      44.271  25.810  27.339  1.00  0.00     0.060 A 
ATOM     35  C   UNL A   1      44.489  27.187  27.496  1.00  0.00     0.016 A 
ATOM     36  C   UNL A   1      43.335  25.141  28.127  1.00  0.00     0.016 A 
ATOM     37  C   UNL A   1      43.786  27.899  28.466  1.00  0.00     0.010 A 
ATOM     38  C   UNL A   1      42.646  25.851  29.111  1.00  0.00     0.010 A 
ATOM     39  C   UNL A   1      42.886  27.224  29.298  1.00  0.00    -0.014 A 
BRANCH  39  40
ATOM     40  C   UNL A   1      42.267  27.916  30.449  1.00  0.00     0.031 A 
ATOM     41  C   UNL A   1      41.024  28.726  30.220  1.00  0.00     0.074 A 
ATOM     42  C   UNL A   1      42.837  27.852  31.666  1.00  0.00     0.049 A 
ATOM     43  N   UNL A   1      40.402  29.535  31.035  1.00  0.00    -0.248 NA
ATOM     44  C   UNL A   1      40.405  28.618  28.888  1.00  0.00     0.031 C 
ATOM     45  C   UNL A   1      44.023  27.066  32.003  1.00  0.00     0.029 A 
ATOM     46  N   UNL A   1      42.509  28.488  32.836  1.00  0.00    -0.354 N 
ATOM     47  C   UNL A   1      39.334  30.050  30.312  1.00  0.00     0.074 A 
ATOM     48  C   UNL A   1      39.396  29.472  28.988  1.00  0.00     0.031 C 
ATOM     49  C   UNL A   1      44.347  27.295  33.287  1.00  0.00     0.029 A 
ATOM     50  C   UNL A   1      43.419  28.277  33.844  1.00  0.00     0.049 A 
ATOM     51  H   UNL A   1      41.702  29.041  32.944  1.00  0.00     0.167 HD
ATOM     52  C   UNL A   1      38.393  30.930  30.722  1.00  0.00     0.037 A 
ATOM     53  C   UNL A   1      43.516  28.852  35.057  1.00  0.00     0.037 A 
ATOM     54  C   UNL A   1      38.339  31.488  32.047  1.00  0.00     0.049 A 
ATOM     55  C   UNL A   1      42.492  29.883  35.460  1.00  0.00     0.074 A 
ATOM     56  C   UNL A   1      37.393  32.344  32.582  1.00  0.00     0.029 A 
ATOM     57  N   UNL A   1      39.279  31.255  33.039  1.00  0.00    -0.354 N 
ATOM     58  N   UNL A   1      41.454  30.324  34.791  1.00  0.00    -0.248 NA
ATOM     59  C   UNL A   1      42.657  30.501  36.784  1.00  0.00     0.031 C 
ATOM     60  C   UNL A   1      37.797  32.683  33.876  1.00  0.00     0.029 A 
ATOM     61  C   UNL A   1      38.960  31.990  34.168  1.00  0.00     0.049 A 
ATOM     62  H   UNL A   1      40.056  30.657  32.954  1.00  0.00     0.167 HD
ATOM     63  C   UNL A   1      40.832  31.251  35.618  1.00  0.00     0.074 A 
ATOM     64  C   UNL A   1      41.595  31.291  36.848  1.00  0.00     0.031 C 
ATOM     65  C   UNL A   1      39.733  32.008  35.384  1.00  0.00     0.037 A 
BRANCH  52  66
ATOM     66  C   UNL A   1      37.360  31.376  29.732  1.00  0.00     0.057 A 
ATOM     67  C   UNL A   1      36.189  30.644  29.496  1.00  0.00     0.134 A 
ATOM     68  C   UNL A   1      37.498  32.604  29.071  1.00  0.00     0.134 A 
ATOM     69  F   UNL A   1      36.001  29.455  30.087  1.00  0.00    -0.206 F 
ATOM     70  C   UNL A   1      35.195  31.116  28.637  1.00  0.00     0.040 A 
ATOM     71  C   UNL A   1      36.502  33.098  28.229  1.00  0.00     0.040 A 
ATOM     72  F   UNL A   1      38.595  33.355  29.254  1.00  0.00    -0.206 F 
ATOM     73  C   UNL A   1      35.345  32.353  28.011  1.00  0.00     0.006 A 
ENDBRANCH  52  66
BRANCH  53  74
ATOM     74  C   UNL A   1      44.649  28.523  35.962  1.00  0.00     0.057 A 
ATOM     75  C   UNL A   1      44.534  27.528  36.940  1.00  0.00     0.134 A 
ATOM     76  C   UNL A   1      45.856  29.233  35.907  1.00  0.00     0.134 A 
ATOM     77  F   UNL A   1      43.397  26.827  37.058  1.00  0.00    -0.206 F 
ATOM     78  C   UNL A   1      45.561  27.274  37.852  1.00  0.00     0.040 A 
ATOM     79  C   UNL A   1      46.903  28.968  36.791  1.00  0.00     0.040 A 
ATOM     80  F   UNL A   1      46.036  30.195  34.990  1.00  0.00    -0.206 F 
ATOM     81  C   UNL A   1      46.751  27.996  37.777  1.00  0.00     0.006 A 
ENDBRANCH  53  74
BRANCH  65  82
ATOM     82  C   UNL A   1      39.277  32.923  36.483  1.00  0.00     0.057 A 
ATOM     83  C   UNL A   1      38.335  32.517  37.437  1.00  0.00     0.134 A 
ATOM     84  C   UNL A   1      39.827  34.205  36.619  1.00  0.00     0.134 A 
ATOM     85  F   UNL A   1      37.762  31.307  37.355  1.00  0.00    -0.206 F 
ATOM     86  C   UNL A   1      37.942  33.360  38.478  1.00  0.00     0.040 A 
ATOM     87  C   UNL A   1      39.464  35.045  37.672  1.00  0.00     0.040 A 
ATOM     88  F   UNL A   1      40.741  34.651  35.747  1.00  0.00    -0.206 F 
ATOM     89  C   UNL A   1      38.515  34.624  38.602  1.00  0.00     0.006 A 
ENDBRANCH  65  82
ENDBRANCH  39  40
ENDBRANCH  32  34
ENDBRANCH  31  32
ENDBRANCH  30  31
ENDBRANCH  29  30
ENDBRANCH  28  29
ENDBRANCH  27  28
ENDBRANCH   1  27
TORSDOF 20
ENDMDL
MODEL 3
REMARK VINA RESULT:     -11.0      2.337      3.497
REMARK SMILES O=C(COc1ccc(C(=O)/C=C/c2ccc(Cl)c([N+](=O)[O-])c2)cc1)OCCOCCOC(=O)c1ccc(-c2c3nc(c(-c4c(F)cccc4F)c4ccc([nH]4)c(-c4c(F)cccc4F)c4nc(c(-c5c(F)cccc5F)c5ccc2[nH]5)C=C4)C=C3)cc1
REMARK SMILES IDX 26 1 25 2 2 3 1 4 3 5 4 6 5 7 6 8 24 9 7 10 23 11 8 12 9 13
REMARK SMILES IDX 10 14 11 15 12 16 13 17 14 18 22 19 15 20 18 21 16 22 17 23
REMARK SMILES IDX 19 24 20 25 21 26 27 27 28 28 29 29 30 30 31 31 32 32 33 33
REMARK SMILES IDX 34 34 35 35 87 36 36 37 86 38 37 39 38 40 39 41 80 42 40 43
REMARK SMILES IDX 85 44 79 45 81 46 41 47 84 48 78 49 77 50 42 52 68 53 51 54
REMARK SMILES IDX 67 55 52 56 55 57 66 58 82 59 53 60 54 61 65 63 83 64 56 65
REMARK SMILES IDX 43 66 44 67 49 68 45 69 46 70 48 71 50 72 47 73 69 74 70 75
REMARK SMILES IDX 75 76 71 77 72 78 74 79 76 80 73 81 57 82 58 83 63 84 59 85
REMARK SMILES IDX 60 86 62 87 64 88 61 89
REMARK H PARENT 81 51 55 62
REMARK Flexibility Score: inf
ROOT
ATOM      1  C   UNL A   1      45.442  19.644  23.849  1.00  0.00     0.261 C 
ENDROOT
BRANCH   1   2
ATOM      2  O   UNL A   1      44.114  19.457  24.364  1.00  0.00    -0.461 OA
BRANCH   2   3
ATOM      3  C   UNL A   1      43.812  18.654  25.416  1.00  0.00     0.344 C 
ATOM      4  O   UNL A   1      44.657  17.864  25.838  1.00  0.00    -0.248 OA
BRANCH   3   5
ATOM      5  C   UNL A   1      42.412  18.723  26.030  1.00  0.00     0.351 C 
BRANCH   5   6
ATOM      6  O   UNL A   1      42.148  19.437  27.231  1.00  0.00    -0.482 OA
BRANCH   6   7
ATOM      7  C   UNL A   1      41.240  20.447  27.088  1.00  0.00     0.120 A 
ATOM      8  C   UNL A   1      41.405  21.567  27.894  1.00  0.00     0.047 A 
ATOM      9  C   UNL A   1      40.130  20.356  26.252  1.00  0.00     0.047 A 
ATOM     10  C   UNL A   1      40.561  22.669  27.726  1.00  0.00     0.016 A 
ATOM     11  C   UNL A   1      39.270  21.432  26.110  1.00  0.00     0.016 A 
ATOM     12  C   UNL A   1      39.540  22.630  26.768  1.00  0.00     0.022 A 
BRANCH  12  13
ATOM     13  C   UNL A   1      38.766  23.859  26.463  1.00  0.00     0.185 C 
ATOM     14  O   UNL A   1      39.328  24.949  26.432  1.00  0.00    -0.289 OA
BRANCH  13  15
ATOM     15  C   UNL A   1      37.296  23.782  26.186  1.00  0.00     0.053 C 
ATOM     16  C   UNL A   1      36.728  23.884  24.975  1.00  0.00     0.012 C 
BRANCH  16  17
ATOM     17  C   UNL A   1      35.290  23.752  24.749  1.00  0.00    -0.019 A 
ATOM     18  C   UNL A   1      34.815  23.187  23.563  1.00  0.00     0.010 A 
ATOM     19  C   UNL A   1      34.382  24.248  25.685  1.00  0.00     0.095 A 
ATOM     20  C   UNL A   1      33.440  23.120  23.321  1.00  0.00     0.028 A 
ATOM     21  C   UNL A   1      32.993  24.197  25.440  1.00  0.00     0.288 A 
ATOM     22  C   UNL A   1      32.517  23.624  24.251  1.00  0.00     0.118 A 
ATOM     23  Cl  UNL A   1      30.859  23.472  23.786  1.00  0.00    -0.077 Cl
BRANCH  21  24
ATOM     24  N   UNL A   1      32.116  24.783  26.466  1.00  0.00     0.064 N 
ATOM     25  O   UNL A   1      31.937  26.004  26.489  1.00  0.00    -0.258 OA
ATOM     26  O   UNL A   1      31.598  24.002  27.278  1.00  0.00    -0.258 OA
ENDBRANCH  21  24
ENDBRANCH  16  17
ENDBRANCH  13  15
ENDBRANCH  12  13
ENDBRANCH   6   7
ENDBRANCH   5   6
ENDBRANCH   3   5
ENDBRANCH   2   3
ENDBRANCH   1   2
BRANCH   1  27
ATOM     27  C   UNL A   1      46.266  20.620  24.671  1.00  0.00     0.202 C 
BRANCH  27  28
ATOM     28  O   UNL A   1      46.398  21.943  24.170  1.00  0.00    -0.374 OA
BRANCH  28  29
ATOM     29  C   UNL A   1      45.210  22.625  23.761  1.00  0.00     0.202 C 
BRANCH  29  30
ATOM     30  C   UNL A   1      44.638  23.728  24.662  1.00  0.00     0.261 C 
BRANCH  30  31
ATOM     31  O   UNL A   1      44.439  23.309  26.021  1.00  0.00    -0.460 OA
BRANCH  31  32
ATOM     32  C   UNL A   1      45.310  23.837  26.915  1.00  0.00     0.338 C 
ATOM     33  O   UNL A   1      46.520  23.670  26.960  1.00  0.00    -0.246 OA
BRANCH  32  34
ATOM     34  C   UNL A   1      44.612  24.857  27.718  1.00  0.00     0.060 A 
ATOM     35  C   UNL A   1      45.028  26.192  27.604  1.00  0.00     0.016 A 
ATOM     36  C   UNL A   1      43.577  24.503  28.582  1.00  0.00     0.016 A 
ATOM     37  C   UNL A   1      44.424  27.179  28.380  1.00  0.00     0.010 A 
ATOM     38  C   UNL A   1      42.987  25.489  29.373  1.00  0.00     0.010 A 
ATOM     39  C   UNL A   1      43.424  26.824  29.291  1.00  0.00    -0.014 A 
BRANCH  39  40
ATOM     40  C   UNL A   1      42.898  27.818  30.252  1.00  0.00     0.031 A 
ATOM     41  C   UNL A   1      43.537  27.916  31.607  1.00  0.00     0.074 A 
ATOM     42  C   UNL A   1      41.841  28.583  29.928  1.00  0.00     0.049 A 
ATOM     43  N   UNL A   1      43.152  28.595  32.654  1.00  0.00    -0.248 NA
ATOM     44  C   UNL A   1      44.770  27.137  31.812  1.00  0.00     0.031 C 
ATOM     45  C   UNL A   1      41.171  28.591  28.628  1.00  0.00     0.029 A 
ATOM     46  N   UNL A   1      41.127  29.479  30.681  1.00  0.00    -0.354 N 
ATOM     47  C   UNL A   1      44.079  28.308  33.649  1.00  0.00     0.074 A 
ATOM     48  C   UNL A   1      45.040  27.386  33.085  1.00  0.00     0.031 C 
ATOM     49  C   UNL A   1      40.117  29.423  28.687  1.00  0.00     0.029 A 
ATOM     50  C   UNL A   1      40.016  29.968  30.038  1.00  0.00     0.049 A 
ATOM     51  H   UNL A   1      41.385  29.745  31.593  1.00  0.00     0.167 HD
ATOM     52  C   UNL A   1      44.115  28.773  34.918  1.00  0.00     0.037 A 
ATOM     53  C   UNL A   1      39.008  30.728  30.507  1.00  0.00     0.037 A 
ATOM     54  C   UNL A   1      43.157  29.700  35.460  1.00  0.00     0.049 A 
ATOM     55  C   UNL A   1      39.040  31.174  31.948  1.00  0.00     0.074 A 
ATOM     56  C   UNL A   1      43.137  30.278  36.717  1.00  0.00     0.029 A 
ATOM     57  N   UNL A   1      42.044  30.170  34.782  1.00  0.00    -0.354 N 
ATOM     58  N   UNL A   1      39.947  30.944  32.866  1.00  0.00    -0.248 NA
ATOM     59  C   UNL A   1      37.903  31.979  32.419  1.00  0.00     0.031 C 
ATOM     60  C   UNL A   1      41.974  31.046  36.823  1.00  0.00     0.029 A 
ATOM     61  C   UNL A   1      41.303  30.995  35.611  1.00  0.00     0.049 A 
ATOM     62  H   UNL A   1      41.814  29.950  33.850  1.00  0.00     0.167 HD
ATOM     63  C   UNL A   1      39.504  31.591  34.012  1.00  0.00     0.074 A 
ATOM     64  C   UNL A   1      38.259  32.245  33.667  1.00  0.00     0.031 C 
ATOM     65  C   UNL A   1      40.069  31.639  35.243  1.00  0.00     0.037 A 
BRANCH  52  66
ATOM     66  C   UNL A   1      45.199  28.275  35.825  1.00  0.00     0.057 A 
ATOM     67  C   UNL A   1      46.396  28.978  36.012  1.00  0.00     0.134 A 
ATOM     68  C   UNL A   1      45.002  27.119  36.592  1.00  0.00     0.134 A 
ATOM     69  F   UNL A   1      46.652  30.085  35.300  1.00  0.00    -0.206 F 
ATOM     70  C   UNL A   1      47.358  28.547  36.927  1.00  0.00     0.040 A 
ATOM     71  C   UNL A   1      45.945  26.691  37.527  1.00  0.00     0.040 A 
ATOM     72  F   UNL A   1      43.877  26.400  36.462  1.00  0.00    -0.206 F 
ATOM     73  C   UNL A   1      47.128  27.408  37.698  1.00  0.00     0.006 A 
ENDBRANCH  52  66
BRANCH  53  74
ATOM     74  C   UNL A   1      37.852  31.072  29.638  1.00  0.00     0.057 A 
ATOM     75  C   UNL A   1      37.737  32.334  29.044  1.00  0.00     0.134 A 
ATOM     76  C   UNL A   1      36.806  30.164  29.424  1.00  0.00     0.134 A 
ATOM     77  F   UNL A   1      38.694  33.255  29.228  1.00  0.00    -0.206 F 
ATOM     78  C   UNL A   1      36.611  32.695  28.300  1.00  0.00     0.040 A 
ATOM     79  C   UNL A   1      35.690  30.500  28.656  1.00  0.00     0.040 A 
ATOM     80  F   UNL A   1      36.854  28.935  29.958  1.00  0.00    -0.206 F 
ATOM     81  C   UNL A   1      35.584  31.774  28.104  1.00  0.00     0.006 A 
ENDBRANCH  53  74
BRANCH  65  82
ATOM     82  C   UNL A   1      39.362  32.440  36.297  1.00  0.00     0.057 A 
ATOM     83  C   UNL A   1      39.700  33.774  36.560  1.00  0.00     0.134 A 
ATOM     84  C   UNL A   1      38.295  31.887  37.018  1.00  0.00     0.134 A 
ATOM     85  F   UNL A   1      40.719  34.357  35.913  1.00  0.00    -0.206 F 
ATOM     86  C   UNL A   1      39.014  34.524  37.517  1.00  0.00     0.040 A 
ATOM     87  C   UNL A   1      37.582  32.636  37.955  1.00  0.00     0.040 A 
ATOM     88  F   UNL A   1      37.913  30.620  36.806  1.00  0.00    -0.206 F 
ATOM     89  C   UNL A   1      37.946  33.957  38.210  1.00  0.00     0.006 A 
ENDBRANCH  65  82
ENDBRANCH  39  40
ENDBRANCH  32  34
ENDBRANCH  31  32
ENDBRANCH  30  31
ENDBRANCH  29  30
ENDBRANCH  28  29
ENDBRANCH  27  28
ENDBRANCH   1  27
TORSDOF 20
ENDMDL
