MODEL 1
REMARK VINA RESULT:     -11.3      0.000      0.000
REMARK SMILES Cc1ccc(N2CC[C@H]([NH+]3CCOCC3)[C@H](CCC(=O)OCCOCCOC(=O)c3ccc(-c4c5nc(c(-c6c(F)cccc6F)c6ccc([nH]6)c(-c6c(F)cccc6F)c6nc(c(-c7c(F)cccc7F)c7ccc4[nH]7)C=C6)C=C5)cc3)C2)nc1
REMARK SMILES IDX 23 1 22 2 21 3 19 4 20 5 18 6 17 7 16 8 6 9 7 10 84 11 8 12
REMARK SMILES IDX 9 13 5 14 1 15 2 16 3 17 86 18 4 19 85 20 10 21 11 22 15 23
REMARK SMILES IDX 12 25 14 26 13 27 24 28 25 29 26 30 27 31 28 32 29 33 30 34
REMARK SMILES IDX 31 35 83 36 32 37 82 38 33 39 34 40 35 41 76 42 36 43 81 44
REMARK SMILES IDX 75 45 77 46 37 47 80 48 74 49 73 50 38 52 64 53 47 54 63 55
REMARK SMILES IDX 48 56 51 57 62 58 78 59 49 60 50 61 61 63 79 64 52 65 39 66
REMARK SMILES IDX 40 67 45 68 41 69 42 70 44 71 46 72 43 73 65 74 66 75 71 76
REMARK SMILES IDX 67 77 68 78 70 79 72 80 69 81 53 82 54 83 59 84 55 85 56 86
REMARK SMILES IDX 58 87 60 88 57 89
REMARK H PARENT 10 24 77 51 51 62
REMARK Flexibility Score: inf
ROOT
ATOM      1  C   UNL A   1      39.827  21.318  26.358  1.00  0.00     0.202 C 
ENDROOT
BRANCH   1   2
ATOM      2  C   UNL A   1      38.596  21.420  25.455  1.00  0.00     0.261 C 
BRANCH   2   3
ATOM      3  O   UNL A   1      37.671  22.382  25.986  1.00  0.00    -0.463 OA
BRANCH   3   4
ATOM      4  C   UNL A   1      36.669  22.745  25.151  1.00  0.00     0.305 C 
ATOM      5  O   UNL A   1      36.279  22.086  24.192  1.00  0.00    -0.252 OA
BRANCH   4   6
ATOM      6  C   UNL A   1      35.945  23.986  25.621  1.00  0.00     0.123 C 
BRANCH   6   7
ATOM      7  C   UNL A   1      34.741  24.532  24.851  1.00  0.00     0.023 C 
BRANCH   7   8
ATOM      8  C   UNL A   1      33.557  25.295  25.511  1.00  0.00     0.067 C 
ATOM      9  N   UNL A   1      32.017  23.326  25.705  1.00  0.00    -0.356 N 
ATOM     10  C   UNL A   1      31.024  23.886  24.804  1.00  0.00     0.124 C 
ATOM     11  C   UNL A   1      32.843  24.265  26.460  1.00  0.00     0.127 C 
ATOM     12  C   UNL A   1      31.658  24.881  23.840  1.00  0.00     0.087 C 
ATOM     13  C   UNL A   1      32.428  25.957  24.622  1.00  0.00     0.190 C 
BRANCH   9  14
ATOM     14  C   UNL A   1      32.464  22.053  25.397  1.00  0.00     0.128 A 
ATOM     15  C   UNL A   1      34.270  18.335  24.323  1.00  0.00     0.046 C 
ATOM     16  C   UNL A   1      33.602  19.627  24.668  1.00  0.00    -0.033 A 
ATOM     17  C   UNL A   1      32.693  20.246  23.816  1.00  0.00     0.009 A 
ATOM     18  C   UNL A   1      33.862  20.260  25.873  1.00  0.00     0.117 A 
ATOM     19  C   UNL A   1      32.111  21.461  24.189  1.00  0.00     0.047 A 
ATOM     20  N   UNL A   1      33.332  21.449  26.238  1.00  0.00    -0.239 NA
ENDBRANCH   9  14
BRANCH  13  21
ATOM     21  N   UNL A   1      32.716  27.219  23.906  1.00  0.00    -0.328 N 
ATOM     22  C   UNL A   1      33.833  28.015  24.476  1.00  0.00     0.291 C 
ATOM     23  C   UNL A   1      31.641  28.146  23.568  1.00  0.00     0.291 C 
ATOM     24  H   UNL A   1      32.965  26.778  23.021  1.00  0.00     0.348 HD
ATOM     25  C   UNL A   1      33.441  29.128  25.480  1.00  0.00     0.221 C 
ATOM     26  C   UNL A   1      31.245  29.140  24.658  1.00  0.00     0.221 C 
ATOM     27  O   UNL A   1      32.368  29.950  25.011  1.00  0.00    -0.370 OA
ENDBRANCH  13  21
ENDBRANCH   7   8
ENDBRANCH   6   7
ENDBRANCH   4   6
ENDBRANCH   3   4
ENDBRANCH   2   3
ENDBRANCH   1   2
BRANCH   1  28
ATOM     28  O   UNL A   1      40.986  22.059  25.969  1.00  0.00    -0.374 OA
BRANCH  28  29
ATOM     29  C   UNL A   1      42.252  21.410  26.025  1.00  0.00     0.202 C 
BRANCH  29  30
ATOM     30  C   UNL A   1      43.450  22.111  25.364  1.00  0.00     0.261 C 
BRANCH  30  31
ATOM     31  O   UNL A   1      43.124  23.320  24.660  1.00  0.00    -0.460 OA
BRANCH  31  32
ATOM     32  C   UNL A   1      43.890  24.383  25.011  1.00  0.00     0.338 C 
ATOM     33  O   UNL A   1      45.024  24.639  24.633  1.00  0.00    -0.246 OA
BRANCH  32  34
ATOM     34  C   UNL A   1      43.134  25.327  25.852  1.00  0.00     0.060 A 
ATOM     35  C   UNL A   1      43.815  26.460  26.310  1.00  0.00     0.016 A 
ATOM     36  C   UNL A   1      41.846  25.039  26.306  1.00  0.00     0.016 A 
ATOM     37  C   UNL A   1      43.232  27.284  27.269  1.00  0.00     0.010 A 
ATOM     38  C   UNL A   1      41.263  25.865  27.278  1.00  0.00     0.010 A 
ATOM     39  C   UNL A   1      41.970  26.966  27.792  1.00  0.00    -0.014 A 
BRANCH  39  40
ATOM     40  C   UNL A   1      41.481  27.720  28.973  1.00  0.00     0.031 A 
ATOM     41  C   UNL A   1      42.220  27.611  30.279  1.00  0.00     0.074 A 
ATOM     42  C   UNL A   1      40.434  28.557  28.862  1.00  0.00     0.049 A 
ATOM     43  N   UNL A   1      42.008  28.242  31.406  1.00  0.00    -0.248 NA
ATOM     44  C   UNL A   1      43.348  26.668  30.320  1.00  0.00     0.031 C 
ATOM     45  C   UNL A   1      39.651  28.773  27.647  1.00  0.00     0.029 A 
ATOM     46  N   UNL A   1      39.858  29.390  29.789  1.00  0.00    -0.354 N 
ATOM     47  C   UNL A   1      42.978  27.778  32.286  1.00  0.00     0.074 A 
ATOM     48  C   UNL A   1      43.758  26.789  31.574  1.00  0.00     0.031 C 
ATOM     49  C   UNL A   1      38.694  29.681  27.903  1.00  0.00     0.029 A 
ATOM     50  C   UNL A   1      38.789  30.099  29.300  1.00  0.00     0.049 A 
ATOM     51  H   UNL A   1      40.179  29.470  30.715  1.00  0.00     0.167 HD
ATOM     52  C   UNL A   1      43.209  28.153  33.567  1.00  0.00     0.037 A 
ATOM     53  C   UNL A   1      37.978  30.983  29.913  1.00  0.00     0.037 A 
ATOM     54  C   UNL A   1      42.441  29.141  34.279  1.00  0.00     0.049 A 
ATOM     55  C   UNL A   1      38.225  31.347  31.351  1.00  0.00     0.074 A 
ATOM     56  C   UNL A   1      42.623  29.612  35.568  1.00  0.00     0.029 A 
ATOM     57  N   UNL A   1      41.340  29.806  33.763  1.00  0.00    -0.354 N 
ATOM     58  N   UNL A   1      39.172  30.933  32.158  1.00  0.00    -0.248 NA
ATOM     59  C   UNL A   1      37.292  32.305  31.962  1.00  0.00     0.031 C 
ATOM     60  C   UNL A   1      41.605  30.530  35.848  1.00  0.00     0.029 A 
ATOM     61  C   UNL A   1      40.814  30.661  34.717  1.00  0.00     0.049 A 
ATOM     62  H   UNL A   1      40.984  29.688  32.852  1.00  0.00     0.167 HD
ATOM     63  C   UNL A   1      38.960  31.593  33.363  1.00  0.00     0.074 A 
ATOM     64  C   UNL A   1      37.805  32.446  33.177  1.00  0.00     0.031 C 
ATOM     65  C   UNL A   1      39.660  31.499  34.520  1.00  0.00     0.037 A 
BRANCH  52  66
ATOM     66  C   UNL A   1      44.334  27.477  34.293  1.00  0.00     0.057 A 
ATOM     67  C   UNL A   1      45.622  28.024  34.327  1.00  0.00     0.134 A 
ATOM     68  C   UNL A   1      44.114  26.287  34.998  1.00  0.00     0.134 A 
ATOM     69  F   UNL A   1      45.900  29.156  33.662  1.00  0.00    -0.206 F 
ATOM     70  C   UNL A   1      46.660  27.401  35.025  1.00  0.00     0.040 A 
ATOM     71  C   UNL A   1      45.138  25.667  35.716  1.00  0.00     0.040 A 
ATOM     72  F   UNL A   1      42.901  25.715  35.008  1.00  0.00    -0.206 F 
ATOM     73  C   UNL A   1      46.415  26.222  35.727  1.00  0.00     0.006 A 
ENDBRANCH  52  66
BRANCH  53  74
ATOM     74  C   UNL A   1      36.847  31.586  29.166  1.00  0.00     0.057 A 
ATOM     75  C   UNL A   1      36.911  32.897  28.680  1.00  0.00     0.134 A 
ATOM     76  C   UNL A   1      35.667  30.868  28.939  1.00  0.00     0.134 A 
ATOM     77  F   UNL A   1      38.007  33.641  28.890  1.00  0.00    -0.206 F 
ATOM     78  C   UNL A   1      35.836  33.477  28.004  1.00  0.00     0.040 A 
ATOM     79  C   UNL A   1      34.593  31.428  28.245  1.00  0.00     0.040 A 
ATOM     80  F   UNL A   1      35.544  29.609  29.382  1.00  0.00    -0.206 F 
ATOM     81  C   UNL A   1      34.675  32.740  27.781  1.00  0.00     0.006 A 
ENDBRANCH  53  74
BRANCH  65  82
ATOM     82  C   UNL A   1      39.199  32.347  35.669  1.00  0.00     0.057 A 
ATOM     83  C   UNL A   1      38.339  31.847  36.653  1.00  0.00     0.134 A 
ATOM     84  C   UNL A   1      39.645  33.668  35.807  1.00  0.00     0.134 A 
ATOM     85  F   UNL A   1      37.868  30.593  36.570  1.00  0.00    -0.206 F 
ATOM     86  C   UNL A   1      37.920  32.637  37.724  1.00  0.00     0.040 A 
ATOM     87  C   UNL A   1      39.250  34.460  36.886  1.00  0.00     0.040 A 
ATOM     88  F   UNL A   1      40.478  34.205  34.903  1.00  0.00    -0.206 F 
ATOM     89  C   UNL A   1      38.379  33.947  37.846  1.00  0.00     0.006 A 
ENDBRANCH  65  82
ENDBRANCH  39  40
ENDBRANCH  32  34
ENDBRANCH  31  32
ENDBRANCH  30  31
ENDBRANCH  29  30
ENDBRANCH  28  29
ENDBRANCH   1  28
TORSDOF 18
ENDMDL
MODEL 2
REMARK VINA RESULT:     -11.3      3.984      9.709
REMARK SMILES Cc1ccc(N2CC[C@H]([NH+]3CCOCC3)[C@H](CCC(=O)OCCOCCOC(=O)c3ccc(-c4c5nc(c(-c6c(F)cccc6F)c6ccc([nH]6)c(-c6c(F)cccc6F)c6nc(c(-c7c(F)cccc7F)c7ccc4[nH]7)C=C6)C=C5)cc3)C2)nc1
REMARK SMILES IDX 23 1 22 2 21 3 19 4 20 5 18 6 17 7 16 8 6 9 7 10 84 11 8 12
REMARK SMILES IDX 9 13 5 14 1 15 2 16 3 17 86 18 4 19 85 20 10 21 11 22 15 23
REMARK SMILES IDX 12 25 14 26 13 27 24 28 25 29 26 30 27 31 28 32 29 33 30 34
REMARK SMILES IDX 31 35 83 36 32 37 82 38 33 39 34 40 35 41 76 42 36 43 81 44
REMARK SMILES IDX 75 45 77 46 37 47 80 48 74 49 73 50 38 52 64 53 47 54 63 55
REMARK SMILES IDX 48 56 51 57 62 58 78 59 49 60 50 61 61 63 79 64 52 65 39 66
REMARK SMILES IDX 40 67 45 68 41 69 42 70 44 71 46 72 43 73 65 74 66 75 71 76
REMARK SMILES IDX 67 77 68 78 70 79 72 80 69 81 53 82 54 83 59 84 55 85 56 86
REMARK SMILES IDX 58 87 60 88 57 89
REMARK H PARENT 10 24 77 51 51 62
REMARK Flexibility Score: inf
ROOT
ATOM      1  C   UNL A   1      34.258  32.763  28.211  1.00  0.00     0.202 C 
ENDROOT
BRANCH   1   2
ATOM      2  C   UNL A   1      34.334  31.238  28.130  1.00  0.00     0.261 C 
BRANCH   2   3
ATOM      3  O   UNL A   1      33.801  30.782  26.875  1.00  0.00    -0.463 OA
BRANCH   3   4
ATOM      4  C   UNL A   1      33.160  29.590  26.917  1.00  0.00     0.305 C 
ATOM      5  O   UNL A   1      32.023  29.417  27.345  1.00  0.00    -0.252 OA
BRANCH   4   6
ATOM      6  C   UNL A   1      33.929  28.496  26.212  1.00  0.00     0.123 C 
BRANCH   6   7
ATOM      7  C   UNL A   1      33.206  27.456  25.353  1.00  0.00     0.023 C 
BRANCH   7   8
ATOM      8  C   UNL A   1      33.904  26.581  24.273  1.00  0.00     0.067 C 
ATOM      9  N   UNL A   1      32.079  26.727  22.560  1.00  0.00    -0.356 N 
ATOM     10  C   UNL A   1      31.793  25.303  22.596  1.00  0.00     0.124 C 
ATOM     11  C   UNL A   1      33.440  27.147  22.881  1.00  0.00     0.127 C 
ATOM     12  C   UNL A   1      32.202  24.695  23.933  1.00  0.00     0.087 C 
ATOM     13  C   UNL A   1      33.675  25.017  24.230  1.00  0.00     0.190 C 
BRANCH   9  14
ATOM     14  C   UNL A   1      30.996  27.566  22.759  1.00  0.00     0.128 A 
ATOM     15  C   UNL A   1      27.471  29.969  22.962  1.00  0.00     0.046 C 
ATOM     16  C   UNL A   1      28.731  29.168  22.893  1.00  0.00    -0.033 A 
ATOM     17  C   UNL A   1      29.939  29.715  22.470  1.00  0.00     0.009 A 
ATOM     18  C   UNL A   1      28.744  27.833  23.264  1.00  0.00     0.117 A 
ATOM     19  C   UNL A   1      31.081  28.912  22.415  1.00  0.00     0.047 A 
ATOM     20  N   UNL A   1      29.832  27.033  23.189  1.00  0.00    -0.239 NA
ENDBRANCH   9  14
BRANCH  13  21
ATOM     21  N   UNL A   1      34.354  24.157  25.225  1.00  0.00    -0.328 N 
ATOM     22  C   UNL A   1      35.828  24.071  25.068  1.00  0.00     0.291 C 
ATOM     23  C   UNL A   1      33.860  22.813  25.509  1.00  0.00     0.291 C 
ATOM     24  H   UNL A   1      34.081  24.710  26.038  1.00  0.00     0.348 HD
ATOM     25  C   UNL A   1      36.362  22.872  24.245  1.00  0.00     0.221 C 
ATOM     26  C   UNL A   1      34.355  21.708  24.579  1.00  0.00     0.221 C 
ATOM     27  O   UNL A   1      35.780  21.625  24.634  1.00  0.00    -0.370 OA
ENDBRANCH  13  21
ENDBRANCH   7   8
ENDBRANCH   6   7
ENDBRANCH   4   6
ENDBRANCH   3   4
ENDBRANCH   2   3
ENDBRANCH   1   2
BRANCH   1  28
ATOM     28  O   UNL A   1      33.756  33.329  29.424  1.00  0.00    -0.374 OA
BRANCH  28  29
ATOM     29  C   UNL A   1      34.669  34.007  30.282  1.00  0.00     0.202 C 
BRANCH  29  30
ATOM     30  C   UNL A   1      34.617  33.687  31.785  1.00  0.00     0.261 C 
BRANCH  30  31
ATOM     31  O   UNL A   1      34.790  32.299  32.109  1.00  0.00    -0.460 OA
BRANCH  31  32
ATOM     32  C   UNL A   1      35.904  32.041  32.839  1.00  0.00     0.338 C 
ATOM     33  O   UNL A   1      36.112  32.336  34.007  1.00  0.00    -0.246 OA
BRANCH  32  34
ATOM     34  C   UNL A   1      36.855  31.211  32.080  1.00  0.00     0.060 A 
ATOM     35  C   UNL A   1      38.039  30.842  32.728  1.00  0.00     0.016 A 
ATOM     36  C   UNL A   1      36.668  30.930  30.725  1.00  0.00     0.016 A 
ATOM     37  C   UNL A   1      39.067  30.237  32.010  1.00  0.00     0.010 A 
ATOM     38  C   UNL A   1      37.707  30.328  30.002  1.00  0.00     0.010 A 
ATOM     39  C   UNL A   1      38.926  30.017  30.633  1.00  0.00    -0.014 A 
BRANCH  39  40
ATOM     40  C   UNL A   1      40.116  29.593  29.855  1.00  0.00     0.031 A 
ATOM     41  C   UNL A   1      41.253  30.559  29.657  1.00  0.00     0.074 A 
ATOM     42  C   UNL A   1      40.218  28.333  29.396  1.00  0.00     0.049 A 
ATOM     43  N   UNL A   1      42.412  30.367  29.081  1.00  0.00    -0.248 NA
ATOM     44  C   UNL A   1      41.059  31.920  30.182  1.00  0.00     0.031 C 
ATOM     45  C   UNL A   1      39.200  27.296  29.544  1.00  0.00     0.029 A 
ATOM     46  N   UNL A   1      41.238  27.713  28.719  1.00  0.00    -0.354 N 
ATOM     47  C   UNL A   1      43.087  31.578  29.178  1.00  0.00     0.074 A 
ATOM     48  C   UNL A   1      42.196  32.507  29.839  1.00  0.00     0.031 C 
ATOM     49  C   UNL A   1      39.647  26.164  28.974  1.00  0.00     0.029 A 
ATOM     50  C   UNL A   1      40.974  26.401  28.411  1.00  0.00     0.049 A 
ATOM     51  H   UNL A   1      42.078  28.165  28.477  1.00  0.00     0.167 HD
ATOM     52  C   UNL A   1      44.341  31.885  28.768  1.00  0.00     0.037 A 
ATOM     53  C   UNL A   1      41.719  25.497  27.745  1.00  0.00     0.037 A 
ATOM     54  C   UNL A   1      45.234  30.963  28.116  1.00  0.00     0.049 A 
ATOM     55  C   UNL A   1      43.090  25.876  27.257  1.00  0.00     0.074 A 
ATOM     56  C   UNL A   1      46.537  31.174  27.696  1.00  0.00     0.029 A 
ATOM     57  N   UNL A   1      44.914  29.657  27.783  1.00  0.00    -0.354 N 
ATOM     58  N   UNL A   1      43.732  27.011  27.394  1.00  0.00    -0.248 NA
ATOM     59  C   UNL A   1      43.841  24.846  26.525  1.00  0.00     0.031 C 
ATOM     60  C   UNL A   1      46.989  30.007  27.069  1.00  0.00     0.029 A 
ATOM     61  C   UNL A   1      45.982  29.058  27.136  1.00  0.00     0.049 A 
ATOM     62  H   UNL A   1      44.054  29.218  27.978  1.00  0.00     0.167 HD
ATOM     63  C   UNL A   1      44.966  26.826  26.784  1.00  0.00     0.074 A 
ATOM     64  C   UNL A   1      44.990  25.465  26.290  1.00  0.00     0.031 C 
ATOM     65  C   UNL A   1      45.989  27.705  26.644  1.00  0.00     0.037 A 
BRANCH  52  66
ATOM     66  C   UNL A   1      44.820  33.287  28.999  1.00  0.00     0.057 A 
ATOM     67  C   UNL A   1      44.585  34.308  28.069  1.00  0.00     0.134 A 
ATOM     68  C   UNL A   1      45.487  33.626  30.182  1.00  0.00     0.134 A 
ATOM     69  F   UNL A   1      43.962  34.045  26.911  1.00  0.00    -0.206 F 
ATOM     70  C   UNL A   1      45.014  35.617  28.302  1.00  0.00     0.040 A 
ATOM     71  C   UNL A   1      45.901  34.936  30.435  1.00  0.00     0.040 A 
ATOM     72  F   UNL A   1      45.738  32.695  31.114  1.00  0.00    -0.206 F 
ATOM     73  C   UNL A   1      45.668  35.933  29.492  1.00  0.00     0.006 A 
ENDBRANCH  52  66
BRANCH  53  74
ATOM     74  C   UNL A   1      41.180  24.137  27.497  1.00  0.00     0.057 A 
ATOM     75  C   UNL A   1      40.175  23.913  26.549  1.00  0.00     0.134 A 
ATOM     76  C   UNL A   1      41.647  23.032  28.219  1.00  0.00     0.134 A 
ATOM     77  F   UNL A   1      39.671  24.938  25.846  1.00  0.00    -0.206 F 
ATOM     78  C   UNL A   1      39.645  22.640  26.336  1.00  0.00     0.040 A 
ATOM     79  C   UNL A   1      41.142  21.750  28.000  1.00  0.00     0.040 A 
ATOM     80  F   UNL A   1      42.608  23.184  29.142  1.00  0.00    -0.206 F 
ATOM     81  C   UNL A   1      40.133  21.553  27.060  1.00  0.00     0.006 A 
ENDBRANCH  53  74
BRANCH  65  82
ATOM     82  C   UNL A   1      47.219  27.217  25.938  1.00  0.00     0.057 A 
ATOM     83  C   UNL A   1      47.397  27.401  24.562  1.00  0.00     0.134 A 
ATOM     84  C   UNL A   1      48.249  26.585  26.646  1.00  0.00     0.134 A 
ATOM     85  F   UNL A   1      46.443  27.989  23.825  1.00  0.00    -0.206 F 
ATOM     86  C   UNL A   1      48.547  26.952  23.910  1.00  0.00     0.040 A 
ATOM     87  C   UNL A   1      49.413  26.152  26.009  1.00  0.00     0.040 A 
ATOM     88  F   UNL A   1      48.144  26.386  27.969  1.00  0.00    -0.206 F 
ATOM     89  C   UNL A   1      49.562  26.330  24.635  1.00  0.00     0.006 A 
ENDBRANCH  65  82
ENDBRANCH  39  40
ENDBRANCH  32  34
ENDBRANCH  31  32
ENDBRANCH  30  31
ENDBRANCH  29  30
ENDBRANCH  28  29
ENDBRANCH   1  28
TORSDOF 18
ENDMDL
MODEL 3
REMARK VINA RESULT:     -11.3      4.451      9.436
REMARK SMILES Cc1ccc(N2CC[C@H]([NH+]3CCOCC3)[C@H](CCC(=O)OCCOCCOC(=O)c3ccc(-c4c5nc(c(-c6c(F)cccc6F)c6ccc([nH]6)c(-c6c(F)cccc6F)c6nc(c(-c7c(F)cccc7F)c7ccc4[nH]7)C=C6)C=C5)cc3)C2)nc1
REMARK SMILES IDX 23 1 22 2 21 3 19 4 20 5 18 6 17 7 16 8 6 9 7 10 84 11 8 12
REMARK SMILES IDX 9 13 5 14 1 15 2 16 3 17 86 18 4 19 85 20 10 21 11 22 15 23
REMARK SMILES IDX 12 25 14 26 13 27 24 28 25 29 26 30 27 31 28 32 29 33 30 34
REMARK SMILES IDX 31 35 83 36 32 37 82 38 33 39 34 40 35 41 76 42 36 43 81 44
REMARK SMILES IDX 75 45 77 46 37 47 80 48 74 49 73 50 38 52 64 53 47 54 63 55
REMARK SMILES IDX 48 56 51 57 62 58 78 59 49 60 50 61 61 63 79 64 52 65 39 66
REMARK SMILES IDX 40 67 45 68 41 69 42 70 44 71 46 72 43 73 65 74 66 75 71 76
REMARK SMILES IDX 67 77 68 78 70 79 72 80 69 81 53 82 54 83 59 84 55 85 56 86
REMARK SMILES IDX 58 87 60 88 57 89
REMARK H PARENT 10 24 77 51 51 62
REMARK Flexibility Score: inf
ROOT
ATOM      1  C   UNL A   1      33.846  32.679  28.488  1.00  0.00     0.202 C 
ENDROOT
BRANCH   1   2
ATOM      2  C   UNL A   1      34.807  31.797  27.688  1.00  0.00     0.261 C 
BRANCH   2   3
ATOM      3  O   UNL A   1      34.071  30.804  26.955  1.00  0.00    -0.463 OA
BRANCH   3   4
ATOM      4  C   UNL A   1      34.542  29.539  27.061  1.00  0.00     0.305 C 
ATOM      5  O   UNL A   1      35.371  29.164  27.884  1.00  0.00    -0.252 OA
BRANCH   4   6
ATOM      6  C   UNL A   1      33.808  28.571  26.162  1.00  0.00     0.123 C 
BRANCH   6   7
ATOM      7  C   UNL A   1      32.862  29.076  25.071  1.00  0.00     0.023 C 
BRANCH   7   8
ATOM      8  C   UNL A   1      31.321  28.863  25.087  1.00  0.00     0.067 C 
ATOM      9  N   UNL A   1      31.371  26.373  24.793  1.00  0.00    -0.356 N 
ATOM     10  C   UNL A   1      30.699  26.411  23.506  1.00  0.00     0.124 C 
ATOM     11  C   UNL A   1      31.078  27.451  25.734  1.00  0.00     0.127 C 
ATOM     12  C   UNL A   1      30.913  27.752  22.813  1.00  0.00     0.087 C 
ATOM     13  C   UNL A   1      30.487  28.899  23.743  1.00  0.00     0.190 C 
BRANCH   9  14
ATOM     14  C   UNL A   1      32.572  25.688  24.828  1.00  0.00     0.128 A 
ATOM     15  C   UNL A   1      36.053  23.216  24.690  1.00  0.00     0.046 C 
ATOM     16  C   UNL A   1      34.839  24.083  24.787  1.00  0.00    -0.033 A 
ATOM     17  C   UNL A   1      34.087  24.184  25.953  1.00  0.00     0.009 A 
ATOM     18  C   UNL A   1      34.418  24.836  23.703  1.00  0.00     0.117 A 
ATOM     19  C   UNL A   1      32.953  25.002  25.977  1.00  0.00     0.047 A 
ATOM     20  N   UNL A   1      33.308  25.609  23.697  1.00  0.00    -0.239 NA
ENDBRANCH   9  14
BRANCH  13  21
ATOM     21  N   UNL A   1      30.203  30.202  23.101  1.00  0.00    -0.328 N 
ATOM     22  C   UNL A   1      29.399  31.138  23.927  1.00  0.00     0.291 C 
ATOM     23  C   UNL A   1      29.690  30.265  21.737  1.00  0.00     0.291 C 
ATOM     24  H   UNL A   1      31.179  30.490  23.024  1.00  0.00     0.348 HD
ATOM     25  C   UNL A   1      27.869  31.126  23.687  1.00  0.00     0.221 C 
ATOM     26  C   UNL A   1      28.176  30.136  21.584  1.00  0.00     0.221 C 
ATOM     27  O   UNL A   1      27.522  31.184  22.300  1.00  0.00    -0.370 OA
ENDBRANCH  13  21
ENDBRANCH   7   8
ENDBRANCH   6   7
ENDBRANCH   4   6
ENDBRANCH   3   4
ENDBRANCH   2   3
ENDBRANCH   1   2
BRANCH   1  28
ATOM     28  O   UNL A   1      34.352  33.923  28.976  1.00  0.00    -0.374 OA
BRANCH  28  29
ATOM     29  C   UNL A   1      33.996  34.328  30.294  1.00  0.00     0.202 C 
BRANCH  29  30
ATOM     30  C   UNL A   1      34.877  33.846  31.458  1.00  0.00     0.261 C 
BRANCH  30  31
ATOM     31  O   UNL A   1      34.968  32.418  31.589  1.00  0.00    -0.460 OA
BRANCH  31  32
ATOM     32  C   UNL A   1      35.953  32.006  32.426  1.00  0.00     0.338 C 
ATOM     33  O   UNL A   1      36.003  32.144  33.640  1.00  0.00    -0.246 OA
BRANCH  32  34
ATOM     34  C   UNL A   1      36.967  31.219  31.704  1.00  0.00     0.060 A 
ATOM     35  C   UNL A   1      37.994  30.650  32.466  1.00  0.00     0.016 A 
ATOM     36  C   UNL A   1      37.003  31.166  30.310  1.00  0.00     0.016 A 
ATOM     37  C   UNL A   1      39.092  30.071  31.834  1.00  0.00     0.010 A 
ATOM     38  C   UNL A   1      38.112  30.589  29.675  1.00  0.00     0.010 A 
ATOM     39  C   UNL A   1      39.179  30.077  30.435  1.00  0.00    -0.014 A 
BRANCH  39  40
ATOM     40  C   UNL A   1      40.458  29.670  29.802  1.00  0.00     0.031 A 
ATOM     41  C   UNL A   1      40.592  28.285  29.229  1.00  0.00     0.074 A 
ATOM     42  C   UNL A   1      41.464  30.552  29.667  1.00  0.00     0.049 A 
ATOM     43  N   UNL A   1      41.589  27.755  28.567  1.00  0.00    -0.248 NA
ATOM     44  C   UNL A   1      39.450  27.379  29.426  1.00  0.00     0.031 C 
ATOM     45  C   UNL A   1      41.450  31.930  30.155  1.00  0.00     0.029 A 
ATOM     46  N   UNL A   1      42.692  30.417  29.069  1.00  0.00    -0.354 N 
ATOM     47  C   UNL A   1      41.193  26.458  28.263  1.00  0.00     0.074 A 
ATOM     48  C   UNL A   1      39.879  26.270  28.841  1.00  0.00     0.031 C 
ATOM     49  C   UNL A   1      42.616  32.516  29.834  1.00  0.00     0.029 A 
ATOM     50  C   UNL A   1      43.461  31.552  29.133  1.00  0.00     0.049 A 
ATOM     51  H   UNL A   1      42.992  29.586  28.635  1.00  0.00     0.167 HD
ATOM     52  C   UNL A   1      41.856  25.514  27.555  1.00  0.00     0.037 A 
ATOM     53  C   UNL A   1      44.710  31.784  28.681  1.00  0.00     0.037 A 
ATOM     54  C   UNL A   1      43.159  25.697  26.971  1.00  0.00     0.049 A 
ATOM     55  C   UNL A   1      45.445  30.703  27.938  1.00  0.00     0.074 A 
ATOM     56  C   UNL A   1      43.896  24.809  26.206  1.00  0.00     0.029 A 
ATOM     57  N   UNL A   1      43.924  26.846  27.096  1.00  0.00    -0.354 N 
ATOM     58  N   UNL A   1      45.042  29.496  27.621  1.00  0.00    -0.248 NA
ATOM     59  C   UNL A   1      46.808  31.018  27.487  1.00  0.00     0.031 C 
ATOM     60  C   UNL A   1      45.125  25.405  25.904  1.00  0.00     0.029 A 
ATOM     61  C   UNL A   1      45.137  26.680  26.447  1.00  0.00     0.049 A 
ATOM     62  H   UNL A   1      43.647  27.661  27.575  1.00  0.00     0.167 HD
ATOM     63  C   UNL A   1      46.091  28.917  26.918  1.00  0.00     0.074 A 
ATOM     64  C   UNL A   1      47.143  29.909  26.842  1.00  0.00     0.031 C 
ATOM     65  C   UNL A   1      46.177  27.674  26.385  1.00  0.00     0.037 A 
BRANCH  52  66
ATOM     66  C   UNL A   1      41.187  24.183  27.381  1.00  0.00     0.057 A 
ATOM     67  C   UNL A   1      41.592  23.055  28.105  1.00  0.00     0.134 A 
ATOM     68  C   UNL A   1      40.100  24.040  26.510  1.00  0.00     0.134 A 
ATOM     69  F   UNL A   1      42.635  23.124  28.947  1.00  0.00    -0.206 F 
ATOM     70  C   UNL A   1      40.949  21.824  27.956  1.00  0.00     0.040 A 
ATOM     71  C   UNL A   1      39.436  22.820  26.368  1.00  0.00     0.040 A 
ATOM     72  F   UNL A   1      39.661  25.084  25.791  1.00  0.00    -0.206 F 
ATOM     73  C   UNL A   1      39.863  21.708  27.090  1.00  0.00     0.006 A 
ENDBRANCH  52  66
BRANCH  53  74
ATOM     74  C   UNL A   1      45.348  33.101  28.922  1.00  0.00     0.057 A 
ATOM     75  C   UNL A   1      45.178  34.167  28.032  1.00  0.00     0.134 A 
ATOM     76  C   UNL A   1      46.160  33.316  30.043  1.00  0.00     0.134 A 
ATOM     77  F   UNL A   1      44.431  34.012  26.929  1.00  0.00    -0.206 F 
ATOM     78  C   UNL A   1      45.802  35.398  28.241  1.00  0.00     0.040 A 
ATOM     79  C   UNL A   1      46.772  34.548  30.275  1.00  0.00     0.040 A 
ATOM     80  F   UNL A   1      46.362  32.332  30.931  1.00  0.00    -0.206 F 
ATOM     81  C   UNL A   1      46.599  35.592  29.369  1.00  0.00     0.006 A 
ENDBRANCH  53  74
BRANCH  65  82
ATOM     82  C   UNL A   1      47.446  27.323  25.666  1.00  0.00     0.057 A 
ATOM     83  C   UNL A   1      47.593  27.536  24.290  1.00  0.00     0.134 A 
ATOM     84  C   UNL A   1      48.541  26.796  26.361  1.00  0.00     0.134 A 
ATOM     85  F   UNL A   1      46.576  28.027  23.566  1.00  0.00    -0.206 F 
ATOM     86  C   UNL A   1      48.778  27.216  23.626  1.00  0.00     0.040 A 
ATOM     87  C   UNL A   1      49.739  26.493  25.712  1.00  0.00     0.040 A 
ATOM     88  F   UNL A   1      48.469  26.576  27.683  1.00  0.00    -0.206 F 
ATOM     89  C   UNL A   1      49.858  26.697  24.338  1.00  0.00     0.006 A 
ENDBRANCH  65  82
ENDBRANCH  39  40
ENDBRANCH  32  34
ENDBRANCH  31  32
ENDBRANCH  30  31
ENDBRANCH  29  30
ENDBRANCH  28  29
ENDBRANCH   1  28
TORSDOF 18
ENDMDL
