MODEL 1
REMARK VINA RESULT:     -10.3      0.000      0.000
REMARK SMILES CC(C)C[C@H](Nc1ncnc2scc(-c3ccccc3)c12)C(=O)OCCOCCOC(=O)c1ccc(-c2c3nc(c(-c4c(F)cccc4F)c4ccc([nH]4)c(-c4c(F)cccc4F)c4nc(c(-c5c(F)cccc5F)c5ccc2[nH]5)C=C4)C=C3)cc1
REMARK SMILES IDX 26 1 25 2 24 3 22 4 23 5 5 6 4 7 2 8 1 9 3 10 6 11 7 13 8 14
REMARK SMILES IDX 21 15 9 16 11 17 14 18 10 19 12 20 13 21 15 22 16 23 20 24
REMARK SMILES IDX 17 25 19 26 18 27 27 28 28 29 29 30 30 31 31 32 32 33 33 34
REMARK SMILES IDX 34 35 86 36 35 37 85 38 36 39 37 40 38 41 79 42 39 43 84 44
REMARK SMILES IDX 78 45 80 46 40 47 83 48 77 49 76 50 41 52 67 53 50 54 66 55
REMARK SMILES IDX 51 56 54 57 65 58 81 59 52 60 53 61 64 63 82 64 55 65 42 66
REMARK SMILES IDX 43 67 48 68 44 69 45 70 47 71 49 72 46 73 68 74 69 75 74 76
REMARK SMILES IDX 70 77 71 78 73 79 75 80 72 81 56 82 57 83 62 84 58 85 59 86
REMARK SMILES IDX 61 87 63 88 60 89
REMARK H PARENT 6 12 80 51 54 62
REMARK Flexibility Score: inf
ROOT
ATOM      1  C   UNL A   1      34.252  21.066  25.457  1.00  0.00     0.202 C 
ENDROOT
BRANCH   1   2
ATOM      2  C   UNL A   1      34.385  21.943  26.706  1.00  0.00     0.261 C 
BRANCH   2   3
ATOM      3  O   UNL A   1      34.320  23.347  26.428  1.00  0.00    -0.462 OA
BRANCH   3   4
ATOM      4  C   UNL A   1      33.063  23.872  26.533  1.00  0.00     0.328 C 
ATOM      5  O   UNL A   1      32.257  23.569  27.408  1.00  0.00    -0.250 OA
BRANCH   4   6
ATOM      6  C   UNL A   1      32.722  24.842  25.401  1.00  0.00     0.191 C 
BRANCH   6   7
ATOM      7  C   UNL A   1      34.015  25.236  24.668  1.00  0.00     0.040 C 
BRANCH   7   8
ATOM      8  C   UNL A   1      34.008  24.990  23.147  1.00  0.00    -0.015 C 
ATOM      9  C   UNL A   1      33.038  23.878  22.747  1.00  0.00     0.007 C 
ATOM     10  C   UNL A   1      33.651  26.287  22.421  1.00  0.00     0.007 C 
ENDBRANCH   7   8
ENDBRANCH   6   7
BRANCH   6  11
ATOM     11  N   UNL A   1      32.039  26.073  25.854  1.00  0.00    -0.356 N 
ATOM     12  H   UNL A   1      32.323  26.553  26.666  1.00  0.00     0.163 HD
BRANCH  11  13
ATOM     13  C   UNL A   1      30.979  26.517  25.075  1.00  0.00     0.139 A 
ATOM     14  N   UNL A   1      30.123  25.578  24.607  1.00  0.00    -0.219 NA
ATOM     15  C   UNL A   1      30.755  27.869  24.713  1.00  0.00     0.062 A 
ATOM     16  C   UNL A   1      29.102  25.941  23.823  1.00  0.00     0.225 A 
ATOM     17  C   UNL A   1      29.674  28.087  23.863  1.00  0.00     0.129 A 
ATOM     18  C   UNL A   1      31.416  29.129  24.999  1.00  0.00     0.006 A 
ATOM     19  N   UNL A   1      28.815  27.166  23.396  1.00  0.00    -0.225 NA
ATOM     20  S   UNL A   1      29.494  29.713  23.393  1.00  0.00    -0.123 S 
ATOM     21  C   UNL A   1      30.839  30.188  24.322  1.00  0.00     0.076 A 
BRANCH  18  22
ATOM     22  C   UNL A   1      32.552  29.382  25.873  1.00  0.00    -0.017 A 
ATOM     23  C   UNL A   1      33.689  28.567  25.792  1.00  0.00     0.009 A 
ATOM     24  C   UNL A   1      32.522  30.431  26.795  1.00  0.00     0.009 A 
ATOM     25  C   UNL A   1      34.793  28.819  26.606  1.00  0.00     0.001 A 
ATOM     26  C   UNL A   1      33.637  30.698  27.591  1.00  0.00     0.001 A 
ATOM     27  C   UNL A   1      34.772  29.894  27.494  1.00  0.00     0.000 A 
ENDBRANCH  18  22
ENDBRANCH  11  13
ENDBRANCH   6  11
ENDBRANCH   4   6
ENDBRANCH   3   4
ENDBRANCH   2   3
ENDBRANCH   1   2
BRANCH   1  28
ATOM     28  O   UNL A   1      35.426  20.444  24.948  1.00  0.00    -0.374 OA
BRANCH  28  29
ATOM     29  C   UNL A   1      36.693  21.032  25.254  1.00  0.00     0.202 C 
BRANCH  29  30
ATOM     30  C   UNL A   1      37.945  20.187  24.999  1.00  0.00     0.261 C 
BRANCH  30  31
ATOM     31  O   UNL A   1      38.679  19.926  26.210  1.00  0.00    -0.460 OA
BRANCH  31  32
ATOM     32  C   UNL A   1      40.004  20.183  26.137  1.00  0.00     0.338 C 
ATOM     33  O   UNL A   1      40.857  19.540  25.541  1.00  0.00    -0.246 OA
BRANCH  32  34
ATOM     34  C   UNL A   1      40.300  21.488  26.751  1.00  0.00     0.060 A 
ATOM     35  C   UNL A   1      39.791  22.633  26.123  1.00  0.00     0.016 A 
ATOM     36  C   UNL A   1      41.146  21.595  27.855  1.00  0.00     0.016 A 
ATOM     37  C   UNL A   1      40.185  23.897  26.554  1.00  0.00     0.010 A 
ATOM     38  C   UNL A   1      41.553  22.863  28.276  1.00  0.00     0.010 A 
ATOM     39  C   UNL A   1      41.110  24.013  27.597  1.00  0.00    -0.014 A 
BRANCH  39  40
ATOM     40  C   UNL A   1      41.776  25.310  27.850  1.00  0.00     0.031 A 
ATOM     41  C   UNL A   1      41.007  26.381  28.569  1.00  0.00     0.074 A 
ATOM     42  C   UNL A   1      43.037  25.532  27.446  1.00  0.00     0.049 A 
ATOM     43  N   UNL A   1      41.330  27.628  28.797  1.00  0.00    -0.248 NA
ATOM     44  C   UNL A   1      39.686  25.995  29.094  1.00  0.00     0.031 C 
ATOM     45  C   UNL A   1      43.901  24.553  26.791  1.00  0.00     0.029 A 
ATOM     46  N   UNL A   1      43.801  26.670  27.514  1.00  0.00    -0.354 N 
ATOM     47  C   UNL A   1      40.250  28.178  29.475  1.00  0.00     0.074 A 
ATOM     48  C   UNL A   1      39.254  27.137  29.606  1.00  0.00     0.031 C 
ATOM     49  C   UNL A   1      45.072  25.140  26.493  1.00  0.00     0.029 A 
ATOM     50  C   UNL A   1      45.023  26.542  26.904  1.00  0.00     0.049 A 
ATOM     51  H   UNL A   1      43.502  27.496  27.956  1.00  0.00     0.167 HD
ATOM     52  C   UNL A   1      40.102  29.439  29.944  1.00  0.00     0.037 A 
ATOM     53  C   UNL A   1      45.979  27.465  26.678  1.00  0.00     0.037 A 
ATOM     54  C   UNL A   1      41.095  30.470  29.813  1.00  0.00     0.049 A 
ATOM     55  C   UNL A   1      45.768  28.878  27.151  1.00  0.00     0.074 A 
ATOM     56  C   UNL A   1      41.049  31.777  30.262  1.00  0.00     0.029 A 
ATOM     57  N   UNL A   1      42.318  30.305  29.179  1.00  0.00    -0.354 N 
ATOM     58  N   UNL A   1      44.745  29.393  27.791  1.00  0.00    -0.248 NA
ATOM     59  C   UNL A   1      46.844  29.840  26.870  1.00  0.00     0.031 C 
ATOM     60  C   UNL A   1      42.228  32.417  29.863  1.00  0.00     0.029 A 
ATOM     61  C   UNL A   1      43.027  31.494  29.206  1.00  0.00     0.049 A 
ATOM     62  H   UNL A   1      42.635  29.468  28.769  1.00  0.00     0.167 HD
ATOM     63  C   UNL A   1      45.065  30.726  28.015  1.00  0.00     0.074 A 
ATOM     64  C   UNL A   1      46.378  30.942  27.442  1.00  0.00     0.031 C 
ATOM     65  C   UNL A   1      44.339  31.684  28.642  1.00  0.00     0.037 A 
BRANCH  52  66
ATOM     66  C   UNL A   1      38.798  29.775  30.607  1.00  0.00     0.057 A 
ATOM     67  C   UNL A   1      37.732  30.348  29.902  1.00  0.00     0.134 A 
ATOM     68  C   UNL A   1      38.608  29.517  31.970  1.00  0.00     0.134 A 
ATOM     69  F   UNL A   1      37.857  30.635  28.597  1.00  0.00    -0.206 F 
ATOM     70  C   UNL A   1      36.533  30.677  30.536  1.00  0.00     0.040 A 
ATOM     71  C   UNL A   1      37.406  29.819  32.609  1.00  0.00     0.040 A 
ATOM     72  F   UNL A   1      39.590  28.969  32.703  1.00  0.00    -0.206 F 
ATOM     73  C   UNL A   1      36.365  30.408  31.893  1.00  0.00     0.006 A 
ENDBRANCH  52  66
BRANCH  53  74
ATOM     74  C   UNL A   1      47.211  27.082  25.949  1.00  0.00     0.057 A 
ATOM     75  C   UNL A   1      48.295  26.501  26.615  1.00  0.00     0.134 A 
ATOM     76  C   UNL A   1      47.331  27.281  24.567  1.00  0.00     0.134 A 
ATOM     77  F   UNL A   1      48.247  26.305  27.940  1.00  0.00    -0.206 F 
ATOM     78  C   UNL A   1      49.459  26.136  25.935  1.00  0.00     0.040 A 
ATOM     79  C   UNL A   1      48.480  26.902  23.872  1.00  0.00     0.040 A 
ATOM     80  F   UNL A   1      46.324  27.830  23.873  1.00  0.00    -0.206 F 
ATOM     81  C   UNL A   1      49.551  26.332  24.558  1.00  0.00     0.006 A 
ENDBRANCH  53  74
BRANCH  65  82
ATOM     82  C   UNL A   1      44.963  33.040  28.786  1.00  0.00     0.057 A 
ATOM     83  C   UNL A   1      44.725  34.065  27.863  1.00  0.00     0.134 A 
ATOM     84  C   UNL A   1      45.760  33.339  29.898  1.00  0.00     0.134 A 
ATOM     85  F   UNL A   1      43.979  33.839  26.772  1.00  0.00    -0.206 F 
ATOM     86  C   UNL A   1      45.269  35.340  28.037  1.00  0.00     0.040 A 
ATOM     87  C   UNL A   1      46.291  34.615  30.094  1.00  0.00     0.040 A 
ATOM     88  F   UNL A   1      46.017  32.403  30.823  1.00  0.00    -0.206 F 
ATOM     89  C   UNL A   1      46.048  35.619  29.159  1.00  0.00     0.006 A 
ENDBRANCH  65  82
ENDBRANCH  39  40
ENDBRANCH  32  34
ENDBRANCH  31  32
ENDBRANCH  30  31
ENDBRANCH  29  30
ENDBRANCH  28  29
ENDBRANCH   1  28
TORSDOF 19
ENDMDL
MODEL 2
REMARK VINA RESULT:     -10.2      1.153      2.032
REMARK SMILES CC(C)C[C@H](Nc1ncnc2scc(-c3ccccc3)c12)C(=O)OCCOCCOC(=O)c1ccc(-c2c3nc(c(-c4c(F)cccc4F)c4ccc([nH]4)c(-c4c(F)cccc4F)c4nc(c(-c5c(F)cccc5F)c5ccc2[nH]5)C=C4)C=C3)cc1
REMARK SMILES IDX 26 1 25 2 24 3 22 4 23 5 5 6 4 7 2 8 1 9 3 10 6 11 7 13 8 14
REMARK SMILES IDX 21 15 9 16 11 17 14 18 10 19 12 20 13 21 15 22 16 23 20 24
REMARK SMILES IDX 17 25 19 26 18 27 27 28 28 29 29 30 30 31 31 32 32 33 33 34
REMARK SMILES IDX 34 35 86 36 35 37 85 38 36 39 37 40 38 41 79 42 39 43 84 44
REMARK SMILES IDX 78 45 80 46 40 47 83 48 77 49 76 50 41 52 67 53 50 54 66 55
REMARK SMILES IDX 51 56 54 57 65 58 81 59 52 60 53 61 64 63 82 64 55 65 42 66
REMARK SMILES IDX 43 67 48 68 44 69 45 70 47 71 49 72 46 73 68 74 69 75 74 76
REMARK SMILES IDX 70 77 71 78 73 79 75 80 72 81 56 82 57 83 62 84 58 85 59 86
REMARK SMILES IDX 61 87 63 88 60 89
REMARK H PARENT 6 12 80 51 54 62
REMARK Flexibility Score: inf
ROOT
ATOM      1  C   UNL A   1      34.377  23.121  26.433  1.00  0.00     0.202 C 
ENDROOT
BRANCH   1   2
ATOM      2  C   UNL A   1      32.879  23.277  26.709  1.00  0.00     0.261 C 
BRANCH   2   3
ATOM      3  O   UNL A   1      32.087  23.396  25.521  1.00  0.00    -0.462 OA
BRANCH   3   4
ATOM      4  C   UNL A   1      30.883  24.010  25.721  1.00  0.00     0.328 C 
ATOM      5  O   UNL A   1      30.232  23.935  26.759  1.00  0.00    -0.250 OA
BRANCH   4   6
ATOM      6  C   UNL A   1      30.379  24.760  24.488  1.00  0.00     0.191 C 
BRANCH   6   7
ATOM      7  C   UNL A   1      31.243  24.374  23.275  1.00  0.00     0.040 C 
BRANCH   7   8
ATOM      8  C   UNL A   1      32.142  25.497  22.725  1.00  0.00    -0.015 C 
ATOM      9  C   UNL A   1      33.628  25.159  22.846  1.00  0.00     0.007 C 
ATOM     10  C   UNL A   1      31.780  25.773  21.265  1.00  0.00     0.007 C 
ENDBRANCH   7   8
ENDBRANCH   6   7
BRANCH   6  11
ATOM     11  N   UNL A   1      30.397  26.231  24.634  1.00  0.00    -0.356 N 
ATOM     12  H   UNL A   1      31.158  26.700  25.046  1.00  0.00     0.163 HD
BRANCH  11  13
ATOM     13  C   UNL A   1      29.285  26.914  24.159  1.00  0.00     0.139 A 
ATOM     14  N   UNL A   1      28.077  26.329  24.341  1.00  0.00    -0.219 NA
ATOM     15  C   UNL A   1      29.332  28.154  23.474  1.00  0.00     0.062 A 
ATOM     16  C   UNL A   1      26.973  26.923  23.876  1.00  0.00     0.225 A 
ATOM     17  C   UNL A   1      28.106  28.630  23.018  1.00  0.00     0.129 A 
ATOM     18  C   UNL A   1      30.389  29.074  23.092  1.00  0.00     0.006 A 
ATOM     19  N   UNL A   1      26.902  28.063  23.196  1.00  0.00    -0.225 NA
ATOM     20  S   UNL A   1      28.224  30.080  22.133  1.00  0.00    -0.123 S 
ATOM     21  C   UNL A   1      29.913  30.135  22.344  1.00  0.00     0.076 A 
BRANCH  18  22
ATOM     22  C   UNL A   1      31.810  29.003  23.397  1.00  0.00    -0.017 A 
ATOM     23  C   UNL A   1      32.237  28.988  24.731  1.00  0.00     0.009 A 
ATOM     24  C   UNL A   1      32.757  28.953  22.371  1.00  0.00     0.009 A 
ATOM     25  C   UNL A   1      33.595  28.893  25.033  1.00  0.00     0.001 A 
ATOM     26  C   UNL A   1      34.113  28.833  22.674  1.00  0.00     0.001 A 
ATOM     27  C   UNL A   1      34.532  28.800  24.004  1.00  0.00     0.000 A 
ENDBRANCH  18  22
ENDBRANCH  11  13
ENDBRANCH   6  11
ENDBRANCH   4   6
ENDBRANCH   3   4
ENDBRANCH   2   3
ENDBRANCH   1   2
BRANCH   1  28
ATOM     28  O   UNL A   1      34.800  23.020  25.078  1.00  0.00    -0.374 OA
BRANCH  28  29
ATOM     29  C   UNL A   1      35.357  21.782  24.630  1.00  0.00     0.202 C 
BRANCH  29  30
ATOM     30  C   UNL A   1      36.488  21.172  25.465  1.00  0.00     0.261 C 
BRANCH  30  31
ATOM     31  O   UNL A   1      37.787  21.497  24.936  1.00  0.00    -0.460 OA
BRANCH  31  32
ATOM     32  C   UNL A   1      38.826  21.142  25.725  1.00  0.00     0.338 C 
ATOM     33  O   UNL A   1      39.400  20.063  25.763  1.00  0.00    -0.246 OA
BRANCH  32  34
ATOM     34  C   UNL A   1      39.328  22.318  26.455  1.00  0.00     0.060 A 
ATOM     35  C   UNL A   1      38.777  23.567  26.137  1.00  0.00     0.016 A 
ATOM     36  C   UNL A   1      40.390  22.215  27.354  1.00  0.00     0.016 A 
ATOM     37  C   UNL A   1      39.333  24.730  26.663  1.00  0.00     0.010 A 
ATOM     38  C   UNL A   1      40.958  23.382  27.868  1.00  0.00     0.010 A 
ATOM     39  C   UNL A   1      40.461  24.642  27.487  1.00  0.00    -0.014 A 
BRANCH  39  40
ATOM     40  C   UNL A   1      41.249  25.858  27.789  1.00  0.00     0.031 A 
ATOM     41  C   UNL A   1      40.589  26.964  28.562  1.00  0.00     0.074 A 
ATOM     42  C   UNL A   1      42.522  25.978  27.380  1.00  0.00     0.049 A 
ATOM     43  N   UNL A   1      41.032  28.163  28.840  1.00  0.00    -0.248 NA
ATOM     44  C   UNL A   1      39.242  26.681  29.085  1.00  0.00     0.031 C 
ATOM     45  C   UNL A   1      43.284  24.951  26.673  1.00  0.00     0.029 A 
ATOM     46  N   UNL A   1      43.390  27.034  27.488  1.00  0.00    -0.354 N 
ATOM     47  C   UNL A   1      40.014  28.782  29.554  1.00  0.00     0.074 A 
ATOM     48  C   UNL A   1      38.925  27.835  29.651  1.00  0.00     0.031 C 
ATOM     49  C   UNL A   1      44.504  25.437  26.387  1.00  0.00     0.029 A 
ATOM     50  C   UNL A   1      44.591  26.819  26.859  1.00  0.00     0.049 A 
ATOM     51  H   UNL A   1      43.174  27.865  27.970  1.00  0.00     0.167 HD
ATOM     52  C   UNL A   1      39.989  30.030  30.079  1.00  0.00     0.037 A 
ATOM     53  C   UNL A   1      45.628  27.657  26.663  1.00  0.00     0.037 A 
ATOM     54  C   UNL A   1      41.074  30.967  29.981  1.00  0.00     0.049 A 
ATOM     55  C   UNL A   1      45.556  29.061  27.199  1.00  0.00     0.074 A 
ATOM     56  C   UNL A   1      41.156  32.251  30.487  1.00  0.00     0.029 A 
ATOM     57  N   UNL A   1      42.272  30.716  29.327  1.00  0.00    -0.354 N 
ATOM     58  N   UNL A   1      44.591  29.641  27.872  1.00  0.00    -0.248 NA
ATOM     59  C   UNL A   1      46.716  29.928  26.947  1.00  0.00     0.031 C 
ATOM     60  C   UNL A   1      42.387  32.794  30.103  1.00  0.00     0.029 A 
ATOM     61  C   UNL A   1      43.090  31.830  29.397  1.00  0.00     0.049 A 
ATOM     62  H   UNL A   1      42.504  29.871  28.878  1.00  0.00     0.167 HD
ATOM     63  C   UNL A   1      45.037  30.926  28.150  1.00  0.00     0.074 A 
ATOM     64  C   UNL A   1      46.360  31.043  27.572  1.00  0.00     0.031 C 
ATOM     65  C   UNL A   1      44.410  31.920  28.827  1.00  0.00     0.037 A 
BRANCH  52  66
ATOM     66  C   UNL A   1      38.728  30.457  30.771  1.00  0.00     0.057 A 
ATOM     67  C   UNL A   1      37.690  31.106  30.090  1.00  0.00     0.134 A 
ATOM     68  C   UNL A   1      38.551  30.212  32.139  1.00  0.00     0.134 A 
ATOM     69  F   UNL A   1      37.806  31.386  28.783  1.00  0.00    -0.206 F 
ATOM     70  C   UNL A   1      36.532  31.520  30.751  1.00  0.00     0.040 A 
ATOM     71  C   UNL A   1      37.388  30.599  32.805  1.00  0.00     0.040 A 
ATOM     72  F   UNL A   1      39.507  29.594  32.849  1.00  0.00    -0.206 F 
ATOM     73  C   UNL A   1      36.377  31.261  32.112  1.00  0.00     0.006 A 
ENDBRANCH  52  66
BRANCH  53  74
ATOM     74  C   UNL A   1      46.813  27.191  25.903  1.00  0.00     0.057 A 
ATOM     75  C   UNL A   1      46.970  27.495  24.548  1.00  0.00     0.134 A 
ATOM     76  C   UNL A   1      47.821  26.437  26.519  1.00  0.00     0.134 A 
ATOM     77  F   UNL A   1      46.028  28.196  23.899  1.00  0.00    -0.206 F 
ATOM     78  C   UNL A   1      48.084  27.061  23.826  1.00  0.00     0.040 A 
ATOM     79  C   UNL A   1      48.949  26.014  25.815  1.00  0.00     0.040 A 
ATOM     80  F   UNL A   1      47.729  26.117  27.818  1.00  0.00    -0.206 F 
ATOM     81  C   UNL A   1      49.080  26.323  24.463  1.00  0.00     0.006 A 
ENDBRANCH  53  74
BRANCH  65  82
ATOM     82  C   UNL A   1      45.161  33.204  29.023  1.00  0.00     0.057 A 
ATOM     83  C   UNL A   1      46.027  33.397  30.105  1.00  0.00     0.134 A 
ATOM     84  C   UNL A   1      45.061  34.233  28.078  1.00  0.00     0.134 A 
ATOM     85  F   UNL A   1      46.157  32.453  31.049  1.00  0.00    -0.206 F 
ATOM     86  C   UNL A   1      46.760  34.577  30.248  1.00  0.00     0.040 A 
ATOM     87  C   UNL A   1      45.806  35.407  28.198  1.00  0.00     0.040 A 
ATOM     88  F   UNL A   1      44.256  34.105  27.013  1.00  0.00    -0.206 F 
ATOM     89  C   UNL A   1      46.656  35.582  29.288  1.00  0.00     0.006 A 
ENDBRANCH  65  82
ENDBRANCH  39  40
ENDBRANCH  32  34
ENDBRANCH  31  32
ENDBRANCH  30  31
ENDBRANCH  29  30
ENDBRANCH  28  29
ENDBRANCH   1  28
TORSDOF 19
ENDMDL
MODEL 3
REMARK VINA RESULT:     -10.2      2.000      6.985
REMARK SMILES CC(C)C[C@H](Nc1ncnc2scc(-c3ccccc3)c12)C(=O)OCCOCCOC(=O)c1ccc(-c2c3nc(c(-c4c(F)cccc4F)c4ccc([nH]4)c(-c4c(F)cccc4F)c4nc(c(-c5c(F)cccc5F)c5ccc2[nH]5)C=C4)C=C3)cc1
REMARK SMILES IDX 26 1 25 2 24 3 22 4 23 5 5 6 4 7 2 8 1 9 3 10 6 11 7 13 8 14
REMARK SMILES IDX 21 15 9 16 11 17 14 18 10 19 12 20 13 21 15 22 16 23 20 24
REMARK SMILES IDX 17 25 19 26 18 27 27 28 28 29 29 30 30 31 31 32 32 33 33 34
REMARK SMILES IDX 34 35 86 36 35 37 85 38 36 39 37 40 38 41 79 42 39 43 84 44
REMARK SMILES IDX 78 45 80 46 40 47 83 48 77 49 76 50 41 52 67 53 50 54 66 55
REMARK SMILES IDX 51 56 54 57 65 58 81 59 52 60 53 61 64 63 82 64 55 65 42 66
REMARK SMILES IDX 43 67 48 68 44 69 45 70 47 71 49 72 46 73 68 74 69 75 74 76
REMARK SMILES IDX 70 77 71 78 73 79 75 80 72 81 56 82 57 83 62 84 58 85 59 86
REMARK SMILES IDX 61 87 63 88 60 89
REMARK H PARENT 6 12 80 51 54 62
REMARK Flexibility Score: inf
ROOT
ATOM      1  C   UNL A   1      36.631  21.529  24.863  1.00  0.00     0.202 C 
ENDROOT
BRANCH   1   2
ATOM      2  C   UNL A   1      36.915  22.843  24.128  1.00  0.00     0.261 C 
BRANCH   2   3
ATOM      3  O   UNL A   1      35.773  23.704  24.033  1.00  0.00    -0.462 OA
BRANCH   3   4
ATOM      4  C   UNL A   1      35.494  24.378  25.188  1.00  0.00     0.328 C 
ATOM      5  O   UNL A   1      36.265  24.470  26.139  1.00  0.00    -0.250 OA
BRANCH   4   6
ATOM      6  C   UNL A   1      34.082  24.964  25.215  1.00  0.00     0.191 C 
BRANCH   6   7
ATOM      7  C   UNL A   1      34.150  26.420  25.705  1.00  0.00     0.040 C 
BRANCH   7   8
ATOM      8  C   UNL A   1      33.076  27.359  25.125  1.00  0.00    -0.015 C 
ATOM      9  C   UNL A   1      32.223  28.006  26.217  1.00  0.00     0.007 C 
ATOM     10  C   UNL A   1      33.746  28.437  24.271  1.00  0.00     0.007 C 
ENDBRANCH   7   8
ENDBRANCH   6   7
BRANCH   6  11
ATOM     11  N   UNL A   1      33.141  24.217  26.076  1.00  0.00    -0.356 N 
ATOM     12  H   UNL A   1      32.566  24.674  26.732  1.00  0.00     0.163 HD
BRANCH  11  13
ATOM     13  C   UNL A   1      33.108  22.839  25.910  1.00  0.00     0.139 A 
ATOM     14  N   UNL A   1      33.528  22.082  26.951  1.00  0.00    -0.219 NA
ATOM     15  C   UNL A   1      32.701  22.179  24.723  1.00  0.00     0.062 A 
ATOM     16  C   UNL A   1      33.552  20.750  26.838  1.00  0.00     0.225 A 
ATOM     17  C   UNL A   1      32.816  20.792  24.744  1.00  0.00     0.129 A 
ATOM     18  C   UNL A   1      32.200  22.611  23.431  1.00  0.00     0.006 A 
ATOM     19  N   UNL A   1      33.225  20.029  25.771  1.00  0.00    -0.225 NA
ATOM     20  S   UNL A   1      32.391  20.051  23.270  1.00  0.00    -0.123 S 
ATOM     21  C   UNL A   1      32.021  21.553  22.559  1.00  0.00     0.076 A 
BRANCH  18  22
ATOM     22  C   UNL A   1      31.882  23.959  22.983  1.00  0.00    -0.017 A 
ATOM     23  C   UNL A   1      30.767  24.624  23.511  1.00  0.00     0.009 A 
ATOM     24  C   UNL A   1      32.677  24.599  22.029  1.00  0.00     0.009 A 
ATOM     25  C   UNL A   1      30.472  25.926  23.108  1.00  0.00     0.001 A 
ATOM     26  C   UNL A   1      32.394  25.910  21.645  1.00  0.00     0.001 A 
ATOM     27  C   UNL A   1      31.294  26.574  22.187  1.00  0.00     0.000 A 
ENDBRANCH  18  22
ENDBRANCH  11  13
ENDBRANCH   6  11
ENDBRANCH   4   6
ENDBRANCH   3   4
ENDBRANCH   2   3
ENDBRANCH   1   2
BRANCH   1  28
ATOM     28  O   UNL A   1      37.188  20.332  24.333  1.00  0.00    -0.374 OA
BRANCH  28  29
ATOM     29  C   UNL A   1      38.208  19.667  25.082  1.00  0.00     0.202 C 
BRANCH  29  30
ATOM     30  C   UNL A   1      39.253  20.541  25.783  1.00  0.00     0.261 C 
BRANCH  30  31
ATOM     31  O   UNL A   1      40.058  19.787  26.709  1.00  0.00    -0.460 OA
BRANCH  31  32
ATOM     32  C   UNL A   1      41.356  19.656  26.358  1.00  0.00     0.338 C 
ATOM     33  O   UNL A   1      41.889  18.701  25.810  1.00  0.00    -0.246 OA
BRANCH  32  34
ATOM     34  C   UNL A   1      42.066  20.930  26.568  1.00  0.00     0.060 A 
ATOM     35  C   UNL A   1      42.223  21.377  27.887  1.00  0.00     0.016 A 
ATOM     36  C   UNL A   1      42.471  21.720  25.492  1.00  0.00     0.016 A 
ATOM     37  C   UNL A   1      42.724  22.652  28.136  1.00  0.00     0.010 A 
ATOM     38  C   UNL A   1      42.957  23.005  25.742  1.00  0.00     0.010 A 
ATOM     39  C   UNL A   1      43.041  23.490  27.060  1.00  0.00    -0.014 A 
BRANCH  39  40
ATOM     40  C   UNL A   1      43.262  24.934  27.293  1.00  0.00     0.031 A 
ATOM     41  C   UNL A   1      44.625  25.503  27.016  1.00  0.00     0.074 A 
ATOM     42  C   UNL A   1      42.274  25.724  27.744  1.00  0.00     0.049 A 
ATOM     43  N   UNL A   1      45.091  26.701  27.255  1.00  0.00    -0.248 NA
ATOM     44  C   UNL A   1      45.599  24.590  26.394  1.00  0.00     0.031 C 
ATOM     45  C   UNL A   1      40.899  25.298  27.994  1.00  0.00     0.029 A 
ATOM     46  N   UNL A   1      42.290  27.050  28.090  1.00  0.00    -0.354 N 
ATOM     47  C   UNL A   1      46.413  26.682  26.829  1.00  0.00     0.074 A 
ATOM     48  C   UNL A   1      46.681  25.350  26.334  1.00  0.00     0.031 C 
ATOM     49  C   UNL A   1      40.205  26.341  28.478  1.00  0.00     0.029 A 
ATOM     50  C   UNL A   1      41.097  27.493  28.605  1.00  0.00     0.049 A 
ATOM     51  H   UNL A   1      43.078  27.629  27.979  1.00  0.00     0.167 HD
ATOM     52  C   UNL A   1      47.322  27.685  26.851  1.00  0.00     0.037 A 
ATOM     53  C   UNL A   1      40.777  28.685  29.147  1.00  0.00     0.037 A 
ATOM     54  C   UNL A   1      47.050  29.008  27.342  1.00  0.00     0.049 A 
ATOM     55  C   UNL A   1      41.820  29.767  29.220  1.00  0.00     0.074 A 
ATOM     56  C   UNL A   1      47.896  30.100  27.399  1.00  0.00     0.029 A 
ATOM     57  N   UNL A   1      45.831  29.415  27.867  1.00  0.00    -0.354 N 
ATOM     58  N   UNL A   1      43.067  29.743  28.817  1.00  0.00    -0.248 NA
ATOM     59  C   UNL A   1      41.410  31.043  29.827  1.00  0.00     0.031 C 
ATOM     60  C   UNL A   1      47.203  31.158  27.998  1.00  0.00     0.029 A 
ATOM     61  C   UNL A   1      45.910  30.738  28.270  1.00  0.00     0.049 A 
ATOM     62  H   UNL A   1      45.030  28.849  27.943  1.00  0.00     0.167 HD
ATOM     63  C   UNL A   1      43.583  31.004  29.091  1.00  0.00     0.074 A 
ATOM     64  C   UNL A   1      42.513  31.770  29.696  1.00  0.00     0.031 C 
ATOM     65  C   UNL A   1      44.828  31.486  28.858  1.00  0.00     0.037 A 
BRANCH  52  66
ATOM     66  C   UNL A   1      48.704  27.368  26.362  1.00  0.00     0.057 A 
ATOM     67  C   UNL A   1      49.729  26.976  27.233  1.00  0.00     0.134 A 
ATOM     68  C   UNL A   1      49.012  27.454  24.998  1.00  0.00     0.134 A 
ATOM     69  F   UNL A   1      49.503  26.892  28.553  1.00  0.00    -0.206 F 
ATOM     70  C   UNL A   1      51.017  26.707  26.768  1.00  0.00     0.040 A 
ATOM     71  C   UNL A   1      50.289  27.164  24.518  1.00  0.00     0.040 A 
ATOM     72  F   UNL A   1      48.075  27.823  24.111  1.00  0.00    -0.206 F 
ATOM     73  C   UNL A   1      51.299  26.796  25.405  1.00  0.00     0.006 A 
ENDBRANCH  52  66
BRANCH  53  74
ATOM     74  C   UNL A   1      39.412  28.904  29.680  1.00  0.00     0.057 A 
ATOM     75  C   UNL A   1      38.388  29.402  28.868  1.00  0.00     0.134 A 
ATOM     76  C   UNL A   1      39.096  28.614  31.014  1.00  0.00     0.134 A 
ATOM     77  F   UNL A   1      38.635  29.718  27.588  1.00  0.00    -0.206 F 
ATOM     78  C   UNL A   1      37.099  29.611  29.363  1.00  0.00     0.040 A 
ATOM     79  C   UNL A   1      37.807  28.798  31.517  1.00  0.00     0.040 A 
ATOM     80  F   UNL A   1      40.034  28.130  31.842  1.00  0.00    -0.206 F 
ATOM     81  C   UNL A   1      36.805  29.303  30.690  1.00  0.00     0.006 A 
ENDBRANCH  53  74
BRANCH  65  82
ATOM     82  C   UNL A   1      45.093  32.919  29.214  1.00  0.00     0.057 A 
ATOM     83  C   UNL A   1      45.661  33.283  30.440  1.00  0.00     0.134 A 
ATOM     84  C   UNL A   1      44.834  33.937  28.289  1.00  0.00     0.134 A 
ATOM     85  F   UNL A   1      45.921  32.355  31.372  1.00  0.00    -0.206 F 
ATOM     86  C   UNL A   1      45.950  34.616  30.738  1.00  0.00     0.040 A 
ATOM     87  C   UNL A   1      45.140  35.270  28.566  1.00  0.00     0.040 A 
ATOM     88  F   UNL A   1      44.299  33.651  27.092  1.00  0.00    -0.206 F 
ATOM     89  C   UNL A   1      45.698  35.613  29.797  1.00  0.00     0.006 A 
ENDBRANCH  65  82
ENDBRANCH  39  40
ENDBRANCH  32  34
ENDBRANCH  31  32
ENDBRANCH  30  31
ENDBRANCH  29  30
ENDBRANCH  28  29
ENDBRANCH   1  28
TORSDOF 19
ENDMDL
