MODEL 1
REMARK VINA RESULT:     -10.3      0.000      0.000
REMARK SMILES C[NH2+][C@@]1(C(=O)OCCOCCOC(=O)c2ccc(-c3c4nc(c(-c5c(F)cccc5F)c5ccc([nH]5)c(-c5c(F)cccc5F)c5nc(c(-c6c(F)cccc6F)c6ccc3[nH]6)C=C5)C=C4)cc2)CC[C@H]([NH+]2CC[NH+](C)CC2)C1
REMARK SMILES IDX 10 1 9 2 8 3 7 4 6 5 4 6 5 7 3 8 69 9 79 10 70 11 71 12 2 13
REMARK SMILES IDX 1 14 72 17 73 18 78 19 74 21 77 22 75 23 76 24 11 26 12 27
REMARK SMILES IDX 13 28 14 29 15 30 16 31 68 32 17 33 67 34 18 35 19 36 20 37
REMARK SMILES IDX 61 38 21 39 66 40 60 41 62 42 22 43 65 44 59 45 58 46 23 48
REMARK SMILES IDX 49 49 32 50 48 51 33 52 36 53 47 54 63 55 34 56 35 57 46 59
REMARK SMILES IDX 64 60 37 61 24 62 25 63 30 64 26 65 27 66 29 67 31 68 28 69
REMARK SMILES IDX 50 70 51 71 56 72 52 73 53 74 55 75 57 76 54 77 38 78 39 79
REMARK SMILES IDX 44 80 40 81 41 82 43 83 45 84 42 85
REMARK H PARENT 2 15 2 16 72 20 75 25 62 47 36 58
REMARK Flexibility Score: inf
ROOT
ATOM      1  C   UNL A   1      31.515  31.846  26.783  1.00  0.00     0.202 C 
ENDROOT
BRANCH   1   2
ATOM      2  O   UNL A   1      32.333  30.810  26.245  1.00  0.00    -0.374 OA
BRANCH   2   3
ATOM      3  C   UNL A   1      32.923  29.903  27.179  1.00  0.00     0.202 C 
BRANCH   3   4
ATOM      4  C   UNL A   1      33.925  28.919  26.568  1.00  0.00     0.261 C 
BRANCH   4   5
ATOM      5  O   UNL A   1      33.192  27.884  25.881  1.00  0.00    -0.459 OA
BRANCH   5   6
ATOM      6  C   UNL A   1      33.087  27.987  24.536  1.00  0.00     0.368 C 
ATOM      7  O   UNL A   1      34.059  28.064  23.789  1.00  0.00    -0.245 OA
BRANCH   6   8
ATOM      8  C   UNL A   1      31.597  27.959  24.035  1.00  0.00     0.200 C 
ATOM      9  C   UNL A   1      30.760  27.285  25.139  1.00  0.00     0.087 C 
ATOM     10  C   UNL A   1      31.272  27.092  22.795  1.00  0.00     0.146 C 
ATOM     11  C   UNL A   1      30.767  25.792  24.810  1.00  0.00     0.072 C 
ATOM     12  C   UNL A   1      30.848  25.690  23.283  1.00  0.00     0.191 C 
BRANCH   8  13
ATOM     13  N   UNL A   1      31.305  29.372  23.690  1.00  0.00    -0.334 N 
ATOM     14  C   UNL A   1      29.919  29.732  23.489  1.00  0.00     0.331 C 
ATOM     15  H   UNL A   1      31.667  29.954  24.445  1.00  0.00     0.347 HD
ATOM     16  H   UNL A   1      31.748  29.517  22.781  1.00  0.00     0.347 HD
ENDBRANCH   8  13
BRANCH  12  17
ATOM     17  N   UNL A   1      31.532  24.562  22.638  1.00  0.00    -0.323 N 
ATOM     18  C   UNL A   1      31.375  23.255  23.299  1.00  0.00     0.324 C 
ATOM     19  C   UNL A   1      32.949  24.720  22.303  1.00  0.00     0.324 C 
ATOM     20  H   UNL A   1      31.008  24.577  21.762  1.00  0.00     0.348 HD
ATOM     21  C   UNL A   1      32.370  22.961  24.454  1.00  0.00     0.324 C 
ATOM     22  C   UNL A   1      33.926  24.583  23.481  1.00  0.00     0.324 C 
ATOM     23  N   UNL A   1      33.782  23.304  24.189  1.00  0.00    -0.328 N 
ATOM     24  C   UNL A   1      34.549  23.331  25.434  1.00  0.00     0.333 C 
ATOM     25  H   UNL A   1      34.153  22.575  23.579  1.00  0.00     0.348 HD
ENDBRANCH  12  17
ENDBRANCH   6   8
ENDBRANCH   5   6
ENDBRANCH   4   5
ENDBRANCH   3   4
ENDBRANCH   2   3
ENDBRANCH   1   2
BRANCH   1  26
ATOM     26  C   UNL A   1      32.163  33.235  26.855  1.00  0.00     0.261 C 
BRANCH  26  27
ATOM     27  O   UNL A   1      32.190  33.782  28.186  1.00  0.00    -0.460 OA
BRANCH  27  28
ATOM     28  C   UNL A   1      33.260  34.563  28.463  1.00  0.00     0.338 C 
ATOM     29  O   UNL A   1      33.274  35.779  28.593  1.00  0.00    -0.246 OA
BRANCH  28  30
ATOM     30  C   UNL A   1      34.444  33.729  28.751  1.00  0.00     0.060 A 
ATOM     31  C   UNL A   1      34.232  32.466  29.317  1.00  0.00     0.016 A 
ATOM     32  C   UNL A   1      35.745  34.190  28.529  1.00  0.00     0.016 A 
ATOM     33  C   UNL A   1      35.317  31.681  29.709  1.00  0.00     0.010 A 
ATOM     34  C   UNL A   1      36.834  33.392  28.909  1.00  0.00     0.010 A 
ATOM     35  C   UNL A   1      36.626  32.152  29.542  1.00  0.00    -0.014 A 
BRANCH  35  36
ATOM     36  C   UNL A   1      37.760  31.425  30.176  1.00  0.00     0.031 A 
ATOM     37  C   UNL A   1      38.081  31.693  31.626  1.00  0.00     0.074 A 
ATOM     38  C   UNL A   1      38.472  30.505  29.500  1.00  0.00     0.049 A 
ATOM     39  N   UNL A   1      39.032  31.193  32.375  1.00  0.00    -0.248 NA
ATOM     40  C   UNL A   1      37.218  32.661  32.320  1.00  0.00     0.031 C 
ATOM     41  C   UNL A   1      38.257  30.125  28.105  1.00  0.00     0.029 A 
ATOM     42  N   UNL A   1      39.530  29.725  29.902  1.00  0.00    -0.354 N 
ATOM     43  C   UNL A   1      38.887  31.793  33.620  1.00  0.00     0.074 A 
ATOM     44  C   UNL A   1      37.785  32.724  33.515  1.00  0.00     0.031 C 
ATOM     45  C   UNL A   1      39.151  29.179  27.769  1.00  0.00     0.029 A 
ATOM     46  C   UNL A   1      40.028  28.916  28.909  1.00  0.00     0.049 A 
ATOM     47  H   UNL A   1      39.896  29.743  30.816  1.00  0.00     0.167 HD
ATOM     48  C   UNL A   1      39.596  31.582  34.756  1.00  0.00     0.037 A 
ATOM     49  C   UNL A   1      41.083  28.077  28.913  1.00  0.00     0.037 A 
ATOM     50  C   UNL A   1      40.688  30.650  34.872  1.00  0.00     0.049 A 
ATOM     51  C   UNL A   1      41.902  27.910  30.169  1.00  0.00     0.074 A 
ATOM     52  C   UNL A   1      41.448  30.350  35.989  1.00  0.00     0.029 A 
ATOM     53  N   UNL A   1      41.181  29.876  33.833  1.00  0.00    -0.354 N 
ATOM     54  N   UNL A   1      41.736  28.458  31.347  1.00  0.00    -0.248 NA
ATOM     55  C   UNL A   1      43.057  27.000  30.092  1.00  0.00     0.031 C 
ATOM     56  C   UNL A   1      42.440  29.439  35.612  1.00  0.00     0.029 A 
ATOM     57  C   UNL A   1      42.255  29.121  34.276  1.00  0.00     0.049 A 
ATOM     58  H   UNL A   1      40.821  29.863  32.918  1.00  0.00     0.167 HD
ATOM     59  C   UNL A   1      42.741  27.939  32.157  1.00  0.00     0.074 A 
ATOM     60  C   UNL A   1      43.503  27.020  31.339  1.00  0.00     0.031 C 
ATOM     61  C   UNL A   1      43.005  28.199  33.461  1.00  0.00     0.037 A 
BRANCH  48  62
ATOM     62  C   UNL A   1      39.225  32.392  35.965  1.00  0.00     0.057 A 
ATOM     63  C   UNL A   1      39.738  33.676  36.186  1.00  0.00     0.134 A 
ATOM     64  C   UNL A   1      38.313  31.892  36.904  1.00  0.00     0.134 A 
ATOM     65  F   UNL A   1      40.624  34.211  35.333  1.00  0.00    -0.206 F 
ATOM     66  C   UNL A   1      39.380  34.422  37.311  1.00  0.00     0.040 A 
ATOM     67  C   UNL A   1      37.924  32.640  38.016  1.00  0.00     0.040 A 
ATOM     68  F   UNL A   1      37.777  30.672  36.750  1.00  0.00    -0.206 F 
ATOM     69  C   UNL A   1      38.465  33.907  38.226  1.00  0.00     0.006 A 
ENDBRANCH  48  62
BRANCH  49  70
ATOM     70  C   UNL A   1      41.448  27.331  27.679  1.00  0.00     0.057 A 
ATOM     71  C   UNL A   1      42.241  27.913  26.683  1.00  0.00     0.134 A 
ATOM     72  C   UNL A   1      40.978  26.032  27.448  1.00  0.00     0.134 A 
ATOM     73  F   UNL A   1      42.698  29.166  26.831  1.00  0.00    -0.206 F 
ATOM     74  C   UNL A   1      42.538  27.241  25.496  1.00  0.00     0.040 A 
ATOM     75  C   UNL A   1      41.292  25.336  26.278  1.00  0.00     0.040 A 
ATOM     76  F   UNL A   1      40.210  25.416  28.358  1.00  0.00    -0.206 F 
ATOM     77  C   UNL A   1      42.066  25.946  25.294  1.00  0.00     0.006 A 
ENDBRANCH  49  70
BRANCH  61  78
ATOM     78  C   UNL A   1      44.138  27.450  34.107  1.00  0.00     0.057 A 
ATOM     79  C   UNL A   1      43.965  26.184  34.679  1.00  0.00     0.134 A 
ATOM     80  C   UNL A   1      45.432  27.988  34.115  1.00  0.00     0.134 A 
ATOM     81  F   UNL A   1      42.751  25.613  34.714  1.00  0.00    -0.206 F 
ATOM     82  C   UNL A   1      45.031  25.491  35.258  1.00  0.00     0.040 A 
ATOM     83  C   UNL A   1      46.511  27.293  34.662  1.00  0.00     0.040 A 
ATOM     84  F   UNL A   1      45.674  29.192  33.573  1.00  0.00    -0.206 F 
ATOM     85  C   UNL A   1      46.311  26.043  35.243  1.00  0.00     0.006 A 
ENDBRANCH  61  78
ENDBRANCH  35  36
ENDBRANCH  28  30
ENDBRANCH  27  28
ENDBRANCH  26  27
ENDBRANCH   1  26
TORSDOF 16
ENDMDL
MODEL 2
REMARK VINA RESULT:     -10.1      0.750      1.648
REMARK SMILES C[NH2+][C@@]1(C(=O)OCCOCCOC(=O)c2ccc(-c3c4nc(c(-c5c(F)cccc5F)c5ccc([nH]5)c(-c5c(F)cccc5F)c5nc(c(-c6c(F)cccc6F)c6ccc3[nH]6)C=C5)C=C4)cc2)CC[C@H]([NH+]2CC[NH+](C)CC2)C1
REMARK SMILES IDX 10 1 9 2 8 3 7 4 6 5 4 6 5 7 3 8 69 9 79 10 70 11 71 12 2 13
REMARK SMILES IDX 1 14 72 17 73 18 78 19 74 21 77 22 75 23 76 24 11 26 12 27
REMARK SMILES IDX 13 28 14 29 15 30 16 31 68 32 17 33 67 34 18 35 19 36 20 37
REMARK SMILES IDX 61 38 21 39 66 40 60 41 62 42 22 43 65 44 59 45 58 46 23 48
REMARK SMILES IDX 49 49 32 50 48 51 33 52 36 53 47 54 63 55 34 56 35 57 46 59
REMARK SMILES IDX 64 60 37 61 24 62 25 63 30 64 26 65 27 66 29 67 31 68 28 69
REMARK SMILES IDX 50 70 51 71 56 72 52 73 53 74 55 75 57 76 54 77 38 78 39 79
REMARK SMILES IDX 44 80 40 81 41 82 43 83 45 84 42 85
REMARK H PARENT 2 15 2 16 72 20 75 25 62 47 36 58
REMARK Flexibility Score: inf
ROOT
ATOM      1  C   UNL A   1      31.372  31.781  26.805  1.00  0.00     0.202 C 
ENDROOT
BRANCH   1   2
ATOM      2  O   UNL A   1      32.137  30.733  26.216  1.00  0.00    -0.374 OA
BRANCH   2   3
ATOM      3  C   UNL A   1      32.719  29.779  27.108  1.00  0.00     0.202 C 
BRANCH   3   4
ATOM      4  C   UNL A   1      31.902  28.495  27.289  1.00  0.00     0.261 C 
BRANCH   4   5
ATOM      5  O   UNL A   1      32.119  27.647  26.143  1.00  0.00    -0.459 OA
BRANCH   5   6
ATOM      6  C   UNL A   1      31.086  26.869  25.744  1.00  0.00     0.368 C 
ATOM      7  O   UNL A   1      30.409  26.200  26.518  1.00  0.00    -0.245 OA
BRANCH   6   8
ATOM      8  C   UNL A   1      30.826  26.947  24.194  1.00  0.00     0.200 C 
ATOM      9  C   UNL A   1      29.672  25.977  23.879  1.00  0.00     0.087 C 
ATOM     10  C   UNL A   1      31.947  26.447  23.252  1.00  0.00     0.146 C 
ATOM     11  C   UNL A   1      30.332  24.633  23.575  1.00  0.00     0.072 C 
ATOM     12  C   UNL A   1      31.692  24.956  22.945  1.00  0.00     0.191 C 
BRANCH   8  13
ATOM     13  N   UNL A   1      30.627  28.394  23.933  1.00  0.00    -0.334 N 
ATOM     14  C   UNL A   1      31.415  28.991  22.878  1.00  0.00     0.331 C 
ATOM     15  H   UNL A   1      29.644  28.530  23.697  1.00  0.00     0.347 HD
ATOM     16  H   UNL A   1      30.935  28.860  24.788  1.00  0.00     0.347 HD
ENDBRANCH   8  13
BRANCH  12  17
ATOM     17  N   UNL A   1      32.842  24.064  23.136  1.00  0.00    -0.323 N 
ATOM     18  C   UNL A   1      32.520  22.657  23.433  1.00  0.00     0.324 C 
ATOM     19  C   UNL A   1      33.887  24.484  24.072  1.00  0.00     0.324 C 
ATOM     20  H   UNL A   1      33.226  24.145  22.194  1.00  0.00     0.348 HD
ATOM     21  C   UNL A   1      32.249  22.329  24.926  1.00  0.00     0.324 C 
ATOM     22  C   UNL A   1      33.554  24.303  25.561  1.00  0.00     0.324 C 
ATOM     23  N   UNL A   1      33.196  22.918  25.895  1.00  0.00    -0.328 N 
ATOM     24  C   UNL A   1      32.652  22.854  27.252  1.00  0.00     0.333 C 
ATOM     25  H   UNL A   1      34.051  22.363  25.847  1.00  0.00     0.348 HD
ENDBRANCH  12  17
ENDBRANCH   6   8
ENDBRANCH   5   6
ENDBRANCH   4   5
ENDBRANCH   3   4
ENDBRANCH   2   3
ENDBRANCH   1   2
BRANCH   1  26
ATOM     26  C   UNL A   1      32.050  33.157  26.848  1.00  0.00     0.261 C 
BRANCH  26  27
ATOM     27  O   UNL A   1      32.200  33.678  28.181  1.00  0.00    -0.460 OA
BRANCH  27  28
ATOM     28  C   UNL A   1      33.279  34.471  28.369  1.00  0.00     0.338 C 
ATOM     29  O   UNL A   1      33.297  35.694  28.425  1.00  0.00    -0.246 OA
BRANCH  28  30
ATOM     30  C   UNL A   1      34.473  33.654  28.662  1.00  0.00     0.060 A 
ATOM     31  C   UNL A   1      34.274  32.359  29.153  1.00  0.00     0.016 A 
ATOM     32  C   UNL A   1      35.769  34.159  28.517  1.00  0.00     0.016 A 
ATOM     33  C   UNL A   1      35.364  31.582  29.548  1.00  0.00     0.010 A 
ATOM     34  C   UNL A   1      36.863  33.371  28.899  1.00  0.00     0.010 A 
ATOM     35  C   UNL A   1      36.665  32.094  29.458  1.00  0.00    -0.014 A 
BRANCH  35  36
ATOM     36  C   UNL A   1      37.793  31.364  30.100  1.00  0.00     0.031 A 
ATOM     37  C   UNL A   1      38.096  31.619  31.556  1.00  0.00     0.074 A 
ATOM     38  C   UNL A   1      38.517  30.453  29.424  1.00  0.00     0.049 A 
ATOM     39  N   UNL A   1      39.038  31.114  32.312  1.00  0.00    -0.248 NA
ATOM     40  C   UNL A   1      37.221  32.578  32.249  1.00  0.00     0.031 C 
ATOM     41  C   UNL A   1      38.319  30.086  28.023  1.00  0.00     0.029 A 
ATOM     42  N   UNL A   1      39.571  29.671  29.832  1.00  0.00    -0.354 N 
ATOM     43  C   UNL A   1      38.876  31.701  33.561  1.00  0.00     0.074 A 
ATOM     44  C   UNL A   1      37.773  32.630  33.451  1.00  0.00     0.031 C 
ATOM     45  C   UNL A   1      39.221  29.145  27.689  1.00  0.00     0.029 A 
ATOM     46  C   UNL A   1      40.084  28.874  28.836  1.00  0.00     0.049 A 
ATOM     47  H   UNL A   1      39.926  29.681  30.750  1.00  0.00     0.167 HD
ATOM     48  C   UNL A   1      39.571  31.481  34.703  1.00  0.00     0.037 A 
ATOM     49  C   UNL A   1      41.141  28.037  28.846  1.00  0.00     0.037 A 
ATOM     50  C   UNL A   1      40.664  30.551  34.824  1.00  0.00     0.049 A 
ATOM     51  C   UNL A   1      41.944  27.859  30.110  1.00  0.00     0.074 A 
ATOM     52  C   UNL A   1      41.411  30.242  35.947  1.00  0.00     0.029 A 
ATOM     53  N   UNL A   1      41.172  29.789  33.784  1.00  0.00    -0.354 N 
ATOM     54  N   UNL A   1      41.763  28.396  31.292  1.00  0.00    -0.248 NA
ATOM     55  C   UNL A   1      43.103  26.954  30.039  1.00  0.00     0.031 C 
ATOM     56  C   UNL A   1      42.410  29.338  35.574  1.00  0.00     0.029 A 
ATOM     57  C   UNL A   1      42.243  29.032  34.234  1.00  0.00     0.049 A 
ATOM     58  H   UNL A   1      40.824  29.784  32.864  1.00  0.00     0.167 HD
ATOM     59  C   UNL A   1      42.758  27.871  32.109  1.00  0.00     0.074 A 
ATOM     60  C   UNL A   1      43.533  26.963  31.292  1.00  0.00     0.031 C 
ATOM     61  C   UNL A   1      43.005  28.120  33.419  1.00  0.00     0.037 A 
BRANCH  48  62
ATOM     62  C   UNL A   1      39.183  32.278  35.915  1.00  0.00     0.057 A 
ATOM     63  C   UNL A   1      38.302  31.781  36.884  1.00  0.00     0.134 A 
ATOM     64  C   UNL A   1      39.728  33.551  36.134  1.00  0.00     0.134 A 
ATOM     65  F   UNL A   1      37.736  30.574  36.732  1.00  0.00    -0.206 F 
ATOM     66  C   UNL A   1      37.956  32.530  38.010  1.00  0.00     0.040 A 
ATOM     67  C   UNL A   1      39.413  34.296  37.271  1.00  0.00     0.040 A 
ATOM     68  F   UNL A   1      40.585  34.086  35.250  1.00  0.00    -0.206 F 
ATOM     69  C   UNL A   1      38.518  33.789  38.210  1.00  0.00     0.006 A 
ENDBRANCH  48  62
BRANCH  49  70
ATOM     70  C   UNL A   1      41.523  27.304  27.609  1.00  0.00     0.057 A 
ATOM     71  C   UNL A   1      42.324  27.899  26.628  1.00  0.00     0.134 A 
ATOM     72  C   UNL A   1      41.063  26.005  27.361  1.00  0.00     0.134 A 
ATOM     73  F   UNL A   1      42.773  29.153  26.792  1.00  0.00    -0.206 F 
ATOM     74  C   UNL A   1      42.638  27.239  25.438  1.00  0.00     0.040 A 
ATOM     75  C   UNL A   1      41.393  25.321  26.189  1.00  0.00     0.040 A 
ATOM     76  F   UNL A   1      40.288  25.377  28.258  1.00  0.00    -0.206 F 
ATOM     77  C   UNL A   1      42.175  25.943  25.220  1.00  0.00     0.006 A 
ENDBRANCH  49  70
BRANCH  61  78
ATOM     78  C   UNL A   1      44.132  27.368  34.071  1.00  0.00     0.057 A 
ATOM     79  C   UNL A   1      45.425  27.896  34.167  1.00  0.00     0.134 A 
ATOM     80  C   UNL A   1      43.906  26.112  34.653  1.00  0.00     0.134 A 
ATOM     81  F   UNL A   1      45.715  29.089  33.625  1.00  0.00    -0.206 F 
ATOM     82  C   UNL A   1      46.458  27.194  34.794  1.00  0.00     0.040 A 
ATOM     83  C   UNL A   1      44.921  25.415  35.309  1.00  0.00     0.040 A 
ATOM     84  F   UNL A   1      42.688  25.550  34.610  1.00  0.00    -0.206 F 
ATOM     85  C   UNL A   1      46.204  25.952  35.374  1.00  0.00     0.006 A 
ENDBRANCH  61  78
ENDBRANCH  35  36
ENDBRANCH  28  30
ENDBRANCH  27  28
ENDBRANCH  26  27
ENDBRANCH   1  26
TORSDOF 16
ENDMDL
MODEL 3
REMARK VINA RESULT:     -10.0      1.133      1.931
REMARK SMILES C[NH2+][C@@]1(C(=O)OCCOCCOC(=O)c2ccc(-c3c4nc(c(-c5c(F)cccc5F)c5ccc([nH]5)c(-c5c(F)cccc5F)c5nc(c(-c6c(F)cccc6F)c6ccc3[nH]6)C=C5)C=C4)cc2)CC[C@H]([NH+]2CC[NH+](C)CC2)C1
REMARK SMILES IDX 10 1 9 2 8 3 7 4 6 5 4 6 5 7 3 8 69 9 79 10 70 11 71 12 2 13
REMARK SMILES IDX 1 14 72 17 73 18 78 19 74 21 77 22 75 23 76 24 11 26 12 27
REMARK SMILES IDX 13 28 14 29 15 30 16 31 68 32 17 33 67 34 18 35 19 36 20 37
REMARK SMILES IDX 61 38 21 39 66 40 60 41 62 42 22 43 65 44 59 45 58 46 23 48
REMARK SMILES IDX 49 49 32 50 48 51 33 52 36 53 47 54 63 55 34 56 35 57 46 59
REMARK SMILES IDX 64 60 37 61 24 62 25 63 30 64 26 65 27 66 29 67 31 68 28 69
REMARK SMILES IDX 50 70 51 71 56 72 52 73 53 74 55 75 57 76 54 77 38 78 39 79
REMARK SMILES IDX 44 80 40 81 41 82 43 83 45 84 42 85
REMARK H PARENT 2 15 2 16 72 20 75 25 62 47 36 58
REMARK Flexibility Score: inf
ROOT
ATOM      1  C   UNL A   1      31.454  31.735  26.553  1.00  0.00     0.202 C 
ENDROOT
BRANCH   1   2
ATOM      2  O   UNL A   1      32.317  30.689  26.113  1.00  0.00    -0.374 OA
BRANCH   2   3
ATOM      3  C   UNL A   1      31.751  29.379  26.030  1.00  0.00     0.202 C 
BRANCH   3   4
ATOM      4  C   UNL A   1      31.525  28.871  24.602  1.00  0.00     0.261 C 
BRANCH   4   5
ATOM      5  O   UNL A   1      32.453  27.799  24.343  1.00  0.00    -0.459 OA
BRANCH   5   6
ATOM      6  C   UNL A   1      31.948  26.547  24.261  1.00  0.00     0.368 C 
ATOM      7  O   UNL A   1      31.378  26.116  23.263  1.00  0.00    -0.245 OA
BRANCH   6   8
ATOM      8  C   UNL A   1      32.202  25.699  25.560  1.00  0.00     0.200 C 
ATOM      9  C   UNL A   1      33.602  26.075  26.081  1.00  0.00     0.087 C 
ATOM     10  C   UNL A   1      32.306  24.162  25.407  1.00  0.00     0.146 C 
ATOM     11  C   UNL A   1      34.569  25.102  25.407  1.00  0.00     0.072 C 
ATOM     12  C   UNL A   1      33.792  23.796  25.205  1.00  0.00     0.191 C 
BRANCH   8  13
ATOM     13  N   UNL A   1      31.026  25.990  26.417  1.00  0.00    -0.334 N 
ATOM     14  C   UNL A   1      29.734  25.550  25.941  1.00  0.00     0.331 C 
ATOM     15  H   UNL A   1      31.187  25.545  27.321  1.00  0.00     0.347 HD
ATOM     16  H   UNL A   1      30.964  27.009  26.441  1.00  0.00     0.347 HD
ENDBRANCH   8  13
BRANCH  12  17
ATOM     17  N   UNL A   1      34.078  22.917  24.064  1.00  0.00    -0.323 N 
ATOM     18  C   UNL A   1      32.903  22.312  23.412  1.00  0.00     0.324 C 
ATOM     19  C   UNL A   1      35.074  21.859  24.247  1.00  0.00     0.324 C 
ATOM     20  H   UNL A   1      34.491  23.624  23.456  1.00  0.00     0.348 HD
ATOM     21  C   UNL A   1      32.375  21.002  24.056  1.00  0.00     0.324 C 
ATOM     22  C   UNL A   1      34.593  20.624  25.025  1.00  0.00     0.324 C 
ATOM     23  N   UNL A   1      33.403  20.007  24.424  1.00  0.00    -0.328 N 
ATOM     24  C   UNL A   1      32.847  19.003  25.332  1.00  0.00     0.333 C 
ATOM     25  H   UNL A   1      33.698  19.554  23.559  1.00  0.00     0.348 HD
ENDBRANCH  12  17
ENDBRANCH   6   8
ENDBRANCH   5   6
ENDBRANCH   4   5
ENDBRANCH   3   4
ENDBRANCH   2   3
ENDBRANCH   1   2
BRANCH   1  26
ATOM     26  C   UNL A   1      32.108  33.113  26.714  1.00  0.00     0.261 C 
BRANCH  26  27
ATOM     27  O   UNL A   1      32.135  33.575  28.077  1.00  0.00    -0.460 OA
BRANCH  27  28
ATOM     28  C   UNL A   1      33.161  34.403  28.382  1.00  0.00     0.338 C 
ATOM     29  O   UNL A   1      33.111  35.616  28.538  1.00  0.00    -0.246 OA
BRANCH  28  30
ATOM     30  C   UNL A   1      34.383  33.624  28.666  1.00  0.00     0.060 A 
ATOM     31  C   UNL A   1      34.232  32.283  29.034  1.00  0.00     0.016 A 
ATOM     32  C   UNL A   1      35.655  34.205  28.631  1.00  0.00     0.016 A 
ATOM     33  C   UNL A   1      35.343  31.530  29.418  1.00  0.00     0.010 A 
ATOM     34  C   UNL A   1      36.771  33.442  29.001  1.00  0.00     0.010 A 
ATOM     35  C   UNL A   1      36.617  32.113  29.439  1.00  0.00    -0.014 A 
BRANCH  35  36
ATOM     36  C   UNL A   1      37.752  31.387  30.074  1.00  0.00     0.031 A 
ATOM     37  C   UNL A   1      38.057  31.638  31.529  1.00  0.00     0.074 A 
ATOM     38  C   UNL A   1      38.479  30.484  29.391  1.00  0.00     0.049 A 
ATOM     39  N   UNL A   1      39.006  31.135  32.281  1.00  0.00    -0.248 NA
ATOM     40  C   UNL A   1      37.179  32.588  32.230  1.00  0.00     0.031 C 
ATOM     41  C   UNL A   1      38.279  30.122  27.989  1.00  0.00     0.029 A 
ATOM     42  N   UNL A   1      39.540  29.707  29.792  1.00  0.00    -0.354 N 
ATOM     43  C   UNL A   1      38.843  31.716  33.533  1.00  0.00     0.074 A 
ATOM     44  C   UNL A   1      37.734  32.639  33.430  1.00  0.00     0.031 C 
ATOM     45  C   UNL A   1      39.186  29.188  27.648  1.00  0.00     0.029 A 
ATOM     46  C   UNL A   1      40.055  28.917  28.792  1.00  0.00     0.049 A 
ATOM     47  H   UNL A   1      39.897  29.716  30.709  1.00  0.00     0.167 HD
ATOM     48  C   UNL A   1      39.544  31.496  34.672  1.00  0.00     0.037 A 
ATOM     49  C   UNL A   1      41.117  28.087  28.794  1.00  0.00     0.037 A 
ATOM     50  C   UNL A   1      40.643  30.573  34.785  1.00  0.00     0.049 A 
ATOM     51  C   UNL A   1      41.926  27.910  30.055  1.00  0.00     0.074 A 
ATOM     52  C   UNL A   1      41.396  30.263  35.904  1.00  0.00     0.029 A 
ATOM     53  N   UNL A   1      41.153  29.818  33.740  1.00  0.00    -0.354 N 
ATOM     54  N   UNL A   1      41.744  28.440  31.239  1.00  0.00    -0.248 NA
ATOM     55  C   UNL A   1      43.090  27.012  29.976  1.00  0.00     0.031 C 
ATOM     56  C   UNL A   1      42.399  29.367  35.524  1.00  0.00     0.029 A 
ATOM     57  C   UNL A   1      42.230  29.066  34.182  1.00  0.00     0.049 A 
ATOM     58  H   UNL A   1      40.802  29.815  32.821  1.00  0.00     0.167 HD
ATOM     59  C   UNL A   1      42.746  27.918  32.051  1.00  0.00     0.074 A 
ATOM     60  C   UNL A   1      43.524  27.018  31.228  1.00  0.00     0.031 C 
ATOM     61  C   UNL A   1      42.995  28.163  33.361  1.00  0.00     0.037 A 
BRANCH  48  62
ATOM     62  C   UNL A   1      39.155  32.285  35.888  1.00  0.00     0.057 A 
ATOM     63  C   UNL A   1      39.614  33.590  36.108  1.00  0.00     0.134 A 
ATOM     64  C   UNL A   1      38.279  31.743  36.838  1.00  0.00     0.134 A 
ATOM     65  F   UNL A   1      40.464  34.166  35.244  1.00  0.00    -0.206 F 
ATOM     66  C   UNL A   1      39.239  34.316  37.240  1.00  0.00     0.040 A 
ATOM     67  C   UNL A   1      37.873  32.470  37.958  1.00  0.00     0.040 A 
ATOM     68  F   UNL A   1      37.795  30.501  36.688  1.00  0.00    -0.206 F 
ATOM     69  C   UNL A   1      38.360  33.759  38.166  1.00  0.00     0.006 A 
ENDBRANCH  48  62
BRANCH  49  70
ATOM     70  C   UNL A   1      41.500  27.363  27.553  1.00  0.00     0.057 A 
ATOM     71  C   UNL A   1      41.080  26.048  27.319  1.00  0.00     0.134 A 
ATOM     72  C   UNL A   1      42.328  27.953  26.590  1.00  0.00     0.134 A 
ATOM     73  F   UNL A   1      40.309  25.415  28.216  1.00  0.00    -0.206 F 
ATOM     74  C   UNL A   1      41.483  25.341  26.184  1.00  0.00     0.040 A 
ATOM     75  C   UNL A   1      42.715  27.269  25.437  1.00  0.00     0.040 A 
ATOM     76  F   UNL A   1      42.770  29.209  26.755  1.00  0.00    -0.206 F 
ATOM     77  C   UNL A   1      42.300  25.955  25.237  1.00  0.00     0.006 A 
ENDBRANCH  49  70
BRANCH  61  78
ATOM     78  C   UNL A   1      44.129  27.415  34.007  1.00  0.00     0.057 A 
ATOM     79  C   UNL A   1      43.953  26.158  34.598  1.00  0.00     0.134 A 
ATOM     80  C   UNL A   1      45.427  27.944  33.996  1.00  0.00     0.134 A 
ATOM     81  F   UNL A   1      42.736  25.596  34.652  1.00  0.00    -0.206 F 
ATOM     82  C   UNL A   1      45.020  25.466  35.177  1.00  0.00     0.040 A 
ATOM     83  C   UNL A   1      46.507  27.249  34.542  1.00  0.00     0.040 A 
ATOM     84  F   UNL A   1      45.672  29.138  33.435  1.00  0.00    -0.206 F 
ATOM     85  C   UNL A   1      46.303  26.009  35.143  1.00  0.00     0.006 A 
ENDBRANCH  61  78
ENDBRANCH  35  36
ENDBRANCH  28  30
ENDBRANCH  27  28
ENDBRANCH  26  27
ENDBRANCH   1  26
TORSDOF 16
ENDMDL
