MODEL 1
REMARK VINA RESULT:     -12.0      0.000      0.000
REMARK SMILES NC(=O)[C@@H]1CCC[N@@H+]1[C@@H](C(=O)OCCOCCOC(=O)c1ccc(-c2c3nc(c(-c4c(F)cccc4F)c4ccc([nH]4)c(-c4c(F)cccc4F)c4nc(c(-c5c(F)cccc5F)c5ccc2[nH]5)C=C4)C=C3)cc1)c1c[nH]c2cc(OCc3ccccc3)ccc12
REMARK SMILES IDX 14 1 13 2 12 3 10 4 11 5 9 6 8 7 4 8 5 9 6 10 7 11 2 13 1 14
REMARK SMILES IDX 3 17 75 18 76 19 91 20 77 21 78 22 90 23 79 25 89 26 80 27
REMARK SMILES IDX 81 28 82 29 83 30 84 31 88 32 85 33 87 34 86 35 15 36 16 37
REMARK SMILES IDX 17 38 18 39 19 40 20 41 21 42 22 43 74 44 23 45 73 46 24 47
REMARK SMILES IDX 25 48 26 49 67 50 27 51 72 52 66 53 68 54 28 55 71 56 65 57
REMARK SMILES IDX 64 58 29 60 55 61 38 62 54 63 39 64 42 65 53 66 69 67 40 68
REMARK SMILES IDX 41 69 52 71 70 72 43 73 30 74 31 75 36 76 32 77 33 78 35 79
REMARK SMILES IDX 37 80 34 81 56 82 57 83 62 84 58 85 59 86 61 87 63 88 60 89
REMARK SMILES IDX 44 90 45 91 50 92 46 93 47 94 49 95 51 96 48 97
REMARK H PARENT 8 12 1 15 1 16 77 24 68 59 42 70
REMARK Flexibility Score: inf
ROOT
ATOM      1  C   UNL A   1      33.737  30.124  26.861  1.00  0.00     0.202 C 
ENDROOT
BRANCH   1   2
ATOM      2  C   UNL A   1      33.671  28.634  26.530  1.00  0.00     0.261 C 
BRANCH   2   3
ATOM      3  O   UNL A   1      33.031  28.436  25.253  1.00  0.00    -0.459 OA
BRANCH   3   4
ATOM      4  C   UNL A   1      32.505  27.205  25.018  1.00  0.00     0.370 C 
ATOM      5  O   UNL A   1      32.284  26.379  25.900  1.00  0.00    -0.245 OA
BRANCH   4   6
ATOM      6  C   UNL A   1      32.238  26.919  23.540  1.00  0.00     0.329 C 
BRANCH   6   7
ATOM      7  N   UNL A   1      30.820  26.794  23.059  1.00  0.00    -0.309 N 
ATOM      8  C   UNL A   1      29.891  27.924  22.824  1.00  0.00     0.275 C 
ATOM      9  C   UNL A   1      28.767  27.700  23.828  1.00  0.00     0.081 C 
ATOM     10  C   UNL A   1      28.594  26.201  23.794  1.00  0.00     0.068 C 
ATOM     11  C   UNL A   1      29.992  25.675  23.502  1.00  0.00     0.264 C 
ATOM     12  H   UNL A   1      31.298  26.642  22.171  1.00  0.00     0.349 HD
BRANCH   8  13
ATOM     13  C   UNL A   1      30.431  29.345  22.817  1.00  0.00     0.275 C 
ATOM     14  N   UNL A   1      30.733  29.847  21.584  1.00  0.00    -0.365 N 
ATOM     15  H   UNL A   1      31.087  30.762  21.499  1.00  0.00     0.159 HD
ATOM     16  H   UNL A   1      30.595  29.295  20.781  1.00  0.00     0.159 HD
ATOM     17  O   UNL A   1      30.508  30.063  23.809  1.00  0.00    -0.268 OA
ENDBRANCH   8  13
ENDBRANCH   6   7
BRANCH   6  18
ATOM     18  C   UNL A   1      33.222  25.879  22.888  1.00  0.00     0.046 A 
ATOM     19  C   UNL A   1      33.042  25.450  21.574  1.00  0.00     0.094 A 
ATOM     20  C   UNL A   1      33.883  24.711  23.434  1.00  0.00     0.009 A 
ATOM     21  N   UNL A   1      32.563  24.167  21.740  1.00  0.00    -0.361 N 
ATOM     22  C   UNL A   1      33.164  23.655  22.870  1.00  0.00     0.050 A 
ATOM     23  C   UNL A   1      34.893  24.359  24.358  1.00  0.00     0.015 A 
ATOM     24  H   UNL A   1      31.915  23.705  21.162  1.00  0.00     0.166 HD
ATOM     25  C   UNL A   1      33.112  22.387  23.441  1.00  0.00     0.073 A 
ATOM     26  C   UNL A   1      34.971  23.026  24.842  1.00  0.00     0.047 A 
ATOM     27  C   UNL A   1      34.010  22.090  24.469  1.00  0.00     0.121 A 
BRANCH  27  28
ATOM     28  O   UNL A   1      33.786  20.865  25.032  1.00  0.00    -0.489 OA
BRANCH  28  29
ATOM     29  C   UNL A   1      32.697  20.058  24.588  1.00  0.00     0.265 C 
BRANCH  29  30
ATOM     30  C   UNL A   1      32.997  18.572  24.641  1.00  0.00    -0.011 A 
ATOM     31  C   UNL A   1      33.690  17.969  23.580  1.00  0.00     0.007 A 
ATOM     32  C   UNL A   1      32.575  17.758  25.702  1.00  0.00     0.007 A 
ATOM     33  C   UNL A   1      33.929  16.591  23.578  1.00  0.00     0.000 A 
ATOM     34  C   UNL A   1      32.809  16.383  25.698  1.00  0.00     0.000 A 
ATOM     35  C   UNL A   1      33.480  15.799  24.631  1.00  0.00     0.000 A 
ENDBRANCH  29  30
ENDBRANCH  28  29
ENDBRANCH  27  28
ENDBRANCH   6  18
ENDBRANCH   4   6
ENDBRANCH   3   4
ENDBRANCH   2   3
ENDBRANCH   1   2
BRANCH   1  36
ATOM     36  O   UNL A   1      32.554  30.745  27.368  1.00  0.00    -0.374 OA
BRANCH  36  37
ATOM     37  C   UNL A   1      31.908  31.707  26.548  1.00  0.00     0.202 C 
BRANCH  37  38
ATOM     38  C   UNL A   1      31.942  33.181  26.974  1.00  0.00     0.261 C 
BRANCH  38  39
ATOM     39  O   UNL A   1      32.312  33.394  28.332  1.00  0.00    -0.460 OA
BRANCH  39  40
ATOM     40  C   UNL A   1      33.371  34.217  28.470  1.00  0.00     0.338 C 
ATOM     41  O   UNL A   1      33.371  35.438  28.551  1.00  0.00    -0.246 OA
BRANCH  40  42
ATOM     42  C   UNL A   1      34.568  33.404  28.692  1.00  0.00     0.060 A 
ATOM     43  C   UNL A   1      34.417  32.271  29.495  1.00  0.00     0.016 A 
ATOM     44  C   UNL A   1      35.813  33.764  28.172  1.00  0.00     0.016 A 
ATOM     45  C   UNL A   1      35.532  31.527  29.846  1.00  0.00     0.010 A 
ATOM     46  C   UNL A   1      36.935  33.012  28.521  1.00  0.00     0.010 A 
ATOM     47  C   UNL A   1      36.801  31.924  29.403  1.00  0.00    -0.014 A 
BRANCH  47  48
ATOM     48  C   UNL A   1      37.984  31.297  30.034  1.00  0.00     0.031 A 
ATOM     49  C   UNL A   1      38.287  31.614  31.471  1.00  0.00     0.074 A 
ATOM     50  C   UNL A   1      38.702  30.377  29.368  1.00  0.00     0.049 A 
ATOM     51  N   UNL A   1      39.223  31.130  32.247  1.00  0.00    -0.248 NA
ATOM     52  C   UNL A   1      37.418  32.606  32.126  1.00  0.00     0.031 C 
ATOM     53  C   UNL A   1      38.471  29.965  27.984  1.00  0.00     0.029 A 
ATOM     54  N   UNL A   1      39.764  29.612  29.777  1.00  0.00    -0.354 N 
ATOM     55  C   UNL A   1      39.048  31.750  33.478  1.00  0.00     0.074 A 
ATOM     56  C   UNL A   1      37.954  32.682  33.335  1.00  0.00     0.031 C 
ATOM     57  C   UNL A   1      39.365  29.016  27.659  1.00  0.00     0.029 A 
ATOM     58  C   UNL A   1      40.246  28.777  28.801  1.00  0.00     0.049 A 
ATOM     59  H   UNL A   1      40.143  29.657  30.684  1.00  0.00     0.167 HD
ATOM     60  C   UNL A   1      39.726  31.543  34.631  1.00  0.00     0.037 A 
ATOM     61  C   UNL A   1      41.292  27.929  28.825  1.00  0.00     0.037 A 
ATOM     62  C   UNL A   1      40.818  30.616  34.767  1.00  0.00     0.049 A 
ATOM     63  C   UNL A   1      42.079  27.774  30.099  1.00  0.00     0.074 A 
ATOM     64  C   UNL A   1      41.576  30.336  35.889  1.00  0.00     0.029 A 
ATOM     65  N   UNL A   1      41.309  29.820  33.742  1.00  0.00    -0.354 N 
ATOM     66  N   UNL A   1      41.895  28.351  31.264  1.00  0.00    -0.248 NA
ATOM     67  C   UNL A   1      43.217  26.845  30.065  1.00  0.00     0.031 C 
ATOM     68  C   UNL A   1      42.561  29.409  35.530  1.00  0.00     0.029 A 
ATOM     69  C   UNL A   1      42.376  29.067  34.200  1.00  0.00     0.049 A 
ATOM     70  H   UNL A   1      40.952  29.795  32.825  1.00  0.00     0.167 HD
ATOM     71  C   UNL A   1      42.873  27.835  32.105  1.00  0.00     0.074 A 
ATOM     72  C   UNL A   1      43.637  26.885  31.323  1.00  0.00     0.031 C 
ATOM     73  C   UNL A   1      43.120  28.120  33.407  1.00  0.00     0.037 A 
BRANCH  60  74
ATOM     74  C   UNL A   1      39.316  32.349  35.829  1.00  0.00     0.057 A 
ATOM     75  C   UNL A   1      38.412  31.855  36.779  1.00  0.00     0.134 A 
ATOM     76  C   UNL A   1      39.853  33.623  36.052  1.00  0.00     0.134 A 
ATOM     77  F   UNL A   1      37.848  30.648  36.619  1.00  0.00    -0.206 F 
ATOM     78  C   UNL A   1      38.040  32.608  37.895  1.00  0.00     0.040 A 
ATOM     79  C   UNL A   1      39.512  34.373  37.177  1.00  0.00     0.040 A 
ATOM     80  F   UNL A   1      40.725  34.156  35.183  1.00  0.00    -0.206 F 
ATOM     81  C   UNL A   1      38.598  33.868  38.100  1.00  0.00     0.006 A 
ENDBRANCH  60  74
BRANCH  61  82
ATOM     82  C   UNL A   1      41.671  27.181  27.599  1.00  0.00     0.057 A 
ATOM     83  C   UNL A   1      41.237  25.871  27.373  1.00  0.00     0.134 A 
ATOM     84  C   UNL A   1      42.506  27.758  26.634  1.00  0.00     0.134 A 
ATOM     85  F   UNL A   1      40.453  25.255  28.271  1.00  0.00    -0.206 F 
ATOM     86  C   UNL A   1      41.639  25.151  26.246  1.00  0.00     0.040 A 
ATOM     87  C   UNL A   1      42.891  27.063  25.487  1.00  0.00     0.040 A 
ATOM     88  F   UNL A   1      42.958  29.012  26.790  1.00  0.00    -0.206 F 
ATOM     89  C   UNL A   1      42.465  25.751  25.297  1.00  0.00     0.006 A 
ENDBRANCH  61  82
BRANCH  73  90
ATOM     90  C   UNL A   1      44.237  27.372  34.077  1.00  0.00     0.057 A 
ATOM     91  C   UNL A   1      45.537  27.887  34.152  1.00  0.00     0.134 A 
ATOM     92  C   UNL A   1      43.995  26.137  34.694  1.00  0.00     0.134 A 
ATOM     93  F   UNL A   1      45.837  29.060  33.574  1.00  0.00    -0.206 F 
ATOM     94  C   UNL A   1      46.563  27.189  34.791  1.00  0.00     0.040 A 
ATOM     95  C   UNL A   1      45.006  25.444  35.362  1.00  0.00     0.040 A 
ATOM     96  F   UNL A   1      42.770  25.591  34.672  1.00  0.00    -0.206 F 
ATOM     97  C   UNL A   1      46.296  25.967  35.404  1.00  0.00     0.006 A 
ENDBRANCH  73  90
ENDBRANCH  47  48
ENDBRANCH  40  42
ENDBRANCH  39  40
ENDBRANCH  38  39
ENDBRANCH  37  38
ENDBRANCH  36  37
ENDBRANCH   1  36
TORSDOF 20
ENDMDL
MODEL 2
REMARK VINA RESULT:     -12.0      1.667      5.360
REMARK SMILES NC(=O)[C@@H]1CCC[N@@H+]1[C@@H](C(=O)OCCOCCOC(=O)c1ccc(-c2c3nc(c(-c4c(F)cccc4F)c4ccc([nH]4)c(-c4c(F)cccc4F)c4nc(c(-c5c(F)cccc5F)c5ccc2[nH]5)C=C4)C=C3)cc1)c1c[nH]c2cc(OCc3ccccc3)ccc12
REMARK SMILES IDX 14 1 13 2 12 3 10 4 11 5 9 6 8 7 4 8 5 9 6 10 7 11 2 13 1 14
REMARK SMILES IDX 3 17 75 18 76 19 91 20 77 21 78 22 90 23 79 25 89 26 80 27
REMARK SMILES IDX 81 28 82 29 83 30 84 31 88 32 85 33 87 34 86 35 15 36 16 37
REMARK SMILES IDX 17 38 18 39 19 40 20 41 21 42 22 43 74 44 23 45 73 46 24 47
REMARK SMILES IDX 25 48 26 49 67 50 27 51 72 52 66 53 68 54 28 55 71 56 65 57
REMARK SMILES IDX 64 58 29 60 55 61 38 62 54 63 39 64 42 65 53 66 69 67 40 68
REMARK SMILES IDX 41 69 52 71 70 72 43 73 30 74 31 75 36 76 32 77 33 78 35 79
REMARK SMILES IDX 37 80 34 81 56 82 57 83 62 84 58 85 59 86 61 87 63 88 60 89
REMARK SMILES IDX 44 90 45 91 50 92 46 93 47 94 49 95 51 96 48 97
REMARK H PARENT 8 12 1 15 1 16 77 24 68 59 42 70
REMARK Flexibility Score: inf
ROOT
ATOM      1  C   UNL A   1      32.330  27.772  26.014  1.00  0.00     0.202 C 
ENDROOT
BRANCH   1   2
ATOM      2  C   UNL A   1      31.733  26.488  26.585  1.00  0.00     0.261 C 
BRANCH   2   3
ATOM      3  O   UNL A   1      32.561  25.358  26.239  1.00  0.00    -0.459 OA
BRANCH   3   4
ATOM      4  C   UNL A   1      32.027  24.125  26.440  1.00  0.00     0.370 C 
ATOM      5  O   UNL A   1      31.486  23.779  27.488  1.00  0.00    -0.245 OA
BRANCH   4   6
ATOM      6  C   UNL A   1      32.188  23.179  25.250  1.00  0.00     0.329 C 
BRANCH   6   7
ATOM      7  N   UNL A   1      33.553  22.654  24.908  1.00  0.00    -0.309 N 
ATOM      8  C   UNL A   1      34.012  21.260  25.111  1.00  0.00     0.275 C 
ATOM      9  C   UNL A   1      35.148  21.383  26.119  1.00  0.00     0.081 C 
ATOM     10  C   UNL A   1      35.848  22.643  25.670  1.00  0.00     0.068 C 
ATOM     11  C   UNL A   1      34.730  23.498  25.091  1.00  0.00     0.264 C 
ATOM     12  H   UNL A   1      33.157  22.678  23.968  1.00  0.00     0.349 HD
BRANCH   8  13
ATOM     13  C   UNL A   1      32.998  20.183  25.460  1.00  0.00     0.275 C 
ATOM     14  N   UNL A   1      33.156  19.610  26.688  1.00  0.00    -0.365 N 
ATOM     15  H   UNL A   1      32.537  18.905  26.986  1.00  0.00     0.159 HD
ATOM     16  H   UNL A   1      33.889  19.903  27.276  1.00  0.00     0.159 HD
ATOM     17  O   UNL A   1      32.028  19.892  24.765  1.00  0.00    -0.268 OA
ENDBRANCH   8  13
ENDBRANCH   6   7
BRANCH   6  18
ATOM     18  C   UNL A   1      31.320  23.556  23.993  1.00  0.00     0.046 A 
ATOM     19  C   UNL A   1      31.707  23.164  22.713  1.00  0.00     0.094 A 
ATOM     20  C   UNL A   1      30.580  24.757  23.664  1.00  0.00     0.009 A 
ATOM     21  N   UNL A   1      32.153  24.346  22.159  1.00  0.00    -0.361 N 
ATOM     22  C   UNL A   1      31.380  25.357  22.689  1.00  0.00     0.050 A 
ATOM     23  C   UNL A   1      29.437  25.482  24.069  1.00  0.00     0.015 A 
ATOM     24  H   UNL A   1      32.885  24.449  21.510  1.00  0.00     0.166 HD
ATOM     25  C   UNL A   1      31.340  26.721  22.413  1.00  0.00     0.073 A 
ATOM     26  C   UNL A   1      29.282  26.836  23.669  1.00  0.00     0.047 A 
ATOM     27  C   UNL A   1      30.290  27.470  22.949  1.00  0.00     0.121 A 
BRANCH  27  28
ATOM     28  O   UNL A   1      30.422  28.811  22.713  1.00  0.00    -0.489 OA
BRANCH  28  29
ATOM     29  C   UNL A   1      29.682  29.754  23.486  1.00  0.00     0.265 C 
BRANCH  29  30
ATOM     30  C   UNL A   1      29.003  30.814  22.641  1.00  0.00    -0.011 A 
ATOM     31  C   UNL A   1      28.559  30.488  21.350  1.00  0.00     0.007 A 
ATOM     32  C   UNL A   1      28.830  32.132  23.085  1.00  0.00     0.007 A 
ATOM     33  C   UNL A   1      27.981  31.461  20.528  1.00  0.00     0.000 A 
ATOM     34  C   UNL A   1      28.259  33.105  22.265  1.00  0.00     0.000 A 
ATOM     35  C   UNL A   1      27.842  32.770  20.983  1.00  0.00     0.000 A 
ENDBRANCH  29  30
ENDBRANCH  28  29
ENDBRANCH  27  28
ENDBRANCH   6  18
ENDBRANCH   4   6
ENDBRANCH   3   4
ENDBRANCH   2   3
ENDBRANCH   1   2
BRANCH   1  36
ATOM     36  O   UNL A   1      31.770  29.014  26.444  1.00  0.00    -0.374 OA
BRANCH  36  37
ATOM     37  C   UNL A   1      32.224  30.200  25.809  1.00  0.00     0.202 C 
BRANCH  37  38
ATOM     38  C   UNL A   1      32.034  31.542  26.529  1.00  0.00     0.261 C 
BRANCH  38  39
ATOM     39  O   UNL A   1      32.735  31.653  27.763  1.00  0.00    -0.460 OA
BRANCH  39  40
ATOM     40  C   UNL A   1      33.592  32.693  27.794  1.00  0.00     0.338 C 
ATOM     41  O   UNL A   1      33.329  33.887  27.739  1.00  0.00    -0.246 OA
BRANCH  40  42
ATOM     42  C   UNL A   1      34.933  32.185  28.087  1.00  0.00     0.060 A 
ATOM     43  C   UNL A   1      35.052  30.807  28.282  1.00  0.00     0.016 A 
ATOM     44  C   UNL A   1      36.033  33.035  28.218  1.00  0.00     0.016 A 
ATOM     45  C   UNL A   1      36.267  30.276  28.683  1.00  0.00     0.010 A 
ATOM     46  C   UNL A   1      37.258  32.499  28.618  1.00  0.00     0.010 A 
ATOM     47  C   UNL A   1      37.361  31.126  28.903  1.00  0.00    -0.014 A 
BRANCH  47  48
ATOM     48  C   UNL A   1      38.536  30.574  29.612  1.00  0.00     0.031 A 
ATOM     49  C   UNL A   1      38.753  30.951  31.051  1.00  0.00     0.074 A 
ATOM     50  C   UNL A   1      39.328  29.667  29.014  1.00  0.00     0.049 A 
ATOM     51  N   UNL A   1      39.669  30.537  31.888  1.00  0.00    -0.248 NA
ATOM     52  C   UNL A   1      37.809  31.923  31.627  1.00  0.00     0.031 C 
ATOM     53  C   UNL A   1      39.185  29.201  27.636  1.00  0.00     0.029 A 
ATOM     54  N   UNL A   1      40.400  28.966  29.502  1.00  0.00    -0.354 N 
ATOM     55  C   UNL A   1      39.405  31.187  33.086  1.00  0.00     0.074 A 
ATOM     56  C   UNL A   1      38.279  32.063  32.858  1.00  0.00     0.031 C 
ATOM     57  C   UNL A   1      40.135  28.284  27.389  1.00  0.00     0.029 A 
ATOM     58  C   UNL A   1      40.967  28.123  28.579  1.00  0.00     0.049 A 
ATOM     59  H   UNL A   1      40.731  29.058  30.424  1.00  0.00     0.167 HD
ATOM     60  C   UNL A   1      40.033  31.049  34.278  1.00  0.00     0.037 A 
ATOM     61  C   UNL A   1      42.048  27.325  28.684  1.00  0.00     0.037 A 
ATOM     62  C   UNL A   1      41.156  30.178  34.499  1.00  0.00     0.049 A 
ATOM     63  C   UNL A   1      42.775  27.248  30.000  1.00  0.00     0.074 A 
ATOM     64  C   UNL A   1      41.869  29.969  35.666  1.00  0.00     0.029 A 
ATOM     65  N   UNL A   1      41.733  29.372  33.527  1.00  0.00    -0.354 N 
ATOM     66  N   UNL A   1      42.507  27.853  31.133  1.00  0.00    -0.248 NA
ATOM     67  C   UNL A   1      43.954  26.371  30.053  1.00  0.00     0.031 C 
ATOM     68  C   UNL A   1      42.910  29.078  35.388  1.00  0.00     0.029 A 
ATOM     69  C   UNL A   1      42.808  28.684  34.063  1.00  0.00     0.049 A 
ATOM     70  H   UNL A   1      41.424  29.302  32.595  1.00  0.00     0.167 HD
ATOM     71  C   UNL A   1      43.464  27.409  32.039  1.00  0.00     0.074 A 
ATOM     72  C   UNL A   1      44.307  26.471  31.328  1.00  0.00     0.031 C 
ATOM     73  C   UNL A   1      43.632  27.748  33.341  1.00  0.00     0.037 A 
BRANCH  60  74
ATOM     74  C   UNL A   1      39.527  31.874  35.425  1.00  0.00     0.057 A 
ATOM     75  C   UNL A   1      38.505  31.419  36.270  1.00  0.00     0.134 A 
ATOM     76  C   UNL A   1      40.089  33.125  35.710  1.00  0.00     0.134 A 
ATOM     77  F   UNL A   1      37.911  30.237  36.045  1.00  0.00    -0.206 F 
ATOM     78  C   UNL A   1      38.044  32.189  37.340  1.00  0.00     0.040 A 
ATOM     79  C   UNL A   1      39.658  33.890  36.793  1.00  0.00     0.040 A 
ATOM     80  F   UNL A   1      41.073  33.619  34.943  1.00  0.00    -0.206 F 
ATOM     81  C   UNL A   1      38.628  33.426  37.608  1.00  0.00     0.006 A 
ENDBRANCH  60  74
BRANCH  61  82
ATOM     82  C   UNL A   1      42.520  26.556  27.505  1.00  0.00     0.057 A 
ATOM     83  C   UNL A   1      42.130  25.231  27.286  1.00  0.00     0.134 A 
ATOM     84  C   UNL A   1      43.404  27.128  26.581  1.00  0.00     0.134 A 
ATOM     85  F   UNL A   1      41.302  24.619  28.147  1.00  0.00    -0.206 F 
ATOM     86  C   UNL A   1      42.618  24.493  26.206  1.00  0.00     0.040 A 
ATOM     87  C   UNL A   1      43.876  26.413  25.479  1.00  0.00     0.040 A 
ATOM     88  F   UNL A   1      43.819  28.394  26.732  1.00  0.00    -0.206 F 
ATOM     89  C   UNL A   1      43.491  25.088  25.296  1.00  0.00     0.006 A 
ENDBRANCH  61  82
BRANCH  73  90
ATOM     90  C   UNL A   1      44.746  27.074  34.090  1.00  0.00     0.057 A 
ATOM     91  C   UNL A   1      46.021  27.642  34.194  1.00  0.00     0.134 A 
ATOM     92  C   UNL A   1      44.523  25.860  34.753  1.00  0.00     0.134 A 
ATOM     93  F   UNL A   1      46.303  28.798  33.575  1.00  0.00    -0.206 F 
ATOM     94  C   UNL A   1      47.044  27.013  34.906  1.00  0.00     0.040 A 
ATOM     95  C   UNL A   1      45.529  25.237  35.494  1.00  0.00     0.040 A 
ATOM     96  F   UNL A   1      43.321  25.267  34.706  1.00  0.00    -0.206 F 
ATOM     97  C   UNL A   1      46.796  25.810  35.564  1.00  0.00     0.006 A 
ENDBRANCH  73  90
ENDBRANCH  47  48
ENDBRANCH  40  42
ENDBRANCH  39  40
ENDBRANCH  38  39
ENDBRANCH  37  38
ENDBRANCH  36  37
ENDBRANCH   1  36
TORSDOF 20
ENDMDL
MODEL 3
REMARK VINA RESULT:     -12.0      1.815      2.901
REMARK SMILES NC(=O)[C@@H]1CCC[N@@H+]1[C@@H](C(=O)OCCOCCOC(=O)c1ccc(-c2c3nc(c(-c4c(F)cccc4F)c4ccc([nH]4)c(-c4c(F)cccc4F)c4nc(c(-c5c(F)cccc5F)c5ccc2[nH]5)C=C4)C=C3)cc1)c1c[nH]c2cc(OCc3ccccc3)ccc12
REMARK SMILES IDX 14 1 13 2 12 3 10 4 11 5 9 6 8 7 4 8 5 9 6 10 7 11 2 13 1 14
REMARK SMILES IDX 3 17 75 18 76 19 91 20 77 21 78 22 90 23 79 25 89 26 80 27
REMARK SMILES IDX 81 28 82 29 83 30 84 31 88 32 85 33 87 34 86 35 15 36 16 37
REMARK SMILES IDX 17 38 18 39 19 40 20 41 21 42 22 43 74 44 23 45 73 46 24 47
REMARK SMILES IDX 25 48 26 49 67 50 27 51 72 52 66 53 68 54 28 55 71 56 65 57
REMARK SMILES IDX 64 58 29 60 55 61 38 62 54 63 39 64 42 65 53 66 69 67 40 68
REMARK SMILES IDX 41 69 52 71 70 72 43 73 30 74 31 75 36 76 32 77 33 78 35 79
REMARK SMILES IDX 37 80 34 81 56 82 57 83 62 84 58 85 59 86 61 87 63 88 60 89
REMARK SMILES IDX 44 90 45 91 50 92 46 93 47 94 49 95 51 96 48 97
REMARK H PARENT 8 12 1 15 1 16 77 24 68 59 42 70
REMARK Flexibility Score: inf
ROOT
ATOM      1  C   UNL A   1      31.797  29.502  26.998  1.00  0.00     0.202 C 
ENDROOT
BRANCH   1   2
ATOM      2  C   UNL A   1      32.757  28.387  27.406  1.00  0.00     0.261 C 
BRANCH   2   3
ATOM      3  O   UNL A   1      33.071  27.559  26.268  1.00  0.00    -0.459 OA
BRANCH   3   4
ATOM      4  C   UNL A   1      32.175  26.587  25.953  1.00  0.00     0.370 C 
ATOM      5  O   UNL A   1      31.398  26.088  26.764  1.00  0.00    -0.245 OA
BRANCH   4   6
ATOM      6  C   UNL A   1      32.238  26.136  24.494  1.00  0.00     0.329 C 
BRANCH   6   7
ATOM      7  N   UNL A   1      31.384  26.830  23.472  1.00  0.00    -0.309 N 
ATOM      8  C   UNL A   1      31.737  28.087  22.770  1.00  0.00     0.275 C 
ATOM      9  C   UNL A   1      30.671  29.079  23.219  1.00  0.00     0.081 C 
ATOM     10  C   UNL A   1      29.424  28.228  23.244  1.00  0.00     0.068 C 
ATOM     11  C   UNL A   1      29.931  26.842  23.617  1.00  0.00     0.264 C 
ATOM     12  H   UNL A   1      31.745  26.078  22.886  1.00  0.00     0.349 HD
BRANCH   8  13
ATOM     13  C   UNL A   1      33.155  28.625  22.871  1.00  0.00     0.275 C 
ATOM     14  N   UNL A   1      33.371  29.510  23.887  1.00  0.00    -0.365 N 
ATOM     15  H   UNL A   1      34.265  29.901  24.017  1.00  0.00     0.159 HD
ATOM     16  H   UNL A   1      32.633  29.755  24.490  1.00  0.00     0.159 HD
ATOM     17  O   UNL A   1      34.093  28.242  22.179  1.00  0.00    -0.268 OA
ENDBRANCH   8  13
ENDBRANCH   6   7
BRANCH   6  18
ATOM     18  C   UNL A   1      32.324  24.578  24.295  1.00  0.00     0.046 A 
ATOM     19  C   UNL A   1      31.432  23.724  24.940  1.00  0.00     0.094 A 
ATOM     20  C   UNL A   1      33.460  23.688  24.169  1.00  0.00     0.009 A 
ATOM     21  N   UNL A   1      32.217  23.157  25.924  1.00  0.00    -0.361 N 
ATOM     22  C   UNL A   1      33.489  23.045  25.408  1.00  0.00     0.050 A 
ATOM     23  C   UNL A   1      34.509  23.373  23.275  1.00  0.00     0.015 A 
ATOM     24  H   UNL A   1      31.923  22.886  26.823  1.00  0.00     0.166 HD
ATOM     25  C   UNL A   1      34.643  22.466  25.932  1.00  0.00     0.073 A 
ATOM     26  C   UNL A   1      35.633  22.639  23.737  1.00  0.00     0.047 A 
ATOM     27  C   UNL A   1      35.740  22.300  25.083  1.00  0.00     0.121 A 
BRANCH  27  28
ATOM     28  O   UNL A   1      36.849  21.838  25.735  1.00  0.00    -0.489 OA
BRANCH  28  29
ATOM     29  C   UNL A   1      38.128  21.892  25.107  1.00  0.00     0.265 C 
BRANCH  29  30
ATOM     30  C   UNL A   1      39.261  21.477  26.027  1.00  0.00    -0.011 A 
ATOM     31  C   UNL A   1      39.763  22.395  26.962  1.00  0.00     0.007 A 
ATOM     32  C   UNL A   1      39.859  20.210  25.958  1.00  0.00     0.007 A 
ATOM     33  C   UNL A   1      40.844  22.057  27.782  1.00  0.00     0.000 A 
ATOM     34  C   UNL A   1      40.940  19.874  26.772  1.00  0.00     0.000 A 
ATOM     35  C   UNL A   1      41.437  20.801  27.679  1.00  0.00     0.000 A 
ENDBRANCH  29  30
ENDBRANCH  28  29
ENDBRANCH  27  28
ENDBRANCH   6  18
ENDBRANCH   4   6
ENDBRANCH   3   4
ENDBRANCH   2   3
ENDBRANCH   1   2
BRANCH   1  36
ATOM     36  O   UNL A   1      32.358  30.770  26.652  1.00  0.00    -0.374 OA
BRANCH  36  37
ATOM     37  C   UNL A   1      31.484  31.887  26.593  1.00  0.00     0.202 C 
BRANCH  37  38
ATOM     38  C   UNL A   1      32.044  33.280  26.913  1.00  0.00     0.261 C 
BRANCH  38  39
ATOM     39  O   UNL A   1      32.187  33.552  28.303  1.00  0.00    -0.460 OA
BRANCH  39  40
ATOM     40  C   UNL A   1      33.206  34.391  28.577  1.00  0.00     0.338 C 
ATOM     41  O   UNL A   1      33.155  35.597  28.783  1.00  0.00    -0.246 OA
BRANCH  40  42
ATOM     42  C   UNL A   1      34.422  33.600  28.773  1.00  0.00     0.060 A 
ATOM     43  C   UNL A   1      34.280  32.392  29.460  1.00  0.00     0.016 A 
ATOM     44  C   UNL A   1      35.672  34.047  28.341  1.00  0.00     0.016 A 
ATOM     45  C   UNL A   1      35.407  31.656  29.787  1.00  0.00     0.010 A 
ATOM     46  C   UNL A   1      36.806  33.303  28.666  1.00  0.00     0.010 A 
ATOM     47  C   UNL A   1      36.678  32.133  29.436  1.00  0.00    -0.014 A 
BRANCH  47  48
ATOM     48  C   UNL A   1      37.857  31.488  30.055  1.00  0.00     0.031 A 
ATOM     49  C   UNL A   1      38.166  31.782  31.497  1.00  0.00     0.074 A 
ATOM     50  C   UNL A   1      38.567  30.572  29.375  1.00  0.00     0.049 A 
ATOM     51  N   UNL A   1      39.100  31.280  32.263  1.00  0.00    -0.248 NA
ATOM     52  C   UNL A   1      37.306  32.772  32.167  1.00  0.00     0.031 C 
ATOM     53  C   UNL A   1      38.329  30.182  27.986  1.00  0.00     0.029 A 
ATOM     54  N   UNL A   1      39.623  29.793  29.771  1.00  0.00    -0.354 N 
ATOM     55  C   UNL A   1      38.933  31.884  33.503  1.00  0.00     0.074 A 
ATOM     56  C   UNL A   1      37.845  32.827  33.376  1.00  0.00     0.031 C 
ATOM     57  C   UNL A   1      39.214  29.231  27.646  1.00  0.00     0.029 A 
ATOM     58  C   UNL A   1      40.096  28.968  28.781  1.00  0.00     0.049 A 
ATOM     59  H   UNL A   1      40.005  29.823  30.678  1.00  0.00     0.167 HD
ATOM     60  C   UNL A   1      39.612  31.655  34.652  1.00  0.00     0.037 A 
ATOM     61  C   UNL A   1      41.136  28.112  28.791  1.00  0.00     0.037 A 
ATOM     62  C   UNL A   1      40.696  30.718  34.771  1.00  0.00     0.049 A 
ATOM     63  C   UNL A   1      41.925  27.933  30.061  1.00  0.00     0.074 A 
ATOM     64  C   UNL A   1      41.455  30.416  35.888  1.00  0.00     0.029 A 
ATOM     65  N   UNL A   1      41.179  29.933  33.734  1.00  0.00    -0.354 N 
ATOM     66  N   UNL A   1      41.748  28.495  31.234  1.00  0.00    -0.248 NA
ATOM     67  C   UNL A   1      43.055  26.996  30.011  1.00  0.00     0.031 C 
ATOM     68  C   UNL A   1      42.432  29.487  35.514  1.00  0.00     0.029 A 
ATOM     69  C   UNL A   1      42.241  29.165  34.179  1.00  0.00     0.049 A 
ATOM     70  H   UNL A   1      40.820  29.924  32.818  1.00  0.00     0.167 HD
ATOM     71  C   UNL A   1      42.723  27.959  32.066  1.00  0.00     0.074 A 
ATOM     72  C   UNL A   1      43.478  27.015  31.268  1.00  0.00     0.031 C 
ATOM     73  C   UNL A   1      42.976  28.224  33.371  1.00  0.00     0.037 A 
BRANCH  60  74
ATOM     74  C   UNL A   1      39.211  32.447  35.861  1.00  0.00     0.057 A 
ATOM     75  C   UNL A   1      39.693  33.743  36.090  1.00  0.00     0.134 A 
ATOM     76  C   UNL A   1      38.307  31.922  36.794  1.00  0.00     0.134 A 
ATOM     77  F   UNL A   1      40.574  34.301  35.246  1.00  0.00    -0.206 F 
ATOM     78  C   UNL A   1      39.310  34.478  37.215  1.00  0.00     0.040 A 
ATOM     79  C   UNL A   1      37.895  32.657  37.906  1.00  0.00     0.040 A 
ATOM     80  F   UNL A   1      37.805  30.689  36.635  1.00  0.00    -0.206 F 
ATOM     81  C   UNL A   1      38.401  33.937  38.122  1.00  0.00     0.006 A 
ENDBRANCH  60  74
BRANCH  61  82
ATOM     82  C   UNL A   1      41.506  27.379  27.554  1.00  0.00     0.057 A 
ATOM     83  C   UNL A   1      41.064  26.074  27.312  1.00  0.00     0.134 A 
ATOM     84  C   UNL A   1      42.341  27.964  26.593  1.00  0.00     0.134 A 
ATOM     85  F   UNL A   1      40.280  25.450  28.204  1.00  0.00    -0.206 F 
ATOM     86  C   UNL A   1      41.458  25.368  26.174  1.00  0.00     0.040 A 
ATOM     87  C   UNL A   1      42.717  27.282  25.436  1.00  0.00     0.040 A 
ATOM     88  F   UNL A   1      42.800  29.213  26.764  1.00  0.00    -0.206 F 
ATOM     89  C   UNL A   1      42.284  25.975  25.229  1.00  0.00     0.006 A 
ENDBRANCH  61  82
BRANCH  73  90
ATOM     90  C   UNL A   1      44.088  27.458  34.028  1.00  0.00     0.057 A 
ATOM     91  C   UNL A   1      43.889  26.188  34.584  1.00  0.00     0.134 A 
ATOM     92  C   UNL A   1      45.388  27.983  34.065  1.00  0.00     0.134 A 
ATOM     93  F   UNL A   1      42.668  25.633  34.590  1.00  0.00    -0.206 F 
ATOM     94  C   UNL A   1      44.935  25.480  35.178  1.00  0.00     0.040 A 
ATOM     95  C   UNL A   1      46.447  27.270  34.628  1.00  0.00     0.040 A 
ATOM     96  F   UNL A   1      45.652  29.188  33.539  1.00  0.00    -0.206 F 
ATOM     97  C   UNL A   1      46.220  26.019  35.195  1.00  0.00     0.006 A 
ENDBRANCH  73  90
ENDBRANCH  47  48
ENDBRANCH  40  42
ENDBRANCH  39  40
ENDBRANCH  38  39
ENDBRANCH  37  38
ENDBRANCH  36  37
ENDBRANCH   1  36
TORSDOF 20
ENDMDL
