MODEL 1
REMARK VINA RESULT:     -12.5      0.000      0.000
REMARK SMILES Cc1ccccc1-c1c(Cl)ccc2c1C=C(C(=O)OCCOCCOC(=O)c1ccc(-c3c4nc(c(-c5c(F)cccc5F)c5ccc([nH]5)c(-c5c(F)cccc5F)c5nc(c(-c6c(F)cccc6F)c6ccc3[nH]6)C=C5)C=C4)cc1)[C@@H](C(F)(F)F)O2
REMARK SMILES IDX 23 1 22 2 21 3 20 4 19 5 17 6 18 7 16 8 8 9 9 10 14 11 10 12
REMARK SMILES IDX 11 13 13 14 15 15 12 16 87 17 82 18 7 19 1 20 2 21 3 22 4 23
REMARK SMILES IDX 6 24 5 25 83 26 84 27 85 28 86 29 24 30 25 31 26 32 27 33
REMARK SMILES IDX 28 34 29 35 81 36 30 37 80 38 31 39 32 40 33 41 74 42 34 43
REMARK SMILES IDX 79 44 73 45 75 46 35 47 78 48 72 49 71 50 36 52 62 53 45 54
REMARK SMILES IDX 61 55 46 56 49 57 60 58 76 59 47 60 48 61 59 63 77 64 50 65
REMARK SMILES IDX 37 66 38 67 43 68 39 69 40 70 42 71 44 72 41 73 63 74 64 75
REMARK SMILES IDX 69 76 65 77 66 78 68 79 70 80 67 81 51 82 52 83 57 84 53 85
REMARK SMILES IDX 54 86 56 87 58 88 55 89
REMARK H PARENT 75 51 49 62
REMARK Flexibility Score: inf
ROOT
ATOM      1  C   UNL A   1      41.215  19.911  26.741  1.00  0.00     0.202 C 
ENDROOT
BRANCH   1   2
ATOM      2  O   UNL A   1      40.410  21.045  26.472  1.00  0.00    -0.374 OA
BRANCH   2   3
ATOM      3  C   UNL A   1      39.170  20.784  25.821  1.00  0.00     0.202 C 
BRANCH   3   4
ATOM      4  C   UNL A   1      38.398  22.081  25.859  1.00  0.00     0.261 C 
BRANCH   4   5
ATOM      5  O   UNL A   1      36.988  21.859  25.696  1.00  0.00    -0.460 OA
BRANCH   5   6
ATOM      6  C   UNL A   1      36.246  22.974  25.895  1.00  0.00     0.338 C 
ATOM      7  O   UNL A   1      36.654  24.122  25.987  1.00  0.00    -0.246 OA
BRANCH   6   8
ATOM      8  C   UNL A   1      34.803  22.668  26.002  1.00  0.00     0.087 C 
ATOM      9  C   UNL A   1      33.110  25.501  24.409  1.00  0.00     0.012 A 
ATOM     10  C   UNL A   1      32.889  25.810  23.037  1.00  0.00     0.049 A 
ATOM     11  C   UNL A   1      33.500  24.163  24.711  1.00  0.00     0.027 A 
ATOM     12  Cl  UNL A   1      32.492  27.413  22.497  1.00  0.00    -0.084 Cl
ATOM     13  C   UNL A   1      33.005  24.846  22.029  1.00  0.00     0.025 A 
ATOM     14  C   UNL A   1      33.577  23.198  23.673  1.00  0.00     0.128 A 
ATOM     15  C   UNL A   1      34.036  23.769  26.038  1.00  0.00     0.028 C 
ATOM     16  C   UNL A   1      33.336  23.540  22.348  1.00  0.00     0.049 A 
ATOM     17  O   UNL A   1      33.939  21.884  23.847  1.00  0.00    -0.475 OA
ATOM     18  C   UNL A   1      34.413  21.501  25.149  1.00  0.00     0.316 C 
BRANCH   9  19
ATOM     19  C   UNL A   1      32.853  26.536  25.462  1.00  0.00    -0.013 A 
ATOM     20  C   UNL A   1      30.362  25.983  25.872  1.00  0.00     0.045 C 
ATOM     21  C   UNL A   1      31.616  26.775  26.105  1.00  0.00    -0.043 A 
ATOM     22  C   UNL A   1      31.505  27.792  27.075  1.00  0.00     0.004 A 
ATOM     23  C   UNL A   1      32.609  28.536  27.471  1.00  0.00     0.000 A 
ATOM     24  C   UNL A   1      33.951  27.325  25.879  1.00  0.00     0.009 A 
ATOM     25  C   UNL A   1      33.840  28.290  26.884  1.00  0.00     0.001 A 
ENDBRANCH   9  19
BRANCH  18  26
ATOM     26  C   UNL A   1      33.386  20.639  25.891  1.00  0.00     0.430 C 
ATOM     27  F   UNL A   1      33.568  20.696  27.231  1.00  0.00    -0.167 F 
ATOM     28  F   UNL A   1      32.121  21.075  25.652  1.00  0.00    -0.167 F 
ATOM     29  F   UNL A   1      33.436  19.337  25.527  1.00  0.00    -0.167 F 
ENDBRANCH  18  26
ENDBRANCH   6   8
ENDBRANCH   5   6
ENDBRANCH   4   5
ENDBRANCH   3   4
ENDBRANCH   2   3
ENDBRANCH   1   2
BRANCH   1  30
ATOM     30  C   UNL A   1      42.463  19.812  25.855  1.00  0.00     0.261 C 
BRANCH  30  31
ATOM     31  O   UNL A   1      42.741  21.088  25.249  1.00  0.00    -0.460 OA
BRANCH  31  32
ATOM     32  C   UNL A   1      44.012  21.260  24.804  1.00  0.00     0.338 C 
ATOM     33  O   UNL A   1      44.671  20.425  24.192  1.00  0.00    -0.246 OA
BRANCH  32  34
ATOM     34  C   UNL A   1      44.600  22.471  25.433  1.00  0.00     0.060 A 
ATOM     35  C   UNL A   1      44.743  22.530  26.831  1.00  0.00     0.016 A 
ATOM     36  C   UNL A   1      44.650  23.638  24.675  1.00  0.00     0.016 A 
ATOM     37  C   UNL A   1      44.761  23.770  27.477  1.00  0.00     0.010 A 
ATOM     38  C   UNL A   1      44.524  24.843  25.321  1.00  0.00     0.010 A 
ATOM     39  C   UNL A   1      44.560  24.919  26.719  1.00  0.00    -0.014 A 
BRANCH  39  40
ATOM     40  C   UNL A   1      44.322  26.259  27.238  1.00  0.00     0.031 A 
ATOM     41  C   UNL A   1      42.937  26.785  27.249  1.00  0.00     0.074 A 
ATOM     42  C   UNL A   1      45.277  26.873  27.971  1.00  0.00     0.049 A 
ATOM     43  N   UNL A   1      42.617  27.984  27.587  1.00  0.00    -0.248 NA
ATOM     44  C   UNL A   1      41.776  25.992  26.863  1.00  0.00     0.031 C 
ATOM     45  C   UNL A   1      45.092  27.937  28.946  1.00  0.00     0.029 A 
ATOM     46  N   UNL A   1      46.665  26.755  27.873  1.00  0.00    -0.354 N 
ATOM     47  C   UNL A   1      41.263  28.014  27.824  1.00  0.00     0.074 A 
ATOM     48  C   UNL A   1      40.775  26.779  27.262  1.00  0.00     0.031 C 
ATOM     49  C   UNL A   1      46.241  28.609  29.079  1.00  0.00     0.029 A 
ATOM     50  C   UNL A   1      47.196  28.015  28.163  1.00  0.00     0.049 A 
ATOM     51  H   UNL A   1      47.171  25.942  27.644  1.00  0.00     0.167 HD
ATOM     52  C   UNL A   1      40.773  29.029  28.597  1.00  0.00     0.037 A 
ATOM     53  C   UNL A   1      48.049  28.650  27.324  1.00  0.00     0.037 A 
ATOM     54  C   UNL A   1      41.851  29.985  28.919  1.00  0.00     0.049 A 
ATOM     55  C   UNL A   1      47.417  29.967  27.014  1.00  0.00     0.074 A 
ATOM     56  C   UNL A   1      42.573  30.233  30.075  1.00  0.00     0.029 A 
ATOM     57  N   UNL A   1      42.556  30.615  27.885  1.00  0.00    -0.354 N 
ATOM     58  N   UNL A   1      46.116  30.116  26.931  1.00  0.00    -0.248 NA
ATOM     59  C   UNL A   1      48.146  31.229  27.073  1.00  0.00     0.031 C 
ATOM     60  C   UNL A   1      43.752  30.943  29.717  1.00  0.00     0.029 A 
ATOM     61  C   UNL A   1      43.749  31.146  28.344  1.00  0.00     0.049 A 
ATOM     62  H   UNL A   1      42.242  30.672  26.953  1.00  0.00     0.167 HD
ATOM     63  C   UNL A   1      45.836  31.437  27.134  1.00  0.00     0.074 A 
ATOM     64  C   UNL A   1      47.130  32.106  27.134  1.00  0.00     0.031 C 
ATOM     65  C   UNL A   1      44.616  31.938  27.482  1.00  0.00     0.037 A 
BRANCH  52  66
ATOM     66  C   UNL A   1      39.410  29.033  29.288  1.00  0.00     0.057 A 
ATOM     67  C   UNL A   1      38.255  29.479  28.608  1.00  0.00     0.134 A 
ATOM     68  C   UNL A   1      39.154  28.656  30.621  1.00  0.00     0.134 A 
ATOM     69  F   UNL A   1      38.282  29.807  27.310  1.00  0.00    -0.206 F 
ATOM     70  C   UNL A   1      36.995  29.607  29.217  1.00  0.00     0.040 A 
ATOM     71  C   UNL A   1      37.908  28.809  31.254  1.00  0.00     0.040 A 
ATOM     72  F   UNL A   1      40.069  28.057  31.384  1.00  0.00    -0.206 F 
ATOM     73  C   UNL A   1      36.820  29.294  30.554  1.00  0.00     0.006 A 
ENDBRANCH  52  66
BRANCH  53  74
ATOM     74  C   UNL A   1      48.843  27.684  26.515  1.00  0.00     0.057 A 
ATOM     75  C   UNL A   1      48.417  27.512  25.176  1.00  0.00     0.134 A 
ATOM     76  C   UNL A   1      50.189  27.411  26.778  1.00  0.00     0.134 A 
ATOM     77  F   UNL A   1      47.142  27.777  24.841  1.00  0.00    -0.206 F 
ATOM     78  C   UNL A   1      49.311  27.250  24.132  1.00  0.00     0.040 A 
ATOM     79  C   UNL A   1      51.092  27.132  25.736  1.00  0.00     0.040 A 
ATOM     80  F   UNL A   1      50.688  27.565  28.012  1.00  0.00    -0.206 F 
ATOM     81  C   UNL A   1      50.665  27.105  24.407  1.00  0.00     0.006 A 
ENDBRANCH  53  74
BRANCH  65  82
ATOM     82  C   UNL A   1      44.203  33.328  27.102  1.00  0.00     0.057 A 
ATOM     83  C   UNL A   1      43.804  33.662  25.798  1.00  0.00     0.134 A 
ATOM     84  C   UNL A   1      43.973  34.313  28.084  1.00  0.00     0.134 A 
ATOM     85  F   UNL A   1      43.884  32.783  24.788  1.00  0.00    -0.206 F 
ATOM     86  C   UNL A   1      43.251  34.902  25.483  1.00  0.00     0.040 A 
ATOM     87  C   UNL A   1      43.370  35.534  27.788  1.00  0.00     0.040 A 
ATOM     88  F   UNL A   1      44.280  34.118  29.374  1.00  0.00    -0.206 F 
ATOM     89  C   UNL A   1      43.014  35.835  26.483  1.00  0.00     0.006 A 
ENDBRANCH  65  82
ENDBRANCH  39  40
ENDBRANCH  32  34
ENDBRANCH  31  32
ENDBRANCH  30  31
ENDBRANCH   1  30
TORSDOF 16
ENDMDL
MODEL 2
REMARK VINA RESULT:     -12.4      5.306     10.181
REMARK SMILES Cc1ccccc1-c1c(Cl)ccc2c1C=C(C(=O)OCCOCCOC(=O)c1ccc(-c3c4nc(c(-c5c(F)cccc5F)c5ccc([nH]5)c(-c5c(F)cccc5F)c5nc(c(-c6c(F)cccc6F)c6ccc3[nH]6)C=C5)C=C4)cc1)[C@@H](C(F)(F)F)O2
REMARK SMILES IDX 23 1 22 2 21 3 20 4 19 5 17 6 18 7 16 8 8 9 9 10 14 11 10 12
REMARK SMILES IDX 11 13 13 14 15 15 12 16 87 17 82 18 7 19 1 20 2 21 3 22 4 23
REMARK SMILES IDX 6 24 5 25 83 26 84 27 85 28 86 29 24 30 25 31 26 32 27 33
REMARK SMILES IDX 28 34 29 35 81 36 30 37 80 38 31 39 32 40 33 41 74 42 34 43
REMARK SMILES IDX 79 44 73 45 75 46 35 47 78 48 72 49 71 50 36 52 62 53 45 54
REMARK SMILES IDX 61 55 46 56 49 57 60 58 76 59 47 60 48 61 59 63 77 64 50 65
REMARK SMILES IDX 37 66 38 67 43 68 39 69 40 70 42 71 44 72 41 73 63 74 64 75
REMARK SMILES IDX 69 76 65 77 66 78 68 79 70 80 67 81 51 82 52 83 57 84 53 85
REMARK SMILES IDX 54 86 56 87 58 88 55 89
REMARK H PARENT 75 51 49 62
REMARK Flexibility Score: inf
ROOT
ATOM      1  C   UNL A   1      35.553  33.060  28.432  1.00  0.00     0.202 C 
ENDROOT
BRANCH   1   2
ATOM      2  O   UNL A   1      35.624  31.871  27.663  1.00  0.00    -0.374 OA
BRANCH   2   3
ATOM      3  C   UNL A   1      34.446  31.070  27.652  1.00  0.00     0.202 C 
BRANCH   3   4
ATOM      4  C   UNL A   1      34.918  29.636  27.604  1.00  0.00     0.261 C 
BRANCH   4   5
ATOM      5  O   UNL A   1      34.474  28.975  26.409  1.00  0.00    -0.460 OA
BRANCH   5   6
ATOM      6  C   UNL A   1      33.336  28.264  26.584  1.00  0.00     0.338 C 
ATOM      7  O   UNL A   1      32.754  28.055  27.638  1.00  0.00    -0.246 OA
BRANCH   6   8
ATOM      8  C   UNL A   1      32.819  27.722  25.309  1.00  0.00     0.087 C 
ATOM      9  C   UNL A   1      33.247  24.092  25.576  1.00  0.00     0.012 A 
ATOM     10  C   UNL A   1      32.474  23.103  26.249  1.00  0.00     0.049 A 
ATOM     11  C   UNL A   1      32.632  25.364  25.380  1.00  0.00     0.027 A 
ATOM     12  Cl  UNL A   1      33.108  21.534  26.639  1.00  0.00    -0.084 Cl
ATOM     13  C   UNL A   1      31.160  23.344  26.665  1.00  0.00     0.025 A 
ATOM     14  C   UNL A   1      31.287  25.568  25.781  1.00  0.00     0.128 A 
ATOM     15  C   UNL A   1      33.400  26.564  24.959  1.00  0.00     0.028 C 
ATOM     16  C   UNL A   1      30.563  24.569  26.420  1.00  0.00     0.049 A 
ATOM     17  O   UNL A   1      30.595  26.746  25.640  1.00  0.00    -0.475 OA
ATOM     18  C   UNL A   1      31.336  27.892  25.188  1.00  0.00     0.316 C 
BRANCH   9  19
ATOM     19  C   UNL A   1      34.604  23.748  25.041  1.00  0.00    -0.013 A 
ATOM     20  C   UNL A   1      33.871  23.143  22.637  1.00  0.00     0.045 C 
ATOM     21  C   UNL A   1      34.888  23.296  23.731  1.00  0.00    -0.043 A 
ATOM     22  C   UNL A   1      36.214  22.994  23.357  1.00  0.00     0.004 A 
ATOM     23  C   UNL A   1      37.274  23.190  24.232  1.00  0.00     0.000 A 
ATOM     24  C   UNL A   1      35.708  23.919  25.910  1.00  0.00     0.009 A 
ATOM     25  C   UNL A   1      37.023  23.672  25.506  1.00  0.00     0.001 A 
ENDBRANCH   9  19
BRANCH  18  26
ATOM     26  C   UNL A   1      30.975  28.264  23.746  1.00  0.00     0.430 C 
ATOM     27  F   UNL A   1      29.808  28.948  23.689  1.00  0.00    -0.167 F 
ATOM     28  F   UNL A   1      31.923  29.068  23.199  1.00  0.00    -0.167 F 
ATOM     29  F   UNL A   1      30.855  27.182  22.941  1.00  0.00    -0.167 F 
ENDBRANCH  18  26
ENDBRANCH   6   8
ENDBRANCH   5   6
ENDBRANCH   4   5
ENDBRANCH   3   4
ENDBRANCH   2   3
ENDBRANCH   1   2
BRANCH   1  30
ATOM     30  C   UNL A   1      34.154  33.355  28.989  1.00  0.00     0.261 C 
BRANCH  30  31
ATOM     31  O   UNL A   1      34.181  34.560  29.777  1.00  0.00    -0.460 OA
BRANCH  31  32
ATOM     32  C   UNL A   1      33.878  34.407  31.091  1.00  0.00     0.338 C 
ATOM     33  O   UNL A   1      32.865  34.827  31.642  1.00  0.00    -0.246 OA
BRANCH  32  34
ATOM     34  C   UNL A   1      35.082  33.943  31.828  1.00  0.00     0.060 A 
ATOM     35  C   UNL A   1      36.301  34.628  31.673  1.00  0.00     0.016 A 
ATOM     36  C   UNL A   1      35.066  32.652  32.351  1.00  0.00     0.016 A 
ATOM     37  C   UNL A   1      37.509  33.953  31.879  1.00  0.00     0.010 A 
ATOM     38  C   UNL A   1      36.248  31.957  32.413  1.00  0.00     0.010 A 
ATOM     39  C   UNL A   1      37.471  32.592  32.162  1.00  0.00    -0.014 A 
BRANCH  39  40
ATOM     40  C   UNL A   1      38.614  31.687  32.181  1.00  0.00     0.031 A 
ATOM     41  C   UNL A   1      38.560  30.452  31.366  1.00  0.00     0.074 A 
ATOM     42  C   UNL A   1      39.798  32.116  32.672  1.00  0.00     0.049 A 
ATOM     43  N   UNL A   1      39.460  29.533  31.380  1.00  0.00    -0.248 NA
ATOM     44  C   UNL A   1      37.464  30.138  30.458  1.00  0.00     0.031 C 
ATOM     45  C   UNL A   1      41.120  31.594  32.363  1.00  0.00     0.029 A 
ATOM     46  N   UNL A   1      40.039  33.041  33.691  1.00  0.00    -0.354 N 
ATOM     47  C   UNL A   1      39.276  28.738  30.273  1.00  0.00     0.074 A 
ATOM     48  C   UNL A   1      37.965  29.096  29.791  1.00  0.00     0.031 C 
ATOM     49  C   UNL A   1      41.953  31.898  33.365  1.00  0.00     0.029 A 
ATOM     50  C   UNL A   1      41.178  32.599  34.372  1.00  0.00     0.049 A 
ATOM     51  H   UNL A   1      39.510  33.846  33.891  1.00  0.00     0.167 HD
ATOM     52  C   UNL A   1      40.335  27.989  29.842  1.00  0.00     0.037 A 
ATOM     53  C   UNL A   1      41.188  32.407  35.713  1.00  0.00     0.037 A 
ATOM     54  C   UNL A   1      41.461  28.116  30.788  1.00  0.00     0.049 A 
ATOM     55  C   UNL A   1      41.596  30.985  35.922  1.00  0.00     0.074 A 
ATOM     56  C   UNL A   1      42.666  28.796  30.729  1.00  0.00     0.029 A 
ATOM     57  N   UNL A   1      41.285  27.767  32.133  1.00  0.00    -0.354 N 
ATOM     58  N   UNL A   1      41.266  30.033  35.083  1.00  0.00    -0.248 NA
ATOM     59  C   UNL A   1      42.621  30.589  36.881  1.00  0.00     0.031 C 
ATOM     60  C   UNL A   1      43.169  28.924  32.053  1.00  0.00     0.029 A 
ATOM     61  C   UNL A   1      42.282  28.308  32.926  1.00  0.00     0.049 A 
ATOM     62  H   UNL A   1      40.546  27.209  32.470  1.00  0.00     0.167 HD
ATOM     63  C   UNL A   1      42.151  29.007  35.249  1.00  0.00     0.074 A 
ATOM     64  C   UNL A   1      42.924  29.359  36.434  1.00  0.00     0.031 C 
ATOM     65  C   UNL A   1      42.377  28.008  34.348  1.00  0.00     0.037 A 
BRANCH  52  66
ATOM     66  C   UNL A   1      40.467  27.364  28.454  1.00  0.00     0.057 A 
ATOM     67  C   UNL A   1      39.888  26.108  28.169  1.00  0.00     0.134 A 
ATOM     68  C   UNL A   1      41.173  27.906  27.363  1.00  0.00     0.134 A 
ATOM     69  F   UNL A   1      39.114  25.468  29.054  1.00  0.00    -0.206 F 
ATOM     70  C   UNL A   1      40.062  25.431  26.948  1.00  0.00     0.040 A 
ATOM     71  C   UNL A   1      41.384  27.228  26.149  1.00  0.00     0.040 A 
ATOM     72  F   UNL A   1      41.655  29.150  27.368  1.00  0.00    -0.206 F 
ATOM     73  C   UNL A   1      40.832  25.979  25.938  1.00  0.00     0.006 A 
ENDBRANCH  52  66
BRANCH  53  74
ATOM     74  C   UNL A   1      40.218  33.301  36.402  1.00  0.00     0.057 A 
ATOM     75  C   UNL A   1      39.030  32.681  36.857  1.00  0.00     0.134 A 
ATOM     76  C   UNL A   1      40.613  34.457  37.082  1.00  0.00     0.134 A 
ATOM     77  F   UNL A   1      38.598  31.552  36.268  1.00  0.00    -0.206 F 
ATOM     78  C   UNL A   1      38.370  33.086  38.022  1.00  0.00     0.040 A 
ATOM     79  C   UNL A   1      39.946  34.882  38.245  1.00  0.00     0.040 A 
ATOM     80  F   UNL A   1      41.736  35.103  36.736  1.00  0.00    -0.206 F 
ATOM     81  C   UNL A   1      38.857  34.166  38.747  1.00  0.00     0.006 A 
ENDBRANCH  53  74
BRANCH  65  82
ATOM     82  C   UNL A   1      42.839  26.651  34.783  1.00  0.00     0.057 A 
ATOM     83  C   UNL A   1      41.942  25.625  35.122  1.00  0.00     0.134 A 
ATOM     84  C   UNL A   1      44.189  26.265  34.653  1.00  0.00     0.134 A 
ATOM     85  F   UNL A   1      40.620  25.838  35.190  1.00  0.00    -0.206 F 
ATOM     86  C   UNL A   1      42.360  24.316  35.351  1.00  0.00     0.040 A 
ATOM     87  C   UNL A   1      44.608  24.947  34.827  1.00  0.00     0.040 A 
ATOM     88  F   UNL A   1      45.149  27.135  34.308  1.00  0.00    -0.206 F 
ATOM     89  C   UNL A   1      43.694  23.969  35.185  1.00  0.00     0.006 A 
ENDBRANCH  65  82
ENDBRANCH  39  40
ENDBRANCH  32  34
ENDBRANCH  31  32
ENDBRANCH  30  31
ENDBRANCH   1  30
TORSDOF 16
ENDMDL
MODEL 3
REMARK VINA RESULT:     -12.3      3.620      8.047
REMARK SMILES Cc1ccccc1-c1c(Cl)ccc2c1C=C(C(=O)OCCOCCOC(=O)c1ccc(-c3c4nc(c(-c5c(F)cccc5F)c5ccc([nH]5)c(-c5c(F)cccc5F)c5nc(c(-c6c(F)cccc6F)c6ccc3[nH]6)C=C5)C=C4)cc1)[C@@H](C(F)(F)F)O2
REMARK SMILES IDX 23 1 22 2 21 3 20 4 19 5 17 6 18 7 16 8 8 9 9 10 14 11 10 12
REMARK SMILES IDX 11 13 13 14 15 15 12 16 87 17 82 18 7 19 1 20 2 21 3 22 4 23
REMARK SMILES IDX 6 24 5 25 83 26 84 27 85 28 86 29 24 30 25 31 26 32 27 33
REMARK SMILES IDX 28 34 29 35 81 36 30 37 80 38 31 39 32 40 33 41 74 42 34 43
REMARK SMILES IDX 79 44 73 45 75 46 35 47 78 48 72 49 71 50 36 52 62 53 45 54
REMARK SMILES IDX 61 55 46 56 49 57 60 58 76 59 47 60 48 61 59 63 77 64 50 65
REMARK SMILES IDX 37 66 38 67 43 68 39 69 40 70 42 71 44 72 41 73 63 74 64 75
REMARK SMILES IDX 69 76 65 77 66 78 68 79 70 80 67 81 51 82 52 83 57 84 53 85
REMARK SMILES IDX 54 86 56 87 58 88 55 89
REMARK H PARENT 75 51 49 62
REMARK Flexibility Score: inf
ROOT
ATOM      1  C   UNL A   1      34.842  31.297  27.755  1.00  0.00     0.202 C 
ENDROOT
BRANCH   1   2
ATOM      2  O   UNL A   1      33.435  31.136  27.813  1.00  0.00    -0.374 OA
BRANCH   2   3
ATOM      3  C   UNL A   1      32.842  30.469  26.704  1.00  0.00     0.202 C 
BRANCH   3   4
ATOM      4  C   UNL A   1      32.079  29.299  27.279  1.00  0.00     0.261 C 
BRANCH   4   5
ATOM      5  O   UNL A   1      32.863  28.096  27.252  1.00  0.00    -0.460 OA
BRANCH   5   6
ATOM      6  C   UNL A   1      32.309  27.115  26.502  1.00  0.00     0.338 C 
ATOM      7  O   UNL A   1      31.523  26.258  26.877  1.00  0.00    -0.246 OA
BRANCH   6   8
ATOM      8  C   UNL A   1      32.765  27.167  25.096  1.00  0.00     0.087 C 
ATOM      9  C   UNL A   1      33.210  23.665  24.110  1.00  0.00     0.012 A 
ATOM     10  C   UNL A   1      32.267  22.676  23.712  1.00  0.00     0.049 A 
ATOM     11  C   UNL A   1      32.763  25.020  24.102  1.00  0.00     0.027 A 
ATOM     12  Cl  UNL A   1      32.628  20.978  23.748  1.00  0.00    -0.084 Cl
ATOM     13  C   UNL A   1      30.973  23.009  23.292  1.00  0.00     0.025 A 
ATOM     14  C   UNL A   1      31.458  25.330  23.638  1.00  0.00     0.128 A 
ATOM     15  C   UNL A   1      33.525  26.115  24.754  1.00  0.00     0.028 C 
ATOM     16  C   UNL A   1      30.574  24.334  23.242  1.00  0.00     0.049 A 
ATOM     17  O   UNL A   1      30.923  26.594  23.584  1.00  0.00    -0.475 OA
ATOM     18  C   UNL A   1      31.690  27.657  24.176  1.00  0.00     0.316 C 
BRANCH   9  19
ATOM     19  C   UNL A   1      34.619  23.271  24.434  1.00  0.00    -0.013 A 
ATOM     20  C   UNL A   1      34.315  23.020  26.989  1.00  0.00     0.045 C 
ATOM     21  C   UNL A   1      35.128  23.005  25.727  1.00  0.00    -0.043 A 
ATOM     22  C   UNL A   1      36.484  22.654  25.897  1.00  0.00     0.004 A 
ATOM     23  C   UNL A   1      37.331  22.496  24.808  1.00  0.00     0.000 A 
ATOM     24  C   UNL A   1      35.517  23.117  23.351  1.00  0.00     0.009 A 
ATOM     25  C   UNL A   1      36.842  22.711  23.530  1.00  0.00     0.001 A 
ENDBRANCH   9  19
BRANCH  18  26
ATOM     26  C   UNL A   1      32.300  28.574  23.111  1.00  0.00     0.430 C 
ATOM     27  F   UNL A   1      32.850  27.860  22.100  1.00  0.00    -0.167 F 
ATOM     28  F   UNL A   1      31.350  29.369  22.552  1.00  0.00    -0.167 F 
ATOM     29  F   UNL A   1      33.261  29.386  23.607  1.00  0.00    -0.167 F 
ENDBRANCH  18  26
ENDBRANCH   6   8
ENDBRANCH   5   6
ENDBRANCH   4   5
ENDBRANCH   3   4
ENDBRANCH   2   3
ENDBRANCH   1   2
BRANCH   1  30
ATOM     30  C   UNL A   1      35.625  30.002  28.003  1.00  0.00     0.261 C 
BRANCH  30  31
ATOM     31  O   UNL A   1      36.970  30.134  27.506  1.00  0.00    -0.460 OA
BRANCH  31  32
ATOM     32  C   UNL A   1      37.891  30.550  28.412  1.00  0.00     0.338 C 
ATOM     33  O   UNL A   1      37.929  31.663  28.928  1.00  0.00    -0.246 OA
BRANCH  32  34
ATOM     34  C   UNL A   1      39.021  29.586  28.453  1.00  0.00     0.060 A 
ATOM     35  C   UNL A   1      39.777  29.448  29.631  1.00  0.00     0.016 A 
ATOM     36  C   UNL A   1      39.525  29.124  27.240  1.00  0.00     0.016 A 
ATOM     37  C   UNL A   1      41.102  29.008  29.560  1.00  0.00     0.010 A 
ATOM     38  C   UNL A   1      40.864  28.831  27.158  1.00  0.00     0.010 A 
ATOM     39  C   UNL A   1      41.664  28.788  28.306  1.00  0.00    -0.014 A 
BRANCH  39  40
ATOM     40  C   UNL A   1      43.075  28.552  28.027  1.00  0.00     0.031 A 
ATOM     41  C   UNL A   1      43.966  29.717  27.819  1.00  0.00     0.074 A 
ATOM     42  C   UNL A   1      43.609  27.334  28.264  1.00  0.00     0.049 A 
ATOM     43  N   UNL A   1      45.200  29.634  27.469  1.00  0.00    -0.248 NA
ATOM     44  C   UNL A   1      43.529  31.099  27.981  1.00  0.00     0.031 C 
ATOM     45  C   UNL A   1      45.007  27.019  28.515  1.00  0.00     0.029 A 
ATOM     46  N   UNL A   1      43.000  26.080  28.179  1.00  0.00    -0.354 N 
ATOM     47  C   UNL A   1      45.797  30.848  27.717  1.00  0.00     0.074 A 
ATOM     48  C   UNL A   1      44.694  31.749  27.938  1.00  0.00     0.031 C 
ATOM     49  C   UNL A   1      45.226  25.735  28.207  1.00  0.00     0.029 A 
ATOM     50  C   UNL A   1      43.974  25.192  27.713  1.00  0.00     0.049 A 
ATOM     51  H   UNL A   1      42.066  25.864  28.401  1.00  0.00     0.167 HD
ATOM     52  C   UNL A   1      47.159  30.877  27.840  1.00  0.00     0.037 A 
ATOM     53  C   UNL A   1      43.778  24.411  26.624  1.00  0.00     0.037 A 
ATOM     54  C   UNL A   1      47.720  29.546  27.540  1.00  0.00     0.049 A 
ATOM     55  C   UNL A   1      44.891  24.735  25.681  1.00  0.00     0.074 A 
ATOM     56  C   UNL A   1      48.251  28.547  28.341  1.00  0.00     0.029 A 
ATOM     57  N   UNL A   1      47.474  28.948  26.297  1.00  0.00    -0.354 N 
ATOM     58  N   UNL A   1      45.406  25.938  25.594  1.00  0.00    -0.248 NA
ATOM     59  C   UNL A   1      45.685  23.710  25.012  1.00  0.00     0.031 C 
ATOM     60  C   UNL A   1      48.246  27.334  27.599  1.00  0.00     0.029 A 
ATOM     61  C   UNL A   1      47.727  27.588  26.337  1.00  0.00     0.049 A 
ATOM     62  H   UNL A   1      47.162  29.434  25.499  1.00  0.00     0.167 HD
ATOM     63  C   UNL A   1      46.658  25.817  25.063  1.00  0.00     0.074 A 
ATOM     64  C   UNL A   1      46.757  24.427  24.637  1.00  0.00     0.031 C 
ATOM     65  C   UNL A   1      47.641  26.758  25.142  1.00  0.00     0.037 A 
BRANCH  52  66
ATOM     66  C   UNL A   1      47.962  32.006  28.484  1.00  0.00     0.057 A 
ATOM     67  C   UNL A   1      48.222  33.202  27.779  1.00  0.00     0.134 A 
ATOM     68  C   UNL A   1      48.546  31.983  29.765  1.00  0.00     0.134 A 
ATOM     69  F   UNL A   1      47.689  33.443  26.575  1.00  0.00    -0.206 F 
ATOM     70  C   UNL A   1      49.042  34.232  28.272  1.00  0.00     0.040 A 
ATOM     71  C   UNL A   1      49.395  32.989  30.259  1.00  0.00     0.040 A 
ATOM     72  F   UNL A   1      48.290  31.020  30.652  1.00  0.00    -0.206 F 
ATOM     73  C   UNL A   1      49.653  34.120  29.509  1.00  0.00     0.006 A 
ENDBRANCH  52  66
BRANCH  53  74
ATOM     74  C   UNL A   1      42.337  24.092  26.429  1.00  0.00     0.057 A 
ATOM     75  C   UNL A   1      41.830  23.041  27.231  1.00  0.00     0.134 A 
ATOM     76  C   UNL A   1      41.410  25.041  25.990  1.00  0.00     0.134 A 
ATOM     77  F   UNL A   1      42.664  22.102  27.710  1.00  0.00    -0.206 F 
ATOM     78  C   UNL A   1      40.514  23.030  27.707  1.00  0.00     0.040 A 
ATOM     79  C   UNL A   1      40.081  25.028  26.452  1.00  0.00     0.040 A 
ATOM     80  F   UNL A   1      41.800  26.083  25.243  1.00  0.00    -0.206 F 
ATOM     81  C   UNL A   1      39.646  24.055  27.354  1.00  0.00     0.006 A 
ENDBRANCH  53  74
BRANCH  65  82
ATOM     82  C   UNL A   1      48.703  26.872  24.091  1.00  0.00     0.057 A 
ATOM     83  C   UNL A   1      48.488  27.544  22.877  1.00  0.00     0.134 A 
ATOM     84  C   UNL A   1      50.039  26.513  24.363  1.00  0.00     0.134 A 
ATOM     85  F   UNL A   1      47.281  28.021  22.538  1.00  0.00    -0.206 F 
ATOM     86  C   UNL A   1      49.520  27.807  21.978  1.00  0.00     0.040 A 
ATOM     87  C   UNL A   1      51.085  26.820  23.496  1.00  0.00     0.040 A 
ATOM     88  F   UNL A   1      50.392  25.891  25.497  1.00  0.00    -0.206 F 
ATOM     89  C   UNL A   1      50.827  27.463  22.296  1.00  0.00     0.006 A 
ENDBRANCH  65  82
ENDBRANCH  39  40
ENDBRANCH  32  34
ENDBRANCH  31  32
ENDBRANCH  30  31
ENDBRANCH   1  30
TORSDOF 16
ENDMDL
