MODEL 1
REMARK VINA RESULT:      -9.0      0.000      0.000
REMARK SMILES CN(C(=O)[C@H]1CCCC[C@H]1C(=O)OCCOCCOC(=O)c1ccc(-c2c3nc(c(-c4c(F)cccc4F)c4ccc([nH]4)c(-c4c(F)cccc4F)c4nc(c(-c5c(F)cccc5F)c5ccc2[nH]5)C=C4)C=C3)cc1)C1CC1
REMARK SMILES IDX 15 1 14 2 13 3 11 4 12 5 10 6 5 7 6 8 7 9 9 10 8 11 3 12
REMARK SMILES IDX 4 13 2 14 1 15 76 16 77 17 78 18 16 19 17 20 18 21 19 22
REMARK SMILES IDX 20 23 21 24 22 25 23 26 75 27 24 28 74 29 25 30 26 31 27 32
REMARK SMILES IDX 68 33 28 34 73 35 67 36 69 37 29 38 72 39 66 40 65 41 30 43
REMARK SMILES IDX 56 44 39 45 55 46 40 47 43 48 54 49 70 50 41 51 42 52 53 54
REMARK SMILES IDX 71 55 44 56 31 57 32 58 37 59 33 60 34 61 36 62 38 63 35 64
REMARK SMILES IDX 57 65 58 66 63 67 59 68 60 69 62 70 64 71 61 72 45 73 46 74
REMARK SMILES IDX 51 75 47 76 48 77 50 78 52 79 49 80
REMARK H PARENT 69 42 43 53
REMARK Flexibility Score: inf
ROOT
ATOM      1  C   UNL A   1      32.933  35.746  29.280  1.00  0.00     0.202 C 
ENDROOT
BRANCH   1   2
ATOM      2  C   UNL A   1      32.684  35.813  30.790  1.00  0.00     0.261 C 
BRANCH   2   3
ATOM      3  O   UNL A   1      33.924  35.723  31.515  1.00  0.00    -0.463 OA
BRANCH   3   4
ATOM      4  C   UNL A   1      34.422  34.475  31.729  1.00  0.00     0.309 C 
ATOM      5  O   UNL A   1      33.739  33.488  31.966  1.00  0.00    -0.252 OA
BRANCH   4   6
ATOM      6  C   UNL A   1      35.948  34.440  31.652  1.00  0.00     0.111 C 
ATOM      7  C   UNL A   1      36.668  34.345  32.998  1.00  0.00     0.093 C 
ATOM      8  C   UNL A   1      38.186  34.562  32.762  1.00  0.00     0.014 C 
ATOM      9  C   UNL A   1      38.758  33.539  31.787  1.00  0.00     0.001 C 
ATOM     10  C   UNL A   1      36.522  33.451  30.617  1.00  0.00     0.016 C 
ATOM     11  C   UNL A   1      38.033  33.589  30.447  1.00  0.00     0.001 C 
BRANCH   7  12
ATOM     12  C   UNL A   1      36.482  33.198  34.013  1.00  0.00     0.226 C 
ATOM     13  O   UNL A   1      35.612  33.411  34.881  1.00  0.00    -0.275 OA
BRANCH  12  14
ATOM     14  N   UNL A   1      37.141  31.978  34.037  1.00  0.00    -0.343 N 
ATOM     15  C   UNL A   1      37.087  30.809  33.164  1.00  0.00     0.147 C 
BRANCH  14  16
ATOM     16  C   UNL A   1      38.054  31.792  35.152  1.00  0.00     0.084 C 
ATOM     17  C   UNL A   1      38.965  30.603  35.113  1.00  0.00     0.027 C 
ATOM     18  C   UNL A   1      39.548  31.981  35.093  1.00  0.00     0.027 C 
ENDBRANCH  14  16
ENDBRANCH  12  14
ENDBRANCH   7  12
ENDBRANCH   4   6
ENDBRANCH   3   4
ENDBRANCH   2   3
ENDBRANCH   1   2
BRANCH   1  19
ATOM     19  O   UNL A   1      32.725  34.472  28.672  1.00  0.00    -0.374 OA
BRANCH  19  20
ATOM     20  C   UNL A   1      33.868  33.796  28.159  1.00  0.00     0.202 C 
BRANCH  20  21
ATOM     21  C   UNL A   1      33.703  32.315  27.784  1.00  0.00     0.261 C 
BRANCH  21  22
ATOM     22  O   UNL A   1      34.341  31.385  28.672  1.00  0.00    -0.460 OA
BRANCH  22  23
ATOM     23  C   UNL A   1      34.756  30.233  28.080  1.00  0.00     0.338 C 
ATOM     24  O   UNL A   1      34.121  29.518  27.327  1.00  0.00    -0.246 OA
BRANCH  23  25
ATOM     25  C   UNL A   1      36.174  29.976  28.402  1.00  0.00     0.060 A 
ATOM     26  C   UNL A   1      37.126  30.093  27.382  1.00  0.00     0.016 A 
ATOM     27  C   UNL A   1      36.549  29.532  29.670  1.00  0.00     0.016 A 
ATOM     28  C   UNL A   1      38.465  29.763  27.626  1.00  0.00     0.010 A 
ATOM     29  C   UNL A   1      37.887  29.188  29.907  1.00  0.00     0.010 A 
ATOM     30  C   UNL A   1      38.857  29.294  28.886  1.00  0.00    -0.014 A 
BRANCH  30  31
ATOM     31  C   UNL A   1      40.238  28.796  29.131  1.00  0.00     0.031 A 
ATOM     32  C   UNL A   1      41.232  29.723  29.768  1.00  0.00     0.074 A 
ATOM     33  C   UNL A   1      40.631  27.556  28.777  1.00  0.00     0.049 A 
ATOM     34  N   UNL A   1      42.500  29.532  30.022  1.00  0.00    -0.248 NA
ATOM     35  C   UNL A   1      40.720  31.038  30.185  1.00  0.00     0.031 C 
ATOM     36  C   UNL A   1      39.765  26.521  28.230  1.00  0.00     0.029 A 
ATOM     37  N   UNL A   1      41.871  26.964  28.803  1.00  0.00    -0.354 N 
ATOM     38  C   UNL A   1      42.933  30.691  30.650  1.00  0.00     0.074 A 
ATOM     39  C   UNL A   1      41.811  31.606  30.672  1.00  0.00     0.031 C 
ATOM     40  C   UNL A   1      40.502  25.448  27.898  1.00  0.00     0.029 A 
ATOM     41  C   UNL A   1      41.898  25.710  28.236  1.00  0.00     0.049 A 
ATOM     42  H   UNL A   1      42.666  27.395  29.192  1.00  0.00     0.167 HD
ATOM     43  C   UNL A   1      44.145  30.960  31.189  1.00  0.00     0.037 A 
ATOM     44  C   UNL A   1      42.926  24.868  28.014  1.00  0.00     0.037 A 
ATOM     45  C   UNL A   1      45.270  30.066  31.143  1.00  0.00     0.049 A 
ATOM     46  C   UNL A   1      44.302  25.246  28.490  1.00  0.00     0.074 A 
ATOM     47  C   UNL A   1      46.538  30.248  31.668  1.00  0.00     0.029 A 
ATOM     48  N   UNL A   1      45.270  28.828  30.518  1.00  0.00    -0.354 N 
ATOM     49  N   UNL A   1      44.686  26.320  29.135  1.00  0.00    -0.248 NA
ATOM     50  C   UNL A   1      45.384  24.284  28.233  1.00  0.00     0.031 C 
ATOM     51  C   UNL A   1      47.321  29.146  31.308  1.00  0.00     0.029 A 
ATOM     52  C   UNL A   1      46.526  28.250  30.612  1.00  0.00     0.049 A 
ATOM     53  H   UNL A   1      44.492  28.418  30.073  1.00  0.00     0.167 HD
ATOM     54  C   UNL A   1      46.036  26.142  29.406  1.00  0.00     0.074 A 
ATOM     55  C   UNL A   1      46.407  24.856  28.852  1.00  0.00     0.031 C 
ATOM     56  C   UNL A   1      46.887  26.965  30.066  1.00  0.00     0.037 A 
BRANCH  43  57
ATOM     57  C   UNL A   1      44.302  32.294  31.858  1.00  0.00     0.057 A 
ATOM     58  C   UNL A   1      44.774  33.416  31.161  1.00  0.00     0.134 A 
ATOM     59  C   UNL A   1      43.999  32.455  33.215  1.00  0.00     0.134 A 
ATOM     60  F   UNL A   1      45.098  33.322  29.861  1.00  0.00    -0.206 F 
ATOM     61  C   UNL A   1      44.978  34.638  31.800  1.00  0.00     0.040 A 
ATOM     62  C   UNL A   1      44.171  33.682  33.856  1.00  0.00     0.040 A 
ATOM     63  F   UNL A   1      43.540  31.424  33.939  1.00  0.00    -0.206 F 
ATOM     64  C   UNL A   1      44.673  34.774  33.152  1.00  0.00     0.006 A 
ENDBRANCH  43  57
BRANCH  44  65
ATOM     65  C   UNL A   1      42.698  23.561  27.342  1.00  0.00     0.057 A 
ATOM     66  C   UNL A   1      42.357  22.421  28.080  1.00  0.00     0.134 A 
ATOM     67  C   UNL A   1      42.853  23.408  25.959  1.00  0.00     0.134 A 
ATOM     68  F   UNL A   1      42.216  22.497  29.412  1.00  0.00    -0.206 F 
ATOM     69  C   UNL A   1      42.199  21.174  27.472  1.00  0.00     0.040 A 
ATOM     70  C   UNL A   1      42.678  22.172  25.334  1.00  0.00     0.040 A 
ATOM     71  F   UNL A   1      43.178  24.460  25.193  1.00  0.00    -0.206 F 
ATOM     72  C   UNL A   1      42.358  21.047  26.093  1.00  0.00     0.006 A 
ENDBRANCH  44  65
BRANCH  56  73
ATOM     73  C   UNL A   1      48.296  26.487  30.271  1.00  0.00     0.057 A 
ATOM     74  C   UNL A   1      49.321  26.785  29.365  1.00  0.00     0.134 A 
ATOM     75  C   UNL A   1      48.641  25.764  31.421  1.00  0.00     0.134 A 
ATOM     76  F   UNL A   1      49.056  27.461  28.237  1.00  0.00    -0.206 F 
ATOM     77  C   UNL A   1      50.635  26.367  29.586  1.00  0.00     0.040 A 
ATOM     78  C   UNL A   1      49.955  25.366  31.667  1.00  0.00     0.040 A 
ATOM     79  F   UNL A   1      47.710  25.450  32.334  1.00  0.00    -0.206 F 
ATOM     80  C   UNL A   1      50.957  25.663  30.745  1.00  0.00     0.006 A 
ENDBRANCH  56  73
ENDBRANCH  30  31
ENDBRANCH  23  25
ENDBRANCH  22  23
ENDBRANCH  21  22
ENDBRANCH  20  21
ENDBRANCH  19  20
ENDBRANCH   1  19
TORSDOF 17
ENDMDL
MODEL 2
REMARK VINA RESULT:      -9.0      4.780      9.855
REMARK SMILES CN(C(=O)[C@H]1CCCC[C@H]1C(=O)OCCOCCOC(=O)c1ccc(-c2c3nc(c(-c4c(F)cccc4F)c4ccc([nH]4)c(-c4c(F)cccc4F)c4nc(c(-c5c(F)cccc5F)c5ccc2[nH]5)C=C4)C=C3)cc1)C1CC1
REMARK SMILES IDX 15 1 14 2 13 3 11 4 12 5 10 6 5 7 6 8 7 9 9 10 8 11 3 12
REMARK SMILES IDX 4 13 2 14 1 15 76 16 77 17 78 18 16 19 17 20 18 21 19 22
REMARK SMILES IDX 20 23 21 24 22 25 23 26 75 27 24 28 74 29 25 30 26 31 27 32
REMARK SMILES IDX 68 33 28 34 73 35 67 36 69 37 29 38 72 39 66 40 65 41 30 43
REMARK SMILES IDX 56 44 39 45 55 46 40 47 43 48 54 49 70 50 41 51 42 52 53 54
REMARK SMILES IDX 71 55 44 56 31 57 32 58 37 59 33 60 34 61 36 62 38 63 35 64
REMARK SMILES IDX 57 65 58 66 63 67 59 68 60 69 62 70 64 71 61 72 45 73 46 74
REMARK SMILES IDX 51 75 47 76 48 77 50 78 52 79 49 80
REMARK H PARENT 69 42 43 53
REMARK Flexibility Score: inf
ROOT
ATOM      1  C   UNL A   1      38.077  22.111  25.817  1.00  0.00     0.202 C 
ENDROOT
BRANCH   1   2
ATOM      2  C   UNL A   1      37.719  23.549  25.434  1.00  0.00     0.261 C 
BRANCH   2   3
ATOM      3  O   UNL A   1      36.450  23.596  24.758  1.00  0.00    -0.463 OA
BRANCH   3   4
ATOM      4  C   UNL A   1      35.367  23.939  25.507  1.00  0.00     0.309 C 
ATOM      5  O   UNL A   1      35.048  23.393  26.554  1.00  0.00    -0.252 OA
BRANCH   4   6
ATOM      6  C   UNL A   1      34.573  25.088  24.885  1.00  0.00     0.111 C 
ATOM      7  C   UNL A   1      34.175  24.890  23.422  1.00  0.00     0.093 C 
ATOM      8  C   UNL A   1      33.598  26.225  22.883  1.00  0.00     0.014 C 
ATOM      9  C   UNL A   1      32.395  26.691  23.695  1.00  0.00     0.001 C 
ATOM     10  C   UNL A   1      33.397  25.600  25.741  1.00  0.00     0.016 C 
ATOM     11  C   UNL A   1      32.757  26.861  25.166  1.00  0.00     0.001 C 
BRANCH   7  12
ATOM     12  C   UNL A   1      33.306  23.726  22.899  1.00  0.00     0.226 C 
ATOM     13  O   UNL A   1      33.455  23.476  21.685  1.00  0.00    -0.275 OA
BRANCH  12  14
ATOM     14  N   UNL A   1      32.430  22.934  23.624  1.00  0.00    -0.343 N 
ATOM     15  C   UNL A   1      31.066  23.149  24.098  1.00  0.00     0.147 C 
BRANCH  14  16
ATOM     16  C   UNL A   1      32.954  21.639  24.022  1.00  0.00     0.084 C 
ATOM     17  C   UNL A   1      32.102  20.788  24.914  1.00  0.00     0.027 C 
ATOM     18  C   UNL A   1      32.441  20.307  23.538  1.00  0.00     0.027 C 
ENDBRANCH  14  16
ENDBRANCH  12  14
ENDBRANCH   7  12
ENDBRANCH   4   6
ENDBRANCH   3   4
ENDBRANCH   2   3
ENDBRANCH   1   2
BRANCH   1  19
ATOM     19  O   UNL A   1      37.685  21.104  24.884  1.00  0.00    -0.374 OA
BRANCH  19  20
ATOM     20  C   UNL A   1      38.300  19.825  25.002  1.00  0.00     0.202 C 
BRANCH  20  21
ATOM     21  C   UNL A   1      39.486  19.701  25.972  1.00  0.00     0.261 C 
BRANCH  21  22
ATOM     22  O   UNL A   1      40.658  19.075  25.428  1.00  0.00    -0.460 OA
BRANCH  22  23
ATOM     23  C   UNL A   1      41.757  19.143  26.225  1.00  0.00     0.338 C 
ATOM     24  O   UNL A   1      42.483  18.227  26.563  1.00  0.00    -0.246 OA
BRANCH  23  25
ATOM     25  C   UNL A   1      42.039  20.547  26.586  1.00  0.00     0.060 A 
ATOM     26  C   UNL A   1      42.328  21.458  25.562  1.00  0.00     0.016 A 
ATOM     27  C   UNL A   1      42.113  20.940  27.922  1.00  0.00     0.016 A 
ATOM     28  C   UNL A   1      42.694  22.774  25.873  1.00  0.00     0.010 A 
ATOM     29  C   UNL A   1      42.494  22.252  28.230  1.00  0.00     0.010 A 
ATOM     30  C   UNL A   1      42.795  23.180  27.210  1.00  0.00    -0.014 A 
BRANCH  30  31
ATOM     31  C   UNL A   1      43.325  24.523  27.572  1.00  0.00     0.031 A 
ATOM     32  C   UNL A   1      42.350  25.604  27.937  1.00  0.00     0.074 A 
ATOM     33  C   UNL A   1      44.643  24.807  27.557  1.00  0.00     0.049 A 
ATOM     34  N   UNL A   1      42.573  26.860  28.227  1.00  0.00    -0.248 NA
ATOM     35  C   UNL A   1      40.934  25.210  27.993  1.00  0.00     0.031 C 
ATOM     36  C   UNL A   1      45.709  23.847  27.306  1.00  0.00     0.029 A 
ATOM     37  N   UNL A   1      45.309  25.996  27.733  1.00  0.00    -0.354 N 
ATOM     38  C   UNL A   1      41.330  27.400  28.524  1.00  0.00     0.074 A 
ATOM     39  C   UNL A   1      40.351  26.355  28.309  1.00  0.00     0.031 C 
ATOM     40  C   UNL A   1      46.890  24.488  27.266  1.00  0.00     0.029 A 
ATOM     41  C   UNL A   1      46.666  25.908  27.517  1.00  0.00     0.049 A 
ATOM     42  H   UNL A   1      44.859  26.833  27.991  1.00  0.00     0.167 HD
ATOM     43  C   UNL A   1      41.031  28.643  28.968  1.00  0.00     0.037 A 
ATOM     44  C   UNL A   1      47.620  26.860  27.521  1.00  0.00     0.037 A 
ATOM     45  C   UNL A   1      41.997  29.692  29.155  1.00  0.00     0.049 A 
ATOM     46  C   UNL A   1      47.246  28.274  27.874  1.00  0.00     0.074 A 
ATOM     47  C   UNL A   1      41.790  30.983  29.608  1.00  0.00     0.029 A 
ATOM     48  N   UNL A   1      43.351  29.577  28.880  1.00  0.00    -0.354 N 
ATOM     49  N   UNL A   1      46.076  28.759  28.211  1.00  0.00    -0.248 NA
ATOM     50  C   UNL A   1      48.329  29.268  27.876  1.00  0.00     0.031 C 
ATOM     51  C   UNL A   1      43.010  31.667  29.549  1.00  0.00     0.029 A 
ATOM     52  C   UNL A   1      43.987  30.785  29.118  1.00  0.00     0.049 A 
ATOM     53  H   UNL A   1      43.796  28.758  28.562  1.00  0.00     0.167 HD
ATOM     54  C   UNL A   1      46.289  30.097  28.514  1.00  0.00     0.074 A 
ATOM     55  C   UNL A   1      47.702  30.349  28.318  1.00  0.00     0.031 C 
ATOM     56  C   UNL A   1      45.396  31.027  28.929  1.00  0.00     0.037 A 
BRANCH  43  57
ATOM     57  C   UNL A   1      39.586  28.923  29.259  1.00  0.00     0.057 A 
ATOM     58  C   UNL A   1      39.042  28.730  30.537  1.00  0.00     0.134 A 
ATOM     59  C   UNL A   1      38.726  29.371  28.250  1.00  0.00     0.134 A 
ATOM     60  F   UNL A   1      39.811  28.286  31.544  1.00  0.00    -0.206 F 
ATOM     61  C   UNL A   1      37.685  28.932  30.790  1.00  0.00     0.040 A 
ATOM     62  C   UNL A   1      37.373  29.606  28.500  1.00  0.00     0.040 A 
ATOM     63  F   UNL A   1      39.183  29.580  27.007  1.00  0.00    -0.206 F 
ATOM     64  C   UNL A   1      36.847  29.375  29.769  1.00  0.00     0.006 A 
ENDBRANCH  43  57
BRANCH  44  65
ATOM     65  C   UNL A   1      49.033  26.511  27.220  1.00  0.00     0.057 A 
ATOM     66  C   UNL A   1      49.548  26.642  25.925  1.00  0.00     0.134 A 
ATOM     67  C   UNL A   1      49.891  26.002  28.204  1.00  0.00     0.134 A 
ATOM     68  F   UNL A   1      48.770  27.101  24.934  1.00  0.00    -0.206 F 
ATOM     69  C   UNL A   1      50.854  26.261  25.613  1.00  0.00     0.040 A 
ATOM     70  C   UNL A   1      51.206  25.637  27.911  1.00  0.00     0.040 A 
ATOM     71  F   UNL A   1      49.461  25.852  29.465  1.00  0.00    -0.206 F 
ATOM     72  C   UNL A   1      51.689  25.758  26.609  1.00  0.00     0.006 A 
ENDBRANCH  44  65
BRANCH  56  73
ATOM     73  C   UNL A   1      45.919  32.399  29.247  1.00  0.00     0.057 A 
ATOM     74  C   UNL A   1      46.415  32.730  30.513  1.00  0.00     0.134 A 
ATOM     75  C   UNL A   1      45.976  33.386  28.253  1.00  0.00     0.134 A 
ATOM     76  F   UNL A   1      46.376  31.838  31.514  1.00  0.00    -0.206 F 
ATOM     77  C   UNL A   1      46.933  33.999  30.785  1.00  0.00     0.040 A 
ATOM     78  C   UNL A   1      46.518  34.646  28.505  1.00  0.00     0.040 A 
ATOM     79  F   UNL A   1      45.524  33.133  27.015  1.00  0.00    -0.206 F 
ATOM     80  C   UNL A   1      46.995  34.958  29.776  1.00  0.00     0.006 A 
ENDBRANCH  56  73
ENDBRANCH  30  31
ENDBRANCH  23  25
ENDBRANCH  22  23
ENDBRANCH  21  22
ENDBRANCH  20  21
ENDBRANCH  19  20
ENDBRANCH   1  19
TORSDOF 17
ENDMDL
MODEL 3
REMARK VINA RESULT:      -8.9      4.621      9.906
REMARK SMILES CN(C(=O)[C@H]1CCCC[C@H]1C(=O)OCCOCCOC(=O)c1ccc(-c2c3nc(c(-c4c(F)cccc4F)c4ccc([nH]4)c(-c4c(F)cccc4F)c4nc(c(-c5c(F)cccc5F)c5ccc2[nH]5)C=C4)C=C3)cc1)C1CC1
REMARK SMILES IDX 15 1 14 2 13 3 11 4 12 5 10 6 5 7 6 8 7 9 9 10 8 11 3 12
REMARK SMILES IDX 4 13 2 14 1 15 76 16 77 17 78 18 16 19 17 20 18 21 19 22
REMARK SMILES IDX 20 23 21 24 22 25 23 26 75 27 24 28 74 29 25 30 26 31 27 32
REMARK SMILES IDX 68 33 28 34 73 35 67 36 69 37 29 38 72 39 66 40 65 41 30 43
REMARK SMILES IDX 56 44 39 45 55 46 40 47 43 48 54 49 70 50 41 51 42 52 53 54
REMARK SMILES IDX 71 55 44 56 31 57 32 58 37 59 33 60 34 61 36 62 38 63 35 64
REMARK SMILES IDX 57 65 58 66 63 67 59 68 60 69 62 70 64 71 61 72 45 73 46 74
REMARK SMILES IDX 51 75 47 76 48 77 50 78 52 79 49 80
REMARK H PARENT 69 42 43 53
REMARK Flexibility Score: inf
ROOT
ATOM      1  C   UNL A   1      36.971  22.769  24.860  1.00  0.00     0.202 C 
ENDROOT
BRANCH   1   2
ATOM      2  C   UNL A   1      35.712  22.982  25.705  1.00  0.00     0.261 C 
BRANCH   2   3
ATOM      3  O   UNL A   1      35.317  24.366  25.693  1.00  0.00    -0.463 OA
BRANCH   3   4
ATOM      4  C   UNL A   1      33.992  24.629  25.852  1.00  0.00     0.309 C 
ATOM      5  O   UNL A   1      33.169  23.820  26.259  1.00  0.00    -0.252 OA
BRANCH   4   6
ATOM      6  C   UNL A   1      33.634  26.059  25.449  1.00  0.00     0.111 C 
ATOM      7  C   UNL A   1      33.885  26.407  23.982  1.00  0.00     0.093 C 
ATOM      8  C   UNL A   1      33.701  27.936  23.799  1.00  0.00     0.014 C 
ATOM      9  C   UNL A   1      32.306  28.392  24.215  1.00  0.00     0.001 C 
ATOM     10  C   UNL A   1      32.249  26.539  25.929  1.00  0.00     0.016 C 
ATOM     11  C   UNL A   1      32.018  28.024  25.666  1.00  0.00     0.001 C 
BRANCH   7  12
ATOM     12  C   UNL A   1      33.235  25.682  22.784  1.00  0.00     0.226 C 
ATOM     13  O   UNL A   1      33.747  25.951  21.679  1.00  0.00    -0.275 OA
BRANCH  12  14
ATOM     14  N   UNL A   1      32.194  24.767  22.815  1.00  0.00    -0.343 N 
ATOM     15  C   UNL A   1      30.800  24.870  23.237  1.00  0.00     0.147 C 
BRANCH  14  16
ATOM     16  C   UNL A   1      32.536  23.429  22.364  1.00  0.00     0.084 C 
ATOM     17  C   UNL A   1      33.887  22.894  22.732  1.00  0.00     0.027 C 
ATOM     18  C   UNL A   1      32.658  22.216  23.251  1.00  0.00     0.027 C 
ENDBRANCH  14  16
ENDBRANCH  12  14
ENDBRANCH   7  12
ENDBRANCH   4   6
ENDBRANCH   3   4
ENDBRANCH   2   3
ENDBRANCH   1   2
BRANCH   1  19
ATOM     19  O   UNL A   1      37.497  21.442  24.853  1.00  0.00    -0.374 OA
BRANCH  19  20
ATOM     20  C   UNL A   1      38.599  21.169  25.712  1.00  0.00     0.202 C 
BRANCH  20  21
ATOM     21  C   UNL A   1      39.374  19.864  25.471  1.00  0.00     0.261 C 
BRANCH  21  22
ATOM     22  O   UNL A   1      40.260  19.474  26.531  1.00  0.00    -0.460 OA
BRANCH  22  23
ATOM     23  C   UNL A   1      41.581  19.562  26.225  1.00  0.00     0.338 C 
ATOM     24  O   UNL A   1      42.288  18.695  25.745  1.00  0.00    -0.246 OA
BRANCH  23  25
ATOM     25  C   UNL A   1      42.072  20.932  26.473  1.00  0.00     0.060 A 
ATOM     26  C   UNL A   1      42.200  21.371  27.797  1.00  0.00     0.016 A 
ATOM     27  C   UNL A   1      42.311  21.808  25.413  1.00  0.00     0.016 A 
ATOM     28  C   UNL A   1      42.569  22.694  28.069  1.00  0.00     0.010 A 
ATOM     29  C   UNL A   1      42.666  23.135  25.688  1.00  0.00     0.010 A 
ATOM     30  C   UNL A   1      42.792  23.593  27.018  1.00  0.00    -0.014 A 
BRANCH  30  31
ATOM     31  C   UNL A   1      43.039  25.038  27.277  1.00  0.00     0.031 A 
ATOM     32  C   UNL A   1      44.421  25.581  27.053  1.00  0.00     0.074 A 
ATOM     33  C   UNL A   1      42.075  25.865  27.728  1.00  0.00     0.049 A 
ATOM     34  N   UNL A   1      44.884  26.785  27.268  1.00  0.00    -0.248 NA
ATOM     35  C   UNL A   1      45.408  24.640  26.502  1.00  0.00     0.031 C 
ATOM     36  C   UNL A   1      40.675  25.507  27.912  1.00  0.00     0.029 A 
ATOM     37  N   UNL A   1      42.133  27.176  28.139  1.00  0.00    -0.354 N 
ATOM     38  C   UNL A   1      46.208  26.753  26.855  1.00  0.00     0.074 A 
ATOM     39  C   UNL A   1      46.493  25.394  26.447  1.00  0.00     0.031 C 
ATOM     40  C   UNL A   1      40.018  26.539  28.469  1.00  0.00     0.029 A 
ATOM     41  C   UNL A   1      40.949  27.647  28.658  1.00  0.00     0.049 A 
ATOM     42  H   UNL A   1      42.946  27.727  28.067  1.00  0.00     0.167 HD
ATOM     43  C   UNL A   1      47.099  27.769  26.790  1.00  0.00     0.037 A 
ATOM     44  C   UNL A   1      40.646  28.833  29.220  1.00  0.00     0.037 A 
ATOM     45  C   UNL A   1      46.830  29.114  27.223  1.00  0.00     0.049 A 
ATOM     46  C   UNL A   1      41.696  29.910  29.275  1.00  0.00     0.074 A 
ATOM     47  C   UNL A   1      47.668  30.214  27.190  1.00  0.00     0.029 A 
ATOM     48  N   UNL A   1      45.635  29.538  27.786  1.00  0.00    -0.354 N 
ATOM     49  N   UNL A   1      42.927  29.886  28.827  1.00  0.00    -0.248 NA
ATOM     50  C   UNL A   1      41.306  31.189  29.887  1.00  0.00     0.031 C 
ATOM     51  C   UNL A   1      47.001  31.289  27.789  1.00  0.00     0.029 A 
ATOM     52  C   UNL A   1      45.727  30.875  28.139  1.00  0.00     0.049 A 
ATOM     53  H   UNL A   1      44.839  28.973  27.916  1.00  0.00     0.167 HD
ATOM     54  C   UNL A   1      43.442  31.155  29.056  1.00  0.00     0.074 A 
ATOM     55  C   UNL A   1      42.389  31.926  29.685  1.00  0.00     0.031 C 
ATOM     56  C   UNL A   1      44.672  31.639  28.757  1.00  0.00     0.037 A 
BRANCH  43  57
ATOM     57  C   UNL A   1      48.457  27.439  26.244  1.00  0.00     0.057 A 
ATOM     58  C   UNL A   1      49.533  27.125  27.087  1.00  0.00     0.134 A 
ATOM     59  C   UNL A   1      48.698  27.454  24.865  1.00  0.00     0.134 A 
ATOM     60  F   UNL A   1      49.372  27.112  28.419  1.00  0.00    -0.206 F 
ATOM     61  C   UNL A   1      50.809  26.880  26.579  1.00  0.00     0.040 A 
ATOM     62  C   UNL A   1      49.963  27.179  24.345  1.00  0.00     0.040 A 
ATOM     63  F   UNL A   1      47.711  27.742  24.004  1.00  0.00    -0.206 F 
ATOM     64  C   UNL A   1      51.026  26.904  25.204  1.00  0.00     0.006 A 
ENDBRANCH  43  57
BRANCH  44  65
ATOM     65  C   UNL A   1      39.279  29.092  29.744  1.00  0.00     0.057 A 
ATOM     66  C   UNL A   1      38.951  28.807  31.074  1.00  0.00     0.134 A 
ATOM     67  C   UNL A   1      38.259  29.590  28.923  1.00  0.00     0.134 A 
ATOM     68  F   UNL A   1      39.878  28.306  31.905  1.00  0.00    -0.206 F 
ATOM     69  C   UNL A   1      37.656  28.986  31.566  1.00  0.00     0.040 A 
ATOM     70  C   UNL A   1      36.965  29.794  29.406  1.00  0.00     0.040 A 
ATOM     71  F   UNL A   1      38.506  29.884  27.639  1.00  0.00    -0.206 F 
ATOM     72  C   UNL A   1      36.658  29.483  30.730  1.00  0.00     0.006 A 
ENDBRANCH  44  65
BRANCH  56  73
ATOM     73  C   UNL A   1      44.942  33.085  29.064  1.00  0.00     0.057 A 
ATOM     74  C   UNL A   1      44.603  34.109  28.172  1.00  0.00     0.134 A 
ATOM     75  C   UNL A   1      45.500  33.459  30.294  1.00  0.00     0.134 A 
ATOM     76  F   UNL A   1      44.080  33.820  26.971  1.00  0.00    -0.206 F 
ATOM     77  C   UNL A   1      44.826  35.452  28.484  1.00  0.00     0.040 A 
ATOM     78  C   UNL A   1      45.699  34.798  30.630  1.00  0.00     0.040 A 
ATOM     79  F   UNL A   1      45.841  32.528  31.198  1.00  0.00    -0.206 F 
ATOM     80  C   UNL A   1      45.366  35.800  29.721  1.00  0.00     0.006 A 
ENDBRANCH  56  73
ENDBRANCH  30  31
ENDBRANCH  23  25
ENDBRANCH  22  23
ENDBRANCH  21  22
ENDBRANCH  20  21
ENDBRANCH  19  20
ENDBRANCH   1  19
TORSDOF 17
ENDMDL
