MODEL 1
REMARK VINA RESULT:     -11.3      0.000      0.000
REMARK SMILES Cc1cc(F)cc(N[C@@](C)(C(=O)OCCOCCOC(=O)c2ccc(-c3c4nc(c(-c5c(F)cccc5F)c5ccc([nH]5)c(-c5c(F)cccc5F)c5nc(c(-c6c(F)cccc6F)c6ccc3[nH]6)C=C5)C=C4)cc2)c2ccc(O)cc2)c1
REMARK SMILES IDX 16 1 15 2 14 3 13 4 11 5 12 6 9 7 10 8 8 9 7 11 1 12 2 13
REMARK SMILES IDX 3 14 83 15 4 16 5 17 6 18 76 19 77 20 82 21 78 22 81 23
REMARK SMILES IDX 79 24 80 25 17 27 18 28 19 29 20 30 21 31 22 32 23 33 75 34
REMARK SMILES IDX 24 35 74 36 25 37 26 38 27 39 68 40 28 41 73 42 67 43 69 44
REMARK SMILES IDX 29 45 72 46 66 47 65 48 30 50 56 51 39 52 55 53 40 54 43 55
REMARK SMILES IDX 54 56 70 57 41 58 42 59 53 61 71 62 44 63 31 64 32 65 37 66
REMARK SMILES IDX 33 67 34 68 36 69 38 70 35 71 57 72 58 73 63 74 59 75 60 76
REMARK SMILES IDX 62 77 64 78 61 79 45 80 46 81 51 82 47 83 48 84 50 85 52 86
REMARK SMILES IDX 49 87
REMARK H PARENT 8 10 80 26 69 49 43 60
REMARK Flexibility Score: inf
ROOT
ATOM      1  O   UNL A   1      35.120  22.398  23.929  1.00  0.00    -0.374 OA
ENDROOT
BRANCH   1   2
ATOM      2  C   UNL A   1      34.711  23.688  24.374  1.00  0.00     0.202 C 
BRANCH   2   3
ATOM      3  C   UNL A   1      34.045  24.614  23.348  1.00  0.00     0.261 C 
BRANCH   3   4
ATOM      4  O   UNL A   1      32.810  25.175  23.816  1.00  0.00    -0.461 OA
BRANCH   4   5
ATOM      5  C   UNL A   1      32.183  26.030  22.948  1.00  0.00     0.336 C 
ATOM      6  O   UNL A   1      31.924  25.739  21.783  1.00  0.00    -0.249 OA
BRANCH   5   7
ATOM      7  C   UNL A   1      31.871  27.431  23.593  1.00  0.00     0.158 C 
ATOM      8  C   UNL A   1      32.709  28.407  22.730  1.00  0.00     0.053 C 
BRANCH   7   9
ATOM      9  N   UNL A   1      32.438  27.513  24.977  1.00  0.00    -0.366 N 
ATOM     10  H   UNL A   1      32.617  26.632  25.378  1.00  0.00     0.162 HD
BRANCH   9  11
ATOM     11  C   UNL A   1      32.762  28.566  25.804  1.00  0.00     0.038 A 
ATOM     12  C   UNL A   1      35.867  29.645  27.786  1.00  0.00     0.044 C 
ATOM     13  C   UNL A   1      34.490  29.649  27.194  1.00  0.00    -0.046 A 
ATOM     14  C   UNL A   1      33.656  30.750  27.381  1.00  0.00     0.042 A 
ATOM     15  C   UNL A   1      34.038  28.579  26.399  1.00  0.00     0.029 A 
ATOM     16  C   UNL A   1      32.386  30.740  26.825  1.00  0.00     0.125 A 
ATOM     17  F   UNL A   1      31.576  31.789  27.022  1.00  0.00    -0.207 F 
ATOM     18  C   UNL A   1      31.938  29.662  26.063  1.00  0.00     0.065 A 
ENDBRANCH   9  11
ENDBRANCH   7   9
BRANCH   7  19
ATOM     19  C   UNL A   1      30.379  27.814  23.498  1.00  0.00    -0.011 A 
ATOM     20  C   UNL A   1      29.379  26.881  23.853  1.00  0.00     0.010 A 
ATOM     21  C   UNL A   1      29.946  29.064  23.006  1.00  0.00     0.010 A 
ATOM     22  C   UNL A   1      28.023  27.157  23.657  1.00  0.00     0.046 A 
ATOM     23  C   UNL A   1      28.586  29.352  22.841  1.00  0.00     0.046 A 
ATOM     24  C   UNL A   1      27.637  28.385  23.144  1.00  0.00     0.115 A 
BRANCH  24  25
ATOM     25  O   UNL A   1      26.308  28.601  22.932  1.00  0.00    -0.508 OA
ATOM     26  H   UNL A   1      25.912  29.401  23.217  1.00  0.00     0.293 HD
ENDBRANCH  24  25
ENDBRANCH   7  19
ENDBRANCH   5   7
ENDBRANCH   4   5
ENDBRANCH   3   4
ENDBRANCH   2   3
ENDBRANCH   1   2
BRANCH   1  27
ATOM     27  C   UNL A   1      35.195  21.353  24.901  1.00  0.00     0.202 C 
BRANCH  27  28
ATOM     28  C   UNL A   1      36.550  20.663  25.111  1.00  0.00     0.261 C 
BRANCH  28  29
ATOM     29  O   UNL A   1      37.663  21.573  25.015  1.00  0.00    -0.460 OA
BRANCH  29  30
ATOM     30  C   UNL A   1      38.743  21.219  25.751  1.00  0.00     0.338 C 
ATOM     31  O   UNL A   1      39.313  20.134  25.763  1.00  0.00    -0.246 OA
BRANCH  30  32
ATOM     32  C   UNL A   1      39.300  22.387  26.451  1.00  0.00     0.060 A 
ATOM     33  C   UNL A   1      38.775  23.646  26.132  1.00  0.00     0.016 A 
ATOM     34  C   UNL A   1      40.396  22.271  27.308  1.00  0.00     0.016 A 
ATOM     35  C   UNL A   1      39.378  24.799  26.626  1.00  0.00     0.010 A 
ATOM     36  C   UNL A   1      41.007  23.432  27.796  1.00  0.00     0.010 A 
ATOM     37  C   UNL A   1      40.525  24.700  27.425  1.00  0.00    -0.014 A 
BRANCH  37  38
ATOM     38  C   UNL A   1      41.299  25.926  27.738  1.00  0.00     0.031 A 
ATOM     39  C   UNL A   1      40.644  27.027  28.525  1.00  0.00     0.074 A 
ATOM     40  C   UNL A   1      42.580  26.047  27.352  1.00  0.00     0.049 A 
ATOM     41  N   UNL A   1      41.131  28.179  28.906  1.00  0.00    -0.248 NA
ATOM     42  C   UNL A   1      39.248  26.796  28.933  1.00  0.00     0.031 C 
ATOM     43  C   UNL A   1      43.334  25.042  26.604  1.00  0.00     0.029 A 
ATOM     44  N   UNL A   1      43.470  27.076  27.531  1.00  0.00    -0.354 N 
ATOM     45  C   UNL A   1      40.104  28.815  29.592  1.00  0.00     0.074 A 
ATOM     46  C   UNL A   1      38.958  27.933  29.550  1.00  0.00     0.031 C 
ATOM     47  C   UNL A   1      44.571  25.513  26.373  1.00  0.00     0.029 A 
ATOM     48  C   UNL A   1      44.688  26.857  26.938  1.00  0.00     0.049 A 
ATOM     49  H   UNL A   1      43.254  27.893  28.035  1.00  0.00     0.167 HD
ATOM     50  C   UNL A   1      40.115  30.022  30.205  1.00  0.00     0.037 A 
ATOM     51  C   UNL A   1      45.767  27.657  26.846  1.00  0.00     0.037 A 
ATOM     52  C   UNL A   1      41.257  30.898  30.253  1.00  0.00     0.049 A 
ATOM     53  C   UNL A   1      45.748  29.010  27.500  1.00  0.00     0.074 A 
ATOM     54  C   UNL A   1      41.382  32.120  30.891  1.00  0.00     0.029 A 
ATOM     55  N   UNL A   1      42.468  30.649  29.625  1.00  0.00    -0.354 N 
ATOM     56  N   UNL A   1      44.787  29.583  28.186  1.00  0.00    -0.248 NA
ATOM     57  C   UNL A   1      46.963  29.827  27.374  1.00  0.00     0.031 C 
ATOM     58  C   UNL A   1      42.654  32.631  30.610  1.00  0.00     0.029 A 
ATOM     59  C   UNL A   1      43.335  31.708  29.834  1.00  0.00     0.049 A 
ATOM     60  H   UNL A   1      42.679  29.839  29.107  1.00  0.00     0.167 HD
ATOM     61  C   UNL A   1      45.286  30.816  28.586  1.00  0.00     0.074 A 
ATOM     62  C   UNL A   1      46.639  30.904  28.078  1.00  0.00     0.031 C 
ATOM     63  C   UNL A   1      44.677  31.785  29.314  1.00  0.00     0.037 A 
BRANCH  50  64
ATOM     64  C   UNL A   1      38.840  30.476  30.850  1.00  0.00     0.057 A 
ATOM     65  C   UNL A   1      37.948  31.342  30.202  1.00  0.00     0.134 A 
ATOM     66  C   UNL A   1      38.495  30.033  32.133  1.00  0.00     0.134 A 
ATOM     67  F   UNL A   1      38.227  31.813  28.978  1.00  0.00    -0.206 F 
ATOM     68  C   UNL A   1      36.774  31.774  30.821  1.00  0.00     0.040 A 
ATOM     69  C   UNL A   1      37.313  30.440  32.752  1.00  0.00     0.040 A 
ATOM     70  F   UNL A   1      39.303  29.201  32.806  1.00  0.00    -0.206 F 
ATOM     71  C   UNL A   1      36.452  31.320  32.099  1.00  0.00     0.006 A 
ENDBRANCH  50  64
BRANCH  51  72
ATOM     72  C   UNL A   1      46.955  27.194  26.090  1.00  0.00     0.057 A 
ATOM     73  C   UNL A   1      48.001  26.513  26.723  1.00  0.00     0.134 A 
ATOM     74  C   UNL A   1      47.062  27.407  24.710  1.00  0.00     0.134 A 
ATOM     75  F   UNL A   1      47.964  26.299  28.045  1.00  0.00    -0.206 F 
ATOM     76  C   UNL A   1      49.114  26.064  26.010  1.00  0.00     0.040 A 
ATOM     77  C   UNL A   1      48.160  26.946  23.982  1.00  0.00     0.040 A 
ATOM     78  F   UNL A   1      46.090  28.053  24.048  1.00  0.00    -0.206 F 
ATOM     79  C   UNL A   1      49.192  26.274  24.634  1.00  0.00     0.006 A 
ENDBRANCH  51  72
BRANCH  63  80
ATOM     80  C   UNL A   1      45.474  33.021  29.614  1.00  0.00     0.057 A 
ATOM     81  C   UNL A   1      46.308  33.104  30.737  1.00  0.00     0.134 A 
ATOM     82  C   UNL A   1      45.441  34.121  28.748  1.00  0.00     0.134 A 
ATOM     83  F   UNL A   1      46.374  32.089  31.611  1.00  0.00    -0.206 F 
ATOM     84  C   UNL A   1      47.068  34.245  30.996  1.00  0.00     0.040 A 
ATOM     85  C   UNL A   1      46.214  35.259  28.985  1.00  0.00     0.040 A 
ATOM     86  F   UNL A   1      44.670  34.102  27.652  1.00  0.00    -0.206 F 
ATOM     87  C   UNL A   1      47.028  35.324  30.115  1.00  0.00     0.006 A 
ENDBRANCH  63  80
ENDBRANCH  37  38
ENDBRANCH  30  32
ENDBRANCH  29  30
ENDBRANCH  28  29
ENDBRANCH  27  28
ENDBRANCH   1  27
TORSDOF 18
ENDMDL
MODEL 2
REMARK VINA RESULT:     -11.2      4.059      9.110
REMARK SMILES Cc1cc(F)cc(N[C@@](C)(C(=O)OCCOCCOC(=O)c2ccc(-c3c4nc(c(-c5c(F)cccc5F)c5ccc([nH]5)c(-c5c(F)cccc5F)c5nc(c(-c6c(F)cccc6F)c6ccc3[nH]6)C=C5)C=C4)cc2)c2ccc(O)cc2)c1
REMARK SMILES IDX 16 1 15 2 14 3 13 4 11 5 12 6 9 7 10 8 8 9 7 11 1 12 2 13
REMARK SMILES IDX 3 14 83 15 4 16 5 17 6 18 76 19 77 20 82 21 78 22 81 23
REMARK SMILES IDX 79 24 80 25 17 27 18 28 19 29 20 30 21 31 22 32 23 33 75 34
REMARK SMILES IDX 24 35 74 36 25 37 26 38 27 39 68 40 28 41 73 42 67 43 69 44
REMARK SMILES IDX 29 45 72 46 66 47 65 48 30 50 56 51 39 52 55 53 40 54 43 55
REMARK SMILES IDX 54 56 70 57 41 58 42 59 53 61 71 62 44 63 31 64 32 65 37 66
REMARK SMILES IDX 33 67 34 68 36 69 38 70 35 71 57 72 58 73 63 74 59 75 60 76
REMARK SMILES IDX 62 77 64 78 61 79 45 80 46 81 51 82 47 83 48 84 50 85 52 86
REMARK SMILES IDX 49 87
REMARK H PARENT 8 10 80 26 69 49 43 60
REMARK Flexibility Score: inf
ROOT
ATOM      1  O   UNL A   1      31.112  27.430  26.414  1.00  0.00    -0.374 OA
ENDROOT
BRANCH   1   2
ATOM      2  C   UNL A   1      31.780  26.210  26.106  1.00  0.00     0.202 C 
BRANCH   2   3
ATOM      3  C   UNL A   1      30.911  24.998  25.744  1.00  0.00     0.261 C 
BRANCH   3   4
ATOM      4  O   UNL A   1      31.680  23.860  25.328  1.00  0.00    -0.461 OA
BRANCH   4   5
ATOM      5  C   UNL A   1      31.996  22.967  26.319  1.00  0.00     0.336 C 
ATOM      6  O   UNL A   1      31.423  22.934  27.405  1.00  0.00    -0.249 OA
BRANCH   5   7
ATOM      7  C   UNL A   1      33.193  22.024  25.928  1.00  0.00     0.158 C 
ATOM      8  C   UNL A   1      33.605  21.401  27.285  1.00  0.00     0.053 C 
BRANCH   7   9
ATOM      9  N   UNL A   1      34.371  22.828  25.469  1.00  0.00    -0.366 N 
ATOM     10  H   UNL A   1      34.123  23.700  25.087  1.00  0.00     0.162 HD
BRANCH   9  11
ATOM     11  C   UNL A   1      35.730  22.599  25.471  1.00  0.00     0.038 A 
ATOM     12  C   UNL A   1      38.822  24.454  26.788  1.00  0.00     0.044 C 
ATOM     13  C   UNL A   1      37.961  23.403  26.154  1.00  0.00    -0.046 A 
ATOM     14  C   UNL A   1      38.528  22.203  25.727  1.00  0.00     0.042 A 
ATOM     15  C   UNL A   1      36.570  23.579  26.034  1.00  0.00     0.029 A 
ATOM     16  C   UNL A   1      37.718  21.240  25.145  1.00  0.00     0.125 A 
ATOM     17  F   UNL A   1      38.266  20.096  24.714  1.00  0.00    -0.207 F 
ATOM     18  C   UNL A   1      36.346  21.439  25.004  1.00  0.00     0.065 A 
ENDBRANCH   9  11
ENDBRANCH   7   9
BRANCH   7  19
ATOM     19  C   UNL A   1      32.777  20.902  24.954  1.00  0.00    -0.011 A 
ATOM     20  C   UNL A   1      32.776  19.553  25.378  1.00  0.00     0.010 A 
ATOM     21  C   UNL A   1      32.441  21.151  23.607  1.00  0.00     0.010 A 
ATOM     22  C   UNL A   1      32.527  18.509  24.483  1.00  0.00     0.046 A 
ATOM     23  C   UNL A   1      32.158  20.106  22.719  1.00  0.00     0.046 A 
ATOM     24  C   UNL A   1      32.229  18.792  23.160  1.00  0.00     0.115 A 
BRANCH  24  25
ATOM     25  O   UNL A   1      32.029  17.745  22.311  1.00  0.00    -0.508 OA
ATOM     26  H   UNL A   1      31.398  17.815  21.621  1.00  0.00     0.293 HD
ENDBRANCH  24  25
ENDBRANCH   7  19
ENDBRANCH   5   7
ENDBRANCH   4   5
ENDBRANCH   3   4
ENDBRANCH   2   3
ENDBRANCH   1   2
BRANCH   1  27
ATOM     27  C   UNL A   1      31.781  28.355  27.274  1.00  0.00     0.202 C 
BRANCH  27  28
ATOM     28  C   UNL A   1      31.778  29.837  26.876  1.00  0.00     0.261 C 
BRANCH  28  29
ATOM     29  O   UNL A   1      33.074  30.308  26.456  1.00  0.00    -0.460 OA
BRANCH  29  30
ATOM     30  C   UNL A   1      33.565  31.334  27.191  1.00  0.00     0.338 C 
ATOM     31  O   UNL A   1      32.972  32.347  27.546  1.00  0.00    -0.246 OA
BRANCH  30  32
ATOM     32  C   UNL A   1      34.910  31.015  27.693  1.00  0.00     0.060 A 
ATOM     33  C   UNL A   1      35.197  29.674  27.976  1.00  0.00     0.016 A 
ATOM     34  C   UNL A   1      35.831  32.019  28.001  1.00  0.00     0.016 A 
ATOM     35  C   UNL A   1      36.384  29.334  28.618  1.00  0.00     0.010 A 
ATOM     36  C   UNL A   1      37.020  31.676  28.655  1.00  0.00     0.010 A 
ATOM     37  C   UNL A   1      37.283  30.338  29.001  1.00  0.00    -0.014 A 
BRANCH  37  38
ATOM     38  C   UNL A   1      38.414  29.995  29.897  1.00  0.00     0.031 A 
ATOM     39  C   UNL A   1      39.476  29.050  29.408  1.00  0.00     0.074 A 
ATOM     40  C   UNL A   1      38.512  30.542  31.121  1.00  0.00     0.049 A 
ATOM     41  N   UNL A   1      40.546  28.614  30.022  1.00  0.00    -0.248 NA
ATOM     42  C   UNL A   1      39.305  28.524  28.044  1.00  0.00     0.031 C 
ATOM     43  C   UNL A   1      37.561  31.487  31.701  1.00  0.00     0.029 A 
ATOM     44  N   UNL A   1      39.459  30.368  32.099  1.00  0.00    -0.354 N 
ATOM     45  C   UNL A   1      41.172  27.757  29.125  1.00  0.00     0.074 A 
ATOM     46  C   UNL A   1      40.349  27.714  27.936  1.00  0.00     0.031 C 
ATOM     47  C   UNL A   1      37.964  31.799  32.944  1.00  0.00     0.029 A 
ATOM     48  C   UNL A   1      39.188  31.061  33.252  1.00  0.00     0.049 A 
ATOM     49  H   UNL A   1      40.255  29.802  31.984  1.00  0.00     0.167 HD
ATOM     50  C   UNL A   1      42.331  27.073  29.275  1.00  0.00     0.037 A 
ATOM     51  C   UNL A   1      39.844  31.082  34.428  1.00  0.00     0.037 A 
ATOM     52  C   UNL A   1      43.155  27.120  30.455  1.00  0.00     0.049 A 
ATOM     53  C   UNL A   1      41.108  30.285  34.590  1.00  0.00     0.074 A 
ATOM     54  C   UNL A   1      44.371  26.500  30.684  1.00  0.00     0.029 A 
ATOM     55  N   UNL A   1      42.838  27.819  31.609  1.00  0.00    -0.354 N 
ATOM     56  N   UNL A   1      41.716  29.515  33.718  1.00  0.00    -0.248 NA
ATOM     57  C   UNL A   1      41.781  30.363  35.894  1.00  0.00     0.031 C 
ATOM     58  C   UNL A   1      44.767  26.788  31.995  1.00  0.00     0.029 A 
ATOM     59  C   UNL A   1      43.819  27.621  32.566  1.00  0.00     0.049 A 
ATOM     60  H   UNL A   1      42.033  28.374  31.731  1.00  0.00     0.167 HD
ATOM     61  C   UNL A   1      42.848  29.032  34.361  1.00  0.00     0.074 A 
ATOM     62  C   UNL A   1      42.851  29.605  35.691  1.00  0.00     0.031 C 
ATOM     63  C   UNL A   1      43.803  28.192  33.890  1.00  0.00     0.037 A 
BRANCH  50  64
ATOM     64  C   UNL A   1      42.758  26.190  28.140  1.00  0.00     0.057 A 
ATOM     65  C   UNL A   1      42.325  24.862  28.030  1.00  0.00     0.134 A 
ATOM     66  C   UNL A   1      43.609  26.679  27.141  1.00  0.00     0.134 A 
ATOM     67  F   UNL A   1      41.521  24.329  28.962  1.00  0.00    -0.206 F 
ATOM     68  C   UNL A   1      42.746  24.043  26.980  1.00  0.00     0.040 A 
ATOM     69  C   UNL A   1      44.018  25.877  26.075  1.00  0.00     0.040 A 
ATOM     70  F   UNL A   1      44.057  27.942  27.186  1.00  0.00    -0.206 F 
ATOM     71  C   UNL A   1      43.593  24.552  25.997  1.00  0.00     0.006 A 
ENDBRANCH  50  64
BRANCH  51  72
ATOM     72  C   UNL A   1      39.300  31.883  35.551  1.00  0.00     0.057 A 
ATOM     73  C   UNL A   1      39.709  33.204  35.767  1.00  0.00     0.134 A 
ATOM     74  C   UNL A   1      38.344  31.350  36.423  1.00  0.00     0.134 A 
ATOM     75  F   UNL A   1      40.637  33.761  34.977  1.00  0.00    -0.206 F 
ATOM     76  C   UNL A   1      39.188  33.965  36.815  1.00  0.00     0.040 A 
ATOM     77  C   UNL A   1      37.800  32.106  37.463  1.00  0.00     0.040 A 
ATOM     78  F   UNL A   1      37.912  30.090  36.265  1.00  0.00    -0.206 F 
ATOM     79  C   UNL A   1      38.225  33.418  37.663  1.00  0.00     0.006 A 
ENDBRANCH  51  72
BRANCH  63  80
ATOM     80  C   UNL A   1      44.936  27.851  34.812  1.00  0.00     0.057 A 
ATOM     81  C   UNL A   1      46.084  28.649  34.893  1.00  0.00     0.134 A 
ATOM     82  C   UNL A   1      44.858  26.739  35.660  1.00  0.00     0.134 A 
ATOM     83  F   UNL A   1      46.225  29.721  34.099  1.00  0.00    -0.206 F 
ATOM     84  C   UNL A   1      47.123  28.343  35.774  1.00  0.00     0.040 A 
ATOM     85  C   UNL A   1      45.881  26.436  36.561  1.00  0.00     0.040 A 
ATOM     86  F   UNL A   1      43.782  25.939  35.638  1.00  0.00    -0.206 F 
ATOM     87  C   UNL A   1      47.020  27.237  36.616  1.00  0.00     0.006 A 
ENDBRANCH  63  80
ENDBRANCH  37  38
ENDBRANCH  30  32
ENDBRANCH  29  30
ENDBRANCH  28  29
ENDBRANCH  27  28
ENDBRANCH   1  27
TORSDOF 18
ENDMDL
MODEL 3
REMARK VINA RESULT:     -11.2      4.077      7.367
REMARK SMILES Cc1cc(F)cc(N[C@@](C)(C(=O)OCCOCCOC(=O)c2ccc(-c3c4nc(c(-c5c(F)cccc5F)c5ccc([nH]5)c(-c5c(F)cccc5F)c5nc(c(-c6c(F)cccc6F)c6ccc3[nH]6)C=C5)C=C4)cc2)c2ccc(O)cc2)c1
REMARK SMILES IDX 16 1 15 2 14 3 13 4 11 5 12 6 9 7 10 8 8 9 7 11 1 12 2 13
REMARK SMILES IDX 3 14 83 15 4 16 5 17 6 18 76 19 77 20 82 21 78 22 81 23
REMARK SMILES IDX 79 24 80 25 17 27 18 28 19 29 20 30 21 31 22 32 23 33 75 34
REMARK SMILES IDX 24 35 74 36 25 37 26 38 27 39 68 40 28 41 73 42 67 43 69 44
REMARK SMILES IDX 29 45 72 46 66 47 65 48 30 50 56 51 39 52 55 53 40 54 43 55
REMARK SMILES IDX 54 56 70 57 41 58 42 59 53 61 71 62 44 63 31 64 32 65 37 66
REMARK SMILES IDX 33 67 34 68 36 69 38 70 35 71 57 72 58 73 63 74 59 75 60 76
REMARK SMILES IDX 62 77 64 78 61 79 45 80 46 81 51 82 47 83 48 84 50 85 52 86
REMARK SMILES IDX 49 87
REMARK H PARENT 8 10 80 26 69 49 43 60
REMARK Flexibility Score: inf
ROOT
ATOM      1  O   UNL A   1      32.096  30.578  27.060  1.00  0.00    -0.374 OA
ENDROOT
BRANCH   1   2
ATOM      2  C   UNL A   1      31.801  29.361  26.380  1.00  0.00     0.202 C 
BRANCH   2   3
ATOM      3  C   UNL A   1      31.989  28.051  27.157  1.00  0.00     0.261 C 
BRANCH   3   4
ATOM      4  O   UNL A   1      32.639  27.030  26.387  1.00  0.00    -0.461 OA
BRANCH   4   5
ATOM      5  C   UNL A   1      31.871  25.934  26.091  1.00  0.00     0.336 C 
ATOM      6  O   UNL A   1      31.323  25.243  26.946  1.00  0.00    -0.249 OA
BRANCH   5   7
ATOM      7  C   UNL A   1      31.803  25.639  24.547  1.00  0.00     0.158 C 
ATOM      8  C   UNL A   1      30.733  24.523  24.451  1.00  0.00     0.053 C 
BRANCH   7   9
ATOM      9  N   UNL A   1      33.083  25.026  24.069  1.00  0.00    -0.366 N 
ATOM     10  H   UNL A   1      33.315  25.276  23.145  1.00  0.00     0.162 HD
BRANCH   9  11
ATOM     11  C   UNL A   1      34.004  24.185  24.655  1.00  0.00     0.038 A 
ATOM     12  C   UNL A   1      34.507  20.385  24.867  1.00  0.00     0.044 C 
ATOM     13  C   UNL A   1      34.732  21.858  25.035  1.00  0.00    -0.046 A 
ATOM     14  C   UNL A   1      35.902  22.318  25.638  1.00  0.00     0.042 A 
ATOM     15  C   UNL A   1      33.807  22.796  24.540  1.00  0.00     0.029 A 
ATOM     16  C   UNL A   1      36.097  23.683  25.783  1.00  0.00     0.125 A 
ATOM     17  F   UNL A   1      37.211  24.125  26.383  1.00  0.00    -0.207 F 
ATOM     18  C   UNL A   1      35.160  24.602  25.316  1.00  0.00     0.065 A 
ENDBRANCH   9  11
ENDBRANCH   7   9
BRANCH   7  19
ATOM     19  C   UNL A   1      31.343  26.862  23.724  1.00  0.00    -0.011 A 
ATOM     20  C   UNL A   1      32.294  27.698  23.096  1.00  0.00     0.010 A 
ATOM     21  C   UNL A   1      29.987  27.234  23.610  1.00  0.00     0.010 A 
ATOM     22  C   UNL A   1      31.914  28.879  22.454  1.00  0.00     0.046 A 
ATOM     23  C   UNL A   1      29.604  28.400  22.937  1.00  0.00     0.046 A 
ATOM     24  C   UNL A   1      30.574  29.226  22.387  1.00  0.00     0.115 A 
BRANCH  24  25
ATOM     25  O   UNL A   1      30.247  30.405  21.785  1.00  0.00    -0.508 OA
ATOM     26  H   UNL A   1      30.884  30.862  21.273  1.00  0.00     0.293 HD
ENDBRANCH  24  25
ENDBRANCH   7  19
ENDBRANCH   5   7
ENDBRANCH   4   5
ENDBRANCH   3   4
ENDBRANCH   2   3
ENDBRANCH   1   2
BRANCH   1  27
ATOM     27  C   UNL A   1      31.388  31.752  26.657  1.00  0.00     0.202 C 
BRANCH  27  28
ATOM     28  C   UNL A   1      32.118  33.099  26.753  1.00  0.00     0.261 C 
BRANCH  28  29
ATOM     29  O   UNL A   1      32.191  33.603  28.102  1.00  0.00    -0.460 OA
BRANCH  29  30
ATOM     30  C   UNL A   1      33.274  34.373  28.357  1.00  0.00     0.338 C 
ATOM     31  O   UNL A   1      33.301  35.587  28.529  1.00  0.00    -0.246 OA
BRANCH  30  32
ATOM     32  C   UNL A   1      34.463  33.537  28.587  1.00  0.00     0.060 A 
ATOM     33  C   UNL A   1      34.264  32.263  29.132  1.00  0.00     0.016 A 
ATOM     34  C   UNL A   1      35.753  34.034  28.394  1.00  0.00     0.016 A 
ATOM     35  C   UNL A   1      35.355  31.498  29.537  1.00  0.00     0.010 A 
ATOM     36  C   UNL A   1      36.848  33.268  28.810  1.00  0.00     0.010 A 
ATOM     37  C   UNL A   1      36.652  32.015  29.419  1.00  0.00    -0.014 A 
BRANCH  37  38
ATOM     38  C   UNL A   1      37.777  31.307  30.075  1.00  0.00     0.031 A 
ATOM     39  C   UNL A   1      38.081  31.591  31.519  1.00  0.00     0.074 A 
ATOM     40  C   UNL A   1      38.503  30.398  29.401  1.00  0.00     0.049 A 
ATOM     41  N   UNL A   1      39.015  31.090  32.286  1.00  0.00    -0.248 NA
ATOM     42  C   UNL A   1      37.216  32.577  32.187  1.00  0.00     0.031 C 
ATOM     43  C   UNL A   1      38.295  30.018  28.006  1.00  0.00     0.029 A 
ATOM     44  N   UNL A   1      39.572  29.637  29.805  1.00  0.00    -0.354 N 
ATOM     45  C   UNL A   1      38.857  31.703  33.523  1.00  0.00     0.074 A 
ATOM     46  C   UNL A   1      37.755  32.632  33.397  1.00  0.00     0.031 C 
ATOM     47  C   UNL A   1      39.219  29.106  27.662  1.00  0.00     0.029 A 
ATOM     48  C   UNL A   1      40.094  28.854  28.807  1.00  0.00     0.049 A 
ATOM     49  H   UNL A   1      39.929  29.653  30.722  1.00  0.00     0.167 HD
ATOM     50  C   UNL A   1      39.561  31.505  34.663  1.00  0.00     0.037 A 
ATOM     51  C   UNL A   1      41.166  28.040  28.812  1.00  0.00     0.037 A 
ATOM     52  C   UNL A   1      40.653  30.575  34.791  1.00  0.00     0.049 A 
ATOM     53  C   UNL A   1      41.960  27.863  30.076  1.00  0.00     0.074 A 
ATOM     54  C   UNL A   1      41.397  30.269  35.917  1.00  0.00     0.029 A 
ATOM     55  N   UNL A   1      41.164  29.812  33.753  1.00  0.00    -0.354 N 
ATOM     56  N   UNL A   1      41.773  28.411  31.253  1.00  0.00    -0.248 NA
ATOM     57  C   UNL A   1      43.110  26.949  30.016  1.00  0.00     0.031 C 
ATOM     58  C   UNL A   1      42.389  29.353  35.548  1.00  0.00     0.029 A 
ATOM     59  C   UNL A   1      42.235  29.058  34.203  1.00  0.00     0.049 A 
ATOM     60  H   UNL A   1      40.817  29.807  32.831  1.00  0.00     0.167 HD
ATOM     61  C   UNL A   1      42.768  27.899  32.076  1.00  0.00     0.074 A 
ATOM     62  C   UNL A   1      43.549  26.985  31.268  1.00  0.00     0.031 C 
ATOM     63  C   UNL A   1      43.009  28.159  33.385  1.00  0.00     0.037 A 
BRANCH  50  64
ATOM     64  C   UNL A   1      39.185  32.336  35.853  1.00  0.00     0.057 A 
ATOM     65  C   UNL A   1      38.294  31.872  36.830  1.00  0.00     0.134 A 
ATOM     66  C   UNL A   1      39.728  33.615  36.027  1.00  0.00     0.134 A 
ATOM     67  F   UNL A   1      37.728  30.662  36.714  1.00  0.00    -0.206 F 
ATOM     68  C   UNL A   1      37.935  32.663  37.923  1.00  0.00     0.040 A 
ATOM     69  C   UNL A   1      39.394  34.405  37.127  1.00  0.00     0.040 A 
ATOM     70  F   UNL A   1      40.590  34.116  35.130  1.00  0.00    -0.206 F 
ATOM     71  C   UNL A   1      38.488  33.933  38.075  1.00  0.00     0.006 A 
ENDBRANCH  50  64
BRANCH  51  72
ATOM     72  C   UNL A   1      41.555  27.339  27.564  1.00  0.00     0.057 A 
ATOM     73  C   UNL A   1      41.121  26.036  27.296  1.00  0.00     0.134 A 
ATOM     74  C   UNL A   1      42.357  27.965  26.603  1.00  0.00     0.134 A 
ATOM     75  F   UNL A   1      40.369  25.378  28.189  1.00  0.00    -0.206 F 
ATOM     76  C   UNL A   1      41.474  25.379  26.115  1.00  0.00     0.040 A 
ATOM     77  C   UNL A   1      42.701  27.329  25.410  1.00  0.00     0.040 A 
ATOM     78  F   UNL A   1      42.802  29.215  26.804  1.00  0.00    -0.206 F 
ATOM     79  C   UNL A   1      42.261  26.029  25.165  1.00  0.00     0.006 A 
ENDBRANCH  51  72
BRANCH  63  80
ATOM     80  C   UNL A   1      44.156  27.438  34.029  1.00  0.00     0.057 A 
ATOM     81  C   UNL A   1      45.441  27.993  34.077  1.00  0.00     0.134 A 
ATOM     82  C   UNL A   1      43.963  26.196  34.648  1.00  0.00     0.134 A 
ATOM     83  F   UNL A   1      45.693  29.174  33.493  1.00  0.00    -0.206 F 
ATOM     84  C   UNL A   1      46.498  27.330  34.703  1.00  0.00     0.040 A 
ATOM     85  C   UNL A   1      45.006  25.534  35.296  1.00  0.00     0.040 A 
ATOM     86  F   UNL A   1      42.755  25.614  34.644  1.00  0.00    -0.206 F 
ATOM     87  C   UNL A   1      46.280  26.100  35.321  1.00  0.00     0.006 A 
ENDBRANCH  63  80
ENDBRANCH  37  38
ENDBRANCH  30  32
ENDBRANCH  29  30
ENDBRANCH  28  29
ENDBRANCH  27  28
ENDBRANCH   1  27
TORSDOF 18
ENDMDL
