MODEL 1
REMARK VINA RESULT:      -8.8      0.000      0.000
REMARK SMILES O=C(OCCOCCOC(=O)c1ccc(S(=O)(=O)Cc2cccs2)c(F)c1)c1ccc(-c2c3nc(c(-c4c(F)cccc4F)c4ccc([nH]4)c(-c4c(F)cccc4F)c4nc(c(-c5c(F)cccc5F)c5ccc2[nH]5)C=C4)C=C3)cc1
REMARK SMILES IDX 7 1 6 2 5 3 4 4 3 5 2 6 1 7 28 8 29 9 81 10 30 11 80 12
REMARK SMILES IDX 31 13 32 14 33 15 74 16 34 17 79 18 73 19 75 20 35 21 78 22
REMARK SMILES IDX 72 23 71 24 36 26 62 27 45 28 61 29 46 30 49 31 60 32 76 33
REMARK SMILES IDX 47 34 48 35 59 37 77 38 50 39 37 40 38 41 43 42 39 43 40 44
REMARK SMILES IDX 42 45 44 46 41 47 63 48 64 49 69 50 65 51 66 52 68 53 70 54
REMARK SMILES IDX 67 55 51 56 52 57 57 58 53 59 54 60 56 61 58 62 55 63 8 64
REMARK SMILES IDX 9 65 10 66 11 67 12 68 13 69 27 70 14 71 25 72 15 73 26 74
REMARK SMILES IDX 16 75 17 76 18 77 19 78 20 79 21 80 24 81 22 82 23 83
REMARK H PARENT 75 25 49 36
REMARK Flexibility Score: inf
ROOT
ATOM      1  C   UNL A   1      34.631  35.032  33.707  1.00  0.00     0.202 C 
ENDROOT
BRANCH   1   2
ATOM      2  O   UNL A   1      34.442  35.422  32.338  1.00  0.00    -0.374 OA
BRANCH   2   3
ATOM      3  C   UNL A   1      33.284  36.219  32.084  1.00  0.00     0.202 C 
BRANCH   3   4
ATOM      4  C   UNL A   1      32.974  36.453  30.605  1.00  0.00     0.261 C 
BRANCH   4   5
ATOM      5  O   UNL A   1      32.487  35.244  30.002  1.00  0.00    -0.460 OA
BRANCH   5   6
ATOM      6  C   UNL A   1      33.123  34.428  29.130  1.00  0.00     0.338 C 
ATOM      7  O   UNL A   1      32.574  34.160  28.063  1.00  0.00    -0.246 OA
BRANCH   6   8
ATOM      8  C   UNL A   1      34.465  33.831  29.393  1.00  0.00     0.060 A 
ATOM      9  C   UNL A   1      34.704  32.758  30.255  1.00  0.00     0.016 A 
ATOM     10  C   UNL A   1      35.541  34.321  28.634  1.00  0.00     0.016 A 
ATOM     11  C   UNL A   1      35.980  32.237  30.425  1.00  0.00     0.010 A 
ATOM     12  C   UNL A   1      36.819  33.764  28.756  1.00  0.00     0.010 A 
ATOM     13  C   UNL A   1      37.042  32.727  29.666  1.00  0.00    -0.014 A 
BRANCH  13  14
ATOM     14  C   UNL A   1      38.384  32.160  29.890  1.00  0.00     0.031 A 
ATOM     15  C   UNL A   1      39.327  32.872  30.807  1.00  0.00     0.074 A 
ATOM     16  C   UNL A   1      38.684  30.956  29.369  1.00  0.00     0.049 A 
ATOM     17  N   UNL A   1      40.552  32.560  31.134  1.00  0.00    -0.248 NA
ATOM     18  C   UNL A   1      38.818  34.089  31.460  1.00  0.00     0.031 C 
ATOM     19  C   UNL A   1      37.776  30.141  28.558  1.00  0.00     0.029 A 
ATOM     20  N   UNL A   1      39.814  30.190  29.475  1.00  0.00    -0.354 N 
ATOM     21  C   UNL A   1      40.964  33.546  32.020  1.00  0.00     0.074 A 
ATOM     22  C   UNL A   1      39.866  34.472  32.174  1.00  0.00     0.031 C 
ATOM     23  C   UNL A   1      38.370  28.969  28.279  1.00  0.00     0.029 A 
ATOM     24  C   UNL A   1      39.720  28.981  28.830  1.00  0.00     0.049 A 
ATOM     25  H   UNL A   1      40.616  30.478  29.967  1.00  0.00     0.167 HD
ATOM     26  C   UNL A   1      42.158  33.659  32.643  1.00  0.00     0.037 A 
ATOM     27  C   UNL A   1      40.636  28.005  28.686  1.00  0.00     0.037 A 
ATOM     28  C   UNL A   1      43.238  32.729  32.462  1.00  0.00     0.049 A 
ATOM     29  C   UNL A   1      41.993  28.211  29.301  1.00  0.00     0.074 A 
ATOM     30  C   UNL A   1      44.526  32.788  32.961  1.00  0.00     0.029 A 
ATOM     31  N   UNL A   1      43.145  31.557  31.721  1.00  0.00    -0.354 N 
ATOM     32  N   UNL A   1      42.410  29.194  30.064  1.00  0.00    -0.248 NA
ATOM     33  C   UNL A   1      43.012  27.193  29.017  1.00  0.00     0.031 C 
ATOM     34  C   UNL A   1      45.221  31.667  32.495  1.00  0.00     0.029 A 
ATOM     35  C   UNL A   1      44.355  30.890  31.740  1.00  0.00     0.049 A 
ATOM     36  H   UNL A   1      42.336  31.250  31.252  1.00  0.00     0.167 HD
ATOM     37  C   UNL A   1      43.737  28.914  30.355  1.00  0.00     0.074 A 
ATOM     38  C   UNL A   1      44.049  27.655  29.705  1.00  0.00     0.031 C 
ATOM     39  C   UNL A   1      44.622  29.635  31.086  1.00  0.00     0.037 A 
BRANCH  26  40
ATOM     40  C   UNL A   1      42.361  34.851  33.525  1.00  0.00     0.057 A 
ATOM     41  C   UNL A   1      42.035  34.795  34.885  1.00  0.00     0.134 A 
ATOM     42  C   UNL A   1      42.883  36.054  33.033  1.00  0.00     0.134 A 
ATOM     43  F   UNL A   1      41.538  33.670  35.420  1.00  0.00    -0.206 F 
ATOM     44  C   UNL A   1      42.216  35.894  35.726  1.00  0.00     0.040 A 
ATOM     45  C   UNL A   1      43.086  37.155  33.868  1.00  0.00     0.040 A 
ATOM     46  F   UNL A   1      43.240  36.164  31.745  1.00  0.00    -0.206 F 
ATOM     47  C   UNL A   1      42.748  37.079  35.218  1.00  0.00     0.006 A 
ENDBRANCH  26  40
BRANCH  27  48
ATOM     48  C   UNL A   1      40.312  26.778  27.913  1.00  0.00     0.057 A 
ATOM     49  C   UNL A   1      39.542  25.747  28.467  1.00  0.00     0.134 A 
ATOM     50  C   UNL A   1      40.775  26.601  26.604  1.00  0.00     0.134 A 
ATOM     51  F   UNL A   1      39.065  25.852  29.716  1.00  0.00    -0.206 F 
ATOM     52  C   UNL A   1      39.261  24.578  27.758  1.00  0.00     0.040 A 
ATOM     53  C   UNL A   1      40.481  25.446  25.874  1.00  0.00     0.040 A 
ATOM     54  F   UNL A   1      41.500  27.559  26.009  1.00  0.00    -0.206 F 
ATOM     55  C   UNL A   1      39.729  24.427  26.454  1.00  0.00     0.006 A 
ENDBRANCH  27  48
BRANCH  39  56
ATOM     56  C   UNL A   1      46.003  29.074  31.230  1.00  0.00     0.057 A 
ATOM     57  C   UNL A   1      47.026  29.469  30.359  1.00  0.00     0.134 A 
ATOM     58  C   UNL A   1      46.293  28.081  32.173  1.00  0.00     0.134 A 
ATOM     59  F   UNL A   1      46.802  30.408  29.428  1.00  0.00    -0.206 F 
ATOM     60  C   UNL A   1      48.289  28.881  30.411  1.00  0.00     0.040 A 
ATOM     61  C   UNL A   1      47.559  27.502  32.249  1.00  0.00     0.040 A 
ATOM     62  F   UNL A   1      45.354  27.672  33.040  1.00  0.00    -0.206 F 
ATOM     63  C   UNL A   1      48.558  27.895  31.358  1.00  0.00     0.006 A 
ENDBRANCH  39  56
ENDBRANCH  13  14
ENDBRANCH   6   8
ENDBRANCH   5   6
ENDBRANCH   4   5
ENDBRANCH   3   4
ENDBRANCH   2   3
ENDBRANCH   1   2
BRANCH   1  64
ATOM     64  C   UNL A   1      34.779  33.509  33.797  1.00  0.00     0.261 C 
BRANCH  64  65
ATOM     65  O   UNL A   1      36.182  33.192  33.799  1.00  0.00    -0.460 OA
BRANCH  65  66
ATOM     66  C   UNL A   1      36.734  33.106  35.032  1.00  0.00     0.338 C 
ATOM     67  O   UNL A   1      36.327  33.590  36.074  1.00  0.00    -0.246 OA
BRANCH  66  68
ATOM     68  C   UNL A   1      37.782  32.073  34.966  1.00  0.00     0.063 A 
ATOM     69  C   UNL A   1      38.744  31.926  35.968  1.00  0.00     0.017 A 
ATOM     70  C   UNL A   1      37.854  31.311  33.797  1.00  0.00     0.056 A 
ATOM     71  C   UNL A   1      39.756  30.978  35.807  1.00  0.00     0.024 A 
ATOM     72  C   UNL A   1      38.918  30.442  33.607  1.00  0.00     0.142 A 
ATOM     73  C   UNL A   1      39.834  30.227  34.621  1.00  0.00     0.103 A 
ATOM     74  F   UNL A   1      39.058  29.886  32.400  1.00  0.00    -0.206 F 
BRANCH  73  75
ATOM     75  S   UNL A   1      41.106  29.007  34.511  1.00  0.00     0.186 S 
ATOM     76  O   UNL A   1      40.442  27.823  33.993  1.00  0.00    -0.223 OA
ATOM     77  O   UNL A   1      42.170  29.627  33.737  1.00  0.00    -0.223 OA
BRANCH  75  78
ATOM     78  C   UNL A   1      41.766  28.586  36.105  1.00  0.00     0.188 C 
BRANCH  78  79
ATOM     79  C   UNL A   1      43.071  27.845  36.089  1.00  0.00     0.020 A 
ATOM     80  C   UNL A   1      44.376  28.265  36.265  1.00  0.00     0.016 A 
ATOM     81  S   UNL A   1      43.012  26.146  35.785  1.00  0.00    -0.148 S 
ATOM     82  C   UNL A   1      45.303  27.180  36.267  1.00  0.00     0.012 A 
ATOM     83  C   UNL A   1      44.690  25.971  36.030  1.00  0.00     0.065 A 
ENDBRANCH  78  79
ENDBRANCH  75  78
ENDBRANCH  73  75
ENDBRANCH  66  68
ENDBRANCH  65  66
ENDBRANCH  64  65
ENDBRANCH   1  64
TORSDOF 17
ENDMDL
MODEL 2
REMARK VINA RESULT:      -8.7      4.582      9.679
REMARK SMILES O=C(OCCOCCOC(=O)c1ccc(S(=O)(=O)Cc2cccs2)c(F)c1)c1ccc(-c2c3nc(c(-c4c(F)cccc4F)c4ccc([nH]4)c(-c4c(F)cccc4F)c4nc(c(-c5c(F)cccc5F)c5ccc2[nH]5)C=C4)C=C3)cc1
REMARK SMILES IDX 7 1 6 2 5 3 4 4 3 5 2 6 1 7 28 8 29 9 81 10 30 11 80 12
REMARK SMILES IDX 31 13 32 14 33 15 74 16 34 17 79 18 73 19 75 20 35 21 78 22
REMARK SMILES IDX 72 23 71 24 36 26 62 27 45 28 61 29 46 30 49 31 60 32 76 33
REMARK SMILES IDX 47 34 48 35 59 37 77 38 50 39 37 40 38 41 43 42 39 43 40 44
REMARK SMILES IDX 42 45 44 46 41 47 63 48 64 49 69 50 65 51 66 52 68 53 70 54
REMARK SMILES IDX 67 55 51 56 52 57 57 58 53 59 54 60 56 61 58 62 55 63 8 64
REMARK SMILES IDX 9 65 10 66 11 67 12 68 13 69 27 70 14 71 25 72 15 73 26 74
REMARK SMILES IDX 16 75 17 76 18 77 19 78 20 79 21 80 24 81 22 82 23 83
REMARK H PARENT 75 25 49 36
REMARK Flexibility Score: inf
ROOT
ATOM      1  C   UNL A   1      34.452  33.008  29.361  1.00  0.00     0.202 C 
ENDROOT
BRANCH   1   2
ATOM      2  O   UNL A   1      33.224  33.736  29.209  1.00  0.00    -0.374 OA
BRANCH   2   3
ATOM      3  C   UNL A   1      33.359  35.065  28.701  1.00  0.00     0.202 C 
BRANCH   3   4
ATOM      4  C   UNL A   1      32.903  36.170  29.655  1.00  0.00     0.261 C 
BRANCH   4   5
ATOM      5  O   UNL A   1      32.366  35.597  30.857  1.00  0.00    -0.460 OA
BRANCH   5   6
ATOM      6  C   UNL A   1      32.869  35.657  32.111  1.00  0.00     0.338 C 
ATOM      7  O   UNL A   1      32.315  36.380  32.937  1.00  0.00    -0.246 OA
BRANCH   6   8
ATOM      8  C   UNL A   1      34.070  34.888  32.552  1.00  0.00     0.060 A 
ATOM      9  C   UNL A   1      34.030  33.652  33.200  1.00  0.00     0.016 A 
ATOM     10  C   UNL A   1      35.326  35.404  32.191  1.00  0.00     0.016 A 
ATOM     11  C   UNL A   1      35.194  32.982  33.552  1.00  0.00     0.010 A 
ATOM     12  C   UNL A   1      36.502  34.709  32.491  1.00  0.00     0.010 A 
ATOM     13  C   UNL A   1      36.436  33.499  33.188  1.00  0.00    -0.014 A 
BRANCH  13  14
ATOM     14  C   UNL A   1      37.648  32.767  33.598  1.00  0.00     0.031 A 
ATOM     15  C   UNL A   1      38.221  31.740  32.674  1.00  0.00     0.074 A 
ATOM     16  C   UNL A   1      38.281  33.126  34.731  1.00  0.00     0.049 A 
ATOM     17  N   UNL A   1      39.265  30.974  32.839  1.00  0.00    -0.248 NA
ATOM     18  C   UNL A   1      37.538  31.563  31.381  1.00  0.00     0.031 C 
ATOM     19  C   UNL A   1      37.851  34.199  35.630  1.00  0.00     0.029 A 
ATOM     20  N   UNL A   1      39.437  32.660  35.297  1.00  0.00    -0.354 N 
ATOM     21  C   UNL A   1      39.360  30.218  31.678  1.00  0.00     0.074 A 
ATOM     22  C   UNL A   1      38.264  30.607  30.821  1.00  0.00     0.031 C 
ATOM     23  C   UNL A   1      38.757  34.338  36.611  1.00  0.00     0.029 A 
ATOM     24  C   UNL A   1      39.791  33.322  36.447  1.00  0.00     0.049 A 
ATOM     25  H   UNL A   1      39.966  31.922  34.915  1.00  0.00     0.167 HD
ATOM     26  C   UNL A   1      40.284  29.282  31.368  1.00  0.00     0.037 A 
ATOM     27  C   UNL A   1      40.824  33.110  37.283  1.00  0.00     0.037 A 
ATOM     28  C   UNL A   1      41.358  28.906  32.245  1.00  0.00     0.049 A 
ATOM     29  C   UNL A   1      41.774  31.989  36.965  1.00  0.00     0.074 A 
ATOM     30  C   UNL A   1      42.298  27.906  32.085  1.00  0.00     0.029 A 
ATOM     31  N   UNL A   1      41.634  29.531  33.455  1.00  0.00    -0.354 N 
ATOM     32  N   UNL A   1      41.804  31.210  35.909  1.00  0.00    -0.248 NA
ATOM     33  C   UNL A   1      42.813  31.695  37.960  1.00  0.00     0.031 C 
ATOM     34  C   UNL A   1      43.125  27.905  33.214  1.00  0.00     0.029 A 
ATOM     35  C   UNL A   1      42.724  28.931  34.057  1.00  0.00     0.049 A 
ATOM     36  H   UNL A   1      41.128  30.288  33.827  1.00  0.00     0.167 HD
ATOM     37  C   UNL A   1      42.865  30.339  36.108  1.00  0.00     0.074 A 
ATOM     38  C   UNL A   1      43.468  30.700  37.377  1.00  0.00     0.031 C 
ATOM     39  C   UNL A   1      43.298  29.325  35.319  1.00  0.00     0.037 A 
BRANCH  26  40
ATOM     40  C   UNL A   1      40.132  28.577  30.056  1.00  0.00     0.057 A 
ATOM     41  C   UNL A   1      39.312  27.449  29.944  1.00  0.00     0.134 A 
ATOM     42  C   UNL A   1      40.791  29.017  28.900  1.00  0.00     0.134 A 
ATOM     43  F   UNL A   1      38.646  26.983  31.012  1.00  0.00    -0.206 F 
ATOM     44  C   UNL A   1      39.155  26.777  28.731  1.00  0.00     0.040 A 
ATOM     45  C   UNL A   1      40.628  28.364  27.676  1.00  0.00     0.040 A 
ATOM     46  F   UNL A   1      41.571  30.107  28.935  1.00  0.00    -0.206 F 
ATOM     47  C   UNL A   1      39.812  27.237  27.590  1.00  0.00     0.006 A 
ENDBRANCH  26  40
BRANCH  27  48
ATOM     48  C   UNL A   1      40.992  33.949  38.498  1.00  0.00     0.057 A 
ATOM     49  C   UNL A   1      41.850  35.057  38.509  1.00  0.00     0.134 A 
ATOM     50  C   UNL A   1      40.308  33.656  39.684  1.00  0.00     0.134 A 
ATOM     51  F   UNL A   1      42.534  35.395  37.407  1.00  0.00    -0.206 F 
ATOM     52  C   UNL A   1      42.036  35.830  39.656  1.00  0.00     0.040 A 
ATOM     53  C   UNL A   1      40.467  34.436  40.832  1.00  0.00     0.040 A 
ATOM     54  F   UNL A   1      39.458  32.621  39.734  1.00  0.00    -0.206 F 
ATOM     55  C   UNL A   1      41.340  35.521  40.823  1.00  0.00     0.006 A 
ENDBRANCH  27  48
BRANCH  39  56
ATOM     56  C   UNL A   1      44.483  28.546  35.799  1.00  0.00     0.057 A 
ATOM     57  C   UNL A   1      45.777  28.902  35.401  1.00  0.00     0.134 A 
ATOM     58  C   UNL A   1      44.331  27.395  36.580  1.00  0.00     0.134 A 
ATOM     59  F   UNL A   1      45.981  29.989  34.643  1.00  0.00    -0.206 F 
ATOM     60  C   UNL A   1      46.881  28.127  35.752  1.00  0.00     0.040 A 
ATOM     61  C   UNL A   1      45.431  26.625  36.956  1.00  0.00     0.040 A 
ATOM     62  F   UNL A   1      43.115  27.012  36.999  1.00  0.00    -0.206 F 
ATOM     63  C   UNL A   1      46.710  26.985  36.531  1.00  0.00     0.006 A 
ENDBRANCH  39  56
ENDBRANCH  13  14
ENDBRANCH   6   8
ENDBRANCH   5   6
ENDBRANCH   4   5
ENDBRANCH   3   4
ENDBRANCH   2   3
ENDBRANCH   1   2
BRANCH   1  64
ATOM     64  C   UNL A   1      34.897  32.453  28.003  1.00  0.00     0.261 C 
BRANCH  64  65
ATOM     65  O   UNL A   1      34.106  31.288  27.712  1.00  0.00    -0.460 OA
BRANCH  65  66
ATOM     66  C   UNL A   1      34.816  30.140  27.617  1.00  0.00     0.338 C 
ATOM     67  O   UNL A   1      35.938  29.911  28.037  1.00  0.00    -0.246 OA
BRANCH  66  68
ATOM     68  C   UNL A   1      33.886  29.092  27.162  1.00  0.00     0.063 A 
ATOM     69  C   UNL A   1      32.572  29.011  27.628  1.00  0.00     0.017 A 
ATOM     70  C   UNL A   1      34.404  28.098  26.327  1.00  0.00     0.056 A 
ATOM     71  C   UNL A   1      31.767  27.947  27.216  1.00  0.00     0.024 A 
ATOM     72  C   UNL A   1      33.624  26.998  26.002  1.00  0.00     0.142 A 
ATOM     73  C   UNL A   1      32.298  26.942  26.390  1.00  0.00     0.103 A 
ATOM     74  F   UNL A   1      34.219  25.980  25.372  1.00  0.00    -0.206 F 
BRANCH  73  75
ATOM     75  S   UNL A   1      31.205  25.659  25.863  1.00  0.00     0.186 S 
ATOM     76  O   UNL A   1      31.897  24.424  26.190  1.00  0.00    -0.223 OA
ATOM     77  O   UNL A   1      29.929  25.954  26.496  1.00  0.00    -0.223 OA
BRANCH  75  78
ATOM     78  C   UNL A   1      30.958  25.675  24.105  1.00  0.00     0.188 C 
BRANCH  78  79
ATOM     79  C   UNL A   1      30.421  26.958  23.539  1.00  0.00     0.020 A 
ATOM     80  C   UNL A   1      29.144  27.485  23.492  1.00  0.00     0.016 A 
ATOM     81  S   UNL A   1      31.549  28.019  22.776  1.00  0.00    -0.148 S 
ATOM     82  C   UNL A   1      29.118  28.800  22.939  1.00  0.00     0.012 A 
ATOM     83  C   UNL A   1      30.361  29.215  22.522  1.00  0.00     0.065 A 
ENDBRANCH  78  79
ENDBRANCH  75  78
ENDBRANCH  73  75
ENDBRANCH  66  68
ENDBRANCH  65  66
ENDBRANCH  64  65
ENDBRANCH   1  64
TORSDOF 17
ENDMDL
MODEL 3
REMARK VINA RESULT:      -8.6      4.623      7.733
REMARK SMILES O=C(OCCOCCOC(=O)c1ccc(S(=O)(=O)Cc2cccs2)c(F)c1)c1ccc(-c2c3nc(c(-c4c(F)cccc4F)c4ccc([nH]4)c(-c4c(F)cccc4F)c4nc(c(-c5c(F)cccc5F)c5ccc2[nH]5)C=C4)C=C3)cc1
REMARK SMILES IDX 7 1 6 2 5 3 4 4 3 5 2 6 1 7 28 8 29 9 81 10 30 11 80 12
REMARK SMILES IDX 31 13 32 14 33 15 74 16 34 17 79 18 73 19 75 20 35 21 78 22
REMARK SMILES IDX 72 23 71 24 36 26 62 27 45 28 61 29 46 30 49 31 60 32 76 33
REMARK SMILES IDX 47 34 48 35 59 37 77 38 50 39 37 40 38 41 43 42 39 43 40 44
REMARK SMILES IDX 42 45 44 46 41 47 63 48 64 49 69 50 65 51 66 52 68 53 70 54
REMARK SMILES IDX 67 55 51 56 52 57 57 58 53 59 54 60 56 61 58 62 55 63 8 64
REMARK SMILES IDX 9 65 10 66 11 67 12 68 13 69 27 70 14 71 25 72 15 73 26 74
REMARK SMILES IDX 16 75 17 76 18 77 19 78 20 79 21 80 24 81 22 82 23 83
REMARK H PARENT 75 25 49 36
REMARK Flexibility Score: inf
ROOT
ATOM      1  C   UNL A   1      34.204  33.156  29.268  1.00  0.00     0.202 C 
ENDROOT
BRANCH   1   2
ATOM      2  O   UNL A   1      33.052  34.006  29.163  1.00  0.00    -0.374 OA
BRANCH   2   3
ATOM      3  C   UNL A   1      33.308  35.323  28.669  1.00  0.00     0.202 C 
BRANCH   3   4
ATOM      4  C   UNL A   1      32.926  36.455  29.624  1.00  0.00     0.261 C 
BRANCH   4   5
ATOM      5  O   UNL A   1      32.188  35.935  30.741  1.00  0.00    -0.460 OA
BRANCH   5   6
ATOM      6  C   UNL A   1      32.601  35.785  32.020  1.00  0.00     0.338 C 
ATOM      7  O   UNL A   1      31.943  36.306  32.919  1.00  0.00    -0.246 OA
BRANCH   6   8
ATOM      8  C   UNL A   1      33.820  35.015  32.405  1.00  0.00     0.060 A 
ATOM      9  C   UNL A   1      33.813  33.710  32.903  1.00  0.00     0.016 A 
ATOM     10  C   UNL A   1      35.063  35.616  32.145  1.00  0.00     0.016 A 
ATOM     11  C   UNL A   1      34.994  33.047  33.211  1.00  0.00     0.010 A 
ATOM     12  C   UNL A   1      36.258  34.935  32.397  1.00  0.00     0.010 A 
ATOM     13  C   UNL A   1      36.223  33.649  32.947  1.00  0.00    -0.014 A 
BRANCH  13  14
ATOM     14  C   UNL A   1      37.452  32.920  33.306  1.00  0.00     0.031 A 
ATOM     15  C   UNL A   1      38.072  33.161  34.646  1.00  0.00     0.074 A 
ATOM     16  C   UNL A   1      37.916  31.966  32.478  1.00  0.00     0.049 A 
ATOM     17  N   UNL A   1      39.155  32.642  35.159  1.00  0.00    -0.248 NA
ATOM     18  C   UNL A   1      37.369  34.099  35.537  1.00  0.00     0.031 C 
ATOM     19  C   UNL A   1      37.301  31.587  31.204  1.00  0.00     0.029 A 
ATOM     20  N   UNL A   1      38.981  31.114  32.600  1.00  0.00    -0.354 N 
ATOM     21  C   UNL A   1      39.269  33.196  36.427  1.00  0.00     0.074 A 
ATOM     22  C   UNL A   1      38.155  34.099  36.604  1.00  0.00     0.031 C 
ATOM     23  C   UNL A   1      37.974  30.548  30.684  1.00  0.00     0.029 A 
ATOM     24  C   UNL A   1      39.105  30.236  31.551  1.00  0.00     0.049 A 
ATOM     25  H   UNL A   1      39.599  31.130  33.366  1.00  0.00     0.167 HD
ATOM     26  C   UNL A   1      40.227  32.966  37.352  1.00  0.00     0.037 A 
ATOM     27  C   UNL A   1      40.043  29.301  31.314  1.00  0.00     0.037 A 
ATOM     28  C   UNL A   1      41.331  32.071  37.145  1.00  0.00     0.049 A 
ATOM     29  C   UNL A   1      41.156  29.144  32.312  1.00  0.00     0.074 A 
ATOM     30  C   UNL A   1      42.416  31.827  37.967  1.00  0.00     0.029 A 
ATOM     31  N   UNL A   1      41.483  31.263  36.025  1.00  0.00    -0.354 N 
ATOM     32  N   UNL A   1      41.313  29.741  33.470  1.00  0.00    -0.248 NA
ATOM     33  C   UNL A   1      42.235  28.211  31.964  1.00  0.00     0.031 C 
ATOM     34  C   UNL A   1      43.240  30.895  37.329  1.00  0.00     0.029 A 
ATOM     35  C   UNL A   1      42.648  30.527  36.129  1.00  0.00     0.049 A 
ATOM     36  H   UNL A   1      40.853  31.222  35.270  1.00  0.00     0.167 HD
ATOM     37  C   UNL A   1      42.502  29.254  33.992  1.00  0.00     0.074 A 
ATOM     38  C   UNL A   1      43.016  28.295  33.034  1.00  0.00     0.031 C 
ATOM     39  C   UNL A   1      43.121  29.577  35.155  1.00  0.00     0.037 A 
BRANCH  26  40
ATOM     40  C   UNL A   1      40.139  33.733  38.635  1.00  0.00     0.057 A 
ATOM     41  C   UNL A   1      39.333  33.276  39.684  1.00  0.00     0.134 A 
ATOM     42  C   UNL A   1      40.854  34.920  38.837  1.00  0.00     0.134 A 
ATOM     43  F   UNL A   1      38.629  32.141  39.557  1.00  0.00    -0.206 F 
ATOM     44  C   UNL A   1      39.236  33.974  40.888  1.00  0.00     0.040 A 
ATOM     45  C   UNL A   1      40.780  35.619  40.044  1.00  0.00     0.040 A 
ATOM     46  F   UNL A   1      41.664  35.397  37.881  1.00  0.00    -0.206 F 
ATOM     47  C   UNL A   1      39.965  35.149  41.073  1.00  0.00     0.006 A 
ENDBRANCH  26  40
BRANCH  27  48
ATOM     48  C   UNL A   1      39.984  28.473  30.081  1.00  0.00     0.057 A 
ATOM     49  C   UNL A   1      39.268  27.269  30.041  1.00  0.00     0.134 A 
ATOM     50  C   UNL A   1      40.653  28.860  28.914  1.00  0.00     0.134 A 
ATOM     51  F   UNL A   1      38.603  26.840  31.124  1.00  0.00    -0.206 F 
ATOM     52  C   UNL A   1      39.235  26.472  28.896  1.00  0.00     0.040 A 
ATOM     53  C   UNL A   1      40.608  28.083  27.753  1.00  0.00     0.040 A 
ATOM     54  F   UNL A   1      41.340  30.011  28.879  1.00  0.00    -0.206 F 
ATOM     55  C   UNL A   1      39.905  26.881  27.745  1.00  0.00     0.006 A 
ENDBRANCH  27  48
BRANCH  39  56
ATOM     56  C   UNL A   1      44.410  28.879  35.457  1.00  0.00     0.057 A 
ATOM     57  C   UNL A   1      44.422  27.704  36.219  1.00  0.00     0.134 A 
ATOM     58  C   UNL A   1      45.641  29.420  35.068  1.00  0.00     0.134 A 
ATOM     59  F   UNL A   1      43.274  27.147  36.628  1.00  0.00    -0.206 F 
ATOM     60  C   UNL A   1      45.620  27.099  36.598  1.00  0.00     0.040 A 
ATOM     61  C   UNL A   1      46.844  28.811  35.423  1.00  0.00     0.040 A 
ATOM     62  F   UNL A   1      45.689  30.538  34.328  1.00  0.00    -0.206 F 
ATOM     63  C   UNL A   1      46.835  27.653  36.200  1.00  0.00     0.006 A 
ENDBRANCH  39  56
ENDBRANCH  13  14
ENDBRANCH   6   8
ENDBRANCH   5   6
ENDBRANCH   4   5
ENDBRANCH   3   4
ENDBRANCH   2   3
ENDBRANCH   1   2
BRANCH   1  64
ATOM     64  C   UNL A   1      34.493  32.504  27.911  1.00  0.00     0.261 C 
BRANCH  64  65
ATOM     65  O   UNL A   1      33.800  31.245  27.860  1.00  0.00    -0.460 OA
BRANCH  65  66
ATOM     66  C   UNL A   1      34.589  30.184  27.568  1.00  0.00     0.338 C 
ATOM     67  O   UNL A   1      35.771  30.031  27.826  1.00  0.00    -0.246 OA
BRANCH  66  68
ATOM     68  C   UNL A   1      33.702  29.094  27.128  1.00  0.00     0.063 A 
ATOM     69  C   UNL A   1      32.397  28.958  27.605  1.00  0.00     0.017 A 
ATOM     70  C   UNL A   1      34.257  28.118  26.295  1.00  0.00     0.056 A 
ATOM     71  C   UNL A   1      31.636  27.857  27.207  1.00  0.00     0.024 A 
ATOM     72  C   UNL A   1      33.524  26.982  25.983  1.00  0.00     0.142 A 
ATOM     73  C   UNL A   1      32.204  26.871  26.383  1.00  0.00     0.103 A 
ATOM     74  F   UNL A   1      34.158  25.988  25.354  1.00  0.00    -0.206 F 
BRANCH  73  75
ATOM     75  S   UNL A   1      31.165  25.538  25.872  1.00  0.00     0.186 S 
ATOM     76  O   UNL A   1      31.906  24.336  26.215  1.00  0.00    -0.223 OA
ATOM     77  O   UNL A   1      29.878  25.788  26.502  1.00  0.00    -0.223 OA
BRANCH  75  78
ATOM     78  C   UNL A   1      30.917  25.521  24.114  1.00  0.00     0.188 C 
BRANCH  78  79
ATOM     79  C   UNL A   1      30.447  26.815  23.515  1.00  0.00     0.020 A 
ATOM     80  C   UNL A   1      29.197  27.399  23.438  1.00  0.00     0.016 A 
ATOM     81  S   UNL A   1      31.633  27.808  22.749  1.00  0.00    -0.148 S 
ATOM     82  C   UNL A   1      29.238  28.702  22.859  1.00  0.00     0.012 A 
ATOM     83  C   UNL A   1      30.506  29.052  22.453  1.00  0.00     0.065 A 
ENDBRANCH  78  79
ENDBRANCH  75  78
ENDBRANCH  73  75
ENDBRANCH  66  68
ENDBRANCH  65  66
ENDBRANCH  64  65
ENDBRANCH   1  64
TORSDOF 17
ENDMDL
