MODEL 1
REMARK VINA RESULT:     -10.1      0.000      0.000
REMARK SMILES CC[C@@H]([NH3+])C(=O)N1CC[C@H](C(=O)OCCOCCOC(=O)c2ccc(-c3c4nc(c(-c5c(F)cccc5F)c5ccc([nH]5)c(-c5c(F)cccc5F)c5nc(c(-c6c(F)cccc6F)c6ccc3[nH]6)C=C5)C=C4)cc2)[C@@H]1C
REMARK SMILES IDX 15 1 14 2 13 3 11 4 12 5 10 6 7 7 8 8 76 9 9 10 77 11 5 12
REMARK SMILES IDX 6 13 3 14 2 15 1 16 4 17 16 21 17 22 18 23 19 24 20 25 21 26
REMARK SMILES IDX 22 27 23 28 75 29 24 30 74 31 25 32 26 33 27 34 68 35 28 36
REMARK SMILES IDX 73 37 67 38 69 39 29 40 72 41 66 42 65 43 30 45 56 46 39 47
REMARK SMILES IDX 55 48 40 49 43 50 54 51 70 52 41 53 42 54 53 56 71 57 44 58
REMARK SMILES IDX 31 59 32 60 37 61 33 62 34 63 36 64 38 65 35 66 57 67 58 68
REMARK SMILES IDX 63 69 59 70 60 71 62 72 64 73 61 74 45 75 46 76 51 77 47 78
REMARK SMILES IDX 48 79 50 80 52 81 49 82
REMARK H PARENT 4 18 4 19 4 20 69 44 43 55
REMARK Flexibility Score: inf
ROOT
ATOM      1  C   UNL A   1      38.253  23.003  26.092  1.00  0.00     0.202 C 
ENDROOT
BRANCH   1   2
ATOM      2  C   UNL A   1      37.041  23.505  25.306  1.00  0.00     0.261 C 
BRANCH   2   3
ATOM      3  O   UNL A   1      36.754  22.806  24.079  1.00  0.00    -0.463 OA
BRANCH   3   4
ATOM      4  C   UNL A   1      35.449  22.845  23.680  1.00  0.00     0.311 C 
ATOM      5  O   UNL A   1      35.068  23.335  22.625  1.00  0.00    -0.252 OA
BRANCH   4   6
ATOM      6  C   UNL A   1      34.519  22.308  24.762  1.00  0.00     0.123 C 
ATOM      7  N   UNL A   1      33.354  20.234  24.465  1.00  0.00    -0.334 N 
ATOM      8  C   UNL A   1      32.737  21.214  23.595  1.00  0.00     0.121 C 
ATOM      9  C   UNL A   1      34.541  20.796  25.093  1.00  0.00     0.096 C 
ATOM     10  C   UNL A   1      33.069  22.527  24.294  1.00  0.00     0.039 C 
ATOM     11  C   UNL A   1      35.755  20.019  24.614  1.00  0.00     0.032 C 
BRANCH   7  12
ATOM     12  C   UNL A   1      32.825  18.969  24.615  1.00  0.00     0.280 C 
ATOM     13  O   UNL A   1      32.289  18.643  25.682  1.00  0.00    -0.268 OA
BRANCH  12  14
ATOM     14  C   UNL A   1      33.107  17.852  23.546  1.00  0.00     0.270 C 
BRANCH  14  15
ATOM     15  C   UNL A   1      33.474  16.429  23.988  1.00  0.00     0.072 C 
ATOM     16  C   UNL A   1      34.748  16.341  24.825  1.00  0.00     0.011 C 
ENDBRANCH  14  15
BRANCH  14  17
ATOM     17  N   UNL A   1      31.952  17.842  22.618  1.00  0.00    -0.347 N 
ATOM     18  H   UNL A   1      31.346  18.637  22.820  1.00  0.00     0.345 HD
ATOM     19  H   UNL A   1      31.427  16.976  22.739  1.00  0.00     0.345 HD
ATOM     20  H   UNL A   1      32.287  17.906  21.657  1.00  0.00     0.345 HD
ENDBRANCH  14  17
ENDBRANCH  12  14
ENDBRANCH   7  12
ENDBRANCH   4   6
ENDBRANCH   3   4
ENDBRANCH   2   3
ENDBRANCH   1   2
BRANCH   1  21
ATOM     21  O   UNL A   1      38.420  21.611  26.276  1.00  0.00    -0.374 OA
BRANCH  21  22
ATOM     22  C   UNL A   1      39.310  20.862  25.463  1.00  0.00     0.202 C 
BRANCH  22  23
ATOM     23  C   UNL A   1      40.041  19.642  26.025  1.00  0.00     0.261 C 
BRANCH  23  24
ATOM     24  O   UNL A   1      41.209  19.207  25.364  1.00  0.00    -0.460 OA
BRANCH  24  25
ATOM     25  C   UNL A   1      42.343  19.103  26.067  1.00  0.00     0.338 C 
ATOM     26  O   UNL A   1      43.049  18.137  26.255  1.00  0.00    -0.246 OA
BRANCH  25  27
ATOM     27  C   UNL A   1      42.569  20.496  26.469  1.00  0.00     0.060 A 
ATOM     28  C   UNL A   1      42.899  21.428  25.485  1.00  0.00     0.016 A 
ATOM     29  C   UNL A   1      42.262  20.886  27.778  1.00  0.00     0.016 A 
ATOM     30  C   UNL A   1      42.973  22.772  25.828  1.00  0.00     0.010 A 
ATOM     31  C   UNL A   1      42.325  22.230  28.118  1.00  0.00     0.010 A 
ATOM     32  C   UNL A   1      42.717  23.170  27.150  1.00  0.00    -0.014 A 
BRANCH  32  33
ATOM     33  C   UNL A   1      43.037  24.546  27.571  1.00  0.00     0.031 A 
ATOM     34  C   UNL A   1      44.482  24.949  27.593  1.00  0.00     0.074 A 
ATOM     35  C   UNL A   1      42.063  25.407  27.904  1.00  0.00     0.049 A 
ATOM     36  N   UNL A   1      45.018  26.096  27.912  1.00  0.00    -0.248 NA
ATOM     37  C   UNL A   1      45.455  23.913  27.207  1.00  0.00     0.031 C 
ATOM     38  C   UNL A   1      40.632  25.112  27.894  1.00  0.00     0.029 A 
ATOM     39  N   UNL A   1      42.138  26.713  28.312  1.00  0.00    -0.354 N 
ATOM     40  C   UNL A   1      46.388  25.919  27.766  1.00  0.00     0.074 A 
ATOM     41  C   UNL A   1      46.605  24.544  27.377  1.00  0.00     0.031 C 
ATOM     42  C   UNL A   1      39.958  26.214  28.266  1.00  0.00     0.029 A 
ATOM     43  C   UNL A   1      40.914  27.278  28.567  1.00  0.00     0.049 A 
ATOM     44  H   UNL A   1      42.987  27.199  28.413  1.00  0.00     0.167 HD
ATOM     45  C   UNL A   1      47.374  26.830  27.924  1.00  0.00     0.037 A 
ATOM     46  C   UNL A   1      40.611  28.516  29.002  1.00  0.00     0.037 A 
ATOM     47  C   UNL A   1      47.139  28.192  28.320  1.00  0.00     0.049 A 
ATOM     48  C   UNL A   1      41.733  29.488  29.251  1.00  0.00     0.074 A 
ATOM     49  C   UNL A   1      48.055  29.212  28.491  1.00  0.00     0.029 A 
ATOM     50  N   UNL A   1      45.889  28.716  28.622  1.00  0.00    -0.354 N 
ATOM     51  N   UNL A   1      43.023  29.331  29.065  1.00  0.00    -0.248 NA
ATOM     52  C   UNL A   1      41.358  30.809  29.773  1.00  0.00     0.031 C 
ATOM     53  C   UNL A   1      47.366  30.339  28.951  1.00  0.00     0.029 A 
ATOM     54  C   UNL A   1      46.013  30.037  29.013  1.00  0.00     0.049 A 
ATOM     55  H   UNL A   1      45.040  28.221  28.566  1.00  0.00     0.167 HD
ATOM     56  C   UNL A   1      43.611  30.539  29.418  1.00  0.00     0.074 A 
ATOM     57  C   UNL A   1      42.534  31.422  29.821  1.00  0.00     0.031 C 
ATOM     58  C   UNL A   1      44.921  30.891  29.409  1.00  0.00     0.037 A 
BRANCH  45  59
ATOM     59  C   UNL A   1      48.781  26.360  27.704  1.00  0.00     0.057 A 
ATOM     60  C   UNL A   1      49.574  25.866  28.749  1.00  0.00     0.134 A 
ATOM     61  C   UNL A   1      49.361  26.423  26.430  1.00  0.00     0.134 A 
ATOM     62  F   UNL A   1      49.087  25.800  29.999  1.00  0.00    -0.206 F 
ATOM     63  C   UNL A   1      50.901  25.484  28.543  1.00  0.00     0.040 A 
ATOM     64  C   UNL A   1      50.677  26.016  26.206  1.00  0.00     0.040 A 
ATOM     65  F   UNL A   1      48.661  26.889  25.385  1.00  0.00    -0.206 F 
ATOM     66  C   UNL A   1      51.454  25.556  27.267  1.00  0.00     0.006 A 
ENDBRANCH  45  59
BRANCH  46  67
ATOM     67  C   UNL A   1      39.196  28.909  29.209  1.00  0.00     0.057 A 
ATOM     68  C   UNL A   1      38.574  28.738  30.451  1.00  0.00     0.134 A 
ATOM     69  C   UNL A   1      38.430  29.465  28.176  1.00  0.00     0.134 A 
ATOM     70  F   UNL A   1      39.248  28.193  31.473  1.00  0.00    -0.206 F 
ATOM     71  C   UNL A   1      37.239  29.093  30.656  1.00  0.00     0.040 A 
ATOM     72  C   UNL A   1      37.101  29.846  28.375  1.00  0.00     0.040 A 
ATOM     73  F   UNL A   1      38.967  29.659  26.963  1.00  0.00    -0.206 F 
ATOM     74  C   UNL A   1      36.501  29.655  29.617  1.00  0.00     0.006 A 
ENDBRANCH  46  67
BRANCH  58  75
ATOM     75  C   UNL A   1      45.256  32.295  29.818  1.00  0.00     0.057 A 
ATOM     76  C   UNL A   1      45.246  33.354  28.902  1.00  0.00     0.134 A 
ATOM     77  C   UNL A   1      45.540  32.597  31.156  1.00  0.00     0.134 A 
ATOM     78  F   UNL A   1      44.994  33.128  27.604  1.00  0.00    -0.206 F 
ATOM     79  C   UNL A   1      45.525  34.661  29.299  1.00  0.00     0.040 A 
ATOM     80  C   UNL A   1      45.793  33.904  31.571  1.00  0.00     0.040 A 
ATOM     81  F   UNL A   1      45.555  31.629  32.085  1.00  0.00    -0.206 F 
ATOM     82  C   UNL A   1      45.791  34.940  30.639  1.00  0.00     0.006 A 
ENDBRANCH  58  75
ENDBRANCH  32  33
ENDBRANCH  25  27
ENDBRANCH  24  25
ENDBRANCH  23  24
ENDBRANCH  22  23
ENDBRANCH  21  22
ENDBRANCH   1  21
TORSDOF 18
ENDMDL
MODEL 2
REMARK VINA RESULT:     -10.0      1.627      2.941
REMARK SMILES CC[C@@H]([NH3+])C(=O)N1CC[C@H](C(=O)OCCOCCOC(=O)c2ccc(-c3c4nc(c(-c5c(F)cccc5F)c5ccc([nH]5)c(-c5c(F)cccc5F)c5nc(c(-c6c(F)cccc6F)c6ccc3[nH]6)C=C5)C=C4)cc2)[C@@H]1C
REMARK SMILES IDX 15 1 14 2 13 3 11 4 12 5 10 6 7 7 8 8 76 9 9 10 77 11 5 12
REMARK SMILES IDX 6 13 3 14 2 15 1 16 4 17 16 21 17 22 18 23 19 24 20 25 21 26
REMARK SMILES IDX 22 27 23 28 75 29 24 30 74 31 25 32 26 33 27 34 68 35 28 36
REMARK SMILES IDX 73 37 67 38 69 39 29 40 72 41 66 42 65 43 30 45 56 46 39 47
REMARK SMILES IDX 55 48 40 49 43 50 54 51 70 52 41 53 42 54 53 56 71 57 44 58
REMARK SMILES IDX 31 59 32 60 37 61 33 62 34 63 36 64 38 65 35 66 57 67 58 68
REMARK SMILES IDX 63 69 59 70 60 71 62 72 64 73 61 74 45 75 46 76 51 77 47 78
REMARK SMILES IDX 48 79 50 80 52 81 49 82
REMARK H PARENT 4 18 4 19 4 20 69 44 43 55
REMARK Flexibility Score: inf
ROOT
ATOM      1  C   UNL A   1      37.739  22.375  25.694  1.00  0.00     0.202 C 
ENDROOT
BRANCH   1   2
ATOM      2  C   UNL A   1      36.754  22.288  24.528  1.00  0.00     0.261 C 
BRANCH   2   3
ATOM      3  O   UNL A   1      35.747  21.262  24.628  1.00  0.00    -0.463 OA
BRANCH   3   4
ATOM      4  C   UNL A   1      34.641  21.603  25.351  1.00  0.00     0.311 C 
ATOM      5  O   UNL A   1      34.480  21.327  26.532  1.00  0.00    -0.252 OA
BRANCH   4   6
ATOM      6  C   UNL A   1      33.585  22.266  24.472  1.00  0.00     0.123 C 
ATOM      7  N   UNL A   1      31.836  23.591  25.439  1.00  0.00    -0.334 N 
ATOM      8  C   UNL A   1      31.557  22.203  25.745  1.00  0.00     0.121 C 
ATOM      9  C   UNL A   1      33.136  23.712  24.795  1.00  0.00     0.096 C 
ATOM     10  C   UNL A   1      32.276  21.469  24.620  1.00  0.00     0.039 C 
ATOM     11  C   UNL A   1      34.052  24.515  25.702  1.00  0.00     0.032 C 
BRANCH   7  12
ATOM     12  C   UNL A   1      30.941  24.592  25.753  1.00  0.00     0.280 C 
ATOM     13  O   UNL A   1      30.417  24.626  26.874  1.00  0.00    -0.268 OA
BRANCH  12  14
ATOM     14  C   UNL A   1      30.386  25.547  24.636  1.00  0.00     0.270 C 
BRANCH  14  15
ATOM     15  C   UNL A   1      31.236  26.718  24.122  1.00  0.00     0.072 C 
ATOM     16  C   UNL A   1      31.707  26.565  22.678  1.00  0.00     0.011 C 
ENDBRANCH  14  15
BRANCH  14  17
ATOM     17  N   UNL A   1      29.931  24.687  23.519  1.00  0.00    -0.347 N 
ATOM     18  H   UNL A   1      30.742  24.332  23.011  1.00  0.00     0.345 HD
ATOM     19  H   UNL A   1      29.346  25.233  22.887  1.00  0.00     0.345 HD
ATOM     20  H   UNL A   1      29.393  23.904  23.890  1.00  0.00     0.345 HD
ENDBRANCH  14  17
ENDBRANCH  12  14
ENDBRANCH   7  12
ENDBRANCH   4   6
ENDBRANCH   3   4
ENDBRANCH   2   3
ENDBRANCH   1   2
BRANCH   1  21
ATOM     21  O   UNL A   1      38.898  21.564  25.672  1.00  0.00    -0.374 OA
BRANCH  21  22
ATOM     22  C   UNL A   1      38.820  20.177  25.382  1.00  0.00     0.202 C 
BRANCH  22  23
ATOM     23  C   UNL A   1      39.861  19.204  25.939  1.00  0.00     0.261 C 
BRANCH  23  24
ATOM     24  O   UNL A   1      41.140  19.190  25.343  1.00  0.00    -0.460 OA
BRANCH  24  25
ATOM     25  C   UNL A   1      42.214  19.090  26.135  1.00  0.00     0.338 C 
ATOM     26  O   UNL A   1      42.870  18.114  26.425  1.00  0.00    -0.246 OA
BRANCH  25  27
ATOM     27  C   UNL A   1      42.458  20.494  26.480  1.00  0.00     0.060 A 
ATOM     28  C   UNL A   1      42.601  21.419  25.446  1.00  0.00     0.016 A 
ATOM     29  C   UNL A   1      42.349  20.896  27.817  1.00  0.00     0.016 A 
ATOM     30  C   UNL A   1      42.688  22.771  25.759  1.00  0.00     0.010 A 
ATOM     31  C   UNL A   1      42.423  22.247  28.128  1.00  0.00     0.010 A 
ATOM     32  C   UNL A   1      42.630  23.182  27.100  1.00  0.00    -0.014 A 
BRANCH  32  33
ATOM     33  C   UNL A   1      42.971  24.573  27.450  1.00  0.00     0.031 A 
ATOM     34  C   UNL A   1      44.408  24.987  27.340  1.00  0.00     0.074 A 
ATOM     35  C   UNL A   1      42.019  25.437  27.835  1.00  0.00     0.049 A 
ATOM     36  N   UNL A   1      44.958  26.147  27.578  1.00  0.00    -0.248 NA
ATOM     37  C   UNL A   1      45.356  23.946  26.908  1.00  0.00     0.031 C 
ATOM     38  C   UNL A   1      40.594  25.131  27.953  1.00  0.00     0.029 A 
ATOM     39  N   UNL A   1      42.114  26.756  28.195  1.00  0.00    -0.354 N 
ATOM     40  C   UNL A   1      46.312  25.975  27.324  1.00  0.00     0.074 A 
ATOM     41  C   UNL A   1      46.510  24.590  26.963  1.00  0.00     0.031 C 
ATOM     42  C   UNL A   1      39.943  26.240  28.344  1.00  0.00     0.029 A 
ATOM     43  C   UNL A   1      40.910  27.320  28.532  1.00  0.00     0.049 A 
ATOM     44  H   UNL A   1      42.964  27.250  28.210  1.00  0.00     0.167 HD
ATOM     45  C   UNL A   1      47.299  26.898  27.373  1.00  0.00     0.037 A 
ATOM     46  C   UNL A   1      40.632  28.569  28.951  1.00  0.00     0.037 A 
ATOM     47  C   UNL A   1      47.084  28.270  27.743  1.00  0.00     0.049 A 
ATOM     48  C   UNL A   1      41.761  29.556  29.077  1.00  0.00     0.074 A 
ATOM     49  C   UNL A   1      48.002  29.301  27.807  1.00  0.00     0.029 A 
ATOM     50  N   UNL A   1      45.859  28.794  28.131  1.00  0.00    -0.354 N 
ATOM     51  N   UNL A   1      43.032  29.403  28.790  1.00  0.00    -0.248 NA
ATOM     52  C   UNL A   1      41.418  30.890  29.587  1.00  0.00     0.031 C 
ATOM     53  C   UNL A   1      47.342  30.438  28.287  1.00  0.00     0.029 A 
ATOM     54  C   UNL A   1      46.002  30.128  28.470  1.00  0.00     0.049 A 
ATOM     55  H   UNL A   1      45.013  28.291  28.161  1.00  0.00     0.167 HD
ATOM     56  C   UNL A   1      43.636  30.626  29.055  1.00  0.00     0.074 A 
ATOM     57  C   UNL A   1      42.587  31.513  29.519  1.00  0.00     0.031 C 
ATOM     58  C   UNL A   1      44.937  30.986  28.927  1.00  0.00     0.037 A 
BRANCH  45  59
ATOM     59  C   UNL A   1      48.688  26.431  27.051  1.00  0.00     0.057 A 
ATOM     60  C   UNL A   1      49.194  26.445  25.744  1.00  0.00     0.134 A 
ATOM     61  C   UNL A   1      49.525  25.939  28.061  1.00  0.00     0.134 A 
ATOM     62  F   UNL A   1      48.437  26.883  24.726  1.00  0.00    -0.206 F 
ATOM     63  C   UNL A   1      50.467  25.955  25.447  1.00  0.00     0.040 A 
ATOM     64  C   UNL A   1      50.811  25.474  27.781  1.00  0.00     0.040 A 
ATOM     65  F   UNL A   1      49.104  25.894  29.333  1.00  0.00    -0.206 F 
ATOM     66  C   UNL A   1      51.281  25.471  26.469  1.00  0.00     0.006 A 
ENDBRANCH  45  59
BRANCH  46  67
ATOM     67  C   UNL A   1      39.235  28.958  29.263  1.00  0.00     0.057 A 
ATOM     68  C   UNL A   1      38.402  29.504  28.280  1.00  0.00     0.134 A 
ATOM     69  C   UNL A   1      38.696  28.795  30.546  1.00  0.00     0.134 A 
ATOM     70  F   UNL A   1      38.865  29.703  27.038  1.00  0.00    -0.206 F 
ATOM     71  C   UNL A   1      37.088  29.885  28.562  1.00  0.00     0.040 A 
ATOM     72  C   UNL A   1      37.377  29.150  30.836  1.00  0.00     0.040 A 
ATOM     73  F   UNL A   1      39.440  28.275  31.531  1.00  0.00    -0.206 F 
ATOM     74  C   UNL A   1      36.571  29.702  29.843  1.00  0.00     0.006 A 
ENDBRANCH  46  67
BRANCH  58  75
ATOM     75  C   UNL A   1      45.291  32.405  29.263  1.00  0.00     0.057 A 
ATOM     76  C   UNL A   1      45.152  33.442  28.333  1.00  0.00     0.134 A 
ATOM     77  C   UNL A   1      45.726  32.743  30.551  1.00  0.00     0.134 A 
ATOM     78  F   UNL A   1      44.752  33.181  27.079  1.00  0.00    -0.206 F 
ATOM     79  C   UNL A   1      45.451  34.763  28.666  1.00  0.00     0.040 A 
ATOM     80  C   UNL A   1      46.001  34.064  30.905  1.00  0.00     0.040 A 
ATOM     81  F   UNL A   1      45.871  31.798  31.492  1.00  0.00    -0.206 F 
ATOM     82  C   UNL A   1      45.868  35.078  29.958  1.00  0.00     0.006 A 
ENDBRANCH  58  75
ENDBRANCH  32  33
ENDBRANCH  25  27
ENDBRANCH  24  25
ENDBRANCH  23  24
ENDBRANCH  22  23
ENDBRANCH  21  22
ENDBRANCH   1  21
TORSDOF 18
ENDMDL
MODEL 3
REMARK VINA RESULT:      -9.9      5.872     10.472
REMARK SMILES CC[C@@H]([NH3+])C(=O)N1CC[C@H](C(=O)OCCOCCOC(=O)c2ccc(-c3c4nc(c(-c5c(F)cccc5F)c5ccc([nH]5)c(-c5c(F)cccc5F)c5nc(c(-c6c(F)cccc6F)c6ccc3[nH]6)C=C5)C=C4)cc2)[C@@H]1C
REMARK SMILES IDX 15 1 14 2 13 3 11 4 12 5 10 6 7 7 8 8 76 9 9 10 77 11 5 12
REMARK SMILES IDX 6 13 3 14 2 15 1 16 4 17 16 21 17 22 18 23 19 24 20 25 21 26
REMARK SMILES IDX 22 27 23 28 75 29 24 30 74 31 25 32 26 33 27 34 68 35 28 36
REMARK SMILES IDX 73 37 67 38 69 39 29 40 72 41 66 42 65 43 30 45 56 46 39 47
REMARK SMILES IDX 55 48 40 49 43 50 54 51 70 52 41 53 42 54 53 56 71 57 44 58
REMARK SMILES IDX 31 59 32 60 37 61 33 62 34 63 36 64 38 65 35 66 57 67 58 68
REMARK SMILES IDX 63 69 59 70 60 71 62 72 64 73 61 74 45 75 46 76 51 77 47 78
REMARK SMILES IDX 48 79 50 80 52 81 49 82
REMARK H PARENT 4 18 4 19 4 20 69 44 43 55
REMARK Flexibility Score: inf
ROOT
ATOM      1  C   UNL A   1      34.173  29.898  27.272  1.00  0.00     0.202 C 
ENDROOT
BRANCH   1   2
ATOM      2  C   UNL A   1      34.266  28.522  26.614  1.00  0.00     0.261 C 
BRANCH   2   3
ATOM      3  O   UNL A   1      34.515  28.518  25.195  1.00  0.00    -0.463 OA
BRANCH   3   4
ATOM      4  C   UNL A   1      33.619  27.807  24.449  1.00  0.00     0.311 C 
ATOM      5  O   UNL A   1      33.734  26.618  24.188  1.00  0.00    -0.252 OA
BRANCH   4   6
ATOM      6  C   UNL A   1      32.523  28.708  23.889  1.00  0.00     0.123 C 
ATOM      7  N   UNL A   1      30.291  27.887  23.592  1.00  0.00    -0.334 N 
ATOM      8  C   UNL A   1      31.123  27.276  22.576  1.00  0.00     0.121 C 
ATOM      9  C   UNL A   1      31.110  28.655  24.519  1.00  0.00     0.096 C 
ATOM     10  C   UNL A   1      32.257  28.283  22.434  1.00  0.00     0.039 C 
ATOM     11  C   UNL A   1      31.008  28.018  25.894  1.00  0.00     0.032 C 
BRANCH   7  12
ATOM     12  C   UNL A   1      28.923  27.710  23.604  1.00  0.00     0.280 C 
ATOM     13  O   UNL A   1      28.445  26.573  23.710  1.00  0.00    -0.268 OA
BRANCH  12  14
ATOM     14  C   UNL A   1      27.959  28.897  23.240  1.00  0.00     0.270 C 
BRANCH  14  15
ATOM     15  C   UNL A   1      28.334  29.888  22.129  1.00  0.00     0.072 C 
ATOM     16  C   UNL A   1      28.931  31.200  22.634  1.00  0.00     0.011 C 
ENDBRANCH  14  15
BRANCH  14  17
ATOM     17  N   UNL A   1      26.621  28.308  23.000  1.00  0.00    -0.347 N 
ATOM     18  H   UNL A   1      26.102  28.896  22.348  1.00  0.00     0.345 HD
ATOM     19  H   UNL A   1      26.114  28.249  23.883  1.00  0.00     0.345 HD
ATOM     20  H   UNL A   1      26.727  27.373  22.605  1.00  0.00     0.345 HD
ENDBRANCH  14  17
ENDBRANCH  12  14
ENDBRANCH   7  12
ENDBRANCH   4   6
ENDBRANCH   3   4
ENDBRANCH   2   3
ENDBRANCH   1   2
BRANCH   1  21
ATOM     21  O   UNL A   1      33.521  30.945  26.578  1.00  0.00    -0.374 OA
BRANCH  21  22
ATOM     22  C   UNL A   1      32.237  31.402  26.974  1.00  0.00     0.202 C 
BRANCH  22  23
ATOM     23  C   UNL A   1      31.990  32.884  27.258  1.00  0.00     0.261 C 
BRANCH  23  24
ATOM     24  O   UNL A   1      33.110  33.737  27.352  1.00  0.00    -0.460 OA
BRANCH  24  25
ATOM     25  C   UNL A   1      33.299  34.424  28.485  1.00  0.00     0.338 C 
ATOM     26  O   UNL A   1      32.643  35.325  28.959  1.00  0.00    -0.246 OA
BRANCH  25  27
ATOM     27  C   UNL A   1      34.453  33.728  29.064  1.00  0.00     0.060 A 
ATOM     28  C   UNL A   1      35.731  34.217  28.793  1.00  0.00     0.016 A 
ATOM     29  C   UNL A   1      34.236  32.723  30.016  1.00  0.00     0.016 A 
ATOM     30  C   UNL A   1      36.820  33.657  29.450  1.00  0.00     0.010 A 
ATOM     31  C   UNL A   1      35.323  32.172  30.680  1.00  0.00     0.010 A 
ATOM     32  C   UNL A   1      36.620  32.615  30.369  1.00  0.00    -0.014 A 
BRANCH  32  33
ATOM     33  C   UNL A   1      37.779  31.856  30.872  1.00  0.00     0.031 A 
ATOM     34  C   UNL A   1      38.252  32.148  32.265  1.00  0.00     0.074 A 
ATOM     35  C   UNL A   1      38.376  30.926  30.110  1.00  0.00     0.049 A 
ATOM     36  N   UNL A   1      39.235  31.613  32.937  1.00  0.00    -0.248 NA
ATOM     37  C   UNL A   1      37.515  33.191  32.999  1.00  0.00     0.031 C 
ATOM     38  C   UNL A   1      37.975  30.560  28.752  1.00  0.00     0.029 A 
ATOM     39  N   UNL A   1      39.447  30.116  30.378  1.00  0.00    -0.354 N 
ATOM     40  C   UNL A   1      39.235  32.253  34.169  1.00  0.00     0.074 A 
ATOM     41  C   UNL A   1      38.188  33.249  34.137  1.00  0.00     0.031 C 
ATOM     42  C   UNL A   1      38.785  29.583  28.309  1.00  0.00     0.029 A 
ATOM     43  C   UNL A   1      39.774  29.279  29.340  1.00  0.00     0.049 A 
ATOM     44  H   UNL A   1      39.934  30.131  31.232  1.00  0.00     0.167 HD
ATOM     45  C   UNL A   1      40.029  32.018  35.238  1.00  0.00     0.037 A 
ATOM     46  C   UNL A   1      40.769  28.378  29.244  1.00  0.00     0.037 A 
ATOM     47  C   UNL A   1      41.071  31.029  35.249  1.00  0.00     0.049 A 
ATOM     48  C   UNL A   1      41.692  28.191  30.418  1.00  0.00     0.074 A 
ATOM     49  C   UNL A   1      41.925  30.684  36.280  1.00  0.00     0.029 A 
ATOM     50  N   UNL A   1      41.410  30.236  34.161  1.00  0.00    -0.354 N 
ATOM     51  N   UNL A   1      41.658  28.764  31.599  1.00  0.00    -0.248 NA
ATOM     52  C   UNL A   1      42.793  27.234  30.247  1.00  0.00     0.031 C 
ATOM     53  C   UNL A   1      42.817  29.721  35.798  1.00  0.00     0.029 A 
ATOM     54  C   UNL A   1      42.485  29.425  34.484  1.00  0.00     0.049 A 
ATOM     55  H   UNL A   1      40.954  30.248  33.288  1.00  0.00     0.167 HD
ATOM     56  C   UNL A   1      42.712  28.218  32.320  1.00  0.00     0.074 A 
ATOM     57  C   UNL A   1      43.361  27.261  31.447  1.00  0.00     0.031 C 
ATOM     58  C   UNL A   1      43.108  28.481  33.591  1.00  0.00     0.037 A 
BRANCH  45  59
ATOM     59  C   UNL A   1      39.811  32.871  36.453  1.00  0.00     0.057 A 
ATOM     60  C   UNL A   1      40.556  34.035  36.688  1.00  0.00     0.134 A 
ATOM     61  C   UNL A   1      38.857  32.511  37.414  1.00  0.00     0.134 A 
ATOM     62  F   UNL A   1      41.502  34.425  35.819  1.00  0.00    -0.206 F 
ATOM     63  C   UNL A   1      40.384  34.790  37.850  1.00  0.00     0.040 A 
ATOM     64  C   UNL A   1      38.655  33.275  38.564  1.00  0.00     0.040 A 
ATOM     65  F   UNL A   1      38.111  31.408  37.254  1.00  0.00    -0.206 F 
ATOM     66  C   UNL A   1      39.429  34.412  38.790  1.00  0.00     0.006 A 
ENDBRANCH  45  59
BRANCH  46  67
ATOM     67  C   UNL A   1      40.932  27.576  28.006  1.00  0.00     0.057 A 
ATOM     68  C   UNL A   1      40.318  26.326  27.870  1.00  0.00     0.134 A 
ATOM     69  C   UNL A   1      41.702  28.036  26.930  1.00  0.00     0.134 A 
ATOM     70  F   UNL A   1      39.584  25.822  28.872  1.00  0.00    -0.206 F 
ATOM     71  C   UNL A   1      40.472  25.556  26.715  1.00  0.00     0.040 A 
ATOM     72  C   UNL A   1      41.845  27.286  25.760  1.00  0.00     0.040 A 
ATOM     73  F   UNL A   1      42.313  29.227  26.995  1.00  0.00    -0.206 F 
ATOM     74  C   UNL A   1      41.233  26.040  25.653  1.00  0.00     0.006 A 
ENDBRANCH  46  67
BRANCH  58  75
ATOM     75  C   UNL A   1      44.276  27.701  34.118  1.00  0.00     0.057 A 
ATOM     76  C   UNL A   1      45.584  28.201  34.064  1.00  0.00     0.134 A 
ATOM     77  C   UNL A   1      44.082  26.458  34.735  1.00  0.00     0.134 A 
ATOM     78  F   UNL A   1      45.837  29.379  33.475  1.00  0.00    -0.206 F 
ATOM     79  C   UNL A   1      46.658  27.483  34.588  1.00  0.00     0.040 A 
ATOM     80  C   UNL A   1      45.145  25.744  35.288  1.00  0.00     0.040 A 
ATOM     81  F   UNL A   1      42.853  25.929  34.828  1.00  0.00    -0.206 F 
ATOM     82  C   UNL A   1      46.439  26.255  35.211  1.00  0.00     0.006 A 
ENDBRANCH  58  75
ENDBRANCH  32  33
ENDBRANCH  25  27
ENDBRANCH  24  25
ENDBRANCH  23  24
ENDBRANCH  22  23
ENDBRANCH  21  22
ENDBRANCH   1  21
TORSDOF 18
ENDMDL
