MODEL 1
REMARK VINA RESULT:     -12.3      0.000      0.000
REMARK SMILES Cc1ccc(S(=O)(=O)N2c3ccc(C(=O)OCCOCCOC(=O)c4ccc(-c5c6nc(c(-c7c(F)cccc7F)c7ccc([nH]7)c(-c7c(F)cccc7F)c7nc(c(-c8c(F)cccc8F)c8ccc5[nH]8)C=C7)C=C6)cc4)cc3C[C@H]2C)cc1
REMARK SMILES IDX 19 1 18 2 17 3 16 4 14 5 15 6 13 7 9 8 10 9 82 10 11 11
REMARK SMILES IDX 80 12 81 13 83 14 12 15 79 16 6 17 7 18 8 19 5 20 1 21 2 22
REMARK SMILES IDX 3 23 85 24 4 25 84 26 20 27 21 28 22 29 23 30 24 31 25 32
REMARK SMILES IDX 26 33 78 34 27 35 77 36 28 37 29 38 30 39 71 40 31 41 76 42
REMARK SMILES IDX 70 43 72 44 32 45 75 46 69 47 68 48 33 50 59 51 42 52 58 53
REMARK SMILES IDX 43 54 46 55 57 56 73 57 44 58 45 59 56 61 74 62 47 63 34 64
REMARK SMILES IDX 35 65 40 66 36 67 37 68 39 69 41 70 38 71 60 72 61 73 66 74
REMARK SMILES IDX 62 75 63 76 65 77 67 78 64 79 48 80 49 81 54 82 50 83 51 84
REMARK SMILES IDX 53 85 55 86 52 87
REMARK H PARENT 72 49 46 60
REMARK Flexibility Score: inf
ROOT
ATOM      1  O   UNL A   1      42.657  19.067  27.151  1.00  0.00    -0.374 OA
ENDROOT
BRANCH   1   2
ATOM      2  C   UNL A   1      41.445  19.770  27.370  1.00  0.00     0.202 C 
BRANCH   2   3
ATOM      3  C   UNL A   1      40.868  19.931  26.013  1.00  0.00     0.261 C 
BRANCH   3   4
ATOM      4  O   UNL A   1      39.590  20.543  26.099  1.00  0.00    -0.460 OA
BRANCH   4   5
ATOM      5  C   UNL A   1      39.535  21.905  26.177  1.00  0.00     0.338 C 
ATOM      6  O   UNL A   1      40.409  22.700  26.405  1.00  0.00    -0.246 OA
BRANCH   5   7
ATOM      7  C   UNL A   1      38.193  22.206  25.665  1.00  0.00     0.060 A 
ATOM      8  N   UNL A   1      34.112  22.660  25.245  1.00  0.00    -0.263 N 
ATOM      9  C   UNL A   1      35.530  22.631  25.447  1.00  0.00     0.055 A 
ATOM     10  C   UNL A   1      33.728  21.189  25.254  1.00  0.00     0.101 C 
ATOM     11  C   UNL A   1      36.317  23.726  25.729  1.00  0.00     0.028 A 
ATOM     12  C   UNL A   1      36.052  21.353  25.228  1.00  0.00    -0.021 A 
ATOM     13  C   UNL A   1      34.983  20.385  24.872  1.00  0.00     0.063 C 
ATOM     14  C   UNL A   1      33.286  20.859  26.694  1.00  0.00     0.032 C 
ATOM     15  C   UNL A   1      37.676  23.516  25.795  1.00  0.00     0.018 A 
ATOM     16  C   UNL A   1      37.400  21.117  25.322  1.00  0.00     0.021 A 
BRANCH   8  17
ATOM     17  S   UNL A   1      33.804  23.582  23.819  1.00  0.00     0.264 S 
ATOM     18  O   UNL A   1      32.553  23.116  23.253  1.00  0.00    -0.201 OA
ATOM     19  O   UNL A   1      35.020  23.600  23.028  1.00  0.00    -0.201 OA
BRANCH  17  20
ATOM     20  C   UNL A   1      33.542  25.260  24.280  1.00  0.00     0.088 A 
ATOM     21  C   UNL A   1      33.540  29.252  25.802  1.00  0.00     0.044 C 
ATOM     22  C   UNL A   1      33.483  27.859  25.260  1.00  0.00    -0.051 A 
ATOM     23  C   UNL A   1      33.238  26.784  26.122  1.00  0.00     0.005 A 
ATOM     24  C   UNL A   1      33.658  27.625  23.892  1.00  0.00     0.005 A 
ATOM     25  C   UNL A   1      33.280  25.485  25.636  1.00  0.00     0.022 A 
ATOM     26  C   UNL A   1      33.650  26.326  23.395  1.00  0.00     0.022 A 
ENDBRANCH  17  20
ENDBRANCH   8  17
ENDBRANCH   5   7
ENDBRANCH   4   5
ENDBRANCH   3   4
ENDBRANCH   2   3
ENDBRANCH   1   2
BRANCH   1  27
ATOM     27  C   UNL A   1      42.875  18.655  25.821  1.00  0.00     0.202 C 
BRANCH  27  28
ATOM     28  C   UNL A   1      44.331  18.854  25.371  1.00  0.00     0.261 C 
BRANCH  28  29
ATOM     29  O   UNL A   1      44.420  20.036  24.539  1.00  0.00    -0.460 OA
BRANCH  29  30
ATOM     30  C   UNL A   1      45.157  21.084  25.013  1.00  0.00     0.338 C 
ATOM     31  O   UNL A   1      46.323  21.027  25.370  1.00  0.00    -0.246 OA
BRANCH  30  32
ATOM     32  C   UNL A   1      44.249  22.229  25.344  1.00  0.00     0.060 A 
ATOM     33  C   UNL A   1      44.143  23.332  24.467  1.00  0.00     0.016 A 
ATOM     34  C   UNL A   1      43.825  22.361  26.662  1.00  0.00     0.016 A 
ATOM     35  C   UNL A   1      43.782  24.605  24.955  1.00  0.00     0.010 A 
ATOM     36  C   UNL A   1      43.576  23.627  27.152  1.00  0.00     0.010 A 
ATOM     37  C   UNL A   1      43.585  24.771  26.324  1.00  0.00    -0.014 A 
BRANCH  37  38
ATOM     38  C   UNL A   1      43.544  26.047  27.067  1.00  0.00     0.031 A 
ATOM     39  C   UNL A   1      42.230  26.716  27.197  1.00  0.00     0.074 A 
ATOM     40  C   UNL A   1      44.558  26.437  27.887  1.00  0.00     0.049 A 
ATOM     41  N   UNL A   1      42.061  27.882  27.708  1.00  0.00    -0.248 NA
ATOM     42  C   UNL A   1      40.972  26.114  26.760  1.00  0.00     0.031 C 
ATOM     43  C   UNL A   1      44.502  27.285  29.085  1.00  0.00     0.029 A 
ATOM     44  N   UNL A   1      45.910  26.110  27.823  1.00  0.00    -0.354 N 
ATOM     45  C   UNL A   1      40.722  28.040  27.972  1.00  0.00     0.074 A 
ATOM     46  C   UNL A   1      40.079  26.921  27.335  1.00  0.00     0.031 C 
ATOM     47  C   UNL A   1      45.748  27.623  29.471  1.00  0.00     0.029 A 
ATOM     48  C   UNL A   1      46.667  27.088  28.484  1.00  0.00     0.049 A 
ATOM     49  H   UNL A   1      46.280  25.312  27.381  1.00  0.00     0.167 HD
ATOM     50  C   UNL A   1      40.340  29.048  28.807  1.00  0.00     0.037 A 
ATOM     51  C   UNL A   1      47.662  27.717  27.809  1.00  0.00     0.037 A 
ATOM     52  C   UNL A   1      41.516  29.825  29.235  1.00  0.00     0.049 A 
ATOM     53  C   UNL A   1      47.175  29.118  27.576  1.00  0.00     0.074 A 
ATOM     54  C   UNL A   1      42.277  29.826  30.394  1.00  0.00     0.029 A 
ATOM     55  N   UNL A   1      42.305  30.455  28.263  1.00  0.00    -0.354 N 
ATOM     56  N   UNL A   1      45.906  29.428  27.634  1.00  0.00    -0.248 NA
ATOM     57  C   UNL A   1      48.033  30.285  27.431  1.00  0.00     0.031 C 
ATOM     58  C   UNL A   1      43.559  30.367  30.080  1.00  0.00     0.029 A 
ATOM     59  C   UNL A   1      43.580  30.721  28.738  1.00  0.00     0.049 A 
ATOM     60  H   UNL A   1      41.993  30.681  27.358  1.00  0.00     0.167 HD
ATOM     61  C   UNL A   1      45.771  30.774  27.682  1.00  0.00     0.074 A 
ATOM     62  C   UNL A   1      47.124  31.276  27.487  1.00  0.00     0.031 C 
ATOM     63  C   UNL A   1      44.577  31.392  27.901  1.00  0.00     0.037 A 
BRANCH  50  64
ATOM     64  C   UNL A   1      38.954  29.137  29.415  1.00  0.00     0.057 A 
ATOM     65  C   UNL A   1      37.843  29.524  28.645  1.00  0.00     0.134 A 
ATOM     66  C   UNL A   1      38.650  28.878  30.766  1.00  0.00     0.134 A 
ATOM     67  F   UNL A   1      37.939  29.729  27.325  1.00  0.00    -0.206 F 
ATOM     68  C   UNL A   1      36.562  29.719  29.190  1.00  0.00     0.040 A 
ATOM     69  C   UNL A   1      37.394  29.130  31.340  1.00  0.00     0.040 A 
ATOM     70  F   UNL A   1      39.534  28.298  31.588  1.00  0.00    -0.206 F 
ATOM     71  C   UNL A   1      36.340  29.556  30.549  1.00  0.00     0.006 A 
ENDBRANCH  50  64
BRANCH  51  72
ATOM     72  C   UNL A   1      48.373  26.745  26.913  1.00  0.00     0.057 A 
ATOM     73  C   UNL A   1      48.194  26.937  25.521  1.00  0.00     0.134 A 
ATOM     74  C   UNL A   1      49.551  26.090  27.298  1.00  0.00     0.134 A 
ATOM     75  F   UNL A   1      47.113  27.593  25.068  1.00  0.00    -0.206 F 
ATOM     76  C   UNL A   1      49.189  26.630  24.582  1.00  0.00     0.040 A 
ATOM     77  C   UNL A   1      50.556  25.782  26.361  1.00  0.00     0.040 A 
ATOM     78  F   UNL A   1      49.826  25.892  28.594  1.00  0.00    -0.206 F 
ATOM     79  C   UNL A   1      50.395  26.086  25.009  1.00  0.00     0.006 A 
ENDBRANCH  51  72
BRANCH  63  80
ATOM     80  C   UNL A   1      44.318  32.769  27.380  1.00  0.00     0.057 A 
ATOM     81  C   UNL A   1      44.147  33.035  26.012  1.00  0.00     0.134 A 
ATOM     82  C   UNL A   1      44.051  33.838  28.251  1.00  0.00     0.134 A 
ATOM     83  F   UNL A   1      44.226  32.066  25.087  1.00  0.00    -0.206 F 
ATOM     84  C   UNL A   1      43.832  34.304  25.534  1.00  0.00     0.040 A 
ATOM     85  C   UNL A   1      43.664  35.094  27.788  1.00  0.00     0.040 A 
ATOM     86  F   UNL A   1      44.116  33.702  29.584  1.00  0.00    -0.206 F 
ATOM     87  C   UNL A   1      43.581  35.338  26.424  1.00  0.00     0.006 A 
ENDBRANCH  63  80
ENDBRANCH  37  38
ENDBRANCH  30  32
ENDBRANCH  29  30
ENDBRANCH  28  29
ENDBRANCH  27  28
ENDBRANCH   1  27
TORSDOF 16
ENDMDL
MODEL 2
REMARK VINA RESULT:     -12.0      5.481     11.003
REMARK SMILES Cc1ccc(S(=O)(=O)N2c3ccc(C(=O)OCCOCCOC(=O)c4ccc(-c5c6nc(c(-c7c(F)cccc7F)c7ccc([nH]7)c(-c7c(F)cccc7F)c7nc(c(-c8c(F)cccc8F)c8ccc5[nH]8)C=C7)C=C6)cc4)cc3C[C@H]2C)cc1
REMARK SMILES IDX 19 1 18 2 17 3 16 4 14 5 15 6 13 7 9 8 10 9 82 10 11 11
REMARK SMILES IDX 80 12 81 13 83 14 12 15 79 16 6 17 7 18 8 19 5 20 1 21 2 22
REMARK SMILES IDX 3 23 85 24 4 25 84 26 20 27 21 28 22 29 23 30 24 31 25 32
REMARK SMILES IDX 26 33 78 34 27 35 77 36 28 37 29 38 30 39 71 40 31 41 76 42
REMARK SMILES IDX 70 43 72 44 32 45 75 46 69 47 68 48 33 50 59 51 42 52 58 53
REMARK SMILES IDX 43 54 46 55 57 56 73 57 44 58 45 59 56 61 74 62 47 63 34 64
REMARK SMILES IDX 35 65 40 66 36 67 37 68 39 69 41 70 38 71 60 72 61 73 66 74
REMARK SMILES IDX 62 75 63 76 65 77 67 78 64 79 48 80 49 81 54 82 50 83 51 84
REMARK SMILES IDX 53 85 55 86 52 87
REMARK H PARENT 72 49 46 60
REMARK Flexibility Score: inf
ROOT
ATOM      1  O   UNL A   1      32.662  34.704  28.992  1.00  0.00    -0.374 OA
ENDROOT
BRANCH   1   2
ATOM      2  C   UNL A   1      33.714  34.207  28.182  1.00  0.00     0.202 C 
BRANCH   2   3
ATOM      3  C   UNL A   1      34.041  32.889  28.778  1.00  0.00     0.261 C 
BRANCH   3   4
ATOM      4  O   UNL A   1      33.531  31.846  27.960  1.00  0.00    -0.460 OA
BRANCH   4   5
ATOM      5  C   UNL A   1      34.410  30.917  27.482  1.00  0.00     0.338 C 
ATOM      6  O   UNL A   1      35.601  30.833  27.634  1.00  0.00    -0.246 OA
BRANCH   5   7
ATOM      7  C   UNL A   1      33.524  29.882  26.937  1.00  0.00     0.060 A 
ATOM      8  N   UNL A   1      31.529  27.282  24.427  1.00  0.00    -0.263 N 
ATOM      9  C   UNL A   1      32.320  28.086  25.311  1.00  0.00     0.055 A 
ATOM     10  C   UNL A   1      30.741  28.310  23.631  1.00  0.00     0.101 C 
ATOM     11  C   UNL A   1      33.361  27.627  26.088  1.00  0.00     0.028 A 
ATOM     12  C   UNL A   1      31.848  29.400  25.369  1.00  0.00    -0.021 A 
ATOM     13  C   UNL A   1      30.674  29.593  24.479  1.00  0.00     0.063 C 
ATOM     14  C   UNL A   1      31.530  28.557  22.330  1.00  0.00     0.032 C 
ATOM     15  C   UNL A   1      33.943  28.531  26.947  1.00  0.00     0.018 A 
ATOM     16  C   UNL A   1      32.435  30.325  26.194  1.00  0.00     0.021 A 
BRANCH   8  17
ATOM     17  S   UNL A   1      30.658  26.145  25.391  1.00  0.00     0.264 S 
ATOM     18  O   UNL A   1      29.289  26.118  24.914  1.00  0.00    -0.201 OA
ATOM     19  O   UNL A   1      30.958  26.420  26.785  1.00  0.00    -0.201 OA
BRANCH  17  20
ATOM     20  C   UNL A   1      31.316  24.539  25.098  1.00  0.00     0.088 A 
ATOM     21  C   UNL A   1      33.542  20.915  24.695  1.00  0.00     0.044 C 
ATOM     22  C   UNL A   1      32.727  22.166  24.793  1.00  0.00    -0.051 A 
ATOM     23  C   UNL A   1      33.066  23.281  24.019  1.00  0.00     0.005 A 
ATOM     24  C   UNL A   1      31.618  22.223  25.643  1.00  0.00     0.005 A 
ATOM     25  C   UNL A   1      32.370  24.472  24.180  1.00  0.00     0.022 A 
ATOM     26  C   UNL A   1      30.888  23.399  25.768  1.00  0.00     0.022 A 
ENDBRANCH  17  20
ENDBRANCH   8  17
ENDBRANCH   5   7
ENDBRANCH   4   5
ENDBRANCH   3   4
ENDBRANCH   2   3
ENDBRANCH   1   2
BRANCH   1  27
ATOM     27  C   UNL A   1      32.926  35.938  29.621  1.00  0.00     0.202 C 
BRANCH  27  28
ATOM     28  C   UNL A   1      32.806  35.860  31.150  1.00  0.00     0.261 C 
BRANCH  28  29
ATOM     29  O   UNL A   1      34.074  36.216  31.752  1.00  0.00    -0.460 OA
BRANCH  29  30
ATOM     30  C   UNL A   1      34.474  35.503  32.846  1.00  0.00     0.338 C 
ATOM     31  O   UNL A   1      34.566  35.940  33.982  1.00  0.00    -0.246 OA
BRANCH  30  32
ATOM     32  C   UNL A   1      35.095  34.212  32.406  1.00  0.00     0.060 A 
ATOM     33  C   UNL A   1      35.074  33.084  33.257  1.00  0.00     0.016 A 
ATOM     34  C   UNL A   1      35.996  34.252  31.348  1.00  0.00     0.016 A 
ATOM     35  C   UNL A   1      36.067  32.089  33.156  1.00  0.00     0.010 A 
ATOM     36  C   UNL A   1      37.025  33.333  31.322  1.00  0.00     0.010 A 
ATOM     37  C   UNL A   1      37.102  32.262  32.239  1.00  0.00    -0.014 A 
BRANCH  37  38
ATOM     38  C   UNL A   1      38.391  31.540  32.208  1.00  0.00     0.031 A 
ATOM     39  C   UNL A   1      38.475  30.334  31.355  1.00  0.00     0.074 A 
ATOM     40  C   UNL A   1      39.547  32.110  32.648  1.00  0.00     0.049 A 
ATOM     41  N   UNL A   1      39.486  29.543  31.321  1.00  0.00    -0.248 NA
ATOM     42  C   UNL A   1      37.411  29.914  30.446  1.00  0.00     0.031 C 
ATOM     43  C   UNL A   1      40.926  31.854  32.211  1.00  0.00     0.029 A 
ATOM     44  N   UNL A   1      39.723  33.105  33.606  1.00  0.00    -0.354 N 
ATOM     45  C   UNL A   1      39.368  28.749  30.206  1.00  0.00     0.074 A 
ATOM     46  C   UNL A   1      38.040  28.998  29.708  1.00  0.00     0.031 C 
ATOM     47  C   UNL A   1      41.794  32.447  33.054  1.00  0.00     0.029 A 
ATOM     48  C   UNL A   1      41.020  33.034  34.131  1.00  0.00     0.049 A 
ATOM     49  H   UNL A   1      39.039  33.761  33.874  1.00  0.00     0.167 HD
ATOM     50  C   UNL A   1      40.465  28.064  29.778  1.00  0.00     0.037 A 
ATOM     51  C   UNL A   1      41.181  32.904  35.473  1.00  0.00     0.037 A 
ATOM     52  C   UNL A   1      41.599  28.303  30.687  1.00  0.00     0.049 A 
ATOM     53  C   UNL A   1      41.669  31.502  35.691  1.00  0.00     0.074 A 
ATOM     54  C   UNL A   1      42.707  29.134  30.616  1.00  0.00     0.029 A 
ATOM     55  N   UNL A   1      41.473  27.953  32.037  1.00  0.00    -0.354 N 
ATOM     56  N   UNL A   1      41.504  30.564  34.794  1.00  0.00    -0.248 NA
ATOM     57  C   UNL A   1      42.500  31.073  36.808  1.00  0.00     0.031 C 
ATOM     58  C   UNL A   1      43.176  29.357  31.945  1.00  0.00     0.029 A 
ATOM     59  C   UNL A   1      42.376  28.647  32.829  1.00  0.00     0.049 A 
ATOM     60  H   UNL A   1      40.826  27.297  32.381  1.00  0.00     0.167 HD
ATOM     61  C   UNL A   1      42.281  29.500  35.105  1.00  0.00     0.074 A 
ATOM     62  C   UNL A   1      42.839  29.833  36.408  1.00  0.00     0.031 C 
ATOM     63  C   UNL A   1      42.439  28.430  34.276  1.00  0.00     0.037 A 
BRANCH  50  64
ATOM     64  C   UNL A   1      40.551  27.412  28.412  1.00  0.00     0.057 A 
ATOM     65  C   UNL A   1      39.972  26.155  28.165  1.00  0.00     0.134 A 
ATOM     66  C   UNL A   1      41.216  27.963  27.298  1.00  0.00     0.134 A 
ATOM     67  F   UNL A   1      39.233  25.528  29.089  1.00  0.00    -0.206 F 
ATOM     68  C   UNL A   1      40.116  25.470  26.946  1.00  0.00     0.040 A 
ATOM     69  C   UNL A   1      41.425  27.265  26.097  1.00  0.00     0.040 A 
ATOM     70  F   UNL A   1      41.638  29.234  27.287  1.00  0.00    -0.206 F 
ATOM     71  C   UNL A   1      40.874  26.008  25.918  1.00  0.00     0.006 A 
ENDBRANCH  50  64
BRANCH  51  72
ATOM     72  C   UNL A   1      40.158  33.730  36.197  1.00  0.00     0.057 A 
ATOM     73  C   UNL A   1      39.147  33.009  36.880  1.00  0.00     0.134 A 
ATOM     74  C   UNL A   1      40.438  35.012  36.689  1.00  0.00     0.134 A 
ATOM     75  F   UNL A   1      38.845  31.756  36.501  1.00  0.00    -0.206 F 
ATOM     76  C   UNL A   1      38.554  33.474  38.062  1.00  0.00     0.040 A 
ATOM     77  C   UNL A   1      39.849  35.485  37.877  1.00  0.00     0.040 A 
ATOM     78  F   UNL A   1      41.401  35.759  36.132  1.00  0.00    -0.206 F 
ATOM     79  C   UNL A   1      38.938  34.703  38.588  1.00  0.00     0.006 A 
ENDBRANCH  51  72
BRANCH  63  80
ATOM     80  C   UNL A   1      42.766  27.078  34.821  1.00  0.00     0.057 A 
ATOM     81  C   UNL A   1      41.783  26.102  35.051  1.00  0.00     0.134 A 
ATOM     82  C   UNL A   1      44.097  26.651  34.959  1.00  0.00     0.134 A 
ATOM     83  F   UNL A   1      40.483  26.336  34.812  1.00  0.00    -0.206 F 
ATOM     84  C   UNL A   1      42.095  24.818  35.489  1.00  0.00     0.040 A 
ATOM     85  C   UNL A   1      44.425  25.347  35.325  1.00  0.00     0.040 A 
ATOM     86  F   UNL A   1      45.134  27.465  34.708  1.00  0.00    -0.206 F 
ATOM     87  C   UNL A   1      43.422  24.434  35.619  1.00  0.00     0.006 A 
ENDBRANCH  63  80
ENDBRANCH  37  38
ENDBRANCH  30  32
ENDBRANCH  29  30
ENDBRANCH  28  29
ENDBRANCH  27  28
ENDBRANCH   1  27
TORSDOF 16
ENDMDL
MODEL 3
REMARK VINA RESULT:     -11.6      5.302     10.618
REMARK SMILES Cc1ccc(S(=O)(=O)N2c3ccc(C(=O)OCCOCCOC(=O)c4ccc(-c5c6nc(c(-c7c(F)cccc7F)c7ccc([nH]7)c(-c7c(F)cccc7F)c7nc(c(-c8c(F)cccc8F)c8ccc5[nH]8)C=C7)C=C6)cc4)cc3C[C@H]2C)cc1
REMARK SMILES IDX 19 1 18 2 17 3 16 4 14 5 15 6 13 7 9 8 10 9 82 10 11 11
REMARK SMILES IDX 80 12 81 13 83 14 12 15 79 16 6 17 7 18 8 19 5 20 1 21 2 22
REMARK SMILES IDX 3 23 85 24 4 25 84 26 20 27 21 28 22 29 23 30 24 31 25 32
REMARK SMILES IDX 26 33 78 34 27 35 77 36 28 37 29 38 30 39 71 40 31 41 76 42
REMARK SMILES IDX 70 43 72 44 32 45 75 46 69 47 68 48 33 50 59 51 42 52 58 53
REMARK SMILES IDX 43 54 46 55 57 56 73 57 44 58 45 59 56 61 74 62 47 63 34 64
REMARK SMILES IDX 35 65 40 66 36 67 37 68 39 69 41 70 38 71 60 72 61 73 66 74
REMARK SMILES IDX 62 75 63 76 65 77 67 78 64 79 48 80 49 81 54 82 50 83 51 84
REMARK SMILES IDX 53 85 55 86 52 87
REMARK H PARENT 72 49 46 60
REMARK Flexibility Score: inf
ROOT
ATOM      1  O   UNL A   1      32.816  34.385  28.745  1.00  0.00    -0.374 OA
ENDROOT
BRANCH   1   2
ATOM      2  C   UNL A   1      33.846  33.685  28.066  1.00  0.00     0.202 C 
BRANCH   2   3
ATOM      3  C   UNL A   1      33.803  32.321  28.647  1.00  0.00     0.261 C 
BRANCH   3   4
ATOM      4  O   UNL A   1      33.575  31.364  27.624  1.00  0.00    -0.460 OA
BRANCH   4   5
ATOM      5  C   UNL A   1      34.522  30.404  27.420  1.00  0.00     0.338 C 
ATOM      6  O   UNL A   1      35.559  30.209  27.998  1.00  0.00    -0.246 OA
BRANCH   5   7
ATOM      7  C   UNL A   1      33.864  29.491  26.478  1.00  0.00     0.060 A 
ATOM      8  N   UNL A   1      31.590  26.486  24.793  1.00  0.00    -0.263 N 
ATOM      9  C   UNL A   1      32.265  27.610  25.371  1.00  0.00     0.055 A 
ATOM     10  C   UNL A   1      32.369  25.296  25.331  1.00  0.00     0.101 C 
ATOM     11  C   UNL A   1      31.805  28.909  25.357  1.00  0.00     0.028 A 
ATOM     12  C   UNL A   1      33.515  27.249  25.881  1.00  0.00    -0.021 A 
ATOM     13  C   UNL A   1      33.777  25.798  25.698  1.00  0.00     0.063 C 
ATOM     14  C   UNL A   1      31.618  24.811  26.587  1.00  0.00     0.032 C 
ATOM     15  C   UNL A   1      32.639  29.870  25.880  1.00  0.00     0.018 A 
ATOM     16  C   UNL A   1      34.347  28.188  26.436  1.00  0.00     0.021 A 
BRANCH   8  17
ATOM     17  S   UNL A   1      31.535  26.729  23.085  1.00  0.00     0.264 S 
ATOM     18  O   UNL A   1      31.029  25.511  22.482  1.00  0.00    -0.201 OA
ATOM     19  O   UNL A   1      32.807  27.294  22.673  1.00  0.00    -0.201 OA
BRANCH  17  20
ATOM     20  C   UNL A   1      30.350  27.983  22.733  1.00  0.00     0.088 A 
ATOM     21  C   UNL A   1      27.464  31.130  22.627  1.00  0.00     0.044 C 
ATOM     22  C   UNL A   1      28.455  30.010  22.612  1.00  0.00    -0.051 A 
ATOM     23  C   UNL A   1      28.111  28.766  23.153  1.00  0.00     0.005 A 
ATOM     24  C   UNL A   1      29.720  30.193  22.046  1.00  0.00     0.005 A 
ATOM     25  C   UNL A   1      29.061  27.757  23.227  1.00  0.00     0.022 A 
ATOM     26  C   UNL A   1      30.657  29.166  22.072  1.00  0.00     0.022 A 
ENDBRANCH  17  20
ENDBRANCH   8  17
ENDBRANCH   5   7
ENDBRANCH   4   5
ENDBRANCH   3   4
ENDBRANCH   2   3
ENDBRANCH   1   2
BRANCH   1  27
ATOM     27  C   UNL A   1      33.218  35.589  29.358  1.00  0.00     0.202 C 
BRANCH  27  28
ATOM     28  C   UNL A   1      32.997  35.580  30.879  1.00  0.00     0.261 C 
BRANCH  28  29
ATOM     29  O   UNL A   1      34.276  35.665  31.552  1.00  0.00    -0.460 OA
BRANCH  29  30
ATOM     30  C   UNL A   1      34.566  34.701  32.474  1.00  0.00     0.338 C 
ATOM     31  O   UNL A   1      34.444  34.817  33.683  1.00  0.00    -0.246 OA
BRANCH  30  32
ATOM     32  C   UNL A   1      35.362  33.608  31.828  1.00  0.00     0.060 A 
ATOM     33  C   UNL A   1      35.216  32.270  32.258  1.00  0.00     0.016 A 
ATOM     34  C   UNL A   1      36.484  33.970  31.091  1.00  0.00     0.016 A 
ATOM     35  C   UNL A   1      36.272  31.347  32.105  1.00  0.00     0.010 A 
ATOM     36  C   UNL A   1      37.550  33.095  31.039  1.00  0.00     0.010 A 
ATOM     37  C   UNL A   1      37.480  31.789  31.573  1.00  0.00    -0.014 A 
BRANCH  37  38
ATOM     38  C   UNL A   1      38.786  31.102  31.642  1.00  0.00     0.031 A 
ATOM     39  C   UNL A   1      39.004  29.961  30.725  1.00  0.00     0.074 A 
ATOM     40  C   UNL A   1      39.866  31.666  32.249  1.00  0.00     0.049 A 
ATOM     41  N   UNL A   1      40.036  29.197  30.755  1.00  0.00    -0.248 NA
ATOM     42  C   UNL A   1      38.063  29.581  29.673  1.00  0.00     0.031 C 
ATOM     43  C   UNL A   1      41.293  31.473  31.958  1.00  0.00     0.029 A 
ATOM     44  N   UNL A   1      39.902  32.595  33.286  1.00  0.00    -0.354 N 
ATOM     45  C   UNL A   1      40.069  28.481  29.583  1.00  0.00     0.074 A 
ATOM     46  C   UNL A   1      38.799  28.734  28.953  1.00  0.00     0.031 C 
ATOM     47  C   UNL A   1      42.042  32.025  32.933  1.00  0.00     0.029 A 
ATOM     48  C   UNL A   1      41.133  32.517  33.951  1.00  0.00     0.049 A 
ATOM     49  H   UNL A   1      39.172  33.214  33.516  1.00  0.00     0.167 HD
ATOM     50  C   UNL A   1      41.229  27.853  29.238  1.00  0.00     0.037 A 
ATOM     51  C   UNL A   1      41.145  32.297  35.290  1.00  0.00     0.037 A 
ATOM     52  C   UNL A   1      42.244  28.054  30.286  1.00  0.00     0.049 A 
ATOM     53  C   UNL A   1      41.649  30.895  35.468  1.00  0.00     0.074 A 
ATOM     54  C   UNL A   1      43.327  28.913  30.399  1.00  0.00     0.029 A 
ATOM     55  N   UNL A   1      41.977  27.607  31.586  1.00  0.00    -0.354 N 
ATOM     56  N   UNL A   1      41.615  30.018  34.497  1.00  0.00    -0.248 NA
ATOM     57  C   UNL A   1      42.360  30.407  36.642  1.00  0.00     0.031 C 
ATOM     58  C   UNL A   1      43.636  29.053  31.785  1.00  0.00     0.029 A 
ATOM     59  C   UNL A   1      42.763  28.264  32.522  1.00  0.00     0.049 A 
ATOM     60  H   UNL A   1      41.316  26.914  31.808  1.00  0.00     0.167 HD
ATOM     61  C   UNL A   1      42.384  28.953  34.824  1.00  0.00     0.074 A 
ATOM     62  C   UNL A   1      42.781  29.207  36.201  1.00  0.00     0.031 C 
ATOM     63  C   UNL A   1      42.669  27.948  33.948  1.00  0.00     0.037 A 
BRANCH  50  64
ATOM     64  C   UNL A   1      41.489  27.301  27.851  1.00  0.00     0.057 A 
ATOM     65  C   UNL A   1      41.512  25.916  27.608  1.00  0.00     0.134 A 
ATOM     66  C   UNL A   1      41.750  28.085  26.709  1.00  0.00     0.134 A 
ATOM     67  F   UNL A   1      41.205  25.030  28.565  1.00  0.00    -0.206 F 
ATOM     68  C   UNL A   1      41.851  25.361  26.363  1.00  0.00     0.040 A 
ATOM     69  C   UNL A   1      42.154  27.547  25.476  1.00  0.00     0.040 A 
ATOM     70  F   UNL A   1      41.560  29.410  26.706  1.00  0.00    -0.206 F 
ATOM     71  C   UNL A   1      42.207  26.175  25.299  1.00  0.00     0.006 A 
ENDBRANCH  50  64
BRANCH  51  72
ATOM     72  C   UNL A   1      40.022  33.046  35.945  1.00  0.00     0.057 A 
ATOM     73  C   UNL A   1      38.958  32.257  36.449  1.00  0.00     0.134 A 
ATOM     74  C   UNL A   1      40.206  34.293  36.558  1.00  0.00     0.134 A 
ATOM     75  F   UNL A   1      38.739  31.030  35.948  1.00  0.00    -0.206 F 
ATOM     76  C   UNL A   1      38.219  32.620  37.583  1.00  0.00     0.040 A 
ATOM     77  C   UNL A   1      39.470  34.664  37.700  1.00  0.00     0.040 A 
ATOM     78  F   UNL A   1      41.206  35.098  36.175  1.00  0.00    -0.206 F 
ATOM     79  C   UNL A   1      38.504  33.813  38.239  1.00  0.00     0.006 A 
ENDBRANCH  51  72
BRANCH  63  80
ATOM     80  C   UNL A   1      42.973  26.569  34.436  1.00  0.00     0.057 A 
ATOM     81  C   UNL A   1      41.994  25.740  35.005  1.00  0.00     0.134 A 
ATOM     82  C   UNL A   1      44.215  25.964  34.180  1.00  0.00     0.134 A 
ATOM     83  F   UNL A   1      40.725  26.148  35.164  1.00  0.00    -0.206 F 
ATOM     84  C   UNL A   1      42.260  24.428  35.392  1.00  0.00     0.040 A 
ATOM     85  C   UNL A   1      44.471  24.632  34.495  1.00  0.00     0.040 A 
ATOM     86  F   UNL A   1      45.218  26.626  33.583  1.00  0.00    -0.206 F 
ATOM     87  C   UNL A   1      43.501  23.867  35.128  1.00  0.00     0.006 A 
ENDBRANCH  63  80
ENDBRANCH  37  38
ENDBRANCH  30  32
ENDBRANCH  29  30
ENDBRANCH  28  29
ENDBRANCH  27  28
ENDBRANCH   1  27
TORSDOF 16
ENDMDL
