MODEL 1
REMARK VINA RESULT:     -11.6      0.000      0.000
REMARK SMILES COc1cc(-c2cc(C(=O)OCCOCCOC(=O)c3ccc(-c4c5nc(c(-c6c(F)cccc6F)c6ccc([nH]6)c(-c6c(F)cccc6F)c6nc(c(-c7c(F)cccc7F)c7ccc4[nH]7)C=C6)C=C5)cc3)c3cc(C)ccc3n2)cc(OC)c1OC
REMARK SMILES IDX 14 1 13 2 12 3 11 4 9 5 10 6 8 7 6 8 7 9 81 10 80 11 74 12
REMARK SMILES IDX 79 13 75 14 78 15 76 16 77 17 5 18 3 19 4 20 86 21 83 22
REMARK SMILES IDX 82 23 2 24 1 25 87 26 88 27 84 28 85 29 15 30 16 31 17 32
REMARK SMILES IDX 18 33 19 34 20 35 21 36 73 37 22 38 72 39 23 40 24 41 25 42
REMARK SMILES IDX 66 43 26 44 71 45 65 46 67 47 27 48 70 49 64 50 63 51 28 53
REMARK SMILES IDX 54 54 37 55 53 56 38 57 41 58 52 59 68 60 39 61 40 62 51 64
REMARK SMILES IDX 69 65 42 66 29 67 30 68 35 69 31 70 32 71 34 72 36 73 33 74
REMARK SMILES IDX 55 75 56 76 61 77 57 78 58 79 60 80 62 81 59 82 43 83 44 84
REMARK SMILES IDX 49 85 45 86 46 87 48 88 50 89 47 90
REMARK H PARENT 67 52 41 63
REMARK Flexibility Score: inf
ROOT
ATOM      1  O   UNL A   1      34.789  33.849  29.065  1.00  0.00    -0.374 OA
ENDROOT
BRANCH   1   2
ATOM      2  C   UNL A   1      33.992  33.094  28.147  1.00  0.00     0.202 C 
BRANCH   2   3
ATOM      3  C   UNL A   1      34.047  31.563  28.201  1.00  0.00     0.261 C 
BRANCH   3   4
ATOM      4  O   UNL A   1      33.903  30.979  26.894  1.00  0.00    -0.460 OA
BRANCH   4   5
ATOM      5  C   UNL A   1      32.803  30.206  26.783  1.00  0.00     0.338 C 
ATOM      6  O   UNL A   1      31.715  30.426  27.286  1.00  0.00    -0.246 OA
BRANCH   5   7
ATOM      7  C   UNL A   1      33.040  29.130  25.786  1.00  0.00     0.071 A 
ATOM      8  C   UNL A   1      33.644  26.888  26.129  1.00  0.00     0.072 A 
ATOM      9  C   UNL A   1      34.029  28.214  26.131  1.00  0.00     0.045 A 
ATOM     10  N   UNL A   1      32.328  26.595  26.313  1.00  0.00    -0.248 NA
ATOM     11  C   UNL A   1      31.466  27.364  25.650  1.00  0.00     0.072 A 
ATOM     12  C   UNL A   1      31.867  28.618  25.199  1.00  0.00     0.015 A 
ATOM     13  C   UNL A   1      30.301  26.798  25.166  1.00  0.00     0.029 A 
ATOM     14  C   UNL A   1      31.284  29.108  24.011  1.00  0.00     0.014 A 
ATOM     15  C   UNL A   1      29.684  27.318  24.027  1.00  0.00     0.005 A 
ATOM     16  C   UNL A   1      30.245  28.415  23.378  1.00  0.00    -0.050 A 
ATOM     17  C   UNL A   1      29.805  28.801  21.996  1.00  0.00     0.044 C 
BRANCH   8  18
ATOM     18  C   UNL A   1      34.181  25.929  25.120  1.00  0.00     0.008 A 
ATOM     19  C   UNL A   1      34.300  23.604  24.429  1.00  0.00     0.165 A 
ATOM     20  C   UNL A   1      34.378  24.582  25.431  1.00  0.00     0.061 A 
ATOM     21  C   UNL A   1      33.888  23.955  23.132  1.00  0.00     0.203 A 
ATOM     22  C   UNL A   1      33.790  25.304  22.798  1.00  0.00     0.165 A 
ATOM     23  C   UNL A   1      34.044  26.280  23.756  1.00  0.00     0.061 A 
BRANCH  19  24
ATOM     24  O   UNL A   1      34.519  22.320  24.856  1.00  0.00    -0.493 OA
ATOM     25  C   UNL A   1      35.222  22.227  26.094  1.00  0.00     0.278 C 
ENDBRANCH  19  24
BRANCH  21  26
ATOM     26  O   UNL A   1      33.576  23.025  22.174  1.00  0.00    -0.490 OA
ATOM     27  C   UNL A   1      32.308  22.411  22.416  1.00  0.00     0.278 C 
ENDBRANCH  21  26
BRANCH  22  28
ATOM     28  O   UNL A   1      33.347  25.741  21.575  1.00  0.00    -0.493 OA
ATOM     29  C   UNL A   1      31.931  25.955  21.596  1.00  0.00     0.278 C 
ENDBRANCH  22  28
ENDBRANCH   8  18
ENDBRANCH   5   7
ENDBRANCH   4   5
ENDBRANCH   3   4
ENDBRANCH   2   3
ENDBRANCH   1   2
BRANCH   1  30
ATOM     30  C   UNL A   1      34.157  34.331  30.241  1.00  0.00     0.202 C 
BRANCH  30  31
ATOM     31  C   UNL A   1      34.695  33.893  31.613  1.00  0.00     0.261 C 
BRANCH  31  32
ATOM     32  O   UNL A   1      34.842  32.477  31.767  1.00  0.00    -0.460 OA
BRANCH  32  33
ATOM     33  C   UNL A   1      35.853  32.121  32.600  1.00  0.00     0.338 C 
ATOM     34  O   UNL A   1      35.910  32.268  33.806  1.00  0.00    -0.246 OA
BRANCH  33  35
ATOM     35  C   UNL A   1      36.857  31.350  31.847  1.00  0.00     0.060 A 
ATOM     36  C   UNL A   1      37.914  30.792  32.577  1.00  0.00     0.016 A 
ATOM     37  C   UNL A   1      36.800  31.226  30.458  1.00  0.00     0.016 A 
ATOM     38  C   UNL A   1      38.940  30.128  31.914  1.00  0.00     0.010 A 
ATOM     39  C   UNL A   1      37.844  30.579  29.790  1.00  0.00     0.010 A 
ATOM     40  C   UNL A   1      38.930  30.056  30.515  1.00  0.00    -0.014 A 
BRANCH  40  41
ATOM     41  C   UNL A   1      40.147  29.584  29.818  1.00  0.00     0.031 A 
ATOM     42  C   UNL A   1      41.286  30.545  29.630  1.00  0.00     0.074 A 
ATOM     43  C   UNL A   1      40.251  28.310  29.404  1.00  0.00     0.049 A 
ATOM     44  N   UNL A   1      42.447  30.354  29.062  1.00  0.00    -0.248 NA
ATOM     45  C   UNL A   1      41.088  31.904  30.161  1.00  0.00     0.031 C 
ATOM     46  C   UNL A   1      39.228  27.281  29.571  1.00  0.00     0.029 A 
ATOM     47  N   UNL A   1      41.276  27.669  28.758  1.00  0.00    -0.354 N 
ATOM     48  C   UNL A   1      43.120  31.565  29.167  1.00  0.00     0.074 A 
ATOM     49  C   UNL A   1      42.226  32.492  29.828  1.00  0.00     0.031 C 
ATOM     50  C   UNL A   1      39.673  26.134  29.029  1.00  0.00     0.029 A 
ATOM     51  C   UNL A   1      41.001  26.358  28.459  1.00  0.00     0.049 A 
ATOM     52  H   UNL A   1      42.128  28.106  28.529  1.00  0.00     0.167 HD
ATOM     53  C   UNL A   1      44.372  31.873  28.757  1.00  0.00     0.037 A 
ATOM     54  C   UNL A   1      41.735  25.450  27.789  1.00  0.00     0.037 A 
ATOM     55  C   UNL A   1      45.252  30.950  28.091  1.00  0.00     0.049 A 
ATOM     56  C   UNL A   1      43.097  25.836  27.279  1.00  0.00     0.074 A 
ATOM     57  C   UNL A   1      46.544  31.160  27.643  1.00  0.00     0.029 A 
ATOM     58  N   UNL A   1      44.924  29.641  27.772  1.00  0.00    -0.354 N 
ATOM     59  N   UNL A   1      43.734  26.976  27.403  1.00  0.00    -0.248 NA
ATOM     60  C   UNL A   1      43.843  24.810  26.537  1.00  0.00     0.031 C 
ATOM     61  C   UNL A   1      46.981  29.991  27.013  1.00  0.00     0.029 A 
ATOM     62  C   UNL A   1      45.979  29.038  27.110  1.00  0.00     0.049 A 
ATOM     63  H   UNL A   1      44.067  29.206  27.985  1.00  0.00     0.167 HD
ATOM     64  C   UNL A   1      44.963  26.797  26.780  1.00  0.00     0.074 A 
ATOM     65  C   UNL A   1      44.986  25.435  26.285  1.00  0.00     0.031 C 
ATOM     66  C   UNL A   1      45.981  27.679  26.630  1.00  0.00     0.037 A 
BRANCH  53  67
ATOM     67  C   UNL A   1      44.844  33.276  28.992  1.00  0.00     0.057 A 
ATOM     68  C   UNL A   1      45.552  33.635  30.147  1.00  0.00     0.134 A 
ATOM     69  C   UNL A   1      44.597  34.280  28.047  1.00  0.00     0.134 A 
ATOM     70  F   UNL A   1      45.806  32.723  31.098  1.00  0.00    -0.206 F 
ATOM     71  C   UNL A   1      45.978  34.946  30.364  1.00  0.00     0.040 A 
ATOM     72  C   UNL A   1      45.038  35.590  28.242  1.00  0.00     0.040 A 
ATOM     73  F   UNL A   1      43.924  34.003  26.921  1.00  0.00    -0.206 F 
ATOM     74  C   UNL A   1      45.724  35.926  29.407  1.00  0.00     0.006 A 
ENDBRANCH  53  67
BRANCH  54  75
ATOM     75  C   UNL A   1      41.193  24.089  27.553  1.00  0.00     0.057 A 
ATOM     76  C   UNL A   1      40.195  23.859  26.600  1.00  0.00     0.134 A 
ATOM     77  C   UNL A   1      41.657  22.988  28.281  1.00  0.00     0.134 A 
ATOM     78  F   UNL A   1      39.694  24.878  25.886  1.00  0.00    -0.206 F 
ATOM     79  C   UNL A   1      39.668  22.583  26.387  1.00  0.00     0.040 A 
ATOM     80  C   UNL A   1      41.156  21.703  28.064  1.00  0.00     0.040 A 
ATOM     81  F   UNL A   1      42.612  23.143  29.210  1.00  0.00    -0.206 F 
ATOM     82  C   UNL A   1      40.154  21.500  27.117  1.00  0.00     0.006 A 
ENDBRANCH  54  75
BRANCH  66  83
ATOM     83  C   UNL A   1      47.215  27.190  25.931  1.00  0.00     0.057 A 
ATOM     84  C   UNL A   1      47.396  27.356  24.552  1.00  0.00     0.134 A 
ATOM     85  C   UNL A   1      48.253  26.590  26.654  1.00  0.00     0.134 A 
ATOM     86  F   UNL A   1      46.434  27.912  23.802  1.00  0.00    -0.206 F 
ATOM     87  C   UNL A   1      48.560  26.922  23.914  1.00  0.00     0.040 A 
ATOM     88  C   UNL A   1      49.431  26.175  26.032  1.00  0.00     0.040 A 
ATOM     89  F   UNL A   1      48.146  26.412  27.980  1.00  0.00    -0.206 F 
ATOM     90  C   UNL A   1      49.583  26.336  24.656  1.00  0.00     0.006 A 
ENDBRANCH  66  83
ENDBRANCH  40  41
ENDBRANCH  33  35
ENDBRANCH  32  33
ENDBRANCH  31  32
ENDBRANCH  30  31
ENDBRANCH   1  30
TORSDOF 18
ENDMDL
MODEL 2
REMARK VINA RESULT:     -11.3      0.520      5.937
REMARK SMILES COc1cc(-c2cc(C(=O)OCCOCCOC(=O)c3ccc(-c4c5nc(c(-c6c(F)cccc6F)c6ccc([nH]6)c(-c6c(F)cccc6F)c6nc(c(-c7c(F)cccc7F)c7ccc4[nH]7)C=C6)C=C5)cc3)c3cc(C)ccc3n2)cc(OC)c1OC
REMARK SMILES IDX 14 1 13 2 12 3 11 4 9 5 10 6 8 7 6 8 7 9 81 10 80 11 74 12
REMARK SMILES IDX 79 13 75 14 78 15 76 16 77 17 5 18 3 19 4 20 86 21 83 22
REMARK SMILES IDX 82 23 2 24 1 25 87 26 88 27 84 28 85 29 15 30 16 31 17 32
REMARK SMILES IDX 18 33 19 34 20 35 21 36 73 37 22 38 72 39 23 40 24 41 25 42
REMARK SMILES IDX 66 43 26 44 71 45 65 46 67 47 27 48 70 49 64 50 63 51 28 53
REMARK SMILES IDX 54 54 37 55 53 56 38 57 41 58 52 59 68 60 39 61 40 62 51 64
REMARK SMILES IDX 69 65 42 66 29 67 30 68 35 69 31 70 32 71 34 72 36 73 33 74
REMARK SMILES IDX 55 75 56 76 61 77 57 78 58 79 60 80 62 81 59 82 43 83 44 84
REMARK SMILES IDX 49 85 45 86 46 87 48 88 50 89 47 90
REMARK H PARENT 67 52 41 63
REMARK Flexibility Score: inf
ROOT
ATOM      1  O   UNL A   1      35.446  33.434  29.459  1.00  0.00    -0.374 OA
ENDROOT
BRANCH   1   2
ATOM      2  C   UNL A   1      35.032  32.786  28.253  1.00  0.00     0.202 C 
BRANCH   2   3
ATOM      3  C   UNL A   1      33.999  31.656  28.334  1.00  0.00     0.261 C 
BRANCH   3   4
ATOM      4  O   UNL A   1      34.132  30.734  27.237  1.00  0.00    -0.460 OA
BRANCH   4   5
ATOM      5  C   UNL A   1      32.953  30.206  26.850  1.00  0.00     0.338 C 
ATOM      6  O   UNL A   1      31.846  30.609  27.161  1.00  0.00    -0.246 OA
BRANCH   5   7
ATOM      7  C   UNL A   1      33.182  29.165  25.813  1.00  0.00     0.071 A 
ATOM      8  C   UNL A   1      33.755  26.904  26.075  1.00  0.00     0.072 A 
ATOM      9  C   UNL A   1      34.157  28.224  26.128  1.00  0.00     0.045 A 
ATOM     10  N   UNL A   1      32.434  26.622  26.241  1.00  0.00    -0.248 NA
ATOM     11  C   UNL A   1      31.586  27.427  25.603  1.00  0.00     0.072 A 
ATOM     12  C   UNL A   1      32.005  28.691  25.202  1.00  0.00     0.015 A 
ATOM     13  C   UNL A   1      30.416  26.894  25.093  1.00  0.00     0.029 A 
ATOM     14  C   UNL A   1      31.434  29.233  24.030  1.00  0.00     0.014 A 
ATOM     15  C   UNL A   1      29.812  27.464  23.972  1.00  0.00     0.005 A 
ATOM     16  C   UNL A   1      30.390  28.578  23.367  1.00  0.00    -0.050 A 
ATOM     17  C   UNL A   1      29.962  29.021  21.999  1.00  0.00     0.044 C 
BRANCH   8  18
ATOM     18  C   UNL A   1      34.285  25.978  25.032  1.00  0.00     0.008 A 
ATOM     19  C   UNL A   1      34.432  23.670  24.290  1.00  0.00     0.165 A 
ATOM     20  C   UNL A   1      34.516  24.629  25.310  1.00  0.00     0.061 A 
ATOM     21  C   UNL A   1      33.981  24.040  23.011  1.00  0.00     0.203 A 
ATOM     22  C   UNL A   1      33.848  25.393  22.708  1.00  0.00     0.165 A 
ATOM     23  C   UNL A   1      34.107  26.354  23.679  1.00  0.00     0.061 A 
BRANCH  19  24
ATOM     24  O   UNL A   1      34.686  22.382  24.684  1.00  0.00    -0.493 OA
ATOM     25  C   UNL A   1      33.924  21.953  25.810  1.00  0.00     0.278 C 
ENDBRANCH  19  24
BRANCH  21  26
ATOM     26  O   UNL A   1      33.663  23.124  22.041  1.00  0.00    -0.490 OA
ATOM     27  C   UNL A   1      32.490  22.376  22.374  1.00  0.00     0.278 C 
ENDBRANCH  21  26
BRANCH  22  28
ATOM     28  O   UNL A   1      33.366  25.846  21.506  1.00  0.00    -0.493 OA
ATOM     29  C   UNL A   1      31.937  25.944  21.537  1.00  0.00     0.278 C 
ENDBRANCH  22  28
ENDBRANCH   8  18
ENDBRANCH   5   7
ENDBRANCH   4   5
ENDBRANCH   3   4
ENDBRANCH   2   3
ENDBRANCH   1   2
BRANCH   1  30
ATOM     30  C   UNL A   1      34.449  33.707  30.433  1.00  0.00     0.202 C 
BRANCH  30  31
ATOM     31  C   UNL A   1      34.636  33.176  31.863  1.00  0.00     0.261 C 
BRANCH  31  32
ATOM     32  O   UNL A   1      35.138  31.837  31.938  1.00  0.00    -0.460 OA
BRANCH  32  33
ATOM     33  C   UNL A   1      36.254  31.713  32.699  1.00  0.00     0.338 C 
ATOM     34  O   UNL A   1      36.383  31.981  33.879  1.00  0.00    -0.246 OA
BRANCH  33  35
ATOM     35  C   UNL A   1      37.303  31.032  31.921  1.00  0.00     0.060 A 
ATOM     36  C   UNL A   1      38.446  30.617  32.615  1.00  0.00     0.016 A 
ATOM     37  C   UNL A   1      37.198  30.856  30.541  1.00  0.00     0.016 A 
ATOM     38  C   UNL A   1      39.509  30.046  31.923  1.00  0.00     0.010 A 
ATOM     39  C   UNL A   1      38.276  30.304  29.842  1.00  0.00     0.010 A 
ATOM     40  C   UNL A   1      39.445  29.927  30.529  1.00  0.00    -0.014 A 
BRANCH  40  41
ATOM     41  C   UNL A   1      40.673  29.567  29.788  1.00  0.00     0.031 A 
ATOM     42  C   UNL A   1      40.793  28.181  29.224  1.00  0.00     0.074 A 
ATOM     43  C   UNL A   1      41.641  30.476  29.580  1.00  0.00     0.049 A 
ATOM     44  N   UNL A   1      41.766  27.646  28.534  1.00  0.00    -0.248 NA
ATOM     45  C   UNL A   1      39.657  27.276  29.468  1.00  0.00     0.031 C 
ATOM     46  C   UNL A   1      41.613  31.861  30.043  1.00  0.00     0.029 A 
ATOM     47  N   UNL A   1      42.838  30.362  28.921  1.00  0.00    -0.354 N 
ATOM     48  C   UNL A   1      41.362  26.346  28.260  1.00  0.00     0.074 A 
ATOM     49  C   UNL A   1      40.068  26.162  28.882  1.00  0.00     0.031 C 
ATOM     50  C   UNL A   1      42.749  32.470  29.661  1.00  0.00     0.029 A 
ATOM     51  C   UNL A   1      43.590  31.509  28.949  1.00  0.00     0.049 A 
ATOM     52  H   UNL A   1      43.130  29.537  28.471  1.00  0.00     0.167 HD
ATOM     53  C   UNL A   1      42.007  25.394  27.547  1.00  0.00     0.037 A 
ATOM     54  C   UNL A   1      44.824  31.748  28.466  1.00  0.00     0.037 A 
ATOM     55  C   UNL A   1      43.298  25.578  26.939  1.00  0.00     0.049 A 
ATOM     56  C   UNL A   1      45.554  30.651  27.738  1.00  0.00     0.074 A 
ATOM     57  C   UNL A   1      44.035  24.680  26.188  1.00  0.00     0.029 A 
ATOM     58  N   UNL A   1      44.047  26.743  27.022  1.00  0.00    -0.354 N 
ATOM     59  N   UNL A   1      45.155  29.432  27.463  1.00  0.00    -0.248 NA
ATOM     60  C   UNL A   1      46.905  30.964  27.251  1.00  0.00     0.031 C 
ATOM     61  C   UNL A   1      45.250  25.287  25.854  1.00  0.00     0.029 A 
ATOM     62  C   UNL A   1      45.250  26.579  26.357  1.00  0.00     0.049 A 
ATOM     63  H   UNL A   1      43.764  27.564  27.485  1.00  0.00     0.167 HD
ATOM     64  C   UNL A   1      46.191  28.841  26.751  1.00  0.00     0.074 A 
ATOM     65  C   UNL A   1      47.235  29.839  26.628  1.00  0.00     0.031 C 
ATOM     66  C   UNL A   1      46.273  27.587  26.244  1.00  0.00     0.037 A 
BRANCH  53  67
ATOM     67  C   UNL A   1      41.335  24.060  27.418  1.00  0.00     0.057 A 
ATOM     68  C   UNL A   1      41.747  22.949  28.165  1.00  0.00     0.134 A 
ATOM     69  C   UNL A   1      40.257  23.887  26.541  1.00  0.00     0.134 A 
ATOM     70  F   UNL A   1      42.786  23.044  29.009  1.00  0.00    -0.206 F 
ATOM     71  C   UNL A   1      41.124  21.707  28.029  1.00  0.00     0.040 A 
ATOM     72  C   UNL A   1      39.611  22.656  26.413  1.00  0.00     0.040 A 
ATOM     73  F   UNL A   1      39.814  24.911  25.797  1.00  0.00    -0.206 F 
ATOM     74  C   UNL A   1      40.050  21.560  27.154  1.00  0.00     0.006 A 
ENDBRANCH  53  67
BRANCH  54  75
ATOM     75  C   UNL A   1      45.452  33.077  28.664  1.00  0.00     0.057 A 
ATOM     76  C   UNL A   1      46.281  33.335  29.762  1.00  0.00     0.134 A 
ATOM     77  C   UNL A   1      45.232  34.124  27.762  1.00  0.00     0.134 A 
ATOM     78  F   UNL A   1      46.511  32.378  30.673  1.00  0.00    -0.206 F 
ATOM     79  C   UNL A   1      46.859  34.590  29.962  1.00  0.00     0.040 A 
ATOM     80  C   UNL A   1      45.821  35.377  27.937  1.00  0.00     0.040 A 
ATOM     81  F   UNL A   1      44.447  33.941  26.690  1.00  0.00    -0.206 F 
ATOM     82  C   UNL A   1      46.633  35.614  29.044  1.00  0.00     0.006 A 
ENDBRANCH  54  75
BRANCH  66  83
ATOM     83  C   UNL A   1      47.517  27.234  25.485  1.00  0.00     0.057 A 
ATOM     84  C   UNL A   1      47.677  27.568  24.134  1.00  0.00     0.134 A 
ATOM     85  C   UNL A   1      48.586  26.595  26.126  1.00  0.00     0.134 A 
ATOM     86  F   UNL A   1      46.686  28.170  23.460  1.00  0.00    -0.206 F 
ATOM     87  C   UNL A   1      48.850  27.260  23.442  1.00  0.00     0.040 A 
ATOM     88  C   UNL A   1      49.773  26.304  25.451  1.00  0.00     0.040 A 
ATOM     89  F   UNL A   1      48.501  26.258  27.422  1.00  0.00    -0.206 F 
ATOM     90  C   UNL A   1      49.904  26.632  24.104  1.00  0.00     0.006 A 
ENDBRANCH  66  83
ENDBRANCH  40  41
ENDBRANCH  33  35
ENDBRANCH  32  33
ENDBRANCH  31  32
ENDBRANCH  30  31
ENDBRANCH   1  30
TORSDOF 18
ENDMDL
MODEL 3
REMARK VINA RESULT:     -11.3      4.345      9.683
REMARK SMILES COc1cc(-c2cc(C(=O)OCCOCCOC(=O)c3ccc(-c4c5nc(c(-c6c(F)cccc6F)c6ccc([nH]6)c(-c6c(F)cccc6F)c6nc(c(-c7c(F)cccc7F)c7ccc4[nH]7)C=C6)C=C5)cc3)c3cc(C)ccc3n2)cc(OC)c1OC
REMARK SMILES IDX 14 1 13 2 12 3 11 4 9 5 10 6 8 7 6 8 7 9 81 10 80 11 74 12
REMARK SMILES IDX 79 13 75 14 78 15 76 16 77 17 5 18 3 19 4 20 86 21 83 22
REMARK SMILES IDX 82 23 2 24 1 25 87 26 88 27 84 28 85 29 15 30 16 31 17 32
REMARK SMILES IDX 18 33 19 34 20 35 21 36 73 37 22 38 72 39 23 40 24 41 25 42
REMARK SMILES IDX 66 43 26 44 71 45 65 46 67 47 27 48 70 49 64 50 63 51 28 53
REMARK SMILES IDX 54 54 37 55 53 56 38 57 41 58 52 59 68 60 39 61 40 62 51 64
REMARK SMILES IDX 69 65 42 66 29 67 30 68 35 69 31 70 32 71 34 72 36 73 33 74
REMARK SMILES IDX 55 75 56 76 61 77 57 78 58 79 60 80 62 81 59 82 43 83 44 84
REMARK SMILES IDX 49 85 45 86 46 87 48 88 50 89 47 90
REMARK H PARENT 67 52 41 63
REMARK Flexibility Score: inf
ROOT
ATOM      1  O   UNL A   1      42.121  21.350  26.481  1.00  0.00    -0.374 OA
ENDROOT
BRANCH   1   2
ATOM      2  C   UNL A   1      40.889  22.077  26.491  1.00  0.00     0.202 C 
BRANCH   2   3
ATOM      3  C   UNL A   1      39.598  21.358  26.082  1.00  0.00     0.261 C 
BRANCH   3   4
ATOM      4  O   UNL A   1      38.499  22.275  25.944  1.00  0.00    -0.460 OA
BRANCH   4   5
ATOM      5  C   UNL A   1      37.517  21.803  25.149  1.00  0.00     0.338 C 
ATOM      6  O   UNL A   1      37.630  20.929  24.307  1.00  0.00    -0.246 OA
BRANCH   5   7
ATOM      7  C   UNL A   1      36.208  22.360  25.577  1.00  0.00     0.071 A 
ATOM      8  C   UNL A   1      35.307  24.496  25.209  1.00  0.00     0.072 A 
ATOM      9  C   UNL A   1      36.219  23.715  25.892  1.00  0.00     0.045 A 
ATOM     10  N   UNL A   1      34.865  24.066  23.996  1.00  0.00    -0.248 NA
ATOM     11  C   UNL A   1      34.570  22.769  23.915  1.00  0.00     0.072 A 
ATOM     12  C   UNL A   1      35.108  21.880  24.841  1.00  0.00     0.015 A 
ATOM     13  C   UNL A   1      33.516  22.374  23.111  1.00  0.00     0.029 A 
ATOM     14  C   UNL A   1      34.342  20.747  25.187  1.00  0.00     0.014 A 
ATOM     15  C   UNL A   1      32.794  21.218  23.413  1.00  0.00     0.005 A 
ATOM     16  C   UNL A   1      33.141  20.459  24.528  1.00  0.00    -0.050 A 
ATOM     17  C   UNL A   1      32.213  19.408  25.064  1.00  0.00     0.044 C 
BRANCH   8  18
ATOM     18  C   UNL A   1      34.150  25.125  25.912  1.00  0.00     0.008 A 
ATOM     19  C   UNL A   1      32.300  26.686  25.724  1.00  0.00     0.165 A 
ATOM     20  C   UNL A   1      33.650  26.368  25.517  1.00  0.00     0.061 A 
ATOM     21  C   UNL A   1      31.411  25.710  26.204  1.00  0.00     0.203 A 
ATOM     22  C   UNL A   1      31.925  24.510  26.690  1.00  0.00     0.165 A 
ATOM     23  C   UNL A   1      33.294  24.269  26.645  1.00  0.00     0.061 A 
BRANCH  19  24
ATOM     24  O   UNL A   1      31.930  27.937  25.302  1.00  0.00    -0.493 OA
ATOM     25  C   UNL A   1      32.658  28.412  24.170  1.00  0.00     0.278 C 
ENDBRANCH  19  24
BRANCH  21  26
ATOM     26  O   UNL A   1      30.051  25.885  26.216  1.00  0.00    -0.490 OA
ATOM     27  C   UNL A   1      29.512  25.992  24.895  1.00  0.00     0.278 C 
ENDBRANCH  21  26
BRANCH  22  28
ATOM     28  O   UNL A   1      31.132  23.480  27.129  1.00  0.00    -0.493 OA
ATOM     29  C   UNL A   1      30.719  22.656  26.032  1.00  0.00     0.278 C 
ENDBRANCH  22  28
ENDBRANCH   8  18
ENDBRANCH   5   7
ENDBRANCH   4   5
ENDBRANCH   3   4
ENDBRANCH   2   3
ENDBRANCH   1   2
BRANCH   1  30
ATOM     30  C   UNL A   1      42.994  21.552  25.379  1.00  0.00     0.202 C 
BRANCH  30  31
ATOM     31  C   UNL A   1      44.475  21.865  25.646  1.00  0.00     0.261 C 
BRANCH  31  32
ATOM     32  O   UNL A   1      44.700  23.006  26.481  1.00  0.00    -0.460 OA
BRANCH  32  33
ATOM     33  C   UNL A   1      44.515  24.192  25.848  1.00  0.00     0.338 C 
ATOM     34  O   UNL A   1      44.821  24.480  24.706  1.00  0.00    -0.246 OA
BRANCH  33  35
ATOM     35  C   UNL A   1      43.714  25.084  26.704  1.00  0.00     0.060 A 
ATOM     36  C   UNL A   1      44.133  26.416  26.807  1.00  0.00     0.016 A 
ATOM     37  C   UNL A   1      42.619  24.617  27.431  1.00  0.00     0.016 A 
ATOM     38  C   UNL A   1      43.472  27.286  27.667  1.00  0.00     0.010 A 
ATOM     39  C   UNL A   1      41.970  25.486  28.314  1.00  0.00     0.010 A 
ATOM     40  C   UNL A   1      42.414  26.813  28.455  1.00  0.00    -0.014 A 
BRANCH  40  41
ATOM     41  C   UNL A   1      41.899  27.670  29.544  1.00  0.00     0.031 A 
ATOM     42  C   UNL A   1      42.604  27.649  30.870  1.00  0.00     0.074 A 
ATOM     43  C   UNL A   1      40.854  28.489  29.339  1.00  0.00     0.049 A 
ATOM     44  N   UNL A   1      42.340  28.318  31.962  1.00  0.00    -0.248 NA
ATOM     45  C   UNL A   1      43.767  26.752  30.977  1.00  0.00     0.031 C 
ATOM     46  C   UNL A   1      40.121  28.624  28.082  1.00  0.00     0.029 A 
ATOM     47  N   UNL A   1      40.230  29.362  30.192  1.00  0.00    -0.354 N 
ATOM     48  C   UNL A   1      43.302  27.927  32.884  1.00  0.00     0.074 A 
ATOM     49  C   UNL A   1      44.139  26.941  32.234  1.00  0.00     0.031 C 
ATOM     50  C   UNL A   1      39.136  29.524  28.249  1.00  0.00     0.029 A 
ATOM     51  C   UNL A   1      39.157  30.007  29.628  1.00  0.00     0.049 A 
ATOM     52  H   UNL A   1      40.523  29.512  31.119  1.00  0.00     0.167 HD
ATOM     53  C   UNL A   1      43.478  28.358  34.154  1.00  0.00     0.037 A 
ATOM     54  C   UNL A   1      38.286  30.877  30.174  1.00  0.00     0.037 A 
ATOM     55  C   UNL A   1      42.638  29.331  34.799  1.00  0.00     0.049 A 
ATOM     56  C   UNL A   1      38.458  31.288  31.611  1.00  0.00     0.074 A 
ATOM     57  C   UNL A   1      42.735  29.843  36.080  1.00  0.00     0.029 A 
ATOM     58  N   UNL A   1      41.537  29.935  34.208  1.00  0.00    -0.354 N 
ATOM     59  N   UNL A   1      39.384  30.931  32.468  1.00  0.00    -0.248 NA
ATOM     60  C   UNL A   1      37.465  32.224  32.156  1.00  0.00     0.031 C 
ATOM     61  C   UNL A   1      41.667  30.724  36.280  1.00  0.00     0.029 A 
ATOM     62  C   UNL A   1      40.931  30.796  35.107  1.00  0.00     0.049 A 
ATOM     63  H   UNL A   1      41.233  29.774  33.286  1.00  0.00     0.167 HD
ATOM     64  C   UNL A   1      39.103  31.616  33.643  1.00  0.00     0.074 A 
ATOM     65  C   UNL A   1      37.923  32.418  33.386  1.00  0.00     0.031 C 
ATOM     66  C   UNL A   1      39.760  31.586  34.829  1.00  0.00     0.037 A 
BRANCH  53  67
ATOM     67  C   UNL A   1      44.605  27.751  34.935  1.00  0.00     0.057 A 
ATOM     68  C   UNL A   1      45.884  28.323  34.954  1.00  0.00     0.134 A 
ATOM     69  C   UNL A   1      44.407  26.584  35.683  1.00  0.00     0.134 A 
ATOM     70  F   UNL A   1      46.143  29.432  34.244  1.00  0.00    -0.206 F 
ATOM     71  C   UNL A   1      46.931  27.745  35.674  1.00  0.00     0.040 A 
ATOM     72  C   UNL A   1      45.440  26.009  36.425  1.00  0.00     0.040 A 
ATOM     73  F   UNL A   1      43.207  25.986  35.706  1.00  0.00    -0.206 F 
ATOM     74  C   UNL A   1      46.708  26.587  36.415  1.00  0.00     0.006 A 
ENDBRANCH  53  67
BRANCH  54  75
ATOM     75  C   UNL A   1      37.166  31.411  29.360  1.00  0.00     0.057 A 
ATOM     76  C   UNL A   1      37.210  32.701  28.820  1.00  0.00     0.134 A 
ATOM     77  C   UNL A   1      36.022  30.644  29.110  1.00  0.00     0.134 A 
ATOM     78  F   UNL A   1      38.270  33.492  29.044  1.00  0.00    -0.206 F 
ATOM     79  C   UNL A   1      36.150  33.214  28.069  1.00  0.00     0.040 A 
ATOM     80  C   UNL A   1      34.965  31.137  28.343  1.00  0.00     0.040 A 
ATOM     81  F   UNL A   1      35.919  29.401  29.601  1.00  0.00    -0.206 F 
ATOM     82  C   UNL A   1      35.026  32.428  27.825  1.00  0.00     0.006 A 
ENDBRANCH  54  75
BRANCH  66  83
ATOM     83  C   UNL A   1      39.237  32.466  35.925  1.00  0.00     0.057 A 
ATOM     84  C   UNL A   1      38.345  31.988  36.893  1.00  0.00     0.134 A 
ATOM     85  C   UNL A   1      39.669  33.793  36.040  1.00  0.00     0.134 A 
ATOM     86  F   UNL A   1      37.886  30.729  36.832  1.00  0.00    -0.206 F 
ATOM     87  C   UNL A   1      37.885  32.806  37.927  1.00  0.00     0.040 A 
ATOM     88  C   UNL A   1      39.235  34.614  37.082  1.00  0.00     0.040 A 
ATOM     89  F   UNL A   1      40.531  34.310  35.151  1.00  0.00    -0.206 F 
ATOM     90  C   UNL A   1      38.336  34.121  38.026  1.00  0.00     0.006 A 
ENDBRANCH  66  83
ENDBRANCH  40  41
ENDBRANCH  33  35
ENDBRANCH  32  33
ENDBRANCH  31  32
ENDBRANCH  30  31
ENDBRANCH   1  30
TORSDOF 18
ENDMDL
