MODEL 1
REMARK VINA RESULT:     -11.8      0.000      0.000
REMARK SMILES O=C(OCCOCCOC(=O)[C@@H]1CN(C(=O)C[NH+]2CCOCC2)C[C@H]1c1ccc2c(c1)OCO2)c1ccc(-c2c3nc(c(-c4c(F)cccc4F)c4ccc([nH]4)c(-c4c(F)cccc4F)c4nc(c(-c5c(F)cccc5F)c5ccc2[nH]5)C=C4)C=C3)cc1
REMARK SMILES IDX 7 1 6 2 5 3 4 4 3 5 2 6 1 7 35 8 36 9 88 10 37 11 87 12
REMARK SMILES IDX 38 13 39 14 40 15 81 16 41 17 86 18 80 19 82 20 42 21 85 22
REMARK SMILES IDX 79 23 78 24 43 26 69 27 52 28 68 29 53 30 56 31 67 32 83 33
REMARK SMILES IDX 54 34 55 35 66 37 84 38 57 39 44 40 45 41 50 42 46 43 47 44
REMARK SMILES IDX 49 45 51 46 48 47 70 48 71 49 76 50 72 51 73 52 75 53 77 54
REMARK SMILES IDX 74 55 58 56 59 57 64 58 60 59 61 60 63 61 65 62 62 63 8 64
REMARK SMILES IDX 9 65 10 66 11 67 12 68 13 69 25 70 14 71 24 72 26 73 27 74
REMARK SMILES IDX 31 75 28 76 30 77 29 78 32 79 34 80 33 81 15 82 16 83 17 84
REMARK SMILES IDX 18 85 19 86 23 87 20 89 22 90 21 91
REMARK H PARENT 82 25 56 36 18 88
REMARK Flexibility Score: inf
ROOT
ATOM      1  C   UNL A   1      33.072  30.153  26.488  1.00  0.00     0.202 C 
ENDROOT
BRANCH   1   2
ATOM      2  O   UNL A   1      31.875  30.639  27.112  1.00  0.00    -0.374 OA
BRANCH   2   3
ATOM      3  C   UNL A   1      31.368  31.894  26.654  1.00  0.00     0.202 C 
BRANCH   3   4
ATOM      4  C   UNL A   1      32.278  33.126  26.691  1.00  0.00     0.261 C 
BRANCH   4   5
ATOM      5  O   UNL A   1      32.138  33.830  27.936  1.00  0.00    -0.460 OA
BRANCH   5   6
ATOM      6  C   UNL A   1      33.108  34.550  28.556  1.00  0.00     0.338 C 
ATOM      7  O   UNL A   1      33.005  35.767  28.663  1.00  0.00    -0.246 OA
BRANCH   6   8
ATOM      8  C   UNL A   1      34.307  33.875  29.111  1.00  0.00     0.060 A 
ATOM      9  C   UNL A   1      34.213  32.714  29.873  1.00  0.00     0.016 A 
ATOM     10  C   UNL A   1      35.576  34.381  28.818  1.00  0.00     0.016 A 
ATOM     11  C   UNL A   1      35.305  32.149  30.476  1.00  0.00     0.010 A 
ATOM     12  C   UNL A   1      36.712  33.734  29.316  1.00  0.00     0.010 A 
ATOM     13  C   UNL A   1      36.567  32.621  30.156  1.00  0.00    -0.014 A 
BRANCH  13  14
ATOM     14  C   UNL A   1      37.690  31.901  30.765  1.00  0.00     0.031 A 
ATOM     15  C   UNL A   1      38.021  32.178  32.191  1.00  0.00     0.074 A 
ATOM     16  C   UNL A   1      38.253  30.894  30.070  1.00  0.00     0.049 A 
ATOM     17  N   UNL A   1      39.001  31.707  32.909  1.00  0.00    -0.248 NA
ATOM     18  C   UNL A   1      37.124  33.097  32.915  1.00  0.00     0.031 C 
ATOM     19  C   UNL A   1      37.853  30.467  28.720  1.00  0.00     0.029 A 
ATOM     20  N   UNL A   1      39.241  30.014  30.409  1.00  0.00    -0.354 N 
ATOM     21  C   UNL A   1      38.873  32.313  34.150  1.00  0.00     0.074 A 
ATOM     22  C   UNL A   1      37.710  33.170  34.100  1.00  0.00     0.031 C 
ATOM     23  C   UNL A   1      38.567  29.389  28.366  1.00  0.00     0.029 A 
ATOM     24  C   UNL A   1      39.546  29.124  29.408  1.00  0.00     0.049 A 
ATOM     25  H   UNL A   1      39.692  30.018  31.285  1.00  0.00     0.167 HD
ATOM     26  C   UNL A   1      39.685  32.166  35.218  1.00  0.00     0.037 A 
ATOM     27  C   UNL A   1      40.556  28.240  29.326  1.00  0.00     0.037 A 
ATOM     28  C   UNL A   1      40.820  31.284  35.216  1.00  0.00     0.049 A 
ATOM     29  C   UNL A   1      41.501  28.180  30.491  1.00  0.00     0.074 A 
ATOM     30  C   UNL A   1      41.757  31.079  36.208  1.00  0.00     0.029 A 
ATOM     31  N   UNL A   1      41.163  30.456  34.153  1.00  0.00    -0.354 N 
ATOM     32  N   UNL A   1      41.437  28.816  31.639  1.00  0.00    -0.248 NA
ATOM     33  C   UNL A   1      42.673  27.311  30.347  1.00  0.00     0.031 C 
ATOM     34  C   UNL A   1      42.699  30.165  35.725  1.00  0.00     0.029 A 
ATOM     35  C   UNL A   1      42.315  29.756  34.454  1.00  0.00     0.049 A 
ATOM     36  H   UNL A   1      40.659  30.380  33.311  1.00  0.00     0.167 HD
ATOM     37  C   UNL A   1      42.549  28.414  32.360  1.00  0.00     0.074 A 
ATOM     38  C   UNL A   1      43.253  27.455  31.529  1.00  0.00     0.031 C 
ATOM     39  C   UNL A   1      42.965  28.802  33.591  1.00  0.00     0.037 A 
BRANCH  26  40
ATOM     40  C   UNL A   1      39.424  33.035  36.409  1.00  0.00     0.057 A 
ATOM     41  C   UNL A   1      40.063  34.265  36.601  1.00  0.00     0.134 A 
ATOM     42  C   UNL A   1      38.515  32.619  37.390  1.00  0.00     0.134 A 
ATOM     43  F   UNL A   1      40.972  34.706  35.717  1.00  0.00    -0.206 F 
ATOM     44  C   UNL A   1      39.815  35.047  37.733  1.00  0.00     0.040 A 
ATOM     45  C   UNL A   1      38.241  33.400  38.513  1.00  0.00     0.040 A 
ATOM     46  F   UNL A   1      37.881  31.442  37.275  1.00  0.00    -0.206 F 
ATOM     47  C   UNL A   1      38.895  34.617  38.688  1.00  0.00     0.006 A 
ENDBRANCH  26  40
BRANCH  27  48
ATOM     48  C   UNL A   1      40.783  27.447  28.090  1.00  0.00     0.057 A 
ATOM     49  C   UNL A   1      41.536  27.949  27.023  1.00  0.00     0.134 A 
ATOM     50  C   UNL A   1      40.209  26.176  27.922  1.00  0.00     0.134 A 
ATOM     51  F   UNL A   1      42.101  29.162  27.109  1.00  0.00    -0.206 F 
ATOM     52  C   UNL A   1      41.682  27.238  25.829  1.00  0.00     0.040 A 
ATOM     53  C   UNL A   1      40.376  25.440  26.749  1.00  0.00     0.040 A 
ATOM     54  F   UNL A   1      39.477  25.627  28.903  1.00  0.00    -0.206 F 
ATOM     55  C   UNL A   1      41.102  25.978  25.690  1.00  0.00     0.006 A 
ENDBRANCH  27  48
BRANCH  39  56
ATOM     56  C   UNL A   1      44.213  28.155  34.107  1.00  0.00     0.057 A 
ATOM     57  C   UNL A   1      44.182  26.938  34.795  1.00  0.00     0.134 A 
ATOM     58  C   UNL A   1      45.460  28.744  33.869  1.00  0.00     0.134 A 
ATOM     59  F   UNL A   1      43.013  26.337  35.067  1.00  0.00    -0.206 F 
ATOM     60  C   UNL A   1      45.354  26.337  35.252  1.00  0.00     0.040 A 
ATOM     61  C   UNL A   1      46.640  28.136  34.292  1.00  0.00     0.040 A 
ATOM     62  F   UNL A   1      45.552  29.907  33.207  1.00  0.00    -0.206 F 
ATOM     63  C   UNL A   1      46.587  26.931  34.991  1.00  0.00     0.006 A 
ENDBRANCH  39  56
ENDBRANCH  13  14
ENDBRANCH   6   8
ENDBRANCH   5   6
ENDBRANCH   4   5
ENDBRANCH   3   4
ENDBRANCH   2   3
ENDBRANCH   1   2
BRANCH   1  64
ATOM     64  C   UNL A   1      33.475  28.824  27.133  1.00  0.00     0.261 C 
BRANCH  64  65
ATOM     65  O   UNL A   1      33.234  27.786  26.169  1.00  0.00    -0.463 OA
BRANCH  65  66
ATOM     66  C   UNL A   1      32.030  27.153  26.293  1.00  0.00     0.311 C 
ATOM     67  O   UNL A   1      31.369  27.156  27.316  1.00  0.00    -0.252 OA
BRANCH  66  68
ATOM     68  C   UNL A   1      31.638  26.456  24.997  1.00  0.00     0.128 C 
ATOM     69  C   UNL A   1      32.702  25.431  24.594  1.00  0.00     0.135 C 
ATOM     70  C   UNL A   1      31.565  27.358  23.737  1.00  0.00     0.055 C 
ATOM     71  N   UNL A   1      32.592  25.286  23.163  1.00  0.00    -0.336 N 
ATOM     72  C   UNL A   1      31.786  26.350  22.590  1.00  0.00     0.129 C 
BRANCH  70  73
ATOM     73  C   UNL A   1      30.346  28.251  23.648  1.00  0.00    -0.038 A 
ATOM     74  C   UNL A   1      29.098  27.672  23.296  1.00  0.00     0.008 A 
ATOM     75  C   UNL A   1      30.402  29.637  23.851  1.00  0.00     0.054 A 
ATOM     76  C   UNL A   1      27.970  28.453  23.028  1.00  0.00     0.051 A 
ATOM     77  C   UNL A   1      29.273  30.383  23.587  1.00  0.00     0.166 A 
ATOM     78  C   UNL A   1      28.099  29.813  23.161  1.00  0.00     0.165 A 
ATOM     79  O   UNL A   1      29.193  31.737  23.668  1.00  0.00    -0.454 OA
ATOM     80  O   UNL A   1      27.142  30.738  22.890  1.00  0.00    -0.454 OA
ATOM     81  C   UNL A   1      27.884  31.957  23.107  1.00  0.00     0.468 C 
ENDBRANCH  70  73
BRANCH  71  82
ATOM     82  C   UNL A   1      33.091  24.259  22.389  1.00  0.00     0.277 C 
ATOM     83  O   UNL A   1      33.344  24.433  21.195  1.00  0.00    -0.268 OA
BRANCH  82  84
ATOM     84  C   UNL A   1      33.347  22.903  23.060  1.00  0.00     0.363 C 
BRANCH  84  85
ATOM     85  N   UNL A   1      32.142  22.114  23.368  1.00  0.00    -0.323 N 
ATOM     86  C   UNL A   1      31.711  22.096  24.769  1.00  0.00     0.291 C 
ATOM     87  C   UNL A   1      32.119  20.756  22.797  1.00  0.00     0.291 C 
ATOM     88  H   UNL A   1      31.441  22.664  22.872  1.00  0.00     0.348 HD
ATOM     89  C   UNL A   1      32.298  20.953  25.606  1.00  0.00     0.221 C 
ATOM     90  C   UNL A   1      32.685  19.647  23.701  1.00  0.00     0.221 C 
ATOM     91  O   UNL A   1      32.084  19.679  25.000  1.00  0.00    -0.370 OA
ENDBRANCH  84  85
ENDBRANCH  82  84
ENDBRANCH  71  82
ENDBRANCH  66  68
ENDBRANCH  65  66
ENDBRANCH  64  65
ENDBRANCH   1  64
TORSDOF 18
ENDMDL
MODEL 2
REMARK VINA RESULT:     -11.6      1.429      6.218
REMARK SMILES O=C(OCCOCCOC(=O)[C@@H]1CN(C(=O)C[NH+]2CCOCC2)C[C@H]1c1ccc2c(c1)OCO2)c1ccc(-c2c3nc(c(-c4c(F)cccc4F)c4ccc([nH]4)c(-c4c(F)cccc4F)c4nc(c(-c5c(F)cccc5F)c5ccc2[nH]5)C=C4)C=C3)cc1
REMARK SMILES IDX 7 1 6 2 5 3 4 4 3 5 2 6 1 7 35 8 36 9 88 10 37 11 87 12
REMARK SMILES IDX 38 13 39 14 40 15 81 16 41 17 86 18 80 19 82 20 42 21 85 22
REMARK SMILES IDX 79 23 78 24 43 26 69 27 52 28 68 29 53 30 56 31 67 32 83 33
REMARK SMILES IDX 54 34 55 35 66 37 84 38 57 39 44 40 45 41 50 42 46 43 47 44
REMARK SMILES IDX 49 45 51 46 48 47 70 48 71 49 76 50 72 51 73 52 75 53 77 54
REMARK SMILES IDX 74 55 58 56 59 57 64 58 60 59 61 60 63 61 65 62 62 63 8 64
REMARK SMILES IDX 9 65 10 66 11 67 12 68 13 69 25 70 14 71 24 72 26 73 27 74
REMARK SMILES IDX 31 75 28 76 30 77 29 78 32 79 34 80 33 81 15 82 16 83 17 84
REMARK SMILES IDX 18 85 19 86 23 87 20 89 22 90 21 91
REMARK H PARENT 82 25 56 36 18 88
REMARK Flexibility Score: inf
ROOT
ATOM      1  C   UNL A   1      32.899  30.098  26.338  1.00  0.00     0.202 C 
ENDROOT
BRANCH   1   2
ATOM      2  O   UNL A   1      31.636  30.570  26.828  1.00  0.00    -0.374 OA
BRANCH   2   3
ATOM      3  C   UNL A   1      31.432  31.984  26.842  1.00  0.00     0.202 C 
BRANCH   3   4
ATOM      4  C   UNL A   1      32.622  32.908  27.118  1.00  0.00     0.261 C 
BRANCH   4   5
ATOM      5  O   UNL A   1      32.196  34.107  27.786  1.00  0.00    -0.460 OA
BRANCH   5   6
ATOM      6  C   UNL A   1      32.897  34.782  28.733  1.00  0.00     0.338 C 
ATOM      7  O   UNL A   1      32.537  35.897  29.095  1.00  0.00    -0.246 OA
BRANCH   6   8
ATOM      8  C   UNL A   1      34.109  34.181  29.344  1.00  0.00     0.060 A 
ATOM      9  C   UNL A   1      34.029  33.212  30.340  1.00  0.00     0.016 A 
ATOM     10  C   UNL A   1      35.370  34.550  28.870  1.00  0.00     0.016 A 
ATOM     11  C   UNL A   1      35.141  32.734  30.980  1.00  0.00     0.010 A 
ATOM     12  C   UNL A   1      36.516  33.967  29.421  1.00  0.00     0.010 A 
ATOM     13  C   UNL A   1      36.393  33.065  30.488  1.00  0.00    -0.014 A 
BRANCH  13  14
ATOM     14  C   UNL A   1      37.531  32.436  31.165  1.00  0.00     0.031 A 
ATOM     15  C   UNL A   1      38.253  31.335  30.468  1.00  0.00     0.074 A 
ATOM     16  C   UNL A   1      37.985  32.998  32.302  1.00  0.00     0.049 A 
ATOM     17  N   UNL A   1      39.239  30.602  30.901  1.00  0.00    -0.248 NA
ATOM     18  C   UNL A   1      37.821  31.024  29.093  1.00  0.00     0.031 C 
ATOM     19  C   UNL A   1      37.411  34.189  32.948  1.00  0.00     0.029 A 
ATOM     20  N   UNL A   1      39.054  32.685  33.092  1.00  0.00    -0.354 N 
ATOM     21  C   UNL A   1      39.509  29.707  29.877  1.00  0.00     0.074 A 
ATOM     22  C   UNL A   1      38.602  29.998  28.791  1.00  0.00     0.031 C 
ATOM     23  C   UNL A   1      38.157  34.520  34.011  1.00  0.00     0.029 A 
ATOM     24  C   UNL A   1      39.183  33.505  34.187  1.00  0.00     0.049 A 
ATOM     25  H   UNL A   1      39.673  31.944  32.896  1.00  0.00     0.167 HD
ATOM     26  C   UNL A   1      40.430  28.719  29.877  1.00  0.00     0.037 A 
ATOM     27  C   UNL A   1      40.002  33.396  35.247  1.00  0.00     0.037 A 
ATOM     28  C   UNL A   1      41.320  28.487  30.981  1.00  0.00     0.049 A 
ATOM     29  C   UNL A   1      40.940  32.223  35.262  1.00  0.00     0.074 A 
ATOM     30  C   UNL A   1      42.262  27.490  31.137  1.00  0.00     0.029 A 
ATOM     31  N   UNL A   1      41.370  29.278  32.123  1.00  0.00    -0.354 N 
ATOM     32  N   UNL A   1      41.142  31.316  34.332  1.00  0.00    -0.248 NA
ATOM     33  C   UNL A   1      41.740  32.032  36.475  1.00  0.00     0.031 C 
ATOM     34  C   UNL A   1      42.845  27.647  32.399  1.00  0.00     0.029 A 
ATOM     35  C   UNL A   1      42.309  28.777  33.003  1.00  0.00     0.049 A 
ATOM     36  H   UNL A   1      40.818  30.078  32.281  1.00  0.00     0.167 HD
ATOM     37  C   UNL A   1      42.103  30.457  34.840  1.00  0.00     0.074 A 
ATOM     38  C   UNL A   1      42.463  30.971  36.149  1.00  0.00     0.031 C 
ATOM     39  C   UNL A   1      42.637  29.340  34.290  1.00  0.00     0.037 A 
BRANCH  26  40
ATOM     40  C   UNL A   1      40.442  27.786  28.706  1.00  0.00     0.057 A 
ATOM     41  C   UNL A   1      41.198  28.029  27.554  1.00  0.00     0.134 A 
ATOM     42  C   UNL A   1      39.665  26.621  28.735  1.00  0.00     0.134 A 
ATOM     43  F   UNL A   1      41.936  29.145  27.446  1.00  0.00    -0.206 F 
ATOM     44  C   UNL A   1      41.175  27.150  26.468  1.00  0.00     0.040 A 
ATOM     45  C   UNL A   1      39.650  25.723  27.668  1.00  0.00     0.040 A 
ATOM     46  F   UNL A   1      38.903  26.337  29.803  1.00  0.00    -0.206 F 
ATOM     47  C   UNL A   1      40.404  25.990  26.527  1.00  0.00     0.006 A 
ENDBRANCH  26  40
BRANCH  27  48
ATOM     48  C   UNL A   1      39.898  34.331  36.398  1.00  0.00     0.057 A 
ATOM     49  C   UNL A   1      39.062  34.063  37.487  1.00  0.00     0.134 A 
ATOM     50  C   UNL A   1      40.599  35.547  36.416  1.00  0.00     0.134 A 
ATOM     51  F   UNL A   1      38.352  32.927  37.530  1.00  0.00    -0.206 F 
ATOM     52  C   UNL A   1      38.901  34.979  38.530  1.00  0.00     0.040 A 
ATOM     53  C   UNL A   1      40.475  36.455  37.468  1.00  0.00     0.040 A 
ATOM     54  F   UNL A   1      41.422  35.872  35.407  1.00  0.00    -0.206 F 
ATOM     55  C   UNL A   1      39.610  36.179  38.523  1.00  0.00     0.006 A 
ENDBRANCH  27  48
BRANCH  39  56
ATOM     56  C   UNL A   1      43.684  28.636  35.094  1.00  0.00     0.057 A 
ATOM     57  C   UNL A   1      45.043  28.946  34.970  1.00  0.00     0.134 A 
ATOM     58  C   UNL A   1      43.317  27.667  36.035  1.00  0.00     0.134 A 
ATOM     59  F   UNL A   1      45.455  29.854  34.071  1.00  0.00    -0.206 F 
ATOM     60  C   UNL A   1      46.006  28.298  35.740  1.00  0.00     0.040 A 
ATOM     61  C   UNL A   1      44.268  27.036  36.835  1.00  0.00     0.040 A 
ATOM     62  F   UNL A   1      42.028  27.334  36.205  1.00  0.00    -0.206 F 
ATOM     63  C   UNL A   1      45.618  27.347  36.683  1.00  0.00     0.006 A 
ENDBRANCH  39  56
ENDBRANCH  13  14
ENDBRANCH   6   8
ENDBRANCH   5   6
ENDBRANCH   4   5
ENDBRANCH   3   4
ENDBRANCH   2   3
ENDBRANCH   1   2
BRANCH   1  64
ATOM     64  C   UNL A   1      33.465  29.060  27.312  1.00  0.00     0.261 C 
BRANCH  64  65
ATOM     65  O   UNL A   1      33.330  27.770  26.694  1.00  0.00    -0.463 OA
BRANCH  65  66
ATOM     66  C   UNL A   1      32.067  27.249  26.719  1.00  0.00     0.311 C 
ATOM     67  O   UNL A   1      31.275  27.447  27.622  1.00  0.00    -0.252 OA
BRANCH  66  68
ATOM     68  C   UNL A   1      31.797  26.401  25.483  1.00  0.00     0.128 C 
ATOM     69  C   UNL A   1      32.929  25.394  25.263  1.00  0.00     0.135 C 
ATOM     70  C   UNL A   1      31.775  27.161  24.131  1.00  0.00     0.055 C 
ATOM     71  N   UNL A   1      32.926  25.094  23.852  1.00  0.00    -0.336 N 
ATOM     72  C   UNL A   1      32.119  26.050  23.117  1.00  0.00     0.129 C 
BRANCH  70  73
ATOM     73  C   UNL A   1      30.529  27.979  23.867  1.00  0.00    -0.038 A 
ATOM     74  C   UNL A   1      29.322  27.302  23.546  1.00  0.00     0.008 A 
ATOM     75  C   UNL A   1      30.523  29.380  23.877  1.00  0.00     0.054 A 
ATOM     76  C   UNL A   1      28.179  27.988  23.124  1.00  0.00     0.051 A 
ATOM     77  C   UNL A   1      29.380  30.033  23.463  1.00  0.00     0.166 A 
ATOM     78  C   UNL A   1      28.250  29.358  23.071  1.00  0.00     0.165 A 
ATOM     79  O   UNL A   1      29.245  31.380  23.351  1.00  0.00    -0.454 OA
ATOM     80  O   UNL A   1      27.273  30.194  22.633  1.00  0.00    -0.454 OA
ATOM     81  C   UNL A   1      27.957  31.463  22.709  1.00  0.00     0.468 C 
ENDBRANCH  70  73
BRANCH  71  82
ATOM     82  C   UNL A   1      33.521  24.017  23.228  1.00  0.00     0.277 C 
ATOM     83  O   UNL A   1      32.897  23.338  22.409  1.00  0.00    -0.268 OA
BRANCH  82  84
ATOM     84  C   UNL A   1      34.986  23.703  23.560  1.00  0.00     0.363 C 
BRANCH  84  85
ATOM     85  N   UNL A   1      35.202  22.954  24.810  1.00  0.00    -0.323 N 
ATOM     86  C   UNL A   1      36.016  23.611  25.836  1.00  0.00     0.291 C 
ATOM     87  C   UNL A   1      35.616  21.550  24.635  1.00  0.00     0.291 C 
ATOM     88  H   UNL A   1      34.251  22.946  25.177  1.00  0.00     0.348 HD
ATOM     89  C   UNL A   1      37.518  23.307  25.755  1.00  0.00     0.221 C 
ATOM     90  C   UNL A   1      37.135  21.306  24.602  1.00  0.00     0.221 C 
ATOM     91  O   UNL A   1      37.781  21.905  25.730  1.00  0.00    -0.370 OA
ENDBRANCH  84  85
ENDBRANCH  82  84
ENDBRANCH  71  82
ENDBRANCH  66  68
ENDBRANCH  65  66
ENDBRANCH  64  65
ENDBRANCH   1  64
TORSDOF 18
ENDMDL
MODEL 3
REMARK VINA RESULT:     -11.2      1.071      6.270
REMARK SMILES O=C(OCCOCCOC(=O)[C@@H]1CN(C(=O)C[NH+]2CCOCC2)C[C@H]1c1ccc2c(c1)OCO2)c1ccc(-c2c3nc(c(-c4c(F)cccc4F)c4ccc([nH]4)c(-c4c(F)cccc4F)c4nc(c(-c5c(F)cccc5F)c5ccc2[nH]5)C=C4)C=C3)cc1
REMARK SMILES IDX 7 1 6 2 5 3 4 4 3 5 2 6 1 7 35 8 36 9 88 10 37 11 87 12
REMARK SMILES IDX 38 13 39 14 40 15 81 16 41 17 86 18 80 19 82 20 42 21 85 22
REMARK SMILES IDX 79 23 78 24 43 26 69 27 52 28 68 29 53 30 56 31 67 32 83 33
REMARK SMILES IDX 54 34 55 35 66 37 84 38 57 39 44 40 45 41 50 42 46 43 47 44
REMARK SMILES IDX 49 45 51 46 48 47 70 48 71 49 76 50 72 51 73 52 75 53 77 54
REMARK SMILES IDX 74 55 58 56 59 57 64 58 60 59 61 60 63 61 65 62 62 63 8 64
REMARK SMILES IDX 9 65 10 66 11 67 12 68 13 69 25 70 14 71 24 72 26 73 27 74
REMARK SMILES IDX 31 75 28 76 30 77 29 78 32 79 34 80 33 81 15 82 16 83 17 84
REMARK SMILES IDX 18 85 19 86 23 87 20 89 22 90 21 91
REMARK H PARENT 82 25 56 36 18 88
REMARK Flexibility Score: inf
ROOT
ATOM      1  C   UNL A   1      32.054  29.965  25.692  1.00  0.00     0.202 C 
ENDROOT
BRANCH   1   2
ATOM      2  O   UNL A   1      32.308  30.883  26.765  1.00  0.00    -0.374 OA
BRANCH   2   3
ATOM      3  C   UNL A   1      31.424  32.000  26.885  1.00  0.00     0.202 C 
BRANCH   3   4
ATOM      4  C   UNL A   1      31.999  33.418  26.818  1.00  0.00     0.261 C 
BRANCH   4   5
ATOM      5  O   UNL A   1      32.380  33.879  28.125  1.00  0.00    -0.460 OA
BRANCH   5   6
ATOM      6  C   UNL A   1      33.537  34.517  28.437  1.00  0.00     0.338 C 
ATOM      7  O   UNL A   1      33.685  35.703  28.161  1.00  0.00    -0.246 OA
BRANCH   6   8
ATOM      8  C   UNL A   1      34.639  33.790  29.114  1.00  0.00     0.060 A 
ATOM      9  C   UNL A   1      35.941  34.281  29.137  1.00  0.00     0.016 A 
ATOM     10  C   UNL A   1      34.360  32.605  29.799  1.00  0.00     0.016 A 
ATOM     11  C   UNL A   1      36.980  33.563  29.665  1.00  0.00     0.010 A 
ATOM     12  C   UNL A   1      35.389  31.929  30.462  1.00  0.00     0.010 A 
ATOM     13  C   UNL A   1      36.703  32.411  30.381  1.00  0.00    -0.014 A 
BRANCH  13  14
ATOM     14  C   UNL A   1      37.858  31.752  31.000  1.00  0.00     0.031 A 
ATOM     15  C   UNL A   1      38.651  30.792  30.182  1.00  0.00     0.074 A 
ATOM     16  C   UNL A   1      38.260  32.178  32.213  1.00  0.00     0.049 A 
ATOM     17  N   UNL A   1      39.664  30.056  30.540  1.00  0.00    -0.248 NA
ATOM     18  C   UNL A   1      38.264  30.648  28.767  1.00  0.00     0.031 C 
ATOM     19  C   UNL A   1      37.611  33.241  32.996  1.00  0.00     0.029 A 
ATOM     20  N   UNL A   1      39.327  31.814  32.983  1.00  0.00    -0.354 N 
ATOM     21  C   UNL A   1      40.002  29.321  29.413  1.00  0.00     0.074 A 
ATOM     22  C   UNL A   1      39.103  29.711  28.351  1.00  0.00     0.031 C 
ATOM     23  C   UNL A   1      38.317  33.462  34.114  1.00  0.00     0.029 A 
ATOM     24  C   UNL A   1      39.391  32.484  34.180  1.00  0.00     0.049 A 
ATOM     25  H   UNL A   1      39.987  31.137  32.707  1.00  0.00     0.167 HD
ATOM     26  C   UNL A   1      40.972  28.388  29.306  1.00  0.00     0.037 A 
ATOM     27  C   UNL A   1      40.192  32.273  35.239  1.00  0.00     0.037 A 
ATOM     28  C   UNL A   1      41.850  28.053  30.394  1.00  0.00     0.049 A 
ATOM     29  C   UNL A   1      41.190  31.156  35.122  1.00  0.00     0.074 A 
ATOM     30  C   UNL A   1      42.839  27.092  30.441  1.00  0.00     0.029 A 
ATOM     31  N   UNL A   1      41.836  28.685  31.632  1.00  0.00    -0.354 N 
ATOM     32  N   UNL A   1      41.457  30.394  34.086  1.00  0.00    -0.248 NA
ATOM     33  C   UNL A   1      41.974  30.843  36.320  1.00  0.00     0.031 C 
ATOM     34  C   UNL A   1      43.388  27.105  31.727  1.00  0.00     0.029 A 
ATOM     35  C   UNL A   1      42.782  28.116  32.462  1.00  0.00     0.049 A 
ATOM     36  H   UNL A   1      41.240  29.428  31.880  1.00  0.00     0.167 HD
ATOM     37  C   UNL A   1      42.451  29.522  34.501  1.00  0.00     0.074 A 
ATOM     38  C   UNL A   1      42.757  29.872  35.875  1.00  0.00     0.031 C 
ATOM     39  C   UNL A   1      43.053  28.516  33.821  1.00  0.00     0.037 A 
BRANCH  26  40
ATOM     40  C   UNL A   1      41.056  27.623  28.023  1.00  0.00     0.057 A 
ATOM     41  C   UNL A   1      40.358  26.429  27.807  1.00  0.00     0.134 A 
ATOM     42  C   UNL A   1      41.869  28.093  26.982  1.00  0.00     0.134 A 
ATOM     43  F   UNL A   1      39.590  25.905  28.775  1.00  0.00    -0.206 F 
ATOM     44  C   UNL A   1      40.471  25.726  26.605  1.00  0.00     0.040 A 
ATOM     45  C   UNL A   1      41.973  27.413  25.770  1.00  0.00     0.040 A 
ATOM     46  F   UNL A   1      42.578  29.222  27.131  1.00  0.00    -0.206 F 
ATOM     47  C   UNL A   1      41.275  26.222  25.580  1.00  0.00     0.006 A 
ENDBRANCH  26  40
BRANCH  27  48
ATOM     48  C   UNL A   1      40.016  33.038  36.501  1.00  0.00     0.057 A 
ATOM     49  C   UNL A   1      39.054  32.678  37.450  1.00  0.00     0.134 A 
ATOM     50  C   UNL A   1      40.777  34.187  36.770  1.00  0.00     0.134 A 
ATOM     51  F   UNL A   1      38.282  31.600  37.251  1.00  0.00    -0.206 F 
ATOM     52  C   UNL A   1      38.832  33.444  38.597  1.00  0.00     0.040 A 
ATOM     53  C   UNL A   1      40.591  34.942  37.928  1.00  0.00     0.040 A 
ATOM     54  F   UNL A   1      41.722  34.594  35.908  1.00  0.00    -0.206 F 
ATOM     55  C   UNL A   1      39.603  34.579  38.839  1.00  0.00     0.006 A 
ENDBRANCH  27  48
BRANCH  39  56
ATOM     56  C   UNL A   1      44.119  27.762  34.553  1.00  0.00     0.057 A 
ATOM     57  C   UNL A   1      45.446  28.205  34.585  1.00  0.00     0.134 A 
ATOM     58  C   UNL A   1      43.797  26.602  35.268  1.00  0.00     0.134 A 
ATOM     59  F   UNL A   1      45.816  29.300  33.903  1.00  0.00    -0.206 F 
ATOM     60  C   UNL A   1      46.425  27.505  35.288  1.00  0.00     0.040 A 
ATOM     61  C   UNL A   1      44.760  25.913  36.001  1.00  0.00     0.040 A 
ATOM     62  F   UNL A   1      42.539  26.135  35.281  1.00  0.00    -0.206 F 
ATOM     63  C   UNL A   1      46.080  26.361  36.007  1.00  0.00     0.006 A 
ENDBRANCH  39  56
ENDBRANCH  13  14
ENDBRANCH   6   8
ENDBRANCH   5   6
ENDBRANCH   4   5
ENDBRANCH   3   4
ENDBRANCH   2   3
ENDBRANCH   1   2
BRANCH   1  64
ATOM     64  C   UNL A   1      32.834  28.669  25.941  1.00  0.00     0.261 C 
BRANCH  64  65
ATOM     65  O   UNL A   1      34.001  28.701  25.103  1.00  0.00    -0.463 OA
BRANCH  65  66
ATOM     66  C   UNL A   1      33.787  28.337  23.804  1.00  0.00     0.311 C 
ATOM     67  O   UNL A   1      34.245  28.940  22.851  1.00  0.00    -0.252 OA
BRANCH  66  68
ATOM     68  C   UNL A   1      32.913  27.093  23.717  1.00  0.00     0.128 C 
ATOM     69  C   UNL A   1      33.766  25.852  23.440  1.00  0.00     0.135 C 
ATOM     70  C   UNL A   1      31.900  27.056  22.544  1.00  0.00     0.055 C 
ATOM     71  N   UNL A   1      32.892  24.905  22.793  1.00  0.00    -0.336 N 
ATOM     72  C   UNL A   1      31.666  25.544  22.350  1.00  0.00     0.129 C 
BRANCH  70  73
ATOM     73  C   UNL A   1      30.675  27.929  22.716  1.00  0.00    -0.038 A 
ATOM     74  C   UNL A   1      29.518  27.373  23.322  1.00  0.00     0.008 A 
ATOM     75  C   UNL A   1      30.615  29.253  22.260  1.00  0.00     0.054 A 
ATOM     76  C   UNL A   1      28.300  28.059  23.361  1.00  0.00     0.051 A 
ATOM     77  C   UNL A   1      29.403  29.911  22.316  1.00  0.00     0.166 A 
ATOM     78  C   UNL A   1      28.272  29.322  22.825  1.00  0.00     0.165 A 
ATOM     79  O   UNL A   1      29.171  31.165  21.849  1.00  0.00    -0.454 OA
ATOM     80  O   UNL A   1      27.179  30.121  22.714  1.00  0.00    -0.454 OA
ATOM     81  C   UNL A   1      27.739  31.238  21.992  1.00  0.00     0.468 C 
ENDBRANCH  70  73
BRANCH  71  82
ATOM     82  C   UNL A   1      33.094  23.548  22.651  1.00  0.00     0.277 C 
ATOM     83  O   UNL A   1      34.062  23.116  22.020  1.00  0.00    -0.268 OA
BRANCH  82  84
ATOM     84  C   UNL A   1      32.099  22.591  23.321  1.00  0.00     0.363 C 
BRANCH  84  85
ATOM     85  N   UNL A   1      32.475  22.133  24.670  1.00  0.00    -0.323 N 
ATOM     86  C   UNL A   1      31.400  21.582  25.498  1.00  0.00     0.291 C 
ATOM     87  C   UNL A   1      33.301  23.076  25.444  1.00  0.00     0.291 C 
ATOM     88  H   UNL A   1      33.068  21.339  24.426  1.00  0.00     0.348 HD
ATOM     89  C   UNL A   1      30.681  22.609  26.383  1.00  0.00     0.221 C 
ATOM     90  C   UNL A   1      32.523  24.054  26.343  1.00  0.00     0.221 C 
ATOM     91  O   UNL A   1      31.594  23.361  27.183  1.00  0.00    -0.370 OA
ENDBRANCH  84  85
ENDBRANCH  82  84
ENDBRANCH  71  82
ENDBRANCH  66  68
ENDBRANCH  65  66
ENDBRANCH  64  65
ENDBRANCH   1  64
TORSDOF 18
ENDMDL
