MODEL 1
REMARK VINA RESULT:     -15.2      0.000      0.000
REMARK SMILES Cc1ccccc1[C@H]1[NH2+][C@@H](C(=O)OCCOCCOC(=O)c2ccc(-c3c4nc(c(-c5c(F)cccc5F)c5ccc([nH]5)c(-c5c(F)cccc5F)c5nc(c(-c6c(F)cccc6F)c6ccc3[nH]6)C=C5)C=C4)cc2)CC2=c3ccccc3=N[C@@H]21
REMARK SMILES IDX 17 1 16 2 15 3 14 4 13 5 11 6 12 7 10 8 8 9 9 10 85 11 77 14
REMARK SMILES IDX 84 15 76 16 78 17 83 18 79 19 82 20 80 21 81 22 7 23 1 24
REMARK SMILES IDX 2 25 3 26 4 27 6 28 5 29 18 30 19 31 20 32 21 33 22 34 23 35
REMARK SMILES IDX 75 36 24 37 74 38 25 39 26 40 27 41 68 42 28 43 73 44 67 45
REMARK SMILES IDX 69 46 29 47 72 48 66 49 65 50 30 52 56 53 39 54 55 55 40 56
REMARK SMILES IDX 43 57 54 58 70 59 41 60 42 61 53 63 71 64 44 65 31 66 32 67
REMARK SMILES IDX 37 68 33 69 34 70 36 71 38 72 35 73 57 74 58 75 63 76 59 77
REMARK SMILES IDX 60 78 62 79 64 80 61 81 45 82 46 83 51 84 47 85 48 86 50 87
REMARK SMILES IDX 52 88 49 89
REMARK H PARENT 9 12 9 13 69 51 43 62
REMARK Flexibility Score: inf
ROOT
ATOM      1  C   UNL A   1      41.882  19.204  27.691  1.00  0.00     0.202 C 
ENDROOT
BRANCH   1   2
ATOM      2  O   UNL A   1      41.055  20.384  27.543  1.00  0.00    -0.374 OA
BRANCH   2   3
ATOM      3  C   UNL A   1      40.494  20.662  26.299  1.00  0.00     0.202 C 
BRANCH   3   4
ATOM      4  C   UNL A   1      39.397  21.693  26.128  1.00  0.00     0.261 C 
BRANCH   4   5
ATOM      5  O   UNL A   1      38.379  21.449  25.186  1.00  0.00    -0.459 OA
BRANCH   5   6
ATOM      6  C   UNL A   1      37.258  22.175  25.282  1.00  0.00     0.365 C 
ATOM      7  O   UNL A   1      37.274  23.218  25.933  1.00  0.00    -0.245 OA
BRANCH   6   8
ATOM      8  C   UNL A   1      35.945  21.558  24.801  1.00  0.00     0.298 C 
ATOM      9  C   UNL A   1      33.750  22.786  24.170  1.00  0.00     0.243 C 
ATOM     10  N   UNL A   1      35.116  22.269  23.740  1.00  0.00    -0.326 N 
ATOM     11  C   UNL A   1      32.889  21.628  25.025  1.00  0.00     0.196 C 
ATOM     12  H   UNL A   1      35.658  23.068  23.409  1.00  0.00     0.347 HD
ATOM     13  H   UNL A   1      34.923  21.562  23.032  1.00  0.00     0.347 HD
ATOM     14  C   UNL A   1      33.877  20.582  25.519  1.00  0.00    -0.024 C 
ATOM     15  N   UNL A   1      32.001  20.822  24.109  1.00  0.00    -0.270 NA
ATOM     16  C   UNL A   1      35.177  21.062  26.033  1.00  0.00     0.111 C 
ATOM     17  C   UNL A   1      33.721  19.402  24.920  1.00  0.00     0.002 A 
ATOM     18  C   UNL A   1      32.534  19.636  24.096  1.00  0.00     0.066 A 
ATOM     19  C   UNL A   1      34.651  18.347  24.626  1.00  0.00     0.010 A 
ATOM     20  C   UNL A   1      32.153  18.520  23.201  1.00  0.00     0.028 A 
ATOM     21  C   UNL A   1      34.353  17.502  23.626  1.00  0.00     0.001 A 
ATOM     22  C   UNL A   1      33.059  17.554  22.966  1.00  0.00     0.002 A 
BRANCH   9  23
ATOM     23  C   UNL A   1      33.422  24.433  23.844  1.00  0.00     0.015 A 
ATOM     24  C   UNL A   1      32.759  25.677  20.877  1.00  0.00     0.045 C 
ATOM     25  C   UNL A   1      32.814  25.591  22.437  1.00  0.00    -0.042 A 
ATOM     26  C   UNL A   1      32.818  27.420  22.748  1.00  0.00     0.004 A 
ATOM     27  C   UNL A   1      33.345  28.080  24.285  1.00  0.00     0.000 A 
ATOM     28  C   UNL A   1      34.110  25.260  25.323  1.00  0.00     0.010 A 
ATOM     29  C   UNL A   1      34.039  27.036  25.525  1.00  0.00     0.001 A 
ENDBRANCH   9  23
ENDBRANCH   6   8
ENDBRANCH   5   6
ENDBRANCH   4   5
ENDBRANCH   3   4
ENDBRANCH   2   3
ENDBRANCH   1   2
BRANCH   1  30
ATOM     30  C   UNL A   1      42.801  18.253  26.632  1.00  0.00     0.261 C 
BRANCH  30  31
ATOM     31  O   UNL A   1      44.136  18.434  25.609  1.00  0.00    -0.460 OA
BRANCH  31  32
ATOM     32  C   UNL A   1      45.001  19.553  24.664  1.00  0.00     0.338 C 
ATOM     33  O   UNL A   1      45.839  18.773  24.152  1.00  0.00    -0.246 OA
BRANCH  32  34
ATOM     34  C   UNL A   1      44.548  21.658  24.541  1.00  0.00     0.060 A 
ATOM     35  C   UNL A   1      45.290  22.875  24.064  1.00  0.00     0.016 A 
ATOM     36  C   UNL A   1      43.304  22.367  25.005  1.00  0.00     0.016 A 
ATOM     37  C   UNL A   1      45.111  24.249  24.487  1.00  0.00     0.010 A 
ATOM     38  C   UNL A   1      43.190  23.647  25.551  1.00  0.00     0.010 A 
ATOM     39  C   UNL A   1      44.196  24.562  25.452  1.00  0.00    -0.014 A 
BRANCH  39  40
ATOM     40  C   UNL A   1      44.247  25.659  26.436  1.00  0.00     0.031 A 
ATOM     41  C   UNL A   1      43.025  26.477  26.693  1.00  0.00     0.074 A 
ATOM     42  C   UNL A   1      45.307  25.716  27.299  1.00  0.00     0.049 A 
ATOM     43  N   UNL A   1      43.074  27.685  27.148  1.00  0.00    -0.248 NA
ATOM     44  C   UNL A   1      41.641  26.093  26.359  1.00  0.00     0.031 C 
ATOM     45  C   UNL A   1      45.344  26.233  28.678  1.00  0.00     0.029 A 
ATOM     46  N   UNL A   1      46.588  25.148  27.163  1.00  0.00    -0.354 N 
ATOM     47  C   UNL A   1      41.787  27.994  27.537  1.00  0.00     0.074 A 
ATOM     48  C   UNL A   1      40.946  27.166  26.737  1.00  0.00     0.031 C 
ATOM     49  C   UNL A   1      46.598  26.155  29.169  1.00  0.00     0.029 A 
ATOM     50  C   UNL A   1      47.468  25.776  28.077  1.00  0.00     0.049 A 
ATOM     51  H   UNL A   1      46.832  24.431  26.536  1.00  0.00     0.167 HD
ATOM     52  C   UNL A   1      41.572  28.682  28.693  1.00  0.00     0.037 A 
ATOM     53  C   UNL A   1      48.535  26.518  27.637  1.00  0.00     0.037 A 
ATOM     54  C   UNL A   1      42.858  29.042  29.311  1.00  0.00     0.049 A 
ATOM     55  C   UNL A   1      48.326  27.988  27.823  1.00  0.00     0.074 A 
ATOM     56  C   UNL A   1      43.505  28.690  30.483  1.00  0.00     0.029 A 
ATOM     57  N   UNL A   1      43.833  29.653  28.530  1.00  0.00    -0.354 N 
ATOM     58  N   UNL A   1      47.290  28.499  28.416  1.00  0.00    -0.248 NA
ATOM     59  C   UNL A   1      49.187  28.989  27.215  1.00  0.00     0.031 C 
ATOM     60  C   UNL A   1      44.864  29.141  30.394  1.00  0.00     0.029 A 
ATOM     61  C   UNL A   1      45.034  29.812  29.193  1.00  0.00     0.049 A 
ATOM     62  H   UNL A   1      43.682  29.943  27.601  1.00  0.00     0.167 HD
ATOM     63  C   UNL A   1      47.207  29.828  28.133  1.00  0.00     0.074 A 
ATOM     64  C   UNL A   1      48.420  30.081  27.359  1.00  0.00     0.031 C 
ATOM     65  C   UNL A   1      46.108  30.553  28.513  1.00  0.00     0.037 A 
BRANCH  52  66
ATOM     66  C   UNL A   1      40.222  28.890  29.373  1.00  0.00     0.057 A 
ATOM     67  C   UNL A   1      39.834  30.196  29.731  1.00  0.00     0.134 A 
ATOM     68  C   UNL A   1      39.265  27.906  29.722  1.00  0.00     0.134 A 
ATOM     69  F   UNL A   1      40.635  31.245  29.499  1.00  0.00    -0.206 F 
ATOM     70  C   UNL A   1      38.603  30.500  30.338  1.00  0.00     0.040 A 
ATOM     71  C   UNL A   1      38.009  28.203  30.281  1.00  0.00     0.040 A 
ATOM     72  F   UNL A   1      39.493  26.595  29.602  1.00  0.00    -0.206 F 
ATOM     73  C   UNL A   1      37.672  29.507  30.594  1.00  0.00     0.006 A 
ENDBRANCH  52  66
BRANCH  53  74
ATOM     74  C   UNL A   1      49.173  25.933  26.425  1.00  0.00     0.057 A 
ATOM     75  C   UNL A   1      48.780  26.531  25.227  1.00  0.00     0.134 A 
ATOM     76  C   UNL A   1      50.485  25.466  26.533  1.00  0.00     0.134 A 
ATOM     77  F   UNL A   1      47.492  26.837  25.033  1.00  0.00    -0.206 F 
ATOM     78  C   UNL A   1      49.737  27.028  24.355  1.00  0.00     0.040 A 
ATOM     79  C   UNL A   1      51.438  25.883  25.615  1.00  0.00     0.040 A 
ATOM     80  F   UNL A   1      50.903  24.831  27.636  1.00  0.00    -0.206 F 
ATOM     81  C   UNL A   1      51.076  26.758  24.598  1.00  0.00     0.006 A 
ENDBRANCH  53  74
BRANCH  65  82
ATOM     82  C   UNL A   1      45.879  32.007  28.157  1.00  0.00     0.057 A 
ATOM     83  C   UNL A   1      45.202  32.441  27.014  1.00  0.00     0.134 A 
ATOM     84  C   UNL A   1      46.358  33.060  28.970  1.00  0.00     0.134 A 
ATOM     85  F   UNL A   1      44.992  31.632  25.970  1.00  0.00    -0.206 F 
ATOM     86  C   UNL A   1      44.800  33.767  26.831  1.00  0.00     0.040 A 
ATOM     87  C   UNL A   1      46.017  34.396  28.773  1.00  0.00     0.040 A 
ATOM     88  F   UNL A   1      47.217  32.870  29.978  1.00  0.00    -0.206 F 
ATOM     89  C   UNL A   1      45.187  34.749  27.728  1.00  0.00     0.006 A 
ENDBRANCH  65  82
ENDBRANCH  39  40
ENDBRANCH  32  34
ENDBRANCH  31  32
ENDBRANCH  30  31
ENDBRANCH   1  30
TORSDOF 15
ENDMDL
MODEL 2
REMARK VINA RESULT:     -14.7      2.454      3.584
REMARK SMILES Cc1ccccc1[C@H]1[NH2+][C@@H](C(=O)OCCOCCOC(=O)c2ccc(-c3c4nc(c(-c5c(F)cccc5F)c5ccc([nH]5)c(-c5c(F)cccc5F)c5nc(c(-c6c(F)cccc6F)c6ccc3[nH]6)C=C5)C=C4)cc2)CC2=c3ccccc3=N[C@@H]21
REMARK SMILES IDX 17 1 16 2 15 3 14 4 13 5 11 6 12 7 10 8 8 9 9 10 85 11 77 14
REMARK SMILES IDX 84 15 76 16 78 17 83 18 79 19 82 20 80 21 81 22 7 23 1 24
REMARK SMILES IDX 2 25 3 26 4 27 6 28 5 29 18 30 19 31 20 32 21 33 22 34 23 35
REMARK SMILES IDX 75 36 24 37 74 38 25 39 26 40 27 41 68 42 28 43 73 44 67 45
REMARK SMILES IDX 69 46 29 47 72 48 66 49 65 50 30 52 56 53 39 54 55 55 40 56
REMARK SMILES IDX 43 57 54 58 70 59 41 60 42 61 53 63 71 64 44 65 31 66 32 67
REMARK SMILES IDX 37 68 33 69 34 70 36 71 38 72 35 73 57 74 58 75 63 76 59 77
REMARK SMILES IDX 60 78 62 79 64 80 61 81 45 82 46 83 51 84 47 85 48 86 50 87
REMARK SMILES IDX 52 88 49 89
REMARK H PARENT 9 12 9 13 69 51 43 62
REMARK Flexibility Score: inf
ROOT
ATOM      1  C   UNL A   1      40.517  19.519  26.187  1.00  0.00     0.202 C 
ENDROOT
BRANCH   1   2
ATOM      2  O   UNL A   1      39.370  19.109  25.404  1.00  0.00    -0.374 OA
BRANCH   2   3
ATOM      3  C   UNL A   1      38.441  20.071  25.013  1.00  0.00     0.202 C 
BRANCH   3   4
ATOM      4  C   UNL A   1      38.400  21.447  25.645  1.00  0.00     0.261 C 
BRANCH   4   5
ATOM      5  O   UNL A   1      37.830  22.509  24.920  1.00  0.00    -0.459 OA
BRANCH   5   6
ATOM      6  C   UNL A   1      36.581  22.877  25.234  1.00  0.00     0.365 C 
ATOM      7  O   UNL A   1      36.412  23.803  26.027  1.00  0.00    -0.245 OA
BRANCH   6   8
ATOM      8  C   UNL A   1      35.423  21.978  24.804  1.00  0.00     0.298 C 
ATOM      9  C   UNL A   1      33.016  22.688  24.154  1.00  0.00     0.243 C 
ATOM     10  N   UNL A   1      34.457  22.448  23.725  1.00  0.00    -0.326 N 
ATOM     11  C   UNL A   1      32.422  21.418  25.075  1.00  0.00     0.196 C 
ATOM     12  H   UNL A   1      34.817  23.325  23.349  1.00  0.00     0.347 HD
ATOM     13  H   UNL A   1      34.412  21.682  23.053  1.00  0.00     0.347 HD
ATOM     14  C   UNL A   1      33.611  20.627  25.600  1.00  0.00    -0.024 C 
ATOM     15  N   UNL A   1      31.716  20.401  24.212  1.00  0.00    -0.270 NA
ATOM     16  C   UNL A   1      34.785  21.392  26.070  1.00  0.00     0.111 C 
ATOM     17  C   UNL A   1      33.702  19.413  25.058  1.00  0.00     0.002 A 
ATOM     18  C   UNL A   1      32.486  19.354  24.243  1.00  0.00     0.066 A 
ATOM     19  C   UNL A   1      34.830  18.562  24.797  1.00  0.00     0.010 A 
ATOM     20  C   UNL A   1      32.342  18.141  23.407  1.00  0.00     0.028 A 
ATOM     21  C   UNL A   1      34.709  17.627  23.842  1.00  0.00     0.001 A 
ATOM     22  C   UNL A   1      33.428  17.375  23.202  1.00  0.00     0.002 A 
BRANCH   9  23
ATOM     23  C   UNL A   1      32.348  24.213  23.758  1.00  0.00     0.015 A 
ATOM     24  C   UNL A   1      32.572  25.671  20.823  1.00  0.00     0.045 C 
ATOM     25  C   UNL A   1      32.023  25.363  22.254  1.00  0.00    -0.042 A 
ATOM     26  C   UNL A   1      31.331  27.052  22.581  1.00  0.00     0.004 A 
ATOM     27  C   UNL A   1      30.965  27.586  24.211  1.00  0.00     0.000 A 
ATOM     28  C   UNL A   1      32.092  24.957  25.408  1.00  0.00     0.010 A 
ATOM     29  C   UNL A   1      31.394  26.593  25.603  1.00  0.00     0.001 A 
ENDBRANCH   9  23
ENDBRANCH   6   8
ENDBRANCH   5   6
ENDBRANCH   4   5
ENDBRANCH   3   4
ENDBRANCH   2   3
ENDBRANCH   1   2
BRANCH   1  30
ATOM     30  C   UNL A   1      42.176  19.674  25.880  1.00  0.00     0.261 C 
BRANCH  30  31
ATOM     31  O   UNL A   1      43.290  20.903  25.553  1.00  0.00    -0.460 OA
BRANCH  31  32
ATOM     32  C   UNL A   1      43.452  22.576  25.287  1.00  0.00     0.338 C 
ATOM     33  O   UNL A   1      44.506  22.567  24.608  1.00  0.00    -0.246 OA
BRANCH  32  34
ATOM     34  C   UNL A   1      42.069  24.067  26.005  1.00  0.00     0.060 A 
ATOM     35  C   UNL A   1      41.540  25.367  25.467  1.00  0.00     0.016 A 
ATOM     36  C   UNL A   1      41.351  24.106  27.327  1.00  0.00     0.016 A 
ATOM     37  C   UNL A   1      41.039  26.501  26.216  1.00  0.00     0.010 A 
ATOM     38  C   UNL A   1      41.016  25.221  28.097  1.00  0.00     0.010 A 
ATOM     39  C   UNL A   1      41.036  26.483  27.581  1.00  0.00    -0.014 A 
BRANCH  39  40
ATOM     40  C   UNL A   1      41.178  27.619  28.510  1.00  0.00     0.031 A 
ATOM     41  C   UNL A   1      40.092  28.640  28.599  1.00  0.00     0.074 A 
ATOM     42  C   UNL A   1      42.147  27.560  29.474  1.00  0.00     0.049 A 
ATOM     43  N   UNL A   1      40.300  29.851  28.995  1.00  0.00    -0.248 NA
ATOM     44  C   UNL A   1      38.701  28.463  28.144  1.00  0.00     0.031 C 
ATOM     45  C   UNL A   1      42.141  28.155  30.822  1.00  0.00     0.029 A 
ATOM     46  N   UNL A   1      43.321  26.785  29.500  1.00  0.00    -0.354 N 
ATOM     47  C   UNL A   1      39.052  30.389  29.234  1.00  0.00     0.074 A 
ATOM     48  C   UNL A   1      38.162  29.657  28.393  1.00  0.00     0.031 C 
ATOM     49  C   UNL A   1      43.313  27.907  31.443  1.00  0.00     0.029 A 
ATOM     50  C   UNL A   1      44.205  27.322  30.467  1.00  0.00     0.049 A 
ATOM     51  H   UNL A   1      43.500  25.998  28.937  1.00  0.00     0.167 HD
ATOM     52  C   UNL A   1      38.848  31.177  30.326  1.00  0.00     0.037 A 
ATOM     53  C   UNL A   1      45.418  27.850  30.103  1.00  0.00     0.037 A 
ATOM     54  C   UNL A   1      40.113  31.364  31.055  1.00  0.00     0.049 A 
ATOM     55  C   UNL A   1      45.442  29.344  30.193  1.00  0.00     0.074 A 
ATOM     56  C   UNL A   1      40.579  30.991  32.303  1.00  0.00     0.029 A 
ATOM     57  N   UNL A   1      41.245  31.757  30.349  1.00  0.00    -0.354 N 
ATOM     58  N   UNL A   1      44.455  30.054  30.650  1.00  0.00    -0.248 NA
ATOM     59  C   UNL A   1      46.511  30.150  29.628  1.00  0.00     0.031 C 
ATOM     60  C   UNL A   1      41.996  31.209  32.333  1.00  0.00     0.029 A 
ATOM     61  C   UNL A   1      42.388  31.763  31.124  1.00  0.00     0.049 A 
ATOM     62  H   UNL A   1      41.232  32.005  29.396  1.00  0.00     0.167 HD
ATOM     63  C   UNL A   1      44.623  31.357  30.294  1.00  0.00     0.074 A 
ATOM     64  C   UNL A   1      45.928  31.359  29.637  1.00  0.00     0.031 C 
ATOM     65  C   UNL A   1      43.630  32.274  30.523  1.00  0.00     0.037 A 
BRANCH  52  66
ATOM     66  C   UNL A   1      37.494  31.646  30.852  1.00  0.00     0.057 A 
ATOM     67  C   UNL A   1      36.870  32.749  30.238  1.00  0.00     0.134 A 
ATOM     68  C   UNL A   1      36.749  31.109  31.929  1.00  0.00     0.134 A 
ATOM     69  F   UNL A   1      37.452  33.395  29.218  1.00  0.00    -0.206 F 
ATOM     70  C   UNL A   1      35.614  33.245  30.627  1.00  0.00     0.040 A 
ATOM     71  C   UNL A   1      35.468  31.562  32.295  1.00  0.00     0.040 A 
ATOM     72  F   UNL A   1      37.221  30.154  32.737  1.00  0.00    -0.206 F 
ATOM     73  C   UNL A   1      34.893  32.637  31.644  1.00  0.00     0.006 A 
ENDBRANCH  52  66
BRANCH  53  74
ATOM     74  C   UNL A   1      46.059  27.091  28.994  1.00  0.00     0.057 A 
ATOM     75  C   UNL A   1      46.582  25.854  29.375  1.00  0.00     0.134 A 
ATOM     76  C   UNL A   1      45.517  27.215  27.713  1.00  0.00     0.134 A 
ATOM     77  F   UNL A   1      47.254  25.747  30.527  1.00  0.00    -0.206 F 
ATOM     78  C   UNL A   1      46.201  24.704  28.700  1.00  0.00     0.040 A 
ATOM     79  C   UNL A   1      45.211  26.074  26.985  1.00  0.00     0.040 A 
ATOM     80  F   UNL A   1      45.054  28.391  27.270  1.00  0.00    -0.206 F 
ATOM     81  C   UNL A   1      45.451  24.821  27.539  1.00  0.00     0.006 A 
ENDBRANCH  53  74
BRANCH  65  82
ATOM     82  C   UNL A   1      43.682  33.719  30.073  1.00  0.00     0.057 A 
ATOM     83  C   UNL A   1      43.557  34.135  28.745  1.00  0.00     0.134 A 
ATOM     84  C   UNL A   1      43.880  34.779  30.987  1.00  0.00     0.134 A 
ATOM     85  F   UNL A   1      43.717  33.289  27.723  1.00  0.00    -0.206 F 
ATOM     86  C   UNL A   1      43.371  35.474  28.387  1.00  0.00     0.040 A 
ATOM     87  C   UNL A   1      43.757  36.123  30.640  1.00  0.00     0.040 A 
ATOM     88  F   UNL A   1      44.246  34.587  32.260  1.00  0.00    -0.206 F 
ATOM     89  C   UNL A   1      43.446  36.474  29.343  1.00  0.00     0.006 A 
ENDBRANCH  65  82
ENDBRANCH  39  40
ENDBRANCH  32  34
ENDBRANCH  31  32
ENDBRANCH  30  31
ENDBRANCH   1  30
TORSDOF 15
ENDMDL
MODEL 3
REMARK VINA RESULT:     -14.7      4.470      9.947
REMARK SMILES Cc1ccccc1[C@H]1[NH2+][C@@H](C(=O)OCCOCCOC(=O)c2ccc(-c3c4nc(c(-c5c(F)cccc5F)c5ccc([nH]5)c(-c5c(F)cccc5F)c5nc(c(-c6c(F)cccc6F)c6ccc3[nH]6)C=C5)C=C4)cc2)CC2=c3ccccc3=N[C@@H]21
REMARK SMILES IDX 17 1 16 2 15 3 14 4 13 5 11 6 12 7 10 8 8 9 9 10 85 11 77 14
REMARK SMILES IDX 84 15 76 16 78 17 83 18 79 19 82 20 80 21 81 22 7 23 1 24
REMARK SMILES IDX 2 25 3 26 4 27 6 28 5 29 18 30 19 31 20 32 21 33 22 34 23 35
REMARK SMILES IDX 75 36 24 37 74 38 25 39 26 40 27 41 68 42 28 43 73 44 67 45
REMARK SMILES IDX 69 46 29 47 72 48 66 49 65 50 30 52 56 53 39 54 55 55 40 56
REMARK SMILES IDX 43 57 54 58 70 59 41 60 42 61 53 63 71 64 44 65 31 66 32 67
REMARK SMILES IDX 37 68 33 69 34 70 36 71 38 72 35 73 57 74 58 75 63 76 59 77
REMARK SMILES IDX 60 78 62 79 64 80 61 81 45 82 46 83 51 84 47 85 48 86 50 87
REMARK SMILES IDX 52 88 49 89
REMARK H PARENT 9 12 9 13 69 51 43 62
REMARK Flexibility Score: inf
ROOT
ATOM      1  C   UNL A   1      32.983  33.825  27.658  1.00  0.00     0.202 C 
ENDROOT
BRANCH   1   2
ATOM      2  O   UNL A   1      31.778  33.322  27.032  1.00  0.00    -0.374 OA
BRANCH   2   3
ATOM      3  C   UNL A   1      31.724  31.983  26.653  1.00  0.00     0.202 C 
BRANCH   3   4
ATOM      4  C   UNL A   1      32.649  30.944  27.252  1.00  0.00     0.261 C 
BRANCH   4   5
ATOM      5  O   UNL A   1      33.552  30.273  26.407  1.00  0.00    -0.459 OA
BRANCH   5   6
ATOM      6  C   UNL A   1      33.231  29.035  26.010  1.00  0.00     0.365 C 
ATOM      7  O   UNL A   1      34.062  28.135  26.128  1.00  0.00    -0.245 OA
BRANCH   6   8
ATOM      8  C   UNL A   1      31.954  28.835  25.196  1.00  0.00     0.298 C 
ATOM      9  C   UNL A   1      31.053  26.632  24.168  1.00  0.00     0.243 C 
ATOM     10  N   UNL A   1      31.134  27.563  25.370  1.00  0.00    -0.326 N 
ATOM     11  C   UNL A   1      30.699  27.467  22.757  1.00  0.00     0.196 C 
ATOM     12  H   UNL A   1      31.542  27.036  26.142  1.00  0.00     0.347 HD
ATOM     13  H   UNL A   1      30.178  27.880  25.527  1.00  0.00     0.347 HD
ATOM     14  C   UNL A   1      31.016  28.936  22.993  1.00  0.00    -0.024 C 
ATOM     15  N   UNL A   1      29.213  27.497  22.499  1.00  0.00    -0.270 NA
ATOM     16  C   UNL A   1      32.245  29.256  23.750  1.00  0.00     0.111 C 
ATOM     17  C   UNL A   1      29.925  29.701  23.019  1.00  0.00     0.002 A 
ATOM     18  C   UNL A   1      28.874  28.739  22.680  1.00  0.00     0.066 A 
ATOM     19  C   UNL A   1      29.634  30.932  23.701  1.00  0.00     0.010 A 
ATOM     20  C   UNL A   1      27.492  29.266  22.733  1.00  0.00     0.028 A 
ATOM     21  C   UNL A   1      28.347  31.237  23.934  1.00  0.00     0.001 A 
ATOM     22  C   UNL A   1      27.276  30.428  23.376  1.00  0.00     0.002 A 
BRANCH   9  23
ATOM     23  C   UNL A   1      31.468  24.995  24.445  1.00  0.00     0.015 A 
ATOM     24  C   UNL A   1      30.277  23.126  26.869  1.00  0.00     0.045 C 
ATOM     25  C   UNL A   1      30.959  23.478  25.507  1.00  0.00    -0.042 A 
ATOM     26  C   UNL A   1      31.992  21.942  25.388  1.00  0.00     0.004 A 
ATOM     27  C   UNL A   1      33.386  21.864  24.326  1.00  0.00     0.000 A 
ATOM     28  C   UNL A   1      33.039  24.838  23.522  1.00  0.00     0.010 A 
ATOM     29  C   UNL A   1      33.942  23.295  23.460  1.00  0.00     0.001 A 
ENDBRANCH   9  23
ENDBRANCH   6   8
ENDBRANCH   5   6
ENDBRANCH   4   5
ENDBRANCH   3   4
ENDBRANCH   2   3
ENDBRANCH   1   2
BRANCH   1  30
ATOM     30  C   UNL A   1      33.350  34.491  29.172  1.00  0.00     0.261 C 
BRANCH  30  31
ATOM     31  O   UNL A   1      34.017  33.989  30.643  1.00  0.00    -0.460 OA
BRANCH  31  32
ATOM     32  C   UNL A   1      35.247  33.045  31.343  1.00  0.00     0.338 C 
ATOM     33  O   UNL A   1      35.306  33.600  32.466  1.00  0.00    -0.246 OA
BRANCH  32  34
ATOM     34  C   UNL A   1      36.233  31.398  30.361  1.00  0.00     0.060 A 
ATOM     35  C   UNL A   1      36.333  29.920  30.614  1.00  0.00     0.016 A 
ATOM     36  C   UNL A   1      37.132  31.442  29.153  1.00  0.00     0.016 A 
ATOM     37  C   UNL A   1      37.397  29.020  30.218  1.00  0.00     0.010 A 
ATOM     38  C   UNL A   1      38.247  30.650  28.876  1.00  0.00     0.010 A 
ATOM     39  C   UNL A   1      38.492  29.492  29.553  1.00  0.00    -0.014 A 
BRANCH  39  40
ATOM     40  C   UNL A   1      39.875  28.981  29.594  1.00  0.00     0.031 A 
ATOM     41  C   UNL A   1      40.167  27.603  29.101  1.00  0.00     0.074 A 
ATOM     42  C   UNL A   1      40.895  29.870  29.799  1.00  0.00     0.049 A 
ATOM     43  N   UNL A   1      41.186  26.918  29.502  1.00  0.00    -0.248 NA
ATOM     44  C   UNL A   1      39.304  26.799  28.217  1.00  0.00     0.031 C 
ATOM     45  C   UNL A   1      42.281  29.810  29.302  1.00  0.00     0.029 A 
ATOM     46  N   UNL A   1      40.849  31.146  30.390  1.00  0.00    -0.354 N 
ATOM     47  C   UNL A   1      41.295  25.857  28.626  1.00  0.00     0.074 A 
ATOM     48  C   UNL A   1      39.977  25.653  28.121  1.00  0.00     0.031 C 
ATOM     49  C   UNL A   1      42.987  30.858  29.774  1.00  0.00     0.029 A 
ATOM     50  C   UNL A   1      42.163  31.533  30.751  1.00  0.00     0.049 A 
ATOM     51  H   UNL A   1      40.037  31.683  30.530  1.00  0.00     0.167 HD
ATOM     52  C   UNL A   1      42.522  25.460  28.188  1.00  0.00     0.037 A 
ATOM     53  C   UNL A   1      42.509  31.725  32.065  1.00  0.00     0.037 A 
ATOM     54  C   UNL A   1      43.572  26.263  28.835  1.00  0.00     0.049 A 
ATOM     55  C   UNL A   1      43.379  30.628  32.594  1.00  0.00     0.074 A 
ATOM     56  C   UNL A   1      44.504  27.183  28.389  1.00  0.00     0.029 A 
ATOM     57  N   UNL A   1      43.551  26.411  30.217  1.00  0.00    -0.354 N 
ATOM     58  N   UNL A   1      43.829  29.651  31.866  1.00  0.00    -0.248 NA
ATOM     59  C   UNL A   1      43.670  30.466  34.008  1.00  0.00     0.031 C 
ATOM     60  C   UNL A   1      45.059  27.845  29.534  1.00  0.00     0.029 A 
ATOM     61  C   UNL A   1      44.506  27.295  30.679  1.00  0.00     0.049 A 
ATOM     62  H   UNL A   1      42.920  25.934  30.805  1.00  0.00     0.167 HD
ATOM     63  C   UNL A   1      44.286  28.652  32.669  1.00  0.00     0.074 A 
ATOM     64  C   UNL A   1      44.147  29.211  34.011  1.00  0.00     0.031 C 
ATOM     65  C   UNL A   1      44.662  27.447  32.134  1.00  0.00     0.037 A 
BRANCH  52  66
ATOM     66  C   UNL A   1      42.791  24.475  27.053  1.00  0.00     0.057 A 
ATOM     67  C   UNL A   1      43.103  24.979  25.775  1.00  0.00     0.134 A 
ATOM     68  C   UNL A   1      42.758  23.062  27.105  1.00  0.00     0.134 A 
ATOM     69  F   UNL A   1      43.151  26.298  25.542  1.00  0.00    -0.206 F 
ATOM     70  C   UNL A   1      43.392  24.161  24.669  1.00  0.00     0.040 A 
ATOM     71  C   UNL A   1      43.096  22.232  26.019  1.00  0.00     0.040 A 
ATOM     72  F   UNL A   1      42.345  22.382  28.179  1.00  0.00    -0.206 F 
ATOM     73  C   UNL A   1      43.415  22.781  24.791  1.00  0.00     0.006 A 
ENDBRANCH  52  66
BRANCH  53  74
ATOM     74  C   UNL A   1      41.412  32.348  32.857  1.00  0.00     0.057 A 
ATOM     75  C   UNL A   1      41.224  33.707  32.603  1.00  0.00     0.134 A 
ATOM     76  C   UNL A   1      40.292  31.568  33.155  1.00  0.00     0.134 A 
ATOM     77  F   UNL A   1      42.288  34.509  32.478  1.00  0.00    -0.206 F 
ATOM     78  C   UNL A   1      39.971  34.176  32.238  1.00  0.00     0.040 A 
ATOM     79  C   UNL A   1      39.024  32.058  32.879  1.00  0.00     0.040 A 
ATOM     80  F   UNL A   1      40.417  30.271  33.465  1.00  0.00    -0.206 F 
ATOM     81  C   UNL A   1      38.883  33.319  32.312  1.00  0.00     0.006 A 
ENDBRANCH  53  74
BRANCH  65  82
ATOM     82  C   UNL A   1      45.085  26.245  32.952  1.00  0.00     0.057 A 
ATOM     83  C   UNL A   1      46.328  25.616  32.844  1.00  0.00     0.134 A 
ATOM     84  C   UNL A   1      44.225  25.648  33.902  1.00  0.00     0.134 A 
ATOM     85  F   UNL A   1      47.121  25.801  31.785  1.00  0.00    -0.206 F 
ATOM     86  C   UNL A   1      46.779  24.668  33.768  1.00  0.00     0.040 A 
ATOM     87  C   UNL A   1      44.636  24.661  34.796  1.00  0.00     0.040 A 
ATOM     88  F   UNL A   1      42.925  25.949  34.000  1.00  0.00    -0.206 F 
ATOM     89  C   UNL A   1      45.938  24.204  34.766  1.00  0.00     0.006 A 
ENDBRANCH  65  82
ENDBRANCH  39  40
ENDBRANCH  32  34
ENDBRANCH  31  32
ENDBRANCH  30  31
ENDBRANCH   1  30
TORSDOF 15
ENDMDL
