MODEL 1
REMARK VINA RESULT:     -12.1      0.000      0.000
REMARK SMILES CC[C@H]1CCCCN1S(=O)(=O)c1ccc2oc(C(=O)OCCOCCOC(=O)c3ccc(-c4c5nc(c(-c6c(F)cccc6F)c6ccc([nH]6)c(-c6c(F)cccc6F)c6nc(c(-c7c(F)cccc7F)c7ccc4[nH]7)C=C6)C=C5)cc3)c(C)c2c1
REMARK SMILES IDX 22 1 21 2 20 3 18 4 19 5 17 6 12 7 13 8 86 9 14 10 85 11
REMARK SMILES IDX 15 12 83 13 16 14 84 15 9 16 10 17 11 18 8 19 3 20 4 21 5 22
REMARK SMILES IDX 7 23 6 24 2 25 1 26 23 27 24 28 25 29 26 30 27 31 28 32
REMARK SMILES IDX 29 33 30 34 82 35 31 36 81 37 32 38 33 39 34 40 75 41 35 42
REMARK SMILES IDX 80 43 74 44 76 45 36 46 79 47 73 48 72 49 37 51 63 52 46 53
REMARK SMILES IDX 62 54 47 55 50 56 61 57 77 58 48 59 49 60 60 62 78 63 51 64
REMARK SMILES IDX 38 65 39 66 44 67 40 68 41 69 43 70 45 71 42 72 64 73 65 74
REMARK SMILES IDX 70 75 66 76 67 77 69 78 71 79 68 80 52 81 53 82 58 83 54 84
REMARK SMILES IDX 55 85 57 86 59 87 56 88
REMARK H PARENT 76 50 50 61
REMARK Flexibility Score: inf
ROOT
ATOM      1  C   UNL A   1      40.148  21.348  26.758  1.00  0.00     0.202 C 
ENDROOT
BRANCH   1   2
ATOM      2  C   UNL A   1      38.864  21.951  26.182  1.00  0.00     0.261 C 
BRANCH   2   3
ATOM      3  O   UNL A   1      38.480  21.236  24.997  1.00  0.00    -0.457 OA
BRANCH   3   4
ATOM      4  C   UNL A   1      37.275  20.604  25.052  1.00  0.00     0.374 C 
ATOM      5  O   UNL A   1      37.130  19.388  25.007  1.00  0.00    -0.242 OA
BRANCH   4   6
ATOM      6  C   UNL A   1      36.212  21.566  25.249  1.00  0.00     0.215 A 
ATOM      7  C   UNL A   1      32.521  24.148  25.940  1.00  0.00     0.083 A 
ATOM      8  C   UNL A   1      32.495  23.386  27.114  1.00  0.00     0.025 A 
ATOM      9  C   UNL A   1      33.627  24.129  25.074  1.00  0.00     0.034 A 
ATOM     10  C   UNL A   1      33.533  22.490  27.394  1.00  0.00     0.049 A 
ATOM     11  C   UNL A   1      34.601  23.141  25.277  1.00  0.00     0.025 A 
ATOM     12  C   UNL A   1      34.518  22.361  26.417  1.00  0.00     0.135 A 
ATOM     13  C   UNL A   1      35.716  22.650  24.524  1.00  0.00     0.010 A 
ATOM     14  O   UNL A   1      35.506  21.438  26.419  1.00  0.00    -0.449 OA
ATOM     15  C   UNL A   1      36.135  23.169  23.193  1.00  0.00     0.049 C 
BRANCH   7  16
ATOM     16  S   UNL A   1      31.126  25.157  25.488  1.00  0.00     0.243 S 
ATOM     17  O   UNL A   1      30.121  24.967  26.512  1.00  0.00    -0.207 OA
ATOM     18  O   UNL A   1      30.833  24.902  24.093  1.00  0.00    -0.207 OA
BRANCH  16  19
ATOM     19  N   UNL A   1      31.728  26.776  25.613  1.00  0.00    -0.195 NA
ATOM     20  C   UNL A   1      31.524  27.605  24.361  1.00  0.00     0.073 C 
ATOM     21  C   UNL A   1      32.313  28.918  24.508  1.00  0.00     0.020 C 
ATOM     22  C   UNL A   1      31.891  29.706  25.741  1.00  0.00     0.003 C 
ATOM     23  C   UNL A   1      31.363  27.508  26.862  1.00  0.00     0.103 C 
ATOM     24  C   UNL A   1      32.086  28.845  26.975  1.00  0.00     0.017 C 
BRANCH  20  25
ATOM     25  C   UNL A   1      30.028  27.804  24.037  1.00  0.00     0.017 C 
ATOM     26  C   UNL A   1      29.759  28.683  22.824  1.00  0.00     0.005 C 
ENDBRANCH  20  25
ENDBRANCH  16  19
ENDBRANCH   7  16
ENDBRANCH   4   6
ENDBRANCH   3   4
ENDBRANCH   2   3
ENDBRANCH   1   2
BRANCH   1  27
ATOM     27  O   UNL A   1      41.084  20.898  25.779  1.00  0.00    -0.374 OA
BRANCH  27  28
ATOM     28  C   UNL A   1      42.439  20.745  26.206  1.00  0.00     0.202 C 
BRANCH  28  29
ATOM     29  C   UNL A   1      43.456  21.632  25.480  1.00  0.00     0.261 C 
BRANCH  29  30
ATOM     30  O   UNL A   1      42.830  22.819  24.958  1.00  0.00    -0.460 OA
BRANCH  30  31
ATOM     31  C   UNL A   1      43.572  23.948  25.051  1.00  0.00     0.338 C 
ATOM     32  O   UNL A   1      44.551  24.251  24.390  1.00  0.00    -0.246 OA
BRANCH  31  33
ATOM     33  C   UNL A   1      42.916  24.890  25.979  1.00  0.00     0.060 A 
ATOM     34  C   UNL A   1      43.407  26.202  26.026  1.00  0.00     0.016 A 
ATOM     35  C   UNL A   1      41.881  24.489  26.825  1.00  0.00     0.016 A 
ATOM     36  C   UNL A   1      42.890  27.109  26.949  1.00  0.00     0.010 A 
ATOM     37  C   UNL A   1      41.370  25.397  27.757  1.00  0.00     0.010 A 
ATOM     38  C   UNL A   1      41.892  26.701  27.843  1.00  0.00    -0.014 A 
BRANCH  38  39
ATOM     39  C   UNL A   1      41.487  27.585  28.961  1.00  0.00     0.031 A 
ATOM     40  C   UNL A   1      42.231  27.498  30.264  1.00  0.00     0.074 A 
ATOM     41  C   UNL A   1      40.469  28.452  28.821  1.00  0.00     0.049 A 
ATOM     42  N   UNL A   1      41.989  28.098  31.400  1.00  0.00    -0.248 NA
ATOM     43  C   UNL A   1      43.403  26.608  30.289  1.00  0.00     0.031 C 
ATOM     44  C   UNL A   1      39.700  28.662  27.595  1.00  0.00     0.029 A 
ATOM     45  N   UNL A   1      39.897  29.307  29.730  1.00  0.00    -0.354 N 
ATOM     46  C   UNL A   1      42.970  27.653  32.277  1.00  0.00     0.074 A 
ATOM     47  C   UNL A   1      43.796  26.714  31.550  1.00  0.00     0.031 C 
ATOM     48  C   UNL A   1      38.743  29.575  27.835  1.00  0.00     0.029 A 
ATOM     49  C   UNL A   1      38.809  29.983  29.237  1.00  0.00     0.049 A 
ATOM     50  H   UNL A   1      40.235  29.422  30.647  1.00  0.00     0.167 HD
ATOM     51  C   UNL A   1      43.166  27.999  33.571  1.00  0.00     0.037 A 
ATOM     52  C   UNL A   1      37.948  30.813  29.857  1.00  0.00     0.037 A 
ATOM     53  C   UNL A   1      42.345  28.935  34.293  1.00  0.00     0.049 A 
ATOM     54  C   UNL A   1      38.141  31.125  31.318  1.00  0.00     0.074 A 
ATOM     55  C   UNL A   1      42.474  29.365  35.602  1.00  0.00     0.029 A 
ATOM     56  N   UNL A   1      41.238  29.583  33.766  1.00  0.00    -0.354 N 
ATOM     57  N   UNL A   1      39.078  30.709  32.135  1.00  0.00    -0.248 NA
ATOM     58  C   UNL A   1      37.154  32.017  31.943  1.00  0.00     0.031 C 
ATOM     59  C   UNL A   1      41.418  30.240  35.881  1.00  0.00     0.029 A 
ATOM     60  C   UNL A   1      40.661  30.390  34.730  1.00  0.00     0.049 A 
ATOM     61  H   UNL A   1      40.912  29.483  32.842  1.00  0.00     0.167 HD
ATOM     62  C   UNL A   1      38.813  31.312  33.359  1.00  0.00     0.074 A 
ATOM     63  C   UNL A   1      37.629  32.126  33.176  1.00  0.00     0.031 C 
ATOM     64  C   UNL A   1      39.489  31.205  34.528  1.00  0.00     0.037 A 
BRANCH  51  65
ATOM     65  C   UNL A   1      44.300  27.341  34.299  1.00  0.00     0.057 A 
ATOM     66  C   UNL A   1      44.144  26.117  34.960  1.00  0.00     0.134 A 
ATOM     67  C   UNL A   1      45.573  27.925  34.310  1.00  0.00     0.134 A 
ATOM     68  F   UNL A   1      42.946  25.513  34.998  1.00  0.00    -0.206 F 
ATOM     69  C   UNL A   1      45.208  25.505  35.624  1.00  0.00     0.040 A 
ATOM     70  C   UNL A   1      46.652  27.313  34.951  1.00  0.00     0.040 A 
ATOM     71  F   UNL A   1      45.791  29.097  33.693  1.00  0.00    -0.206 F 
ATOM     72  C   UNL A   1      46.468  26.101  35.614  1.00  0.00     0.006 A 
ENDBRANCH  51  65
BRANCH  52  73
ATOM     73  C   UNL A   1      36.807  31.395  29.108  1.00  0.00     0.057 A 
ATOM     74  C   UNL A   1      35.690  30.622  28.772  1.00  0.00     0.134 A 
ATOM     75  C   UNL A   1      36.816  32.732  28.690  1.00  0.00     0.134 A 
ATOM     76  F   UNL A   1      35.636  29.328  29.123  1.00  0.00    -0.206 F 
ATOM     77  C   UNL A   1      34.630  31.151  28.034  1.00  0.00     0.040 A 
ATOM     78  C   UNL A   1      35.752  33.281  27.973  1.00  0.00     0.040 A 
ATOM     79  F   UNL A   1      37.857  33.525  28.981  1.00  0.00    -0.206 F 
ATOM     80  C   UNL A   1      34.657  32.486  27.637  1.00  0.00     0.006 A 
ENDBRANCH  52  73
BRANCH  64  81
ATOM     81  C   UNL A   1      38.997  32.015  35.690  1.00  0.00     0.057 A 
ATOM     82  C   UNL A   1      38.198  31.456  36.696  1.00  0.00     0.134 A 
ATOM     83  C   UNL A   1      39.376  33.357  35.833  1.00  0.00     0.134 A 
ATOM     84  F   UNL A   1      37.792  30.180  36.612  1.00  0.00    -0.206 F 
ATOM     85  C   UNL A   1      37.782  32.209  37.796  1.00  0.00     0.040 A 
ATOM     86  C   UNL A   1      38.984  34.111  36.939  1.00  0.00     0.040 A 
ATOM     87  F   UNL A   1      40.147  33.948  34.909  1.00  0.00    -0.206 F 
ATOM     88  C   UNL A   1      38.182  33.538  37.923  1.00  0.00     0.006 A 
ENDBRANCH  64  81
ENDBRANCH  38  39
ENDBRANCH  31  33
ENDBRANCH  30  31
ENDBRANCH  29  30
ENDBRANCH  28  29
ENDBRANCH  27  28
ENDBRANCH   1  27
TORSDOF 17
ENDMDL
MODEL 2
REMARK VINA RESULT:     -11.2      2.019      6.838
REMARK SMILES CC[C@H]1CCCCN1S(=O)(=O)c1ccc2oc(C(=O)OCCOCCOC(=O)c3ccc(-c4c5nc(c(-c6c(F)cccc6F)c6ccc([nH]6)c(-c6c(F)cccc6F)c6nc(c(-c7c(F)cccc7F)c7ccc4[nH]7)C=C6)C=C5)cc3)c(C)c2c1
REMARK SMILES IDX 22 1 21 2 20 3 18 4 19 5 17 6 12 7 13 8 86 9 14 10 85 11
REMARK SMILES IDX 15 12 83 13 16 14 84 15 9 16 10 17 11 18 8 19 3 20 4 21 5 22
REMARK SMILES IDX 7 23 6 24 2 25 1 26 23 27 24 28 25 29 26 30 27 31 28 32
REMARK SMILES IDX 29 33 30 34 82 35 31 36 81 37 32 38 33 39 34 40 75 41 35 42
REMARK SMILES IDX 80 43 74 44 76 45 36 46 79 47 73 48 72 49 37 51 63 52 46 53
REMARK SMILES IDX 62 54 47 55 50 56 61 57 77 58 48 59 49 60 60 62 78 63 51 64
REMARK SMILES IDX 38 65 39 66 44 67 40 68 41 69 43 70 45 71 42 72 64 73 65 74
REMARK SMILES IDX 70 75 66 76 67 77 69 78 71 79 68 80 52 81 53 82 58 83 54 84
REMARK SMILES IDX 55 85 57 86 59 87 56 88
REMARK H PARENT 76 50 50 61
REMARK Flexibility Score: inf
ROOT
ATOM      1  C   UNL A   1      44.512  19.357  24.619  1.00  0.00     0.202 C 
ENDROOT
BRANCH   1   2
ATOM      2  C   UNL A   1      43.319  18.767  25.376  1.00  0.00     0.261 C 
BRANCH   2   3
ATOM      3  O   UNL A   1      42.203  19.668  25.302  1.00  0.00    -0.457 OA
BRANCH   3   4
ATOM      4  C   UNL A   1      41.581  19.938  26.483  1.00  0.00     0.374 C 
ATOM      5  O   UNL A   1      42.012  19.609  27.582  1.00  0.00    -0.242 OA
BRANCH   4   6
ATOM      6  C   UNL A   1      40.393  20.733  26.255  1.00  0.00     0.215 A 
ATOM      7  C   UNL A   1      36.704  23.403  26.079  1.00  0.00     0.083 A 
ATOM      8  C   UNL A   1      37.653  24.344  26.492  1.00  0.00     0.025 A 
ATOM      9  C   UNL A   1      37.079  22.120  25.642  1.00  0.00     0.034 A 
ATOM     10  C   UNL A   1      39.002  23.987  26.590  1.00  0.00     0.049 A 
ATOM     11  C   UNL A   1      38.403  21.714  25.866  1.00  0.00     0.025 A 
ATOM     12  C   UNL A   1      39.308  22.652  26.332  1.00  0.00     0.135 A 
ATOM     13  C   UNL A   1      39.105  20.469  25.787  1.00  0.00     0.010 A 
ATOM     14  O   UNL A   1      40.512  22.072  26.532  1.00  0.00    -0.449 OA
ATOM     15  C   UNL A   1      38.494  19.174  25.383  1.00  0.00     0.049 C 
BRANCH   7  16
ATOM     16  S   UNL A   1      34.968  23.793  26.118  1.00  0.00     0.243 S 
ATOM     17  O   UNL A   1      34.854  25.220  25.907  1.00  0.00    -0.207 OA
ATOM     18  O   UNL A   1      34.402  23.161  27.292  1.00  0.00    -0.207 OA
BRANCH  16  19
ATOM     19  N   UNL A   1      34.330  22.986  24.725  1.00  0.00    -0.195 NA
ATOM     20  C   UNL A   1      33.038  22.238  24.987  1.00  0.00     0.073 C 
ATOM     21  C   UNL A   1      32.715  21.371  23.757  1.00  0.00     0.020 C 
ATOM     22  C   UNL A   1      32.598  22.201  22.486  1.00  0.00     0.003 C 
ATOM     23  C   UNL A   1      34.290  23.794  23.470  1.00  0.00     0.103 C 
ATOM     24  C   UNL A   1      33.896  22.955  22.260  1.00  0.00     0.017 C 
BRANCH  20  25
ATOM     25  C   UNL A   1      31.895  23.187  25.406  1.00  0.00     0.017 C 
ATOM     26  C   UNL A   1      30.620  22.480  25.842  1.00  0.00     0.005 C 
ENDBRANCH  20  25
ENDBRANCH  16  19
ENDBRANCH   7  16
ENDBRANCH   4   6
ENDBRANCH   3   4
ENDBRANCH   2   3
ENDBRANCH   1   2
BRANCH   1  27
ATOM     27  O   UNL A   1      44.280  20.649  24.059  1.00  0.00    -0.374 OA
BRANCH  27  28
ATOM     28  C   UNL A   1      45.043  21.731  24.598  1.00  0.00     0.202 C 
BRANCH  28  29
ATOM     29  C   UNL A   1      44.367  22.500  25.739  1.00  0.00     0.261 C 
BRANCH  29  30
ATOM     30  O   UNL A   1      43.546  23.568  25.229  1.00  0.00    -0.460 OA
BRANCH  30  31
ATOM     31  C   UNL A   1      44.084  24.807  25.336  1.00  0.00     0.338 C 
ATOM     32  O   UNL A   1      44.935  25.311  24.624  1.00  0.00    -0.246 OA
BRANCH  31  33
ATOM     33  C   UNL A   1      43.353  25.571  26.367  1.00  0.00     0.060 A 
ATOM     34  C   UNL A   1      43.680  26.924  26.523  1.00  0.00     0.016 A 
ATOM     35  C   UNL A   1      42.409  24.967  27.199  1.00  0.00     0.016 A 
ATOM     36  C   UNL A   1      43.091  27.672  27.541  1.00  0.00     0.010 A 
ATOM     37  C   UNL A   1      41.826  25.716  28.225  1.00  0.00     0.010 A 
ATOM     38  C   UNL A   1      42.187  27.062  28.420  1.00  0.00    -0.014 A 
BRANCH  38  39
ATOM     39  C   UNL A   1      41.719  27.784  29.627  1.00  0.00     0.031 A 
ATOM     40  C   UNL A   1      40.513  28.673  29.520  1.00  0.00     0.074 A 
ATOM     41  C   UNL A   1      42.362  27.655  30.801  1.00  0.00     0.049 A 
ATOM     42  N   UNL A   1      39.988  29.472  30.412  1.00  0.00    -0.248 NA
ATOM     43  C   UNL A   1      39.804  28.662  28.229  1.00  0.00     0.031 C 
ATOM     44  C   UNL A   1      43.516  26.790  31.042  1.00  0.00     0.029 A 
ATOM     45  N   UNL A   1      42.140  28.269  32.008  1.00  0.00    -0.354 N 
ATOM     46  C   UNL A   1      38.897  30.066  29.791  1.00  0.00     0.074 A 
ATOM     47  C   UNL A   1      38.849  29.554  28.438  1.00  0.00     0.031 C 
ATOM     48  C   UNL A   1      43.913  26.943  32.318  1.00  0.00     0.029 A 
ATOM     49  C   UNL A   1      43.067  27.943  32.967  1.00  0.00     0.049 A 
ATOM     50  H   UNL A   1      41.390  28.885  32.169  1.00  0.00     0.167 HD
ATOM     51  C   UNL A   1      38.014  30.955  30.303  1.00  0.00     0.037 A 
ATOM     52  C   UNL A   1      43.229  28.420  34.216  1.00  0.00     0.037 A 
ATOM     53  C   UNL A   1      38.062  31.461  31.649  1.00  0.00     0.049 A 
ATOM     54  C   UNL A   1      42.279  29.465  34.739  1.00  0.00     0.074 A 
ATOM     55  C   UNL A   1      37.202  32.352  32.267  1.00  0.00     0.029 A 
ATOM     56  N   UNL A   1      39.028  31.124  32.584  1.00  0.00    -0.354 N 
ATOM     57  N   UNL A   1      41.244  30.011  34.149  1.00  0.00    -0.248 NA
ATOM     58  C   UNL A   1      42.524  29.964  36.101  1.00  0.00     0.031 C 
ATOM     59  C   UNL A   1      37.673  32.587  33.563  1.00  0.00     0.029 A 
ATOM     60  C   UNL A   1      38.800  31.806  33.766  1.00  0.00     0.049 A 
ATOM     61  H   UNL A   1      39.768  30.492  32.429  1.00  0.00     0.167 HD
ATOM     62  C   UNL A   1      40.696  30.891  35.075  1.00  0.00     0.074 A 
ATOM     63  C   UNL A   1      41.511  30.804  36.268  1.00  0.00     0.031 C 
ATOM     64  C   UNL A   1      39.614  31.697  34.950  1.00  0.00     0.037 A 
BRANCH  51  65
ATOM     65  C   UNL A   1      36.932  31.457  29.394  1.00  0.00     0.057 A 
ATOM     66  C   UNL A   1      36.973  32.741  28.835  1.00  0.00     0.134 A 
ATOM     67  C   UNL A   1      35.853  30.634  29.048  1.00  0.00     0.134 A 
ATOM     68  F   UNL A   1      37.973  33.582  29.137  1.00  0.00    -0.206 F 
ATOM     69  C   UNL A   1      35.969  33.195  27.979  1.00  0.00     0.040 A 
ATOM     70  C   UNL A   1      34.854  31.069  28.175  1.00  0.00     0.040 A 
ATOM     71  F   UNL A   1      35.755  29.393  29.547  1.00  0.00    -0.206 F 
ATOM     72  C   UNL A   1      34.908  32.355  27.642  1.00  0.00     0.006 A 
ENDBRANCH  51  65
BRANCH  52  73
ATOM     73  C   UNL A   1      44.349  27.932  35.059  1.00  0.00     0.057 A 
ATOM     74  C   UNL A   1      45.534  28.665  35.183  1.00  0.00     0.134 A 
ATOM     75  C   UNL A   1      44.270  26.712  35.741  1.00  0.00     0.134 A 
ATOM     76  F   UNL A   1      45.679  29.830  34.532  1.00  0.00    -0.206 F 
ATOM     77  C   UNL A   1      46.608  28.196  35.942  1.00  0.00     0.040 A 
ATOM     78  C   UNL A   1      45.326  26.242  36.523  1.00  0.00     0.040 A 
ATOM     79  F   UNL A   1      43.161  25.963  35.663  1.00  0.00    -0.206 F 
ATOM     80  C   UNL A   1      46.503  26.983  36.619  1.00  0.00     0.006 A 
ENDBRANCH  52  73
BRANCH  64  81
ATOM     81  C   UNL A   1      39.220  32.517  36.142  1.00  0.00     0.057 A 
ATOM     82  C   UNL A   1      39.712  33.813  36.345  1.00  0.00     0.134 A 
ATOM     83  C   UNL A   1      38.291  32.025  37.069  1.00  0.00     0.134 A 
ATOM     84  F   UNL A   1      40.613  34.338  35.500  1.00  0.00    -0.206 F 
ATOM     85  C   UNL A   1      39.305  34.584  37.435  1.00  0.00     0.040 A 
ATOM     86  C   UNL A   1      37.860  32.795  38.149  1.00  0.00     0.040 A 
ATOM     87  F   UNL A   1      37.775  30.795  36.927  1.00  0.00    -0.206 F 
ATOM     88  C   UNL A   1      38.370  34.078  38.336  1.00  0.00     0.006 A 
ENDBRANCH  64  81
ENDBRANCH  38  39
ENDBRANCH  31  33
ENDBRANCH  30  31
ENDBRANCH  29  30
ENDBRANCH  28  29
ENDBRANCH  27  28
ENDBRANCH   1  27
TORSDOF 17
ENDMDL
MODEL 3
REMARK VINA RESULT:     -11.2      0.830      6.101
REMARK SMILES CC[C@H]1CCCCN1S(=O)(=O)c1ccc2oc(C(=O)OCCOCCOC(=O)c3ccc(-c4c5nc(c(-c6c(F)cccc6F)c6ccc([nH]6)c(-c6c(F)cccc6F)c6nc(c(-c7c(F)cccc7F)c7ccc4[nH]7)C=C6)C=C5)cc3)c(C)c2c1
REMARK SMILES IDX 22 1 21 2 20 3 18 4 19 5 17 6 12 7 13 8 86 9 14 10 85 11
REMARK SMILES IDX 15 12 83 13 16 14 84 15 9 16 10 17 11 18 8 19 3 20 4 21 5 22
REMARK SMILES IDX 7 23 6 24 2 25 1 26 23 27 24 28 25 29 26 30 27 31 28 32
REMARK SMILES IDX 29 33 30 34 82 35 31 36 81 37 32 38 33 39 34 40 75 41 35 42
REMARK SMILES IDX 80 43 74 44 76 45 36 46 79 47 73 48 72 49 37 51 63 52 46 53
REMARK SMILES IDX 62 54 47 55 50 56 61 57 77 58 48 59 49 60 60 62 78 63 51 64
REMARK SMILES IDX 38 65 39 66 44 67 40 68 41 69 43 70 45 71 42 72 64 73 65 74
REMARK SMILES IDX 70 75 66 76 67 77 69 78 71 79 68 80 52 81 53 82 58 83 54 84
REMARK SMILES IDX 55 85 57 86 59 87 56 88
REMARK H PARENT 76 50 50 61
REMARK Flexibility Score: inf
ROOT
ATOM      1  C   UNL A   1      41.051  20.899  26.267  1.00  0.00     0.202 C 
ENDROOT
BRANCH   1   2
ATOM      2  C   UNL A   1      39.829  21.801  26.078  1.00  0.00     0.261 C 
BRANCH   2   3
ATOM      3  O   UNL A   1      38.632  21.069  26.385  1.00  0.00    -0.457 OA
BRANCH   3   4
ATOM      4  C   UNL A   1      37.798  20.832  25.336  1.00  0.00     0.374 C 
ATOM      5  O   UNL A   1      38.046  20.061  24.416  1.00  0.00    -0.242 OA
BRANCH   4   6
ATOM      6  C   UNL A   1      36.556  21.556  25.508  1.00  0.00     0.215 A 
ATOM      7  C   UNL A   1      32.482  23.597  25.560  1.00  0.00     0.083 A 
ATOM      8  C   UNL A   1      32.073  22.263  25.461  1.00  0.00     0.025 A 
ATOM      9  C   UNL A   1      33.818  23.940  25.828  1.00  0.00     0.034 A 
ATOM     10  C   UNL A   1      33.016  21.231  25.512  1.00  0.00     0.049 A 
ATOM     11  C   UNL A   1      34.784  22.926  25.745  1.00  0.00     0.025 A 
ATOM     12  C   UNL A   1      34.353  21.620  25.588  1.00  0.00     0.135 A 
ATOM     13  C   UNL A   1      36.215  22.892  25.722  1.00  0.00     0.010 A 
ATOM     14  O   UNL A   1      35.416  20.792  25.481  1.00  0.00    -0.449 OA
ATOM     15  C   UNL A   1      37.094  24.090  25.805  1.00  0.00     0.049 C 
BRANCH   7  16
ATOM     16  S   UNL A   1      31.316  24.920  25.320  1.00  0.00     0.243 S 
ATOM     17  O   UNL A   1      30.506  24.988  26.517  1.00  0.00    -0.207 OA
ATOM     18  O   UNL A   1      30.713  24.743  24.015  1.00  0.00    -0.207 OA
BRANCH  16  19
ATOM     19  N   UNL A   1      32.306  26.339  25.256  1.00  0.00    -0.195 NA
ATOM     20  C   UNL A   1      31.982  27.262  24.098  1.00  0.00     0.073 C 
ATOM     21  C   UNL A   1      33.078  28.338  24.006  1.00  0.00     0.020 C 
ATOM     22  C   UNL A   1      33.210  29.134  25.298  1.00  0.00     0.003 C 
ATOM     23  C   UNL A   1      32.482  27.066  26.548  1.00  0.00     0.103 C 
ATOM     24  C   UNL A   1      33.513  28.184  26.442  1.00  0.00     0.017 C 
BRANCH  20  25
ATOM     25  C   UNL A   1      30.550  27.830  24.194  1.00  0.00     0.017 C 
ATOM     26  C   UNL A   1      30.193  28.825  23.100  1.00  0.00     0.005 C 
ENDBRANCH  20  25
ENDBRANCH  16  19
ENDBRANCH   7  16
ENDBRANCH   4   6
ENDBRANCH   3   4
ENDBRANCH   2   3
ENDBRANCH   1   2
BRANCH   1  27
ATOM     27  O   UNL A   1      42.278  21.596  26.481  1.00  0.00    -0.374 OA
BRANCH  27  28
ATOM     28  C   UNL A   1      43.391  21.205  25.677  1.00  0.00     0.202 C 
BRANCH  28  29
ATOM     29  C   UNL A   1      44.052  22.338  24.882  1.00  0.00     0.261 C 
BRANCH  29  30
ATOM     30  O   UNL A   1      43.269  23.545  24.951  1.00  0.00    -0.460 OA
BRANCH  30  31
ATOM     31  C   UNL A   1      43.974  24.672  25.210  1.00  0.00     0.338 C 
ATOM     32  O   UNL A   1      44.961  25.083  24.623  1.00  0.00    -0.246 OA
BRANCH  31  33
ATOM     33  C   UNL A   1      43.267  25.469  26.231  1.00  0.00     0.060 A 
ATOM     34  C   UNL A   1      43.759  26.751  26.509  1.00  0.00     0.016 A 
ATOM     35  C   UNL A   1      42.179  24.957  26.941  1.00  0.00     0.016 A 
ATOM     36  C   UNL A   1      43.189  27.513  27.528  1.00  0.00     0.010 A 
ATOM     37  C   UNL A   1      41.615  25.718  27.969  1.00  0.00     0.010 A 
ATOM     38  C   UNL A   1      42.137  26.986  28.287  1.00  0.00    -0.014 A 
BRANCH  38  39
ATOM     39  C   UNL A   1      41.667  27.694  29.500  1.00  0.00     0.031 A 
ATOM     40  C   UNL A   1      40.462  28.587  29.401  1.00  0.00     0.074 A 
ATOM     41  C   UNL A   1      42.306  27.550  30.675  1.00  0.00     0.049 A 
ATOM     42  N   UNL A   1      39.936  29.376  30.301  1.00  0.00    -0.248 NA
ATOM     43  C   UNL A   1      39.758  28.593  28.108  1.00  0.00     0.031 C 
ATOM     44  C   UNL A   1      43.457  26.679  30.909  1.00  0.00     0.029 A 
ATOM     45  N   UNL A   1      42.082  28.149  31.889  1.00  0.00    -0.354 N 
ATOM     46  C   UNL A   1      38.849  29.980  29.684  1.00  0.00     0.074 A 
ATOM     47  C   UNL A   1      38.803  29.485  28.325  1.00  0.00     0.031 C 
ATOM     48  C   UNL A   1      43.851  26.816  32.187  1.00  0.00     0.029 A 
ATOM     49  C   UNL A   1      43.005  27.809  32.846  1.00  0.00     0.049 A 
ATOM     50  H   UNL A   1      41.332  28.765  32.056  1.00  0.00     0.167 HD
ATOM     51  C   UNL A   1      37.965  30.864  30.205  1.00  0.00     0.037 A 
ATOM     52  C   UNL A   1      43.164  28.270  34.102  1.00  0.00     0.037 A 
ATOM     53  C   UNL A   1      38.011  31.354  31.557  1.00  0.00     0.049 A 
ATOM     54  C   UNL A   1      42.214  29.311  34.635  1.00  0.00     0.074 A 
ATOM     55  C   UNL A   1      37.151  32.238  32.183  1.00  0.00     0.029 A 
ATOM     56  N   UNL A   1      38.974  31.003  32.490  1.00  0.00    -0.354 N 
ATOM     57  N   UNL A   1      41.182  29.866  34.048  1.00  0.00    -0.248 NA
ATOM     58  C   UNL A   1      42.456  29.793  36.003  1.00  0.00     0.031 C 
ATOM     59  C   UNL A   1      37.618  32.456  33.483  1.00  0.00     0.029 A 
ATOM     60  C   UNL A   1      38.743  31.671  33.680  1.00  0.00     0.049 A 
ATOM     61  H   UNL A   1      39.713  30.371  32.330  1.00  0.00     0.167 HD
ATOM     62  C   UNL A   1      40.633  30.736  34.983  1.00  0.00     0.074 A 
ATOM     63  C   UNL A   1      41.445  30.633  36.178  1.00  0.00     0.031 C 
ATOM     64  C   UNL A   1      39.554  31.546  34.865  1.00  0.00     0.037 A 
BRANCH  51  65
ATOM     65  C   UNL A   1      36.888  31.379  29.298  1.00  0.00     0.057 A 
ATOM     66  C   UNL A   1      35.774  30.602  28.957  1.00  0.00     0.134 A 
ATOM     67  C   UNL A   1      36.950  32.682  28.786  1.00  0.00     0.134 A 
ATOM     68  F   UNL A   1      35.662  29.342  29.403  1.00  0.00    -0.206 F 
ATOM     69  C   UNL A   1      34.769  31.095  28.123  1.00  0.00     0.040 A 
ATOM     70  C   UNL A   1      35.941  33.194  27.970  1.00  0.00     0.040 A 
ATOM     71  F   UNL A   1      37.989  33.479  29.077  1.00  0.00    -0.206 F 
ATOM     72  C   UNL A   1      34.849  32.397  27.632  1.00  0.00     0.006 A 
ENDBRANCH  51  65
BRANCH  52  73
ATOM     73  C   UNL A   1      44.280  27.770  34.942  1.00  0.00     0.057 A 
ATOM     74  C   UNL A   1      45.527  28.407  34.944  1.00  0.00     0.134 A 
ATOM     75  C   UNL A   1      44.136  26.632  35.744  1.00  0.00     0.134 A 
ATOM     76  F   UNL A   1      45.734  29.487  34.176  1.00  0.00    -0.206 F 
ATOM     77  C   UNL A   1      46.594  27.921  35.701  1.00  0.00     0.040 A 
ATOM     78  C   UNL A   1      45.187  26.149  36.524  1.00  0.00     0.040 A 
ATOM     79  F   UNL A   1      42.966  25.978  35.787  1.00  0.00    -0.206 F 
ATOM     80  C   UNL A   1      46.424  26.791  36.499  1.00  0.00     0.006 A 
ENDBRANCH  52  73
BRANCH  64  81
ATOM     81  C   UNL A   1      39.158  32.352  36.066  1.00  0.00     0.057 A 
ATOM     82  C   UNL A   1      39.634  33.653  36.274  1.00  0.00     0.134 A 
ATOM     83  C   UNL A   1      38.242  31.841  36.996  1.00  0.00     0.134 A 
ATOM     84  F   UNL A   1      40.522  34.195  35.427  1.00  0.00    -0.206 F 
ATOM     85  C   UNL A   1      39.225  34.410  37.373  1.00  0.00     0.040 A 
ATOM     86  C   UNL A   1      37.809  32.597  38.084  1.00  0.00     0.040 A 
ATOM     87  F   UNL A   1      37.741  30.605  36.849  1.00  0.00    -0.206 F 
ATOM     88  C   UNL A   1      38.303  33.885  38.277  1.00  0.00     0.006 A 
ENDBRANCH  64  81
ENDBRANCH  38  39
ENDBRANCH  31  33
ENDBRANCH  30  31
ENDBRANCH  29  30
ENDBRANCH  28  29
ENDBRANCH  27  28
ENDBRANCH   1  27
TORSDOF 17
ENDMDL
