MODEL 1
REMARK VINA RESULT:     -11.0      0.000      0.000
REMARK SMILES Cc1ccccc1-n1nc(Cl)c(C(=O)OCCOCCOC(=O)c2ccc(-c3c4nc(c(-c5c(F)cccc5F)c5ccc([nH]5)c(-c5c(F)cccc5F)c5nc(c(-c6c(F)cccc6F)c6ccc3[nH]6)C=C5)C=C4)cc2)n1
REMARK SMILES IDX 19 1 18 2 17 3 16 4 15 5 13 6 14 7 12 8 8 9 9 10 78 11 10 12
REMARK SMILES IDX 11 13 7 14 1 15 2 16 3 17 4 18 6 19 5 20 20 21 21 22 22 23
REMARK SMILES IDX 23 24 24 25 25 26 77 27 26 28 76 29 27 30 28 31 29 32 70 33
REMARK SMILES IDX 30 34 75 35 69 36 71 37 31 38 74 39 68 40 67 41 32 43 58 44
REMARK SMILES IDX 41 45 57 46 42 47 45 48 56 49 72 50 43 51 44 52 55 54 73 55
REMARK SMILES IDX 46 56 33 57 34 58 39 59 35 60 36 61 38 62 40 63 37 64 59 65
REMARK SMILES IDX 60 66 65 67 61 68 62 69 64 70 66 71 63 72 47 73 48 74 53 75
REMARK SMILES IDX 49 76 50 77 52 78 54 79 51 80
REMARK H PARENT 71 42 45 53
REMARK Flexibility Score: inf
ROOT
ATOM      1  C   UNL A   1      33.132  35.993  29.381  1.00  0.00     0.202 C 
ENDROOT
BRANCH   1   2
ATOM      2  O   UNL A   1      32.763  34.703  28.921  1.00  0.00    -0.374 OA
BRANCH   2   3
ATOM      3  C   UNL A   1      33.678  34.062  28.046  1.00  0.00     0.202 C 
BRANCH   3   4
ATOM      4  C   UNL A   1      33.762  32.613  28.486  1.00  0.00     0.261 C 
BRANCH   4   5
ATOM      5  O   UNL A   1      33.862  31.716  27.371  1.00  0.00    -0.458 OA
BRANCH   5   6
ATOM      6  C   UNL A   1      32.750  31.101  26.851  1.00  0.00     0.362 C 
ATOM      7  O   UNL A   1      31.614  31.530  26.869  1.00  0.00    -0.244 OA
BRANCH   6   8
ATOM      8  C   UNL A   1      33.178  29.905  26.156  1.00  0.00     0.209 A 
ATOM      9  N   UNL A   1      32.872  28.084  25.161  1.00  0.00    -0.149 N 
ATOM     10  N   UNL A   1      34.005  27.840  25.875  1.00  0.00    -0.135 NA
ATOM     11  N   UNL A   1      32.434  29.360  25.181  1.00  0.00    -0.139 NA
ATOM     12  C   UNL A   1      34.215  29.019  26.472  1.00  0.00     0.186 A 
ATOM     13  Cl  UNL A   1      35.452  29.208  27.608  1.00  0.00    -0.057 Cl
BRANCH   9  14
ATOM     14  C   UNL A   1      31.992  27.062  24.715  1.00  0.00     0.089 A 
ATOM     15  C   UNL A   1      33.232  26.751  22.460  1.00  0.00     0.047 C 
ATOM     16  C   UNL A   1      32.086  26.519  23.413  1.00  0.00    -0.023 A 
ATOM     17  C   UNL A   1      31.046  25.688  22.961  1.00  0.00     0.006 A 
ATOM     18  C   UNL A   1      29.957  25.387  23.779  1.00  0.00     0.000 A 
ATOM     19  C   UNL A   1      30.918  26.712  25.553  1.00  0.00     0.030 A 
ATOM     20  C   UNL A   1      29.898  25.889  25.076  1.00  0.00     0.002 A 
ENDBRANCH   9  14
ENDBRANCH   6   8
ENDBRANCH   5   6
ENDBRANCH   4   5
ENDBRANCH   3   4
ENDBRANCH   2   3
ENDBRANCH   1   2
BRANCH   1  21
ATOM     21  C   UNL A   1      32.807  36.222  30.864  1.00  0.00     0.261 C 
BRANCH  21  22
ATOM     22  O   UNL A   1      33.129  35.032  31.611  1.00  0.00    -0.460 OA
BRANCH  22  23
ATOM     23  C   UNL A   1      34.329  35.052  32.249  1.00  0.00     0.338 C 
ATOM     24  O   UNL A   1      34.792  36.002  32.862  1.00  0.00    -0.246 OA
BRANCH  23  25
ATOM     25  C   UNL A   1      35.124  33.852  31.861  1.00  0.00     0.060 A 
ATOM     26  C   UNL A   1      35.076  32.700  32.669  1.00  0.00     0.016 A 
ATOM     27  C   UNL A   1      36.123  33.980  30.895  1.00  0.00     0.016 A 
ATOM     28  C   UNL A   1      36.106  31.749  32.605  1.00  0.00     0.010 A 
ATOM     29  C   UNL A   1      37.167  33.075  30.880  1.00  0.00     0.010 A 
ATOM     30  C   UNL A   1      37.189  31.975  31.754  1.00  0.00    -0.014 A 
BRANCH  30  31
ATOM     31  C   UNL A   1      38.460  31.248  31.784  1.00  0.00     0.031 A 
ATOM     32  C   UNL A   1      38.618  29.960  31.065  1.00  0.00     0.074 A 
ATOM     33  C   UNL A   1      39.594  31.871  32.193  1.00  0.00     0.049 A 
ATOM     34  N   UNL A   1      39.669  29.215  31.186  1.00  0.00    -0.248 NA
ATOM     35  C   UNL A   1      37.609  29.360  30.192  1.00  0.00     0.031 C 
ATOM     36  C   UNL A   1      40.955  31.599  31.732  1.00  0.00     0.029 A 
ATOM     37  N   UNL A   1      39.772  32.817  33.208  1.00  0.00    -0.354 N 
ATOM     38  C   UNL A   1      39.665  28.354  30.121  1.00  0.00     0.074 A 
ATOM     39  C   UNL A   1      38.294  28.331  29.676  1.00  0.00     0.031 C 
ATOM     40  C   UNL A   1      41.830  32.126  32.597  1.00  0.00     0.029 A 
ATOM     41  C   UNL A   1      41.074  32.634  33.721  1.00  0.00     0.049 A 
ATOM     42  H   UNL A   1      39.113  33.484  33.509  1.00  0.00     0.167 HD
ATOM     43  C   UNL A   1      40.854  27.906  29.629  1.00  0.00     0.037 A 
ATOM     44  C   UNL A   1      41.298  32.380  35.038  1.00  0.00     0.037 A 
ATOM     45  C   UNL A   1      41.995  28.221  30.501  1.00  0.00     0.049 A 
ATOM     46  C   UNL A   1      41.989  31.061  35.277  1.00  0.00     0.074 A 
ATOM     47  C   UNL A   1      43.212  28.866  30.357  1.00  0.00     0.029 A 
ATOM     48  N   UNL A   1      41.887  27.947  31.857  1.00  0.00    -0.354 N 
ATOM     49  N   UNL A   1      42.472  30.312  34.325  1.00  0.00    -0.248 NA
ATOM     50  C   UNL A   1      42.098  30.421  36.586  1.00  0.00     0.031 C 
ATOM     51  C   UNL A   1      43.837  28.937  31.643  1.00  0.00     0.029 A 
ATOM     52  C   UNL A   1      43.016  28.309  32.561  1.00  0.00     0.049 A 
ATOM     53  H   UNL A   1      41.092  27.540  32.271  1.00  0.00     0.167 HD
ATOM     54  C   UNL A   1      42.763  29.071  34.819  1.00  0.00     0.074 A 
ATOM     55  C   UNL A   1      42.562  29.203  36.252  1.00  0.00     0.031 C 
ATOM     56  C   UNL A   1      43.058  28.023  33.992  1.00  0.00     0.037 A 
BRANCH  43  57
ATOM     57  C   UNL A   1      41.018  27.261  28.270  1.00  0.00     0.057 A 
ATOM     58  C   UNL A   1      41.527  28.004  27.188  1.00  0.00     0.134 A 
ATOM     59  C   UNL A   1      40.615  25.951  27.937  1.00  0.00     0.134 A 
ATOM     60  F   UNL A   1      41.925  29.276  27.341  1.00  0.00    -0.206 F 
ATOM     61  C   UNL A   1      41.643  27.480  25.891  1.00  0.00     0.040 A 
ATOM     62  C   UNL A   1      40.789  25.395  26.661  1.00  0.00     0.040 A 
ATOM     63  F   UNL A   1      39.978  25.156  28.805  1.00  0.00    -0.206 F 
ATOM     64  C   UNL A   1      41.296  26.164  25.628  1.00  0.00     0.006 A 
ENDBRANCH  43  57
BRANCH  44  65
ATOM     65  C   UNL A   1      40.303  33.053  35.911  1.00  0.00     0.057 A 
ATOM     66  C   UNL A   1      39.203  32.294  36.352  1.00  0.00     0.134 A 
ATOM     67  C   UNL A   1      40.627  34.195  36.652  1.00  0.00     0.134 A 
ATOM     68  F   UNL A   1      38.850  31.176  35.697  1.00  0.00    -0.206 F 
ATOM     69  C   UNL A   1      38.521  32.597  37.533  1.00  0.00     0.040 A 
ATOM     70  C   UNL A   1      39.953  34.505  37.840  1.00  0.00     0.040 A 
ATOM     71  F   UNL A   1      41.679  34.952  36.310  1.00  0.00    -0.206 F 
ATOM     72  C   UNL A   1      38.919  33.688  38.299  1.00  0.00     0.006 A 
ENDBRANCH  44  65
BRANCH  56  73
ATOM     73  C   UNL A   1      43.313  26.611  34.464  1.00  0.00     0.057 A 
ATOM     74  C   UNL A   1      42.309  25.777  34.972  1.00  0.00     0.134 A 
ATOM     75  C   UNL A   1      44.615  26.066  34.502  1.00  0.00     0.134 A 
ATOM     76  F   UNL A   1      41.047  26.211  35.105  1.00  0.00    -0.206 F 
ATOM     77  C   UNL A   1      42.566  24.467  35.404  1.00  0.00     0.040 A 
ATOM     78  C   UNL A   1      44.893  24.780  34.976  1.00  0.00     0.040 A 
ATOM     79  F   UNL A   1      45.687  26.741  34.067  1.00  0.00    -0.206 F 
ATOM     80  C   UNL A   1      43.862  23.966  35.408  1.00  0.00     0.006 A 
ENDBRANCH  56  73
ENDBRANCH  30  31
ENDBRANCH  23  25
ENDBRANCH  22  23
ENDBRANCH  21  22
ENDBRANCH   1  21
TORSDOF 15
ENDMDL
MODEL 2
REMARK VINA RESULT:     -10.9      4.542      9.357
REMARK SMILES Cc1ccccc1-n1nc(Cl)c(C(=O)OCCOCCOC(=O)c2ccc(-c3c4nc(c(-c5c(F)cccc5F)c5ccc([nH]5)c(-c5c(F)cccc5F)c5nc(c(-c6c(F)cccc6F)c6ccc3[nH]6)C=C5)C=C4)cc2)n1
REMARK SMILES IDX 19 1 18 2 17 3 16 4 15 5 13 6 14 7 12 8 8 9 9 10 78 11 10 12
REMARK SMILES IDX 11 13 7 14 1 15 2 16 3 17 4 18 6 19 5 20 20 21 21 22 22 23
REMARK SMILES IDX 23 24 24 25 25 26 77 27 26 28 76 29 27 30 28 31 29 32 70 33
REMARK SMILES IDX 30 34 75 35 69 36 71 37 31 38 74 39 68 40 67 41 32 43 58 44
REMARK SMILES IDX 41 45 57 46 42 47 45 48 56 49 72 50 43 51 44 52 55 54 73 55
REMARK SMILES IDX 46 56 33 57 34 58 39 59 35 60 36 61 38 62 40 63 37 64 59 65
REMARK SMILES IDX 60 66 65 67 61 68 62 69 64 70 66 71 63 72 47 73 48 74 53 75
REMARK SMILES IDX 49 76 50 77 52 78 54 79 51 80
REMARK H PARENT 71 42 45 53
REMARK Flexibility Score: inf
ROOT
ATOM      1  C   UNL A   1      37.535  20.907  24.864  1.00  0.00     0.202 C 
ENDROOT
BRANCH   1   2
ATOM      2  O   UNL A   1      36.134  20.843  24.655  1.00  0.00    -0.374 OA
BRANCH   2   3
ATOM      3  C   UNL A   1      35.434  22.077  24.702  1.00  0.00     0.202 C 
BRANCH   3   4
ATOM      4  C   UNL A   1      34.208  21.851  25.567  1.00  0.00     0.261 C 
BRANCH   4   5
ATOM      5  O   UNL A   1      33.994  22.929  26.490  1.00  0.00    -0.458 OA
BRANCH   5   6
ATOM      6  C   UNL A   1      32.861  22.987  27.263  1.00  0.00     0.362 C 
ATOM      7  O   UNL A   1      32.704  22.475  28.353  1.00  0.00    -0.244 OA
BRANCH   6   8
ATOM      8  C   UNL A   1      31.919  23.878  26.618  1.00  0.00     0.209 A 
ATOM      9  N   UNL A   1      31.187  25.755  26.032  1.00  0.00    -0.149 N 
ATOM     10  N   UNL A   1      30.044  25.074  26.326  1.00  0.00    -0.135 NA
ATOM     11  N   UNL A   1      32.321  25.023  26.045  1.00  0.00    -0.139 NA
ATOM     12  C   UNL A   1      30.519  23.868  26.657  1.00  0.00     0.186 A 
ATOM     13  Cl  UNL A   1      29.491  22.664  27.249  1.00  0.00    -0.057 Cl
BRANCH   9  14
ATOM     14  C   UNL A   1      31.282  27.172  26.058  1.00  0.00     0.089 A 
ATOM     15  C   UNL A   1      30.480  27.434  23.607  1.00  0.00     0.047 C 
ATOM     16  C   UNL A   1      31.065  27.951  24.898  1.00  0.00    -0.023 A 
ATOM     17  C   UNL A   1      31.404  29.314  24.939  1.00  0.00     0.006 A 
ATOM     18  C   UNL A   1      31.922  29.894  26.096  1.00  0.00     0.000 A 
ATOM     19  C   UNL A   1      31.755  27.774  27.237  1.00  0.00     0.030 A 
ATOM     20  C   UNL A   1      32.088  29.128  27.246  1.00  0.00     0.002 A 
ENDBRANCH   9  14
ENDBRANCH   6   8
ENDBRANCH   5   6
ENDBRANCH   4   5
ENDBRANCH   3   4
ENDBRANCH   2   3
ENDBRANCH   1   2
BRANCH   1  21
ATOM     21  C   UNL A   1      37.960  22.084  25.754  1.00  0.00     0.261 C 
BRANCH  21  22
ATOM     22  O   UNL A   1      39.394  22.220  25.711  1.00  0.00    -0.460 OA
BRANCH  22  23
ATOM     23  C   UNL A   1      39.972  22.656  26.862  1.00  0.00     0.338 C 
ATOM     24  O   UNL A   1      40.437  21.942  27.737  1.00  0.00    -0.246 OA
BRANCH  23  25
ATOM     25  C   UNL A   1      39.707  24.113  27.037  1.00  0.00     0.060 A 
ATOM     26  C   UNL A   1      40.317  25.036  26.167  1.00  0.00     0.016 A 
ATOM     27  C   UNL A   1      39.119  24.560  28.220  1.00  0.00     0.016 A 
ATOM     28  C   UNL A   1      40.460  26.379  26.548  1.00  0.00     0.010 A 
ATOM     29  C   UNL A   1      39.318  25.868  28.620  1.00  0.00     0.010 A 
ATOM     30  C   UNL A   1      40.018  26.778  27.810  1.00  0.00    -0.014 A 
BRANCH  30  31
ATOM     31  C   UNL A   1      40.351  28.044  28.466  1.00  0.00     0.031 A 
ATOM     32  C   UNL A   1      39.357  29.142  28.552  1.00  0.00     0.074 A 
ATOM     33  C   UNL A   1      41.438  28.130  29.273  1.00  0.00     0.049 A 
ATOM     34  N   UNL A   1      39.655  30.324  28.987  1.00  0.00    -0.248 NA
ATOM     35  C   UNL A   1      37.964  29.045  28.117  1.00  0.00     0.031 C 
ATOM     36  C   UNL A   1      41.593  28.996  30.442  1.00  0.00     0.029 A 
ATOM     37  N   UNL A   1      42.694  27.529  29.139  1.00  0.00    -0.354 N 
ATOM     38  C   UNL A   1      38.471  30.934  29.307  1.00  0.00     0.074 A 
ATOM     39  C   UNL A   1      37.474  30.211  28.559  1.00  0.00     0.031 C 
ATOM     40  C   UNL A   1      42.890  29.087  30.758  1.00  0.00     0.029 A 
ATOM     41  C   UNL A   1      43.636  28.402  29.725  1.00  0.00     0.049 A 
ATOM     42  H   UNL A   1      42.886  26.661  28.715  1.00  0.00     0.167 HD
ATOM     43  C   UNL A   1      38.453  31.860  30.308  1.00  0.00     0.037 A 
ATOM     44  C   UNL A   1      44.699  28.886  29.028  1.00  0.00     0.037 A 
ATOM     45  C   UNL A   1      39.799  32.267  30.740  1.00  0.00     0.049 A 
ATOM     46  C   UNL A   1      44.706  30.391  28.930  1.00  0.00     0.074 A 
ATOM     47  C   UNL A   1      40.490  32.312  31.939  1.00  0.00     0.029 A 
ATOM     48  N   UNL A   1      40.732  32.605  29.770  1.00  0.00    -0.354 N 
ATOM     49  N   UNL A   1      43.880  31.164  29.578  1.00  0.00    -0.248 NA
ATOM     50  C   UNL A   1      45.561  31.146  28.017  1.00  0.00     0.031 C 
ATOM     51  C   UNL A   1      41.836  32.717  31.667  1.00  0.00     0.029 A 
ATOM     52  C   UNL A   1      41.954  32.947  30.308  1.00  0.00     0.049 A 
ATOM     53  H   UNL A   1      40.542  32.601  28.804  1.00  0.00     0.167 HD
ATOM     54  C   UNL A   1      43.938  32.431  29.067  1.00  0.00     0.074 A 
ATOM     55  C   UNL A   1      45.044  32.383  28.126  1.00  0.00     0.031 C 
ATOM     56  C   UNL A   1      43.012  33.380  29.400  1.00  0.00     0.037 A 
BRANCH  43  57
ATOM     57  C   UNL A   1      37.195  32.336  30.998  1.00  0.00     0.057 A 
ATOM     58  C   UNL A   1      36.396  33.335  30.410  1.00  0.00     0.134 A 
ATOM     59  C   UNL A   1      36.760  31.921  32.274  1.00  0.00     0.134 A 
ATOM     60  F   UNL A   1      36.698  33.852  29.210  1.00  0.00    -0.206 F 
ATOM     61  C   UNL A   1      35.253  33.862  31.031  1.00  0.00     0.040 A 
ATOM     62  C   UNL A   1      35.583  32.391  32.875  1.00  0.00     0.040 A 
ATOM     63  F   UNL A   1      37.477  31.088  33.038  1.00  0.00    -0.206 F 
ATOM     64  C   UNL A   1      34.828  33.373  32.258  1.00  0.00     0.006 A 
ENDBRANCH  43  57
BRANCH  44  65
ATOM     65  C   UNL A   1      45.196  27.910  28.024  1.00  0.00     0.057 A 
ATOM     66  C   UNL A   1      44.754  28.058  26.697  1.00  0.00     0.134 A 
ATOM     67  C   UNL A   1      46.373  27.182  28.227  1.00  0.00     0.134 A 
ATOM     68  F   UNL A   1      43.642  28.761  26.431  1.00  0.00    -0.206 F 
ATOM     69  C   UNL A   1      45.502  27.592  25.612  1.00  0.00     0.040 A 
ATOM     70  C   UNL A   1      47.133  26.716  27.147  1.00  0.00     0.040 A 
ATOM     71  F   UNL A   1      46.872  27.025  29.462  1.00  0.00    -0.206 F 
ATOM     72  C   UNL A   1      46.715  26.948  25.837  1.00  0.00     0.006 A 
ENDBRANCH  44  65
BRANCH  56  73
ATOM     73  C   UNL A   1      42.970  34.771  28.815  1.00  0.00     0.057 A 
ATOM     74  C   UNL A   1      42.962  35.026  27.437  1.00  0.00     0.134 A 
ATOM     75  C   UNL A   1      43.023  35.922  29.632  1.00  0.00     0.134 A 
ATOM     76  F   UNL A   1      43.030  34.027  26.545  1.00  0.00    -0.206 F 
ATOM     77  C   UNL A   1      42.920  36.327  26.913  1.00  0.00     0.040 A 
ATOM     78  C   UNL A   1      43.033  37.223  29.122  1.00  0.00     0.040 A 
ATOM     79  F   UNL A   1      43.051  35.848  30.969  1.00  0.00    -0.206 F 
ATOM     80  C   UNL A   1      42.958  37.431  27.757  1.00  0.00     0.006 A 
ENDBRANCH  56  73
ENDBRANCH  30  31
ENDBRANCH  23  25
ENDBRANCH  22  23
ENDBRANCH  21  22
ENDBRANCH   1  21
TORSDOF 15
ENDMDL
MODEL 3
REMARK VINA RESULT:     -10.9      3.052      4.847
REMARK SMILES Cc1ccccc1-n1nc(Cl)c(C(=O)OCCOCCOC(=O)c2ccc(-c3c4nc(c(-c5c(F)cccc5F)c5ccc([nH]5)c(-c5c(F)cccc5F)c5nc(c(-c6c(F)cccc6F)c6ccc3[nH]6)C=C5)C=C4)cc2)n1
REMARK SMILES IDX 19 1 18 2 17 3 16 4 15 5 13 6 14 7 12 8 8 9 9 10 78 11 10 12
REMARK SMILES IDX 11 13 7 14 1 15 2 16 3 17 4 18 6 19 5 20 20 21 21 22 22 23
REMARK SMILES IDX 23 24 24 25 25 26 77 27 26 28 76 29 27 30 28 31 29 32 70 33
REMARK SMILES IDX 30 34 75 35 69 36 71 37 31 38 74 39 68 40 67 41 32 43 58 44
REMARK SMILES IDX 41 45 57 46 42 47 45 48 56 49 72 50 43 51 44 52 55 54 73 55
REMARK SMILES IDX 46 56 33 57 34 58 39 59 35 60 36 61 38 62 40 63 37 64 59 65
REMARK SMILES IDX 60 66 65 67 61 68 62 69 64 70 66 71 63 72 47 73 48 74 53 75
REMARK SMILES IDX 49 76 50 77 52 78 54 79 51 80
REMARK H PARENT 71 42 45 53
REMARK Flexibility Score: inf
ROOT
ATOM      1  C   UNL A   1      32.150  30.414  26.702  1.00  0.00     0.202 C 
ENDROOT
BRANCH   1   2
ATOM      2  O   UNL A   1      31.573  29.230  26.176  1.00  0.00    -0.374 OA
BRANCH   2   3
ATOM      3  C   UNL A   1      31.618  29.081  24.765  1.00  0.00     0.202 C 
BRANCH   3   4
ATOM      4  C   UNL A   1      32.235  27.724  24.488  1.00  0.00     0.261 C 
BRANCH   4   5
ATOM      5  O   UNL A   1      31.330  26.650  24.781  1.00  0.00    -0.458 OA
BRANCH   5   6
ATOM      6  C   UNL A   1      31.511  25.848  25.881  1.00  0.00     0.362 C 
ATOM      7  O   UNL A   1      31.174  26.099  27.020  1.00  0.00    -0.244 OA
BRANCH   6   8
ATOM      8  C   UNL A   1      32.058  24.584  25.433  1.00  0.00     0.209 A 
ATOM      9  N   UNL A   1      33.604  23.210  25.083  1.00  0.00    -0.149 N 
ATOM     10  N   UNL A   1      32.794  23.020  24.004  1.00  0.00    -0.135 NA
ATOM     11  N   UNL A   1      33.117  24.027  26.040  1.00  0.00    -0.139 NA
ATOM     12  C   UNL A   1      31.792  23.869  24.258  1.00  0.00     0.186 A 
ATOM     13  Cl  UNL A   1      30.562  24.123  23.127  1.00  0.00    -0.057 Cl
BRANCH   9  14
ATOM     14  C   UNL A   1      34.988  22.892  25.087  1.00  0.00     0.089 A 
ATOM     15  C   UNL A   1      34.570  20.336  24.998  1.00  0.00     0.047 C 
ATOM     16  C   UNL A   1      35.442  21.555  25.164  1.00  0.00    -0.023 A 
ATOM     17  C   UNL A   1      36.809  21.329  25.401  1.00  0.00     0.006 A 
ATOM     18  C   UNL A   1      37.702  22.391  25.537  1.00  0.00     0.000 A 
ATOM     19  C   UNL A   1      35.903  23.957  25.173  1.00  0.00     0.030 A 
ATOM     20  C   UNL A   1      37.253  23.702  25.414  1.00  0.00     0.002 A 
ENDBRANCH   9  14
ENDBRANCH   6   8
ENDBRANCH   5   6
ENDBRANCH   4   5
ENDBRANCH   3   4
ENDBRANCH   2   3
ENDBRANCH   1   2
BRANCH   1  21
ATOM     21  C   UNL A   1      33.669  30.310  26.897  1.00  0.00     0.261 C 
BRANCH  21  22
ATOM     22  O   UNL A   1      34.067  31.151  27.998  1.00  0.00    -0.460 OA
BRANCH  22  23
ATOM     23  C   UNL A   1      35.368  31.543  27.990  1.00  0.00     0.338 C 
ATOM     24  O   UNL A   1      35.779  32.635  27.628  1.00  0.00    -0.246 OA
BRANCH  23  25
ATOM     25  C   UNL A   1      36.250  30.363  28.218  1.00  0.00     0.060 A 
ATOM     26  C   UNL A   1      36.263  29.743  29.482  1.00  0.00     0.016 A 
ATOM     27  C   UNL A   1      37.258  30.077  27.296  1.00  0.00     0.016 A 
ATOM     28  C   UNL A   1      37.356  28.952  29.870  1.00  0.00     0.010 A 
ATOM     29  C   UNL A   1      38.361  29.352  27.705  1.00  0.00     0.010 A 
ATOM     30  C   UNL A   1      38.439  28.814  29.001  1.00  0.00    -0.014 A 
BRANCH  30  31
ATOM     31  C   UNL A   1      39.754  28.281  29.359  1.00  0.00     0.031 A 
ATOM     32  C   UNL A   1      40.158  26.911  28.956  1.00  0.00     0.074 A 
ATOM     33  C   UNL A   1      40.737  29.115  29.783  1.00  0.00     0.049 A 
ATOM     34  N   UNL A   1      41.244  26.348  29.375  1.00  0.00    -0.248 NA
ATOM     35  C   UNL A   1      39.371  26.027  28.095  1.00  0.00     0.031 C 
ATOM     36  C   UNL A   1      42.176  28.942  29.584  1.00  0.00     0.029 A 
ATOM     37  N   UNL A   1      40.650  30.252  30.592  1.00  0.00    -0.354 N 
ATOM     38  C   UNL A   1      41.502  25.307  28.525  1.00  0.00     0.074 A 
ATOM     39  C   UNL A   1      40.232  25.018  27.907  1.00  0.00     0.031 C 
ATOM     40  C   UNL A   1      42.839  29.735  30.432  1.00  0.00     0.029 A 
ATOM     41  C   UNL A   1      41.863  30.345  31.308  1.00  0.00     0.049 A 
ATOM     42  H   UNL A   1      39.887  30.872  30.651  1.00  0.00     0.167 HD
ATOM     43  C   UNL A   1      42.795  24.934  28.308  1.00  0.00     0.037 A 
ATOM     44  C   UNL A   1      41.893  30.380  32.668  1.00  0.00     0.037 A 
ATOM     45  C   UNL A   1      43.740  25.559  29.245  1.00  0.00     0.049 A 
ATOM     46  C   UNL A   1      42.665  29.234  33.271  1.00  0.00     0.074 A 
ATOM     47  C   UNL A   1      44.892  26.319  29.141  1.00  0.00     0.029 A 
ATOM     48  N   UNL A   1      43.440  25.538  30.600  1.00  0.00    -0.354 N 
ATOM     49  N   UNL A   1      43.370  28.387  32.575  1.00  0.00    -0.248 NA
ATOM     50  C   UNL A   1      42.622  28.877  34.688  1.00  0.00     0.031 C 
ATOM     51  C   UNL A   1      45.288  26.717  30.458  1.00  0.00     0.029 A 
ATOM     52  C   UNL A   1      44.396  26.173  31.363  1.00  0.00     0.049 A 
ATOM     53  H   UNL A   1      42.633  25.115  30.975  1.00  0.00     0.167 HD
ATOM     54  C   UNL A   1      43.701  27.313  33.354  1.00  0.00     0.074 A 
ATOM     55  C   UNL A   1      43.256  27.690  34.684  1.00  0.00     0.031 C 
ATOM     56  C   UNL A   1      44.232  26.175  32.814  1.00  0.00     0.037 A 
BRANCH  43  57
ATOM     57  C   UNL A   1      43.243  24.068  27.151  1.00  0.00     0.057 A 
ATOM     58  C   UNL A   1      43.771  24.657  25.986  1.00  0.00     0.134 A 
ATOM     59  C   UNL A   1      43.102  22.667  27.081  1.00  0.00     0.134 A 
ATOM     60  F   UNL A   1      43.938  25.984  25.890  1.00  0.00    -0.206 F 
ATOM     61  C   UNL A   1      44.145  23.912  24.857  1.00  0.00     0.040 A 
ATOM     62  C   UNL A   1      43.534  21.906  25.985  1.00  0.00     0.040 A 
ATOM     63  F   UNL A   1      42.485  21.962  28.036  1.00  0.00    -0.206 F 
ATOM     64  C   UNL A   1      44.050  22.528  24.862  1.00  0.00     0.006 A 
ENDBRANCH  43  57
BRANCH  44  65
ATOM     65  C   UNL A   1      40.705  31.070  33.233  1.00  0.00     0.057 A 
ATOM     66  C   UNL A   1      40.710  32.477  33.239  1.00  0.00     0.134 A 
ATOM     67  C   UNL A   1      39.461  30.436  33.324  1.00  0.00     0.134 A 
ATOM     68  F   UNL A   1      41.868  33.147  33.135  1.00  0.00    -0.206 F 
ATOM     69  C   UNL A   1      39.527  33.221  33.232  1.00  0.00     0.040 A 
ATOM     70  C   UNL A   1      38.269  31.172  33.313  1.00  0.00     0.040 A 
ATOM     71  F   UNL A   1      39.375  29.099  33.294  1.00  0.00    -0.206 F 
ATOM     72  C   UNL A   1      38.299  32.565  33.234  1.00  0.00     0.006 A 
ENDBRANCH  44  65
BRANCH  56  73
ATOM     73  C   UNL A   1      44.548  24.926  33.602  1.00  0.00     0.057 A 
ATOM     74  C   UNL A   1      45.817  24.333  33.627  1.00  0.00     0.134 A 
ATOM     75  C   UNL A   1      43.547  24.220  34.305  1.00  0.00     0.134 A 
ATOM     76  F   UNL A   1      46.832  24.832  32.906  1.00  0.00    -0.206 F 
ATOM     77  C   UNL A   1      46.090  23.173  34.368  1.00  0.00     0.040 A 
ATOM     78  C   UNL A   1      43.795  23.036  35.006  1.00  0.00     0.040 A 
ATOM     79  F   UNL A   1      42.279  24.647  34.365  1.00  0.00    -0.206 F 
ATOM     80  C   UNL A   1      45.077  22.520  35.059  1.00  0.00     0.006 A 
ENDBRANCH  56  73
ENDBRANCH  30  31
ENDBRANCH  23  25
ENDBRANCH  22  23
ENDBRANCH  21  22
ENDBRANCH   1  21
TORSDOF 15
ENDMDL
