MODEL 1
REMARK VINA RESULT:     -11.4      0.000      0.000
REMARK SMILES O=C(OCCOCCOC(=O)[C@H]1C[NH2+]C[C@H]1c1ccc(C2CC2)cc1)c1ccc(-c2c3nc(c(-c4c(F)cccc4F)c4ccc([nH]4)c(-c4c(F)cccc4F)c4nc(c(-c5c(F)cccc5F)c5ccc2[nH]5)C=C4)C=C3)cc1
REMARK SMILES IDX 6 1 5 2 4 3 3 4 2 5 1 6 26 7 27 8 79 9 28 10 78 11 29 12
REMARK SMILES IDX 30 13 31 14 72 15 32 16 77 17 71 18 73 19 33 20 76 21 70 22
REMARK SMILES IDX 69 23 34 25 60 26 43 27 59 28 44 29 47 30 58 31 74 32 45 33
REMARK SMILES IDX 46 34 57 36 75 37 48 38 35 39 36 40 41 41 37 42 38 43 40 44
REMARK SMILES IDX 42 45 39 46 61 47 62 48 67 49 63 50 64 51 66 52 68 53 65 54
REMARK SMILES IDX 49 55 50 56 55 57 51 58 52 59 54 60 56 61 53 62 7 63 8 64
REMARK SMILES IDX 9 65 10 66 11 67 12 68 13 69 16 70 14 71 15 72 17 75 18 76
REMARK SMILES IDX 25 77 19 78 24 79 20 80 21 81 22 82 23 83
REMARK H PARENT 73 24 47 35 14 73 14 74
REMARK Flexibility Score: inf
ROOT
ATOM      1  O   UNL A   1      35.760  23.342  22.740  1.00  0.00    -0.374 OA
ENDROOT
BRANCH   1   2
ATOM      2  C   UNL A   1      36.687  22.572  23.504  1.00  0.00     0.202 C 
BRANCH   2   3
ATOM      3  C   UNL A   1      36.132  21.640  24.595  1.00  0.00     0.261 C 
BRANCH   3   4
ATOM      4  O   UNL A   1      36.991  21.574  25.769  1.00  0.00    -0.460 OA
BRANCH   4   5
ATOM      5  C   UNL A   1      38.355  21.523  25.814  1.00  0.00     0.338 C 
ATOM      6  O   UNL A   1      39.008  20.663  25.271  1.00  0.00    -0.246 OA
BRANCH   5   7
ATOM      7  C   UNL A   1      39.011  22.612  26.555  1.00  0.00     0.060 A 
ATOM      8  C   UNL A   1      38.485  23.875  26.408  1.00  0.00     0.016 A 
ATOM      9  C   UNL A   1      40.192  22.425  27.263  1.00  0.00     0.016 A 
ATOM     10  C   UNL A   1      39.313  24.950  26.535  1.00  0.00     0.010 A 
ATOM     11  C   UNL A   1      40.885  23.555  27.711  1.00  0.00     0.010 A 
ATOM     12  C   UNL A   1      40.474  24.830  27.290  1.00  0.00    -0.014 A 
BRANCH  12  13
ATOM     13  C   UNL A   1      41.182  26.092  27.584  1.00  0.00     0.031 A 
ATOM     14  C   UNL A   1      40.581  27.080  28.533  1.00  0.00     0.074 A 
ATOM     15  C   UNL A   1      42.443  26.236  27.117  1.00  0.00     0.049 A 
ATOM     16  N   UNL A   1      41.001  28.278  28.832  1.00  0.00    -0.248 NA
ATOM     17  C   UNL A   1      39.343  26.685  29.228  1.00  0.00     0.031 C 
ATOM     18  C   UNL A   1      43.147  25.265  26.259  1.00  0.00     0.029 A 
ATOM     19  N   UNL A   1      43.396  27.184  27.359  1.00  0.00    -0.354 N 
ATOM     20  C   UNL A   1      40.045  28.808  29.684  1.00  0.00     0.074 A 
ATOM     21  C   UNL A   1      39.029  27.799  29.876  1.00  0.00     0.031 C 
ATOM     22  C   UNL A   1      44.442  25.585  26.187  1.00  0.00     0.029 A 
ATOM     23  C   UNL A   1      44.617  26.889  26.798  1.00  0.00     0.049 A 
ATOM     24  H   UNL A   1      43.226  28.000  27.883  1.00  0.00     0.167 HD
ATOM     25  C   UNL A   1      40.027  30.045  30.231  1.00  0.00     0.037 A 
ATOM     26  C   UNL A   1      45.735  27.627  26.709  1.00  0.00     0.037 A 
ATOM     27  C   UNL A   1      41.087  30.998  30.032  1.00  0.00     0.049 A 
ATOM     28  C   UNL A   1      45.664  29.010  27.279  1.00  0.00     0.074 A 
ATOM     29  C   UNL A   1      41.164  32.316  30.438  1.00  0.00     0.029 A 
ATOM     30  N   UNL A   1      42.281  30.708  29.379  1.00  0.00    -0.354 N 
ATOM     31  N   UNL A   1      44.687  29.571  27.952  1.00  0.00    -0.248 NA
ATOM     32  C   UNL A   1      46.815  29.880  27.034  1.00  0.00     0.031 C 
ATOM     33  C   UNL A   1      42.393  32.830  30.007  1.00  0.00     0.029 A 
ATOM     34  C   UNL A   1      43.101  31.820  29.370  1.00  0.00     0.049 A 
ATOM     35  H   UNL A   1      42.508  29.836  28.980  1.00  0.00     0.167 HD
ATOM     36  C   UNL A   1      45.096  30.869  28.200  1.00  0.00     0.074 A 
ATOM     37  C   UNL A   1      46.433  30.991  27.646  1.00  0.00     0.031 C 
ATOM     38  C   UNL A   1      44.426  31.880  28.804  1.00  0.00     0.037 A 
BRANCH  25  39
ATOM     39  C   UNL A   1      38.804  30.438  31.004  1.00  0.00     0.057 A 
ATOM     40  C   UNL A   1      38.663  30.177  32.372  1.00  0.00     0.134 A 
ATOM     41  C   UNL A   1      37.732  31.067  30.356  1.00  0.00     0.134 A 
ATOM     42  F   UNL A   1      39.636  29.548  33.048  1.00  0.00    -0.206 F 
ATOM     43  C   UNL A   1      37.494  30.508  33.063  1.00  0.00     0.040 A 
ATOM     44  C   UNL A   1      36.567  31.422  31.039  1.00  0.00     0.040 A 
ATOM     45  F   UNL A   1      37.795  31.336  29.043  1.00  0.00    -0.206 F 
ATOM     46  C   UNL A   1      36.443  31.136  32.396  1.00  0.00     0.006 A 
ENDBRANCH  25  39
BRANCH  26  47
ATOM     47  C   UNL A   1      46.920  27.133  25.957  1.00  0.00     0.057 A 
ATOM     48  C   UNL A   1      47.064  27.360  24.584  1.00  0.00     0.134 A 
ATOM     49  C   UNL A   1      47.944  26.415  26.594  1.00  0.00     0.134 A 
ATOM     50  F   UNL A   1      46.117  28.023  23.907  1.00  0.00    -0.206 F 
ATOM     51  C   UNL A   1      48.169  26.882  23.875  1.00  0.00     0.040 A 
ATOM     52  C   UNL A   1      49.073  25.967  25.908  1.00  0.00     0.040 A 
ATOM     53  F   UNL A   1      47.877  26.157  27.910  1.00  0.00    -0.206 F 
ATOM     54  C   UNL A   1      49.181  26.191  24.538  1.00  0.00     0.006 A 
ENDBRANCH  26  47
BRANCH  38  55
ATOM     55  C   UNL A   1      45.163  33.176  28.904  1.00  0.00     0.057 A 
ATOM     56  C   UNL A   1      45.041  34.166  27.921  1.00  0.00     0.134 A 
ATOM     57  C   UNL A   1      46.002  33.429  29.994  1.00  0.00     0.134 A 
ATOM     58  F   UNL A   1      44.267  33.965  26.844  1.00  0.00    -0.206 F 
ATOM     59  C   UNL A   1      45.757  35.359  28.006  1.00  0.00     0.040 A 
ATOM     60  C   UNL A   1      46.700  34.629  30.103  1.00  0.00     0.040 A 
ATOM     61  F   UNL A   1      46.153  32.516  30.964  1.00  0.00    -0.206 F 
ATOM     62  C   UNL A   1      46.585  35.593  29.103  1.00  0.00     0.006 A 
ENDBRANCH  38  55
ENDBRANCH  12  13
ENDBRANCH   5   7
ENDBRANCH   4   5
ENDBRANCH   3   4
ENDBRANCH   2   3
ENDBRANCH   1   2
BRANCH   1  63
ATOM     63  C   UNL A   1      34.785  24.076  23.493  1.00  0.00     0.202 C 
BRANCH  63  64
ATOM     64  C   UNL A   1      33.513  24.374  22.706  1.00  0.00     0.261 C 
BRANCH  64  65
ATOM     65  O   UNL A   1      32.624  25.202  23.474  1.00  0.00    -0.463 OA
BRANCH  65  66
ATOM     66  C   UNL A   1      31.624  24.540  24.111  1.00  0.00     0.315 C 
ATOM     67  O   UNL A   1      30.515  24.343  23.628  1.00  0.00    -0.252 OA
BRANCH  66  68
ATOM     68  C   UNL A   1      32.046  24.115  25.510  1.00  0.00     0.167 C 
ATOM     69  C   UNL A   1      31.123  24.859  26.484  1.00  0.00     0.276 C 
ATOM     70  C   UNL A   1      31.831  22.656  25.978  1.00  0.00     0.094 C 
ATOM     71  N   UNL A   1      29.900  24.042  26.559  1.00  0.00    -0.345 N 
ATOM     72  C   UNL A   1      30.334  22.649  26.375  1.00  0.00     0.269 C 
ATOM     73  H   UNL A   1      29.249  24.311  25.822  1.00  0.00     0.346 HD
ATOM     74  H   UNL A   1      29.420  24.169  27.449  1.00  0.00     0.346 HD
BRANCH  70  75
ATOM     75  C   UNL A   1      32.281  21.418  25.211  1.00  0.00    -0.038 A 
ATOM     76  C   UNL A   1      32.892  20.352  25.895  1.00  0.00     0.004 A 
ATOM     77  C   UNL A   1      32.143  21.270  23.829  1.00  0.00     0.004 A 
ATOM     78  C   UNL A   1      33.193  19.139  25.256  1.00  0.00     0.004 A 
ATOM     79  C   UNL A   1      32.420  20.039  23.196  1.00  0.00     0.004 A 
ATOM     80  C   UNL A   1      32.897  18.924  23.904  1.00  0.00    -0.045 A 
BRANCH  80  81
ATOM     81  C   UNL A   1      32.950  17.512  23.347  1.00  0.00     0.019 C 
ATOM     82  C   UNL A   1      34.234  16.820  22.960  1.00  0.00     0.009 C 
ATOM     83  C   UNL A   1      33.472  16.361  24.167  1.00  0.00     0.009 C 
ENDBRANCH  80  81
ENDBRANCH  70  75
ENDBRANCH  66  68
ENDBRANCH  65  66
ENDBRANCH  64  65
ENDBRANCH  63  64
ENDBRANCH   1  63
TORSDOF 16
ENDMDL
MODEL 2
REMARK VINA RESULT:     -11.3      2.045      4.224
REMARK SMILES O=C(OCCOCCOC(=O)[C@H]1C[NH2+]C[C@H]1c1ccc(C2CC2)cc1)c1ccc(-c2c3nc(c(-c4c(F)cccc4F)c4ccc([nH]4)c(-c4c(F)cccc4F)c4nc(c(-c5c(F)cccc5F)c5ccc2[nH]5)C=C4)C=C3)cc1
REMARK SMILES IDX 6 1 5 2 4 3 3 4 2 5 1 6 26 7 27 8 79 9 28 10 78 11 29 12
REMARK SMILES IDX 30 13 31 14 72 15 32 16 77 17 71 18 73 19 33 20 76 21 70 22
REMARK SMILES IDX 69 23 34 25 60 26 43 27 59 28 44 29 47 30 58 31 74 32 45 33
REMARK SMILES IDX 46 34 57 36 75 37 48 38 35 39 36 40 41 41 37 42 38 43 40 44
REMARK SMILES IDX 42 45 39 46 61 47 62 48 67 49 63 50 64 51 66 52 68 53 65 54
REMARK SMILES IDX 49 55 50 56 55 57 51 58 52 59 54 60 56 61 53 62 7 63 8 64
REMARK SMILES IDX 9 65 10 66 11 67 12 68 13 69 16 70 14 71 15 72 17 75 18 76
REMARK SMILES IDX 25 77 19 78 24 79 20 80 21 81 22 82 23 83
REMARK H PARENT 73 24 47 35 14 73 14 74
REMARK Flexibility Score: inf
ROOT
ATOM      1  O   UNL A   1      33.935  21.406  24.788  1.00  0.00    -0.374 OA
ENDROOT
BRANCH   1   2
ATOM      2  C   UNL A   1      35.063  21.177  25.632  1.00  0.00     0.202 C 
BRANCH   2   3
ATOM      3  C   UNL A   1      36.346  20.619  24.993  1.00  0.00     0.261 C 
BRANCH   3   4
ATOM      4  O   UNL A   1      37.491  21.500  25.168  1.00  0.00    -0.460 OA
BRANCH   4   5
ATOM      5  C   UNL A   1      38.673  21.231  25.798  1.00  0.00     0.338 C 
ATOM      6  O   UNL A   1      39.224  20.157  25.750  1.00  0.00    -0.246 OA
BRANCH   5   7
ATOM      7  C   UNL A   1      39.271  22.353  26.539  1.00  0.00     0.060 A 
ATOM      8  C   UNL A   1      38.717  23.597  26.347  1.00  0.00     0.016 A 
ATOM      9  C   UNL A   1      40.431  22.214  27.293  1.00  0.00     0.016 A 
ATOM     10  C   UNL A   1      39.510  24.697  26.480  1.00  0.00     0.010 A 
ATOM     11  C   UNL A   1      41.076  23.371  27.742  1.00  0.00     0.010 A 
ATOM     12  C   UNL A   1      40.646  24.626  27.279  1.00  0.00    -0.014 A 
BRANCH  12  13
ATOM     13  C   UNL A   1      41.308  25.913  27.571  1.00  0.00     0.031 A 
ATOM     14  C   UNL A   1      40.667  26.883  28.511  1.00  0.00     0.074 A 
ATOM     15  C   UNL A   1      42.566  26.098  27.110  1.00  0.00     0.049 A 
ATOM     16  N   UNL A   1      41.044  28.097  28.807  1.00  0.00    -0.248 NA
ATOM     17  C   UNL A   1      39.439  26.449  29.201  1.00  0.00     0.031 C 
ATOM     18  C   UNL A   1      43.308  25.148  26.262  1.00  0.00     0.029 A 
ATOM     19  N   UNL A   1      43.484  27.080  27.353  1.00  0.00    -0.354 N 
ATOM     20  C   UNL A   1      40.064  28.598  29.651  1.00  0.00     0.074 A 
ATOM     21  C   UNL A   1      39.083  27.554  29.842  1.00  0.00     0.031 C 
ATOM     22  C   UNL A   1      44.591  25.513  26.196  1.00  0.00     0.029 A 
ATOM     23  C   UNL A   1      44.717  26.825  26.801  1.00  0.00     0.049 A 
ATOM     24  H   UNL A   1      43.282  27.891  27.873  1.00  0.00     0.167 HD
ATOM     25  C   UNL A   1      40.000  29.836  30.192  1.00  0.00     0.037 A 
ATOM     26  C   UNL A   1      45.810  27.601  26.715  1.00  0.00     0.037 A 
ATOM     27  C   UNL A   1      41.028  30.824  29.995  1.00  0.00     0.049 A 
ATOM     28  C   UNL A   1      45.687  28.983  27.278  1.00  0.00     0.074 A 
ATOM     29  C   UNL A   1      41.057  32.145  30.395  1.00  0.00     0.029 A 
ATOM     30  N   UNL A   1      42.235  30.572  29.350  1.00  0.00    -0.354 N 
ATOM     31  N   UNL A   1      44.688  29.512  27.943  1.00  0.00    -0.248 NA
ATOM     32  C   UNL A   1      46.809  29.891  27.035  1.00  0.00     0.031 C 
ATOM     33  C   UNL A   1      42.270  32.700  29.968  1.00  0.00     0.029 A 
ATOM     34  C   UNL A   1      43.017  31.712  29.341  1.00  0.00     0.049 A 
ATOM     35  H   UNL A   1      42.495  29.707  28.957  1.00  0.00     0.167 HD
ATOM     36  C   UNL A   1      45.050  30.825  28.187  1.00  0.00     0.074 A 
ATOM     37  C   UNL A   1      46.385  30.991  27.640  1.00  0.00     0.031 C 
ATOM     38  C   UNL A   1      44.341  31.815  28.782  1.00  0.00     0.037 A 
BRANCH  25  39
ATOM     39  C   UNL A   1      38.760  30.190  30.956  1.00  0.00     0.057 A 
ATOM     40  C   UNL A   1      37.642  30.771  30.347  1.00  0.00     0.134 A 
ATOM     41  C   UNL A   1      38.698  29.970  32.339  1.00  0.00     0.134 A 
ATOM     42  F   UNL A   1      37.646  31.041  29.033  1.00  0.00    -0.206 F 
ATOM     43  C   UNL A   1      36.515  31.139  31.088  1.00  0.00     0.040 A 
ATOM     44  C   UNL A   1      37.570  30.313  33.087  1.00  0.00     0.040 A 
ATOM     45  F   UNL A   1      39.739  29.428  32.989  1.00  0.00    -0.206 F 
ATOM     46  C   UNL A   1      36.476  30.906  32.462  1.00  0.00     0.006 A 
ENDBRANCH  25  39
BRANCH  26  47
ATOM     47  C   UNL A   1      47.016  27.145  25.972  1.00  0.00     0.057 A 
ATOM     48  C   UNL A   1      48.017  26.391  26.593  1.00  0.00     0.134 A 
ATOM     49  C   UNL A   1      47.201  27.455  24.616  1.00  0.00     0.134 A 
ATOM     50  F   UNL A   1      47.916  26.073  27.891  1.00  0.00    -0.206 F 
ATOM     51  C   UNL A   1      49.158  25.976  25.900  1.00  0.00     0.040 A 
ATOM     52  C   UNL A   1      48.314  27.012  23.900  1.00  0.00     0.040 A 
ATOM     53  F   UNL A   1      46.284  28.175  23.951  1.00  0.00    -0.206 F 
ATOM     54  C   UNL A   1      49.304  26.279  24.548  1.00  0.00     0.006 A 
ENDBRANCH  26  47
BRANCH  38  55
ATOM     55  C   UNL A   1      45.032  33.136  28.880  1.00  0.00     0.057 A 
ATOM     56  C   UNL A   1      44.879  34.119  27.894  1.00  0.00     0.134 A 
ATOM     57  C   UNL A   1      45.859  33.422  29.972  1.00  0.00     0.134 A 
ATOM     58  F   UNL A   1      44.116  33.888  26.815  1.00  0.00    -0.206 F 
ATOM     59  C   UNL A   1      45.553  35.336  27.977  1.00  0.00     0.040 A 
ATOM     60  C   UNL A   1      46.515  34.645  30.079  1.00  0.00     0.040 A 
ATOM     61  F   UNL A   1      46.039  32.518  30.946  1.00  0.00    -0.206 F 
ATOM     62  C   UNL A   1      46.369  35.602  29.076  1.00  0.00     0.006 A 
ENDBRANCH  38  55
ENDBRANCH  12  13
ENDBRANCH   5   7
ENDBRANCH   4   5
ENDBRANCH   3   4
ENDBRANCH   2   3
ENDBRANCH   1   2
BRANCH   1  63
ATOM     63  C   UNL A   1      32.660  21.052  25.338  1.00  0.00     0.202 C 
BRANCH  63  64
ATOM     64  C   UNL A   1      31.898  22.243  25.913  1.00  0.00     0.261 C 
BRANCH  64  65
ATOM     65  O   UNL A   1      32.379  23.474  25.348  1.00  0.00    -0.463 OA
BRANCH  65  66
ATOM     66  C   UNL A   1      32.267  24.562  26.154  1.00  0.00     0.315 C 
ATOM     67  O   UNL A   1      31.370  24.719  26.973  1.00  0.00    -0.252 OA
BRANCH  66  68
ATOM     68  C   UNL A   1      33.372  25.571  25.876  1.00  0.00     0.167 C 
ATOM     69  C   UNL A   1      34.613  24.756  25.492  1.00  0.00     0.276 C 
ATOM     70  C   UNL A   1      33.270  26.520  24.657  1.00  0.00     0.094 C 
ATOM     71  N   UNL A   1      34.458  24.467  24.056  1.00  0.00    -0.345 N 
ATOM     72  C   UNL A   1      33.736  25.615  23.489  1.00  0.00     0.269 C 
ATOM     73  H   UNL A   1      33.922  23.610  23.924  1.00  0.00     0.346 HD
ATOM     74  H   UNL A   1      35.361  24.333  23.602  1.00  0.00     0.346 HD
BRANCH  70  75
ATOM     75  C   UNL A   1      32.065  27.394  24.331  1.00  0.00    -0.038 A 
ATOM     76  C   UNL A   1      32.016  28.722  24.794  1.00  0.00     0.004 A 
ATOM     77  C   UNL A   1      30.962  26.952  23.597  1.00  0.00     0.004 A 
ATOM     78  C   UNL A   1      30.998  29.604  24.400  1.00  0.00     0.004 A 
ATOM     79  C   UNL A   1      29.956  27.850  23.181  1.00  0.00     0.004 A 
ATOM     80  C   UNL A   1      29.979  29.211  23.523  1.00  0.00    -0.045 A 
BRANCH  80  81
ATOM     81  C   UNL A   1      29.096  30.271  22.888  1.00  0.00     0.019 C 
ATOM     82  C   UNL A   1      27.637  30.450  23.231  1.00  0.00     0.009 C 
ATOM     83  C   UNL A   1      28.637  31.481  23.660  1.00  0.00     0.009 C 
ENDBRANCH  80  81
ENDBRANCH  70  75
ENDBRANCH  66  68
ENDBRANCH  65  66
ENDBRANCH  64  65
ENDBRANCH  63  64
ENDBRANCH   1  63
TORSDOF 16
ENDMDL
MODEL 3
REMARK VINA RESULT:     -11.3      5.546      9.411
REMARK SMILES O=C(OCCOCCOC(=O)[C@H]1C[NH2+]C[C@H]1c1ccc(C2CC2)cc1)c1ccc(-c2c3nc(c(-c4c(F)cccc4F)c4ccc([nH]4)c(-c4c(F)cccc4F)c4nc(c(-c5c(F)cccc5F)c5ccc2[nH]5)C=C4)C=C3)cc1
REMARK SMILES IDX 6 1 5 2 4 3 3 4 2 5 1 6 26 7 27 8 79 9 28 10 78 11 29 12
REMARK SMILES IDX 30 13 31 14 72 15 32 16 77 17 71 18 73 19 33 20 76 21 70 22
REMARK SMILES IDX 69 23 34 25 60 26 43 27 59 28 44 29 47 30 58 31 74 32 45 33
REMARK SMILES IDX 46 34 57 36 75 37 48 38 35 39 36 40 41 41 37 42 38 43 40 44
REMARK SMILES IDX 42 45 39 46 61 47 62 48 67 49 63 50 64 51 66 52 68 53 65 54
REMARK SMILES IDX 49 55 50 56 55 57 51 58 52 59 54 60 56 61 53 62 7 63 8 64
REMARK SMILES IDX 9 65 10 66 11 67 12 68 13 69 16 70 14 71 15 72 17 75 18 76
REMARK SMILES IDX 25 77 19 78 24 79 20 80 21 81 22 82 23 83
REMARK H PARENT 73 24 47 35 14 73 14 74
REMARK Flexibility Score: inf
ROOT
ATOM      1  O   UNL A   1      34.685  33.659  29.442  1.00  0.00    -0.374 OA
ENDROOT
BRANCH   1   2
ATOM      2  C   UNL A   1      33.952  34.532  28.583  1.00  0.00     0.202 C 
BRANCH   2   3
ATOM      3  C   UNL A   1      33.161  35.686  29.224  1.00  0.00     0.261 C 
BRANCH   3   4
ATOM      4  O   UNL A   1      32.489  35.293  30.453  1.00  0.00    -0.460 OA
BRANCH   4   5
ATOM      5  C   UNL A   1      32.708  35.756  31.720  1.00  0.00     0.338 C 
ATOM      6  O   UNL A   1      32.106  36.686  32.202  1.00  0.00    -0.246 OA
BRANCH   5   7
ATOM      7  C   UNL A   1      33.725  35.031  32.497  1.00  0.00     0.060 A 
ATOM      8  C   UNL A   1      34.929  35.664  32.699  1.00  0.00     0.016 A 
ATOM      9  C   UNL A   1      33.554  33.710  32.897  1.00  0.00     0.016 A 
ATOM     10  C   UNL A   1      36.053  34.907  32.848  1.00  0.00     0.010 A 
ATOM     11  C   UNL A   1      34.663  33.016  33.393  1.00  0.00     0.010 A 
ATOM     12  C   UNL A   1      35.938  33.600  33.310  1.00  0.00    -0.014 A 
BRANCH  12  13
ATOM     13  C   UNL A   1      37.204  32.936  33.679  1.00  0.00     0.031 A 
ATOM     14  C   UNL A   1      37.751  33.092  35.062  1.00  0.00     0.074 A 
ATOM     15  C   UNL A   1      37.741  32.060  32.799  1.00  0.00     0.049 A 
ATOM     16  N   UNL A   1      38.893  32.672  35.535  1.00  0.00    -0.248 NA
ATOM     17  C   UNL A   1      36.925  33.821  36.040  1.00  0.00     0.031 C 
ATOM     18  C   UNL A   1      37.208  31.772  31.455  1.00  0.00     0.029 A 
ATOM     19  N   UNL A   1      38.779  31.181  32.916  1.00  0.00    -0.354 N 
ATOM     20  C   UNL A   1      38.957  33.151  36.835  1.00  0.00     0.074 A 
ATOM     21  C   UNL A   1      37.733  33.876  37.090  1.00  0.00     0.031 C 
ATOM     22  C   UNL A   1      37.814  30.693  30.953  1.00  0.00     0.029 A 
ATOM     23  C   UNL A   1      38.919  30.351  31.827  1.00  0.00     0.049 A 
ATOM     24  H   UNL A   1      39.371  31.145  33.702  1.00  0.00     0.167 HD
ATOM     25  C   UNL A   1      39.972  33.003  37.716  1.00  0.00     0.037 A 
ATOM     26  C   UNL A   1      39.884  29.467  31.525  1.00  0.00     0.037 A 
ATOM     27  C   UNL A   1      41.155  32.238  37.417  1.00  0.00     0.049 A 
ATOM     28  C   UNL A   1      41.018  29.366  32.497  1.00  0.00     0.074 A 
ATOM     29  C   UNL A   1      42.304  32.079  38.166  1.00  0.00     0.029 A 
ATOM     30  N   UNL A   1      41.316  31.476  36.264  1.00  0.00    -0.354 N 
ATOM     31  N   UNL A   1      41.153  29.949  33.664  1.00  0.00    -0.248 NA
ATOM     32  C   UNL A   1      42.155  28.536  32.093  1.00  0.00     0.031 C 
ATOM     33  C   UNL A   1      43.172  31.242  37.454  1.00  0.00     0.029 A 
ATOM     34  C   UNL A   1      42.546  30.844  36.281  1.00  0.00     0.049 A 
ATOM     35  H   UNL A   1      40.651  31.398  35.542  1.00  0.00     0.167 HD
ATOM     36  C   UNL A   1      42.399  29.572  34.133  1.00  0.00     0.074 A 
ATOM     37  C   UNL A   1      42.954  28.668  33.141  1.00  0.00     0.031 C 
ATOM     38  C   UNL A   1      43.043  29.952  35.263  1.00  0.00     0.037 A 
BRANCH  25  39
ATOM     39  C   UNL A   1      39.869  33.742  39.016  1.00  0.00     0.057 A 
ATOM     40  C   UNL A   1      40.508  34.967  39.238  1.00  0.00     0.134 A 
ATOM     41  C   UNL A   1      39.137  33.197  40.080  1.00  0.00     0.134 A 
ATOM     42  F   UNL A   1      41.254  35.529  38.275  1.00  0.00    -0.206 F 
ATOM     43  C   UNL A   1      40.440  35.615  40.475  1.00  0.00     0.040 A 
ATOM     44  C   UNL A   1      39.043  33.844  41.313  1.00  0.00     0.040 A 
ATOM     45  F   UNL A   1      38.509  32.019  39.941  1.00  0.00    -0.206 F 
ATOM     46  C   UNL A   1      39.701  35.054  41.515  1.00  0.00     0.006 A 
ENDBRANCH  25  39
BRANCH  26  47
ATOM     47  C   UNL A   1      39.878  28.743  30.225  1.00  0.00     0.057 A 
ATOM     48  C   UNL A   1      40.503  29.269  29.090  1.00  0.00     0.134 A 
ATOM     49  C   UNL A   1      39.241  27.500  30.083  1.00  0.00     0.134 A 
ATOM     50  F   UNL A   1      41.115  30.460  29.148  1.00  0.00    -0.206 F 
ATOM     51  C   UNL A   1      40.483  28.597  27.865  1.00  0.00     0.040 A 
ATOM     52  C   UNL A   1      39.249  26.798  28.877  1.00  0.00     0.040 A 
ATOM     53  F   UNL A   1      38.618  26.930  31.126  1.00  0.00    -0.206 F 
ATOM     54  C   UNL A   1      39.863  27.354  27.758  1.00  0.00     0.006 A 
ENDBRANCH  26  47
BRANCH  38  55
ATOM     55  C   UNL A   1      44.398  29.356  35.467  1.00  0.00     0.057 A 
ATOM     56  C   UNL A   1      45.554  29.980  34.982  1.00  0.00     0.134 A 
ATOM     57  C   UNL A   1      44.541  28.146  36.155  1.00  0.00     0.134 A 
ATOM     58  F   UNL A   1      45.471  31.130  34.296  1.00  0.00    -0.206 F 
ATOM     59  C   UNL A   1      46.811  29.401  35.149  1.00  0.00     0.040 A 
ATOM     60  C   UNL A   1      45.795  27.573  36.352  1.00  0.00     0.040 A 
ATOM     61  F   UNL A   1      43.468  27.508  36.643  1.00  0.00    -0.206 F 
ATOM     62  C   UNL A   1      46.932  28.197  35.841  1.00  0.00     0.006 A 
ENDBRANCH  38  55
ENDBRANCH  12  13
ENDBRANCH   5   7
ENDBRANCH   4   5
ENDBRANCH   3   4
ENDBRANCH   2   3
ENDBRANCH   1   2
BRANCH   1  63
ATOM     63  C   UNL A   1      34.467  32.256  29.241  1.00  0.00     0.202 C 
BRANCH  63  64
ATOM     64  C   UNL A   1      35.016  31.743  27.914  1.00  0.00     0.261 C 
BRANCH  64  65
ATOM     65  O   UNL A   1      33.964  31.179  27.113  1.00  0.00    -0.463 OA
BRANCH  65  66
ATOM     66  C   UNL A   1      33.892  29.823  27.126  1.00  0.00     0.315 C 
ATOM     67  O   UNL A   1      34.868  29.084  27.083  1.00  0.00    -0.252 OA
BRANCH  66  68
ATOM     68  C   UNL A   1      32.446  29.347  27.157  1.00  0.00     0.167 C 
ATOM     69  C   UNL A   1      31.582  30.575  26.845  1.00  0.00     0.276 C 
ATOM     70  C   UNL A   1      31.929  28.359  26.083  1.00  0.00     0.094 C 
ATOM     71  N   UNL A   1      31.563  30.672  25.375  1.00  0.00    -0.345 N 
ATOM     72  C   UNL A   1      31.648  29.291  24.878  1.00  0.00     0.269 C 
ATOM     73  H   UNL A   1      32.359  31.217  25.046  1.00  0.00     0.346 HD
ATOM     74  H   UNL A   1      30.719  31.137  25.042  1.00  0.00     0.346 HD
BRANCH  70  75
ATOM     75  C   UNL A   1      32.602  27.042  25.714  1.00  0.00    -0.038 A 
ATOM     76  C   UNL A   1      33.429  26.971  24.578  1.00  0.00     0.004 A 
ATOM     77  C   UNL A   1      32.437  25.858  26.435  1.00  0.00     0.004 A 
ATOM     78  C   UNL A   1      34.179  25.823  24.281  1.00  0.00     0.004 A 
ATOM     79  C   UNL A   1      33.213  24.715  26.149  1.00  0.00     0.004 A 
ATOM     80  C   UNL A   1      34.147  24.687  25.101  1.00  0.00    -0.045 A 
BRANCH  80  81
ATOM     81  C   UNL A   1      35.198  23.607  24.916  1.00  0.00     0.019 C 
ATOM     82  C   UNL A   1      36.468  23.536  25.728  1.00  0.00     0.009 C 
ATOM     83  C   UNL A   1      35.392  22.513  25.934  1.00  0.00     0.009 C 
ENDBRANCH  80  81
ENDBRANCH  70  75
ENDBRANCH  66  68
ENDBRANCH  65  66
ENDBRANCH  64  65
ENDBRANCH  63  64
ENDBRANCH   1  63
TORSDOF 16
ENDMDL
