MODEL 1
REMARK VINA RESULT:     -10.0      0.000      0.000
REMARK SMILES COc1cc(C=O)cc(OC)c1O[C@H](C)C(=O)OCCOCCOC(=O)c1ccc(-c2c3nc(c(-c4c(F)cccc4F)c4ccc([nH]4)c(-c4c(F)cccc4F)c4nc(c(-c5c(F)cccc5F)c5ccc2[nH]5)C=C4)C=C3)cc1
REMARK SMILES IDX 20 1 19 2 18 3 16 4 17 5 14 6 15 7 13 8 12 9 3 10 4 11 5 12
REMARK SMILES IDX 9 13 8 14 2 15 1 16 6 17 7 18 10 19 11 20 21 21 22 22 23 23
REMARK SMILES IDX 24 24 25 25 26 26 27 27 28 28 80 29 29 30 79 31 30 32 31 33
REMARK SMILES IDX 32 34 73 35 33 36 78 37 72 38 74 39 34 40 77 41 71 42 70 43
REMARK SMILES IDX 35 45 61 46 44 47 60 48 45 49 48 50 59 51 75 52 46 53 47 54
REMARK SMILES IDX 58 56 76 57 49 58 36 59 37 60 42 61 38 62 39 63 41 64 43 65
REMARK SMILES IDX 40 66 62 67 63 68 68 69 64 70 65 71 67 72 69 73 66 74 50 75
REMARK SMILES IDX 51 76 56 77 52 78 53 79 55 80 57 81 54 82
REMARK H PARENT 74 44 48 55
REMARK Flexibility Score: inf
ROOT
ATOM      1  C   UNL A   1      34.271  21.480  24.568  1.00  0.00     0.202 C 
ENDROOT
BRANCH   1   2
ATOM      2  C   UNL A   1      34.392  22.751  23.722  1.00  0.00     0.261 C 
BRANCH   2   3
ATOM      3  O   UNL A   1      33.542  23.814  24.205  1.00  0.00    -0.461 OA
BRANCH   3   4
ATOM      4  C   UNL A   1      34.182  24.883  24.745  1.00  0.00     0.347 C 
ATOM      5  O   UNL A   1      35.129  24.802  25.522  1.00  0.00    -0.248 OA
BRANCH   4   6
ATOM      6  C   UNL A   1      33.633  26.228  24.258  1.00  0.00     0.279 C 
ATOM      7  C   UNL A   1      33.651  26.408  22.744  1.00  0.00     0.066 C 
BRANCH   6   8
ATOM      8  O   UNL A   1      32.552  26.809  24.954  1.00  0.00    -0.471 OA
BRANCH   8   9
ATOM      9  C   UNL A   1      31.357  27.277  24.530  1.00  0.00     0.204 A 
ATOM     10  C   UNL A   1      31.311  28.675  24.311  1.00  0.00     0.165 A 
ATOM     11  C   UNL A   1      30.184  29.264  23.719  1.00  0.00     0.062 A 
ATOM     12  C   UNL A   1      29.101  28.484  23.327  1.00  0.00     0.022 A 
ATOM     13  C   UNL A   1      30.217  26.525  24.206  1.00  0.00     0.165 A 
ATOM     14  C   UNL A   1      29.105  27.117  23.585  1.00  0.00     0.062 A 
BRANCH  10  15
ATOM     15  O   UNL A   1      32.272  29.616  24.595  1.00  0.00    -0.493 OA
ATOM     16  C   UNL A   1      32.343  30.190  25.892  1.00  0.00     0.278 C 
ENDBRANCH  10  15
BRANCH  12  17
ATOM     17  C   UNL A   1      27.971  29.097  22.601  1.00  0.00     0.260 C 
ATOM     18  O   UNL A   1      26.931  29.414  23.166  1.00  0.00    -0.298 OA
ENDBRANCH  12  17
BRANCH  13  19
ATOM     19  O   UNL A   1      30.199  25.169  24.356  1.00  0.00    -0.493 OA
ATOM     20  C   UNL A   1      30.393  24.475  23.126  1.00  0.00     0.278 C 
ENDBRANCH  13  19
ENDBRANCH   8   9
ENDBRANCH   6   8
ENDBRANCH   4   6
ENDBRANCH   3   4
ENDBRANCH   2   3
ENDBRANCH   1   2
BRANCH   1  21
ATOM     21  O   UNL A   1      35.428  21.145  25.337  1.00  0.00    -0.374 OA
BRANCH  21  22
ATOM     22  C   UNL A   1      36.084  19.926  24.999  1.00  0.00     0.202 C 
BRANCH  22  23
ATOM     23  C   UNL A   1      37.595  20.045  24.763  1.00  0.00     0.261 C 
BRANCH  23  24
ATOM     24  O   UNL A   1      38.146  21.214  25.400  1.00  0.00    -0.460 OA
BRANCH  24  25
ATOM     25  C   UNL A   1      39.304  20.994  26.069  1.00  0.00     0.338 C 
ATOM     26  O   UNL A   1      39.985  19.986  26.042  1.00  0.00    -0.246 OA
BRANCH  25  27
ATOM     27  C   UNL A   1      39.747  22.230  26.753  1.00  0.00     0.060 A 
ATOM     28  C   UNL A   1      39.078  23.412  26.419  1.00  0.00     0.016 A 
ATOM     29  C   UNL A   1      40.828  22.261  27.639  1.00  0.00     0.016 A 
ATOM     30  C   UNL A   1      39.540  24.637  26.895  1.00  0.00     0.010 A 
ATOM     31  C   UNL A   1      41.282  23.494  28.129  1.00  0.00     0.010 A 
ATOM     32  C   UNL A   1      40.674  24.694  27.715  1.00  0.00    -0.014 A 
BRANCH  32  33
ATOM     33  C   UNL A   1      41.306  26.014  27.987  1.00  0.00     0.031 A 
ATOM     34  C   UNL A   1      42.701  26.281  27.482  1.00  0.00     0.074 A 
ATOM     35  C   UNL A   1      40.626  26.996  28.607  1.00  0.00     0.049 A 
ATOM     36  N   UNL A   1      43.428  27.367  27.580  1.00  0.00    -0.248 NA
ATOM     37  C   UNL A   1      43.366  25.178  26.771  1.00  0.00     0.031 C 
ATOM     38  C   UNL A   1      39.258  26.888  29.111  1.00  0.00     0.029 A 
ATOM     39  N   UNL A   1      40.997  28.282  28.912  1.00  0.00    -0.354 N 
ATOM     40  C   UNL A   1      44.633  27.075  26.952  1.00  0.00     0.074 A 
ATOM     41  C   UNL A   1      44.556  25.699  26.513  1.00  0.00     0.031 C 
ATOM     42  C   UNL A   1      38.902  28.063  29.659  1.00  0.00     0.029 A 
ATOM     43  C   UNL A   1      40.026  28.995  29.573  1.00  0.00     0.049 A 
ATOM     44  H   UNL A   1      41.877  28.658  28.680  1.00  0.00     0.167 HD
ATOM     45  C   UNL A   1      45.700  27.882  26.740  1.00  0.00     0.037 A 
ATOM     46  C   UNL A   1      40.046  30.250  30.065  1.00  0.00     0.037 A 
ATOM     47  C   UNL A   1      45.780  29.255  27.164  1.00  0.00     0.049 A 
ATOM     48  C   UNL A   1      41.272  31.105  29.881  1.00  0.00     0.074 A 
ATOM     49  C   UNL A   1      46.812  30.158  26.975  1.00  0.00     0.029 A 
ATOM     50  N   UNL A   1      44.792  29.925  27.870  1.00  0.00    -0.354 N 
ATOM     51  N   UNL A   1      42.392  30.827  29.258  1.00  0.00    -0.248 NA
ATOM     52  C   UNL A   1      41.232  32.455  30.463  1.00  0.00     0.031 C 
ATOM     53  C   UNL A   1      46.476  31.353  27.618  1.00  0.00     0.029 A 
ATOM     54  C   UNL A   1      45.204  31.218  28.150  1.00  0.00     0.049 A 
ATOM     55  H   UNL A   1      43.925  29.539  28.133  1.00  0.00     0.167 HD
ATOM     56  C   UNL A   1      43.173  31.975  29.344  1.00  0.00     0.074 A 
ATOM     57  C   UNL A   1      42.393  32.956  30.068  1.00  0.00     0.031 C 
ATOM     58  C   UNL A   1      44.421  32.195  28.864  1.00  0.00     0.037 A 
BRANCH  45  59
ATOM     59  C   UNL A   1      46.888  27.291  26.034  1.00  0.00     0.057 A 
ATOM     60  C   UNL A   1      47.917  26.640  26.727  1.00  0.00     0.134 A 
ATOM     61  C   UNL A   1      46.985  27.346  24.638  1.00  0.00     0.134 A 
ATOM     62  F   UNL A   1      47.893  26.563  28.066  1.00  0.00    -0.206 F 
ATOM     63  C   UNL A   1      49.011  26.087  26.058  1.00  0.00     0.040 A 
ATOM     64  C   UNL A   1      48.058  26.770  23.956  1.00  0.00     0.040 A 
ATOM     65  F   UNL A   1      46.032  27.949  23.911  1.00  0.00    -0.206 F 
ATOM     66  C   UNL A   1      49.079  26.144  24.668  1.00  0.00     0.006 A 
ENDBRANCH  45  59
BRANCH  46  67
ATOM     67  C   UNL A   1      38.863  30.780  30.792  1.00  0.00     0.057 A 
ATOM     68  C   UNL A   1      38.728  30.624  32.177  1.00  0.00     0.134 A 
ATOM     69  C   UNL A   1      37.823  31.427  30.113  1.00  0.00     0.134 A 
ATOM     70  F   UNL A   1      39.678  29.992  32.880  1.00  0.00    -0.206 F 
ATOM     71  C   UNL A   1      37.594  31.074  32.856  1.00  0.00     0.040 A 
ATOM     72  C   UNL A   1      36.698  31.907  30.783  1.00  0.00     0.040 A 
ATOM     73  F   UNL A   1      37.892  31.607  28.786  1.00  0.00    -0.206 F 
ATOM     74  C   UNL A   1      36.577  31.722  32.159  1.00  0.00     0.006 A 
ENDBRANCH  46  67
BRANCH  58  75
ATOM     75  C   UNL A   1      45.009  33.564  29.060  1.00  0.00     0.057 A 
ATOM     76  C   UNL A   1      44.796  34.607  28.148  1.00  0.00     0.134 A 
ATOM     77  C   UNL A   1      45.773  33.854  30.199  1.00  0.00     0.134 A 
ATOM     78  F   UNL A   1      44.082  34.398  27.031  1.00  0.00    -0.206 F 
ATOM     79  C   UNL A   1      45.344  35.876  28.347  1.00  0.00     0.040 A 
ATOM     80  C   UNL A   1      46.300  35.127  30.424  1.00  0.00     0.040 A 
ATOM     81  F   UNL A   1      46.009  32.908  31.121  1.00  0.00    -0.206 F 
ATOM     82  C   UNL A   1      46.094  36.141  29.492  1.00  0.00     0.006 A 
ENDBRANCH  58  75
ENDBRANCH  32  33
ENDBRANCH  25  27
ENDBRANCH  24  25
ENDBRANCH  23  24
ENDBRANCH  22  23
ENDBRANCH  21  22
ENDBRANCH   1  21
TORSDOF 19
ENDMDL
MODEL 2
REMARK VINA RESULT:      -9.7      3.737      9.182
REMARK SMILES COc1cc(C=O)cc(OC)c1O[C@H](C)C(=O)OCCOCCOC(=O)c1ccc(-c2c3nc(c(-c4c(F)cccc4F)c4ccc([nH]4)c(-c4c(F)cccc4F)c4nc(c(-c5c(F)cccc5F)c5ccc2[nH]5)C=C4)C=C3)cc1
REMARK SMILES IDX 20 1 19 2 18 3 16 4 17 5 14 6 15 7 13 8 12 9 3 10 4 11 5 12
REMARK SMILES IDX 9 13 8 14 2 15 1 16 6 17 7 18 10 19 11 20 21 21 22 22 23 23
REMARK SMILES IDX 24 24 25 25 26 26 27 27 28 28 80 29 29 30 79 31 30 32 31 33
REMARK SMILES IDX 32 34 73 35 33 36 78 37 72 38 74 39 34 40 77 41 71 42 70 43
REMARK SMILES IDX 35 45 61 46 44 47 60 48 45 49 48 50 59 51 75 52 46 53 47 54
REMARK SMILES IDX 58 56 76 57 49 58 36 59 37 60 42 61 38 62 39 63 41 64 43 65
REMARK SMILES IDX 40 66 62 67 63 68 68 69 64 70 65 71 67 72 69 73 66 74 50 75
REMARK SMILES IDX 51 76 56 77 52 78 53 79 55 80 57 81 54 82
REMARK H PARENT 74 44 48 55
REMARK Flexibility Score: inf
ROOT
ATOM      1  C   UNL A   1      33.176  27.414  25.660  1.00  0.00     0.202 C 
ENDROOT
BRANCH   1   2
ATOM      2  C   UNL A   1      32.974  26.007  26.231  1.00  0.00     0.261 C 
BRANCH   2   3
ATOM      3  O   UNL A   1      31.611  25.774  26.644  1.00  0.00    -0.461 OA
BRANCH   3   4
ATOM      4  C   UNL A   1      30.857  25.025  25.798  1.00  0.00     0.347 C 
ATOM      5  O   UNL A   1      30.023  25.484  25.023  1.00  0.00    -0.248 OA
BRANCH   4   6
ATOM      6  C   UNL A   1      31.176  23.527  25.865  1.00  0.00     0.279 C 
ATOM      7  C   UNL A   1      30.144  22.692  26.614  1.00  0.00     0.066 C 
BRANCH   6   8
ATOM      8  O   UNL A   1      31.801  22.919  24.756  1.00  0.00    -0.471 OA
BRANCH   8   9
ATOM      9  C   UNL A   1      33.061  22.466  24.569  1.00  0.00     0.204 A 
ATOM     10  C   UNL A   1      33.920  23.363  23.891  1.00  0.00     0.165 A 
ATOM     11  C   UNL A   1      35.290  23.084  23.776  1.00  0.00     0.062 A 
ATOM     12  C   UNL A   1      35.827  21.931  24.336  1.00  0.00     0.022 A 
ATOM     13  C   UNL A   1      33.611  21.268  25.050  1.00  0.00     0.165 A 
ATOM     14  C   UNL A   1      34.990  21.011  24.959  1.00  0.00     0.062 A 
BRANCH  10  15
ATOM     15  O   UNL A   1      33.605  24.560  23.293  1.00  0.00    -0.493 OA
ATOM     16  C   UNL A   1      32.943  24.575  22.037  1.00  0.00     0.278 C 
ENDBRANCH  10  15
BRANCH  12  17
ATOM     17  C   UNL A   1      37.286  21.703  24.310  1.00  0.00     0.260 C 
ATOM     18  O   UNL A   1      37.807  20.758  24.888  1.00  0.00    -0.298 OA
ENDBRANCH  12  17
BRANCH  13  19
ATOM     19  O   UNL A   1      32.854  20.370  25.745  1.00  0.00    -0.493 OA
ATOM     20  C   UNL A   1      32.848  19.075  25.150  1.00  0.00     0.278 C 
ENDBRANCH  13  19
ENDBRANCH   8   9
ENDBRANCH   6   8
ENDBRANCH   4   6
ENDBRANCH   3   4
ENDBRANCH   2   3
ENDBRANCH   1   2
BRANCH   1  21
ATOM     21  O   UNL A   1      32.254  28.400  26.125  1.00  0.00    -0.374 OA
BRANCH  21  22
ATOM     22  C   UNL A   1      32.180  29.607  25.370  1.00  0.00     0.202 C 
BRANCH  22  23
ATOM     23  C   UNL A   1      31.921  30.874  26.194  1.00  0.00     0.261 C 
BRANCH  23  24
ATOM     24  O   UNL A   1      32.668  30.874  27.426  1.00  0.00    -0.460 OA
BRANCH  24  25
ATOM     25  C   UNL A   1      33.470  31.954  27.594  1.00  0.00     0.338 C 
ATOM     26  O   UNL A   1      33.136  33.125  27.580  1.00  0.00    -0.246 OA
BRANCH  25  27
ATOM     27  C   UNL A   1      34.839  31.528  27.960  1.00  0.00     0.060 A 
ATOM     28  C   UNL A   1      35.024  30.169  28.241  1.00  0.00     0.016 A 
ATOM     29  C   UNL A   1      35.902  32.424  28.101  1.00  0.00     0.016 A 
ATOM     30  C   UNL A   1      36.240  29.718  28.749  1.00  0.00     0.010 A 
ATOM     31  C   UNL A   1      37.130  31.965  28.599  1.00  0.00     0.010 A 
ATOM     32  C   UNL A   1      37.288  30.619  28.978  1.00  0.00    -0.014 A 
BRANCH  32  33
ATOM     33  C   UNL A   1      38.469  30.171  29.765  1.00  0.00     0.031 A 
ATOM     34  C   UNL A   1      38.630  30.647  31.187  1.00  0.00     0.074 A 
ATOM     35  C   UNL A   1      39.352  29.292  29.256  1.00  0.00     0.049 A 
ATOM     36  N   UNL A   1      39.563  30.359  32.059  1.00  0.00    -0.248 NA
ATOM     37  C   UNL A   1      37.602  31.570  31.692  1.00  0.00     0.031 C 
ATOM     38  C   UNL A   1      39.296  28.721  27.912  1.00  0.00     0.029 A 
ATOM     39  N   UNL A   1      40.468  28.722  29.818  1.00  0.00    -0.354 N 
ATOM     40  C   UNL A   1      39.238  31.068  33.210  1.00  0.00     0.074 A 
ATOM     41  C   UNL A   1      38.047  31.832  32.912  1.00  0.00     0.031 C 
ATOM     42  C   UNL A   1      40.329  27.876  27.754  1.00  0.00     0.029 A 
ATOM     43  C   UNL A   1      41.137  27.871  28.973  1.00  0.00     0.049 A 
ATOM     44  H   UNL A   1      40.761  28.907  30.739  1.00  0.00     0.167 HD
ATOM     45  C   UNL A   1      39.862  31.071  34.413  1.00  0.00     0.037 A 
ATOM     46  C   UNL A   1      42.279  27.177  29.157  1.00  0.00     0.037 A 
ATOM     47  C   UNL A   1      41.042  30.306  34.721  1.00  0.00     0.049 A 
ATOM     48  C   UNL A   1      42.994  27.253  30.480  1.00  0.00     0.074 A 
ATOM     49  C   UNL A   1      41.730  30.228  35.920  1.00  0.00     0.029 A 
ATOM     50  N   UNL A   1      41.714  29.491  33.823  1.00  0.00    -0.354 N 
ATOM     51  N   UNL A   1      42.659  27.902  31.569  1.00  0.00    -0.248 NA
ATOM     52  C   UNL A   1      44.245  26.489  30.602  1.00  0.00     0.031 C 
ATOM     53  C   UNL A   1      42.852  29.415  35.730  1.00  0.00     0.029 A 
ATOM     54  C   UNL A   1      42.826  28.932  34.432  1.00  0.00     0.049 A 
ATOM     55  H   UNL A   1      41.441  29.331  32.891  1.00  0.00     0.167 HD
ATOM     56  C   UNL A   1      43.637  27.599  32.511  1.00  0.00     0.074 A 
ATOM     57  C   UNL A   1      44.569  26.697  31.869  1.00  0.00     0.031 C 
ATOM     58  C   UNL A   1      43.748  28.027  33.792  1.00  0.00     0.037 A 
BRANCH  45  59
ATOM     59  C   UNL A   1      39.291  31.952  35.488  1.00  0.00     0.057 A 
ATOM     60  C   UNL A   1      38.375  31.474  36.434  1.00  0.00     0.134 A 
ATOM     61  C   UNL A   1      39.691  33.290  35.598  1.00  0.00     0.134 A 
ATOM     62  F   UNL A   1      37.939  30.205  36.379  1.00  0.00    -0.206 F 
ATOM     63  C   UNL A   1      37.859  32.301  37.434  1.00  0.00     0.040 A 
ATOM     64  C   UNL A   1      39.205  34.118  36.611  1.00  0.00     0.040 A 
ATOM     65  F   UNL A   1      40.569  33.812  34.729  1.00  0.00    -0.206 F 
ATOM     66  C   UNL A   1      38.280  33.625  37.529  1.00  0.00     0.006 A 
ENDBRANCH  45  59
BRANCH  46  67
ATOM     67  C   UNL A   1      42.830  26.350  28.051  1.00  0.00     0.057 A 
ATOM     68  C   UNL A   1      43.744  26.877  27.132  1.00  0.00     0.134 A 
ATOM     69  C   UNL A   1      42.428  25.021  27.871  1.00  0.00     0.134 A 
ATOM     70  F   UNL A   1      44.149  28.151  27.237  1.00  0.00    -0.206 F 
ATOM     71  C   UNL A   1      44.224  26.119  26.062  1.00  0.00     0.040 A 
ATOM     72  C   UNL A   1      42.921  24.243  26.823  1.00  0.00     0.040 A 
ATOM     73  F   UNL A   1      41.554  24.457  28.717  1.00  0.00    -0.206 F 
ATOM     74  C   UNL A   1      43.815  24.796  25.908  1.00  0.00     0.006 A 
ENDBRANCH  46  67
BRANCH  58  75
ATOM     75  C   UNL A   1      44.891  27.491  34.607  1.00  0.00     0.057 A 
ATOM     76  C   UNL A   1      46.127  28.147  34.682  1.00  0.00     0.134 A 
ATOM     77  C   UNL A   1      44.741  26.317  35.359  1.00  0.00     0.134 A 
ATOM     78  F   UNL A   1      46.344  29.271  33.982  1.00  0.00    -0.206 F 
ATOM     79  C   UNL A   1      47.179  27.640  35.450  1.00  0.00     0.040 A 
ATOM     80  C   UNL A   1      45.773  25.818  36.154  1.00  0.00     0.040 A 
ATOM     81  F   UNL A   1      43.580  25.643  35.345  1.00  0.00    -0.206 F 
ATOM     82  C   UNL A   1      47.001  26.474  36.193  1.00  0.00     0.006 A 
ENDBRANCH  58  75
ENDBRANCH  32  33
ENDBRANCH  25  27
ENDBRANCH  24  25
ENDBRANCH  23  24
ENDBRANCH  22  23
ENDBRANCH  21  22
ENDBRANCH   1  21
TORSDOF 19
ENDMDL
MODEL 3
REMARK VINA RESULT:      -9.7      1.038      6.364
REMARK SMILES COc1cc(C=O)cc(OC)c1O[C@H](C)C(=O)OCCOCCOC(=O)c1ccc(-c2c3nc(c(-c4c(F)cccc4F)c4ccc([nH]4)c(-c4c(F)cccc4F)c4nc(c(-c5c(F)cccc5F)c5ccc2[nH]5)C=C4)C=C3)cc1
REMARK SMILES IDX 20 1 19 2 18 3 16 4 17 5 14 6 15 7 13 8 12 9 3 10 4 11 5 12
REMARK SMILES IDX 9 13 8 14 2 15 1 16 6 17 7 18 10 19 11 20 21 21 22 22 23 23
REMARK SMILES IDX 24 24 25 25 26 26 27 27 28 28 80 29 29 30 79 31 30 32 31 33
REMARK SMILES IDX 32 34 73 35 33 36 78 37 72 38 74 39 34 40 77 41 71 42 70 43
REMARK SMILES IDX 35 45 61 46 44 47 60 48 45 49 48 50 59 51 75 52 46 53 47 54
REMARK SMILES IDX 58 56 76 57 49 58 36 59 37 60 42 61 38 62 39 63 41 64 43 65
REMARK SMILES IDX 40 66 62 67 63 68 68 69 64 70 65 71 67 72 69 73 66 74 50 75
REMARK SMILES IDX 51 76 56 77 52 78 53 79 55 80 57 81 54 82
REMARK H PARENT 74 44 48 55
REMARK Flexibility Score: inf
ROOT
ATOM      1  C   UNL A   1      34.141  20.767  24.341  1.00  0.00     0.202 C 
ENDROOT
BRANCH   1   2
ATOM      2  C   UNL A   1      33.376  22.094  24.357  1.00  0.00     0.261 C 
BRANCH   2   3
ATOM      3  O   UNL A   1      32.756  22.353  25.635  1.00  0.00    -0.461 OA
BRANCH   3   4
ATOM      4  C   UNL A   1      33.397  23.245  26.433  1.00  0.00     0.347 C 
ATOM      5  O   UNL A   1      34.166  22.937  27.339  1.00  0.00    -0.248 OA
BRANCH   4   6
ATOM      6  C   UNL A   1      33.104  24.705  26.068  1.00  0.00     0.279 C 
ATOM      7  C   UNL A   1      34.263  25.436  25.400  1.00  0.00     0.066 C 
BRANCH   6   8
ATOM      8  O   UNL A   1      31.804  25.045  25.635  1.00  0.00    -0.471 OA
BRANCH   8   9
ATOM      9  C   UNL A   1      31.362  25.983  24.768  1.00  0.00     0.204 A 
ATOM     10  C   UNL A   1      31.034  27.228  25.356  1.00  0.00     0.165 A 
ATOM     11  C   UNL A   1      30.719  28.332  24.551  1.00  0.00     0.062 A 
ATOM     12  C   UNL A   1      30.734  28.225  23.165  1.00  0.00     0.022 A 
ATOM     13  C   UNL A   1      31.285  25.877  23.370  1.00  0.00     0.165 A 
ATOM     14  C   UNL A   1      30.999  26.996  22.570  1.00  0.00     0.062 A 
BRANCH  10  15
ATOM     15  O   UNL A   1      30.986  27.556  26.690  1.00  0.00    -0.493 OA
ATOM     16  C   UNL A   1      32.051  28.284  27.282  1.00  0.00     0.278 C 
ENDBRANCH  10  15
BRANCH  12  17
ATOM     17  C   UNL A   1      30.512  29.420  22.327  1.00  0.00     0.260 C 
ATOM     18  O   UNL A   1      29.619  29.472  21.491  1.00  0.00    -0.298 OA
ENDBRANCH  12  17
BRANCH  13  19
ATOM     19  O   UNL A   1      31.620  24.721  22.728  1.00  0.00    -0.493 OA
ATOM     20  C   UNL A   1      32.843  24.826  22.003  1.00  0.00     0.278 C 
ENDBRANCH  13  19
ENDBRANCH   8   9
ENDBRANCH   6   8
ENDBRANCH   4   6
ENDBRANCH   3   4
ENDBRANCH   2   3
ENDBRANCH   1   2
BRANCH   1  21
ATOM     21  O   UNL A   1      35.327  20.735  25.135  1.00  0.00    -0.374 OA
BRANCH  21  22
ATOM     22  C   UNL A   1      36.177  19.604  24.964  1.00  0.00     0.202 C 
BRANCH  22  23
ATOM     23  C   UNL A   1      37.657  19.932  24.726  1.00  0.00     0.261 C 
BRANCH  23  24
ATOM     24  O   UNL A   1      38.095  21.042  25.533  1.00  0.00    -0.460 OA
BRANCH  24  25
ATOM     25  C   UNL A   1      39.305  20.864  26.120  1.00  0.00     0.338 C 
ATOM     26  O   UNL A   1      40.000  19.866  26.077  1.00  0.00    -0.246 OA
BRANCH  25  27
ATOM     27  C   UNL A   1      39.776  22.131  26.724  1.00  0.00     0.060 A 
ATOM     28  C   UNL A   1      39.201  23.313  26.244  1.00  0.00     0.016 A 
ATOM     29  C   UNL A   1      40.797  22.183  27.677  1.00  0.00     0.016 A 
ATOM     30  C   UNL A   1      39.704  24.549  26.643  1.00  0.00     0.010 A 
ATOM     31  C   UNL A   1      41.292  23.429  28.089  1.00  0.00     0.010 A 
ATOM     32  C   UNL A   1      40.785  24.618  27.532  1.00  0.00    -0.014 A 
BRANCH  32  33
ATOM     33  C   UNL A   1      41.475  25.921  27.732  1.00  0.00     0.031 A 
ATOM     34  C   UNL A   1      40.780  27.012  28.507  1.00  0.00     0.074 A 
ATOM     35  C   UNL A   1      42.735  26.114  27.301  1.00  0.00     0.049 A 
ATOM     36  N   UNL A   1      41.207  28.209  28.824  1.00  0.00    -0.248 NA
ATOM     37  C   UNL A   1      39.422  26.713  28.989  1.00  0.00     0.031 C 
ATOM     38  C   UNL A   1      43.539  25.134  26.575  1.00  0.00     0.029 A 
ATOM     39  N   UNL A   1      43.561  27.205  27.420  1.00  0.00    -0.354 N 
ATOM     40  C   UNL A   1      40.171  28.805  29.534  1.00  0.00     0.074 A 
ATOM     41  C   UNL A   1      39.080  27.856  29.565  1.00  0.00     0.031 C 
ATOM     42  C   UNL A   1      44.746  25.665  26.316  1.00  0.00     0.029 A 
ATOM     43  C   UNL A   1      44.789  27.034  26.830  1.00  0.00     0.049 A 
ATOM     44  H   UNL A   1      43.296  28.033  27.882  1.00  0.00     0.167 HD
ATOM     45  C   UNL A   1      40.135  30.024  30.124  1.00  0.00     0.037 A 
ATOM     46  C   UNL A   1      45.826  27.887  26.707  1.00  0.00     0.037 A 
ATOM     47  C   UNL A   1      41.220  30.970  30.107  1.00  0.00     0.049 A 
ATOM     48  C   UNL A   1      45.735  29.265  27.310  1.00  0.00     0.074 A 
ATOM     49  C   UNL A   1      41.283  32.222  30.696  1.00  0.00     0.029 A 
ATOM     50  N   UNL A   1      42.431  30.775  29.460  1.00  0.00    -0.354 N 
ATOM     51  N   UNL A   1      44.763  29.804  28.004  1.00  0.00    -0.248 NA
ATOM     52  C   UNL A   1      46.893  30.150  27.117  1.00  0.00     0.031 C 
ATOM     53  C   UNL A   1      42.506  32.807  30.357  1.00  0.00     0.029 A 
ATOM     54  C   UNL A   1      43.234  31.895  29.611  1.00  0.00     0.049 A 
ATOM     55  H   UNL A   1      42.684  29.961  28.968  1.00  0.00     0.167 HD
ATOM     56  C   UNL A   1      45.205  31.074  28.358  1.00  0.00     0.074 A 
ATOM     57  C   UNL A   1      46.537  31.220  27.813  1.00  0.00     0.031 C 
ATOM     58  C   UNL A   1      44.564  32.032  29.074  1.00  0.00     0.037 A 
BRANCH  45  59
ATOM     59  C   UNL A   1      38.865  30.419  30.824  1.00  0.00     0.057 A 
ATOM     60  C   UNL A   1      37.837  31.107  30.167  1.00  0.00     0.134 A 
ATOM     61  C   UNL A   1      38.656  30.075  32.166  1.00  0.00     0.134 A 
ATOM     62  F   UNL A   1      37.976  31.478  28.885  1.00  0.00    -0.206 F 
ATOM     63  C   UNL A   1      36.657  31.460  30.826  1.00  0.00     0.040 A 
ATOM     64  C   UNL A   1      37.469  30.396  32.826  1.00  0.00     0.040 A 
ATOM     65  F   UNL A   1      39.597  29.412  32.854  1.00  0.00    -0.206 F 
ATOM     66  C   UNL A   1      36.468  31.098  32.158  1.00  0.00     0.006 A 
ENDBRANCH  45  59
BRANCH  46  67
ATOM     67  C   UNL A   1      47.048  27.469  25.971  1.00  0.00     0.057 A 
ATOM     68  C   UNL A   1      47.149  27.616  24.583  1.00  0.00     0.134 A 
ATOM     69  C   UNL A   1      48.131  26.882  26.637  1.00  0.00     0.134 A 
ATOM     70  F   UNL A   1      46.137  28.149  23.885  1.00  0.00    -0.206 F 
ATOM     71  C   UNL A   1      48.274  27.176  23.881  1.00  0.00     0.040 A 
ATOM     72  C   UNL A   1      49.272  26.464  25.953  1.00  0.00     0.040 A 
ATOM     73  F   UNL A   1      48.095  26.712  27.967  1.00  0.00    -0.206 F 
ATOM     74  C   UNL A   1      49.341  26.602  24.568  1.00  0.00     0.006 A 
ENDBRANCH  46  67
BRANCH  58  75
ATOM     75  C   UNL A   1      45.310  33.306  29.353  1.00  0.00     0.057 A 
ATOM     76  C   UNL A   1      45.216  34.426  28.516  1.00  0.00     0.134 A 
ATOM     77  C   UNL A   1      46.108  33.428  30.499  1.00  0.00     0.134 A 
ATOM     78  F   UNL A   1      44.476  34.378  27.396  1.00  0.00    -0.206 F 
ATOM     79  C   UNL A   1      45.910  35.607  28.791  1.00  0.00     0.040 A 
ATOM     80  C   UNL A   1      46.782  34.612  30.802  1.00  0.00     0.040 A 
ATOM     81  F   UNL A   1      46.235  32.400  31.353  1.00  0.00    -0.206 F 
ATOM     82  C   UNL A   1      46.691  35.703  29.942  1.00  0.00     0.006 A 
ENDBRANCH  58  75
ENDBRANCH  32  33
ENDBRANCH  25  27
ENDBRANCH  24  25
ENDBRANCH  23  24
ENDBRANCH  22  23
ENDBRANCH  21  22
ENDBRANCH   1  21
TORSDOF 19
ENDMDL
