MODEL 1
REMARK VINA RESULT:     -11.9      0.000      0.000
REMARK SMILES CCCC(=O)Nc1cccc(C(=O)N[C@@H](C(=O)OCCOCCOC(=O)c2ccc(-c3c4nc(c(-c5c(F)cccc5F)c5ccc([nH]5)c(-c5c(F)cccc5F)c5nc(c(-c6c(F)cccc6F)c6ccc3[nH]6)C=C5)C=C4)cc2)C2=C(C)N=N[C@@H]2C)c1
REMARK SMILES IDX 19 1 18 2 16 3 17 4 15 5 14 6 12 7 13 8 11 10 7 11 8 12
REMARK SMILES IDX 88 13 9 14 10 15 6 16 4 17 5 18 3 20 2 21 1 22 81 23 82 24
REMARK SMILES IDX 86 25 83 26 84 27 85 28 87 29 20 30 21 31 22 32 23 33 24 34
REMARK SMILES IDX 25 35 26 36 27 37 28 38 80 39 29 40 79 41 30 42 31 43 32 44
REMARK SMILES IDX 73 45 33 46 78 47 72 48 74 49 34 50 77 51 71 52 70 53 35 55
REMARK SMILES IDX 61 56 44 57 60 58 45 59 48 60 59 61 75 62 46 63 47 64 58 66
REMARK SMILES IDX 76 67 49 68 36 69 37 70 42 71 38 72 39 73 41 74 43 75 40 76
REMARK SMILES IDX 62 77 63 78 68 79 64 80 65 81 67 82 69 83 66 84 50 85 51 86
REMARK SMILES IDX 56 87 52 88 53 89 55 90 57 91 54 92
REMARK H PARENT 14 9 6 19 74 54 48 65
REMARK Flexibility Score: inf
ROOT
ATOM      1  C   UNL A   1      33.679  28.499  26.736  1.00  0.00     0.261 C 
ENDROOT
BRANCH   1   2
ATOM      2  O   UNL A   1      33.449  27.095  26.572  1.00  0.00    -0.461 OA
BRANCH   2   3
ATOM      3  C   UNL A   1      33.486  26.647  25.281  1.00  0.00     0.333 C 
ATOM      4  O   UNL A   1      33.693  27.373  24.319  1.00  0.00    -0.249 OA
BRANCH   3   5
ATOM      5  C   UNL A   1      33.245  25.109  25.180  1.00  0.00     0.223 C 
BRANCH   5   6
ATOM      6  N   UNL A   1      33.336  24.666  23.782  1.00  0.00    -0.335 N 
ATOM      7  C   UNL A   1      34.004  23.625  23.171  1.00  0.00     0.252 C 
ATOM      8  O   UNL A   1      33.969  23.566  21.943  1.00  0.00    -0.269 OA
ATOM      9  H   UNL A   1      32.818  25.222  23.157  1.00  0.00     0.165 HD
BRANCH   7  10
ATOM     10  C   UNL A   1      34.698  22.539  23.917  1.00  0.00     0.041 A 
ATOM     11  C   UNL A   1      34.709  20.417  25.069  1.00  0.00     0.041 A 
ATOM     12  C   UNL A   1      36.090  20.317  24.943  1.00  0.00     0.026 A 
ATOM     13  C   UNL A   1      34.028  21.564  24.652  1.00  0.00     0.040 A 
ATOM     14  C   UNL A   1      36.791  21.363  24.345  1.00  0.00     0.003 A 
ATOM     15  C   UNL A   1      36.098  22.458  23.815  1.00  0.00     0.014 A 
BRANCH  11  16
ATOM     16  N   UNL A   1      33.960  19.352  25.584  1.00  0.00    -0.326 N 
ATOM     17  C   UNL A   1      33.136  18.590  24.786  1.00  0.00     0.224 C 
ATOM     18  O   UNL A   1      32.017  18.286  25.200  1.00  0.00    -0.275 OA
ATOM     19  H   UNL A   1      34.023  19.142  26.544  1.00  0.00     0.169 HD
BRANCH  17  20
ATOM     20  C   UNL A   1      33.642  18.110  23.429  1.00  0.00     0.100 C 
BRANCH  20  21
ATOM     21  C   UNL A   1      34.015  16.633  23.374  1.00  0.00     0.006 C 
ATOM     22  C   UNL A   1      34.355  16.021  24.727  1.00  0.00     0.004 C 
ENDBRANCH  20  21
ENDBRANCH  17  20
ENDBRANCH  11  16
ENDBRANCH   7  10
ENDBRANCH   5   6
BRANCH   5  23
ATOM     23  C   UNL A   1      31.956  24.696  25.865  1.00  0.00     0.012 C 
ATOM     24  C   UNL A   1      30.704  25.186  25.938  1.00  0.00     0.064 C 
ATOM     25  C   UNL A   1      31.839  23.357  26.576  1.00  0.00     0.156 C 
ATOM     26  C   UNL A   1      30.031  26.366  25.326  1.00  0.00     0.069 C 
ATOM     27  N   UNL A   1      29.872  24.415  26.717  1.00  0.00    -0.160 NA
ATOM     28  N   UNL A   1      30.465  23.395  27.135  1.00  0.00    -0.181 NA
ATOM     29  C   UNL A   1      32.780  22.979  27.709  1.00  0.00     0.040 C 
ENDBRANCH   5  23
ENDBRANCH   3   5
ENDBRANCH   2   3
ENDBRANCH   1   2
BRANCH   1  30
ATOM     30  C   UNL A   1      32.378  29.310  26.747  1.00  0.00     0.202 C 
BRANCH  30  31
ATOM     31  O   UNL A   1      32.258  30.422  25.868  1.00  0.00    -0.374 OA
BRANCH  31  32
ATOM     32  C   UNL A   1      31.264  31.408  26.132  1.00  0.00     0.202 C 
BRANCH  32  33
ATOM     33  C   UNL A   1      31.492  32.435  27.246  1.00  0.00     0.261 C 
BRANCH  33  34
ATOM     34  O   UNL A   1      32.624  33.281  26.990  1.00  0.00    -0.460 OA
BRANCH  34  35
ATOM     35  C   UNL A   1      33.243  33.716  28.108  1.00  0.00     0.338 C 
ATOM     36  O   UNL A   1      32.779  34.442  28.984  1.00  0.00    -0.246 OA
BRANCH  35  37
ATOM     37  C   UNL A   1      34.525  33.025  28.281  1.00  0.00     0.060 A 
ATOM     38  C   UNL A   1      34.475  31.659  28.592  1.00  0.00     0.016 A 
ATOM     39  C   UNL A   1      35.737  33.715  28.258  1.00  0.00     0.016 A 
ATOM     40  C   UNL A   1      35.634  30.990  28.955  1.00  0.00     0.010 A 
ATOM     41  C   UNL A   1      36.900  33.045  28.642  1.00  0.00     0.010 A 
ATOM     42  C   UNL A   1      36.838  31.696  29.040  1.00  0.00    -0.014 A 
BRANCH  42  43
ATOM     43  C   UNL A   1      37.973  31.061  29.742  1.00  0.00     0.031 A 
ATOM     44  C   UNL A   1      38.188  31.379  31.194  1.00  0.00     0.074 A 
ATOM     45  C   UNL A   1      38.738  30.154  29.113  1.00  0.00     0.049 A 
ATOM     46  N   UNL A   1      39.102  30.932  32.016  1.00  0.00    -0.248 NA
ATOM     47  C   UNL A   1      37.241  32.327  31.806  1.00  0.00     0.031 C 
ATOM     48  C   UNL A   1      38.574  29.731  27.723  1.00  0.00     0.029 A 
ATOM     49  N   UNL A   1      39.802  29.421  29.568  1.00  0.00    -0.354 N 
ATOM     50  C   UNL A   1      38.846  31.550  33.235  1.00  0.00     0.074 A 
ATOM     51  C   UNL A   1      37.713  32.426  33.040  1.00  0.00     0.031 C 
ATOM     52  C   UNL A   1      39.513  28.813  27.436  1.00  0.00     0.029 A 
ATOM     53  C   UNL A   1      40.358  28.612  28.611  1.00  0.00     0.049 A 
ATOM     54  H   UNL A   1      40.134  29.470  30.494  1.00  0.00     0.167 HD
ATOM     55  C   UNL A   1      39.495  31.391  34.412  1.00  0.00     0.037 A 
ATOM     56  C   UNL A   1      41.442  27.817  28.676  1.00  0.00     0.037 A 
ATOM     57  C   UNL A   1      40.621  30.513  34.591  1.00  0.00     0.049 A 
ATOM     58  C   UNL A   1      42.192  27.714  29.977  1.00  0.00     0.074 A 
ATOM     59  C   UNL A   1      41.349  30.267  35.742  1.00  0.00     0.029 A 
ATOM     60  N   UNL A   1      41.187  29.742  33.586  1.00  0.00    -0.354 N 
ATOM     61  N   UNL A   1      41.937  28.290  31.129  1.00  0.00    -0.248 NA
ATOM     62  C   UNL A   1      43.377  26.846  29.989  1.00  0.00     0.031 C 
ATOM     63  C   UNL A   1      42.391  29.391  35.418  1.00  0.00     0.029 A 
ATOM     64  C   UNL A   1      42.273  29.041  34.083  1.00  0.00     0.049 A 
ATOM     65  H   UNL A   1      40.865  29.699  32.657  1.00  0.00     0.167 HD
ATOM     66  C   UNL A   1      42.909  27.831  32.008  1.00  0.00     0.074 A 
ATOM     67  C   UNL A   1      43.749  26.918  31.260  1.00  0.00     0.031 C 
ATOM     68  C   UNL A   1      43.093  28.134  33.318  1.00  0.00     0.037 A 
BRANCH  55  69
ATOM     69  C   UNL A   1      39.023  32.207  35.580  1.00  0.00     0.057 A 
ATOM     70  C   UNL A   1      39.367  33.557  35.735  1.00  0.00     0.134 A 
ATOM     71  C   UNL A   1      38.191  31.639  36.554  1.00  0.00     0.134 A 
ATOM     72  F   UNL A   1      40.174  34.159  34.848  1.00  0.00    -0.206 F 
ATOM     73  C   UNL A   1      38.921  34.304  36.827  1.00  0.00     0.040 A 
ATOM     74  C   UNL A   1      37.716  32.383  37.635  1.00  0.00     0.040 A 
ATOM     75  F   UNL A   1      37.822  30.352  36.467  1.00  0.00    -0.206 F 
ATOM     76  C   UNL A   1      38.086  33.718  37.778  1.00  0.00     0.006 A 
ENDBRANCH  55  69
BRANCH  56  77
ATOM     77  C   UNL A   1      41.888  27.070  27.474  1.00  0.00     0.057 A 
ATOM     78  C   UNL A   1      42.725  27.658  26.519  1.00  0.00     0.134 A 
ATOM     79  C   UNL A   1      41.478  25.750  27.245  1.00  0.00     0.134 A 
ATOM     80  F   UNL A   1      43.136  28.925  26.670  1.00  0.00    -0.206 F 
ATOM     81  C   UNL A   1      43.120  26.970  25.370  1.00  0.00     0.040 A 
ATOM     82  C   UNL A   1      41.888  25.041  26.116  1.00  0.00     0.040 A 
ATOM     83  F   UNL A   1      40.681  25.127  28.124  1.00  0.00    -0.206 F 
ATOM     84  C   UNL A   1      42.705  25.654  25.169  1.00  0.00     0.006 A 
ENDBRANCH  56  77
BRANCH  68  85
ATOM     85  C   UNL A   1      44.218  27.441  34.030  1.00  0.00     0.057 A 
ATOM     86  C   UNL A   1      45.495  28.006  34.130  1.00  0.00     0.134 A 
ATOM     87  C   UNL A   1      44.009  26.203  34.653  1.00  0.00     0.134 A 
ATOM     88  F   UNL A   1      45.765  29.185  33.548  1.00  0.00    -0.206 F 
ATOM     89  C   UNL A   1      46.532  27.353  34.798  1.00  0.00     0.040 A 
ATOM     90  C   UNL A   1      45.028  25.555  35.350  1.00  0.00     0.040 A 
ATOM     91  F   UNL A   1      42.806  25.610  34.606  1.00  0.00    -0.206 F 
ATOM     92  C   UNL A   1      46.297  26.125  35.415  1.00  0.00     0.006 A 
ENDBRANCH  68  85
ENDBRANCH  42  43
ENDBRANCH  35  37
ENDBRANCH  34  35
ENDBRANCH  33  34
ENDBRANCH  32  33
ENDBRANCH  31  32
ENDBRANCH  30  31
ENDBRANCH   1  30
TORSDOF 20
ENDMDL
MODEL 2
REMARK VINA RESULT:     -11.6      3.929      8.052
REMARK SMILES CCCC(=O)Nc1cccc(C(=O)N[C@@H](C(=O)OCCOCCOC(=O)c2ccc(-c3c4nc(c(-c5c(F)cccc5F)c5ccc([nH]5)c(-c5c(F)cccc5F)c5nc(c(-c6c(F)cccc6F)c6ccc3[nH]6)C=C5)C=C4)cc2)C2=C(C)N=N[C@@H]2C)c1
REMARK SMILES IDX 19 1 18 2 16 3 17 4 15 5 14 6 12 7 13 8 11 10 7 11 8 12
REMARK SMILES IDX 88 13 9 14 10 15 6 16 4 17 5 18 3 20 2 21 1 22 81 23 82 24
REMARK SMILES IDX 86 25 83 26 84 27 85 28 87 29 20 30 21 31 22 32 23 33 24 34
REMARK SMILES IDX 25 35 26 36 27 37 28 38 80 39 29 40 79 41 30 42 31 43 32 44
REMARK SMILES IDX 73 45 33 46 78 47 72 48 74 49 34 50 77 51 71 52 70 53 35 55
REMARK SMILES IDX 61 56 44 57 60 58 45 59 48 60 59 61 75 62 46 63 47 64 58 66
REMARK SMILES IDX 76 67 49 68 36 69 37 70 42 71 38 72 39 73 41 74 43 75 40 76
REMARK SMILES IDX 62 77 63 78 68 79 64 80 65 81 67 82 69 83 66 84 50 85 51 86
REMARK SMILES IDX 56 87 52 88 53 89 55 90 57 91 54 92
REMARK H PARENT 14 9 6 19 74 54 48 65
REMARK Flexibility Score: inf
ROOT
ATOM      1  C   UNL A   1      32.434  21.634  22.983  1.00  0.00     0.261 C 
ENDROOT
BRANCH   1   2
ATOM      2  O   UNL A   1      31.958  22.984  23.051  1.00  0.00    -0.461 OA
BRANCH   2   3
ATOM      3  C   UNL A   1      32.749  23.910  22.431  1.00  0.00     0.333 C 
ATOM      4  O   UNL A   1      33.584  23.628  21.583  1.00  0.00    -0.249 OA
BRANCH   3   5
ATOM      5  C   UNL A   1      32.455  25.363  22.921  1.00  0.00     0.223 C 
BRANCH   5   6
ATOM      6  N   UNL A   1      33.419  26.306  22.335  1.00  0.00    -0.335 N 
ATOM      7  C   UNL A   1      33.471  27.683  22.291  1.00  0.00     0.252 C 
ATOM      8  O   UNL A   1      34.369  28.200  21.628  1.00  0.00    -0.269 OA
ATOM      9  H   UNL A   1      34.176  25.868  21.886  1.00  0.00     0.165 HD
BRANCH   7  10
ATOM     10  C   UNL A   1      32.550  28.569  23.054  1.00  0.00     0.041 A 
ATOM     11  C   UNL A   1      30.354  29.454  23.531  1.00  0.00     0.041 A 
ATOM     12  C   UNL A   1      30.775  29.922  24.771  1.00  0.00     0.026 A 
ATOM     13  C   UNL A   1      31.256  28.873  22.636  1.00  0.00     0.040 A 
ATOM     14  C   UNL A   1      32.111  29.761  25.136  1.00  0.00     0.003 A 
ATOM     15  C   UNL A   1      32.989  29.069  24.293  1.00  0.00     0.014 A 
BRANCH  11  16
ATOM     16  N   UNL A   1      29.004  29.519  23.164  1.00  0.00    -0.326 N 
ATOM     17  C   UNL A   1      28.279  30.685  23.268  1.00  0.00     0.224 C 
ATOM     18  O   UNL A   1      27.134  30.637  23.720  1.00  0.00    -0.275 OA
ATOM     19  H   UNL A   1      28.561  28.709  22.822  1.00  0.00     0.169 HD
BRANCH  17  20
ATOM     20  C   UNL A   1      28.892  31.996  22.786  1.00  0.00     0.100 C 
BRANCH  20  21
ATOM     21  C   UNL A   1      28.119  32.690  21.671  1.00  0.00     0.006 C 
ATOM     22  C   UNL A   1      27.912  31.838  20.426  1.00  0.00     0.004 C 
ENDBRANCH  20  21
ENDBRANCH  17  20
ENDBRANCH  11  16
ENDBRANCH   7  10
ENDBRANCH   5   6
BRANCH   5  23
ATOM     23  C   UNL A   1      32.374  25.439  24.433  1.00  0.00     0.012 C 
ATOM     24  C   UNL A   1      33.197  25.151  25.459  1.00  0.00     0.064 C 
ATOM     25  C   UNL A   1      31.192  26.103  25.123  1.00  0.00     0.156 C 
ATOM     26  C   UNL A   1      34.597  24.649  25.535  1.00  0.00     0.069 C 
ATOM     27  N   UNL A   1      32.631  25.405  26.687  1.00  0.00    -0.160 NA
ATOM     28  N   UNL A   1      31.491  25.904  26.562  1.00  0.00    -0.181 NA
ATOM     29  C   UNL A   1      29.768  25.627  24.883  1.00  0.00     0.040 C 
ENDBRANCH   5  23
ENDBRANCH   3   5
ENDBRANCH   2   3
ENDBRANCH   1   2
BRANCH   1  30
ATOM     30  C   UNL A   1      33.194  21.216  24.248  1.00  0.00     0.202 C 
BRANCH  30  31
ATOM     31  O   UNL A   1      34.603  21.403  24.291  1.00  0.00    -0.374 OA
BRANCH  31  32
ATOM     32  C   UNL A   1      35.367  20.675  25.250  1.00  0.00     0.202 C 
BRANCH  32  33
ATOM     33  C   UNL A   1      36.859  20.433  25.003  1.00  0.00     0.261 C 
BRANCH  33  34
ATOM     34  O   UNL A   1      37.660  21.586  25.301  1.00  0.00    -0.460 OA
BRANCH  34  35
ATOM     35  C   UNL A   1      38.830  21.296  25.909  1.00  0.00     0.338 C 
ATOM     36  O   UNL A   1      39.503  20.276  25.783  1.00  0.00    -0.246 OA
BRANCH  35  37
ATOM     37  C   UNL A   1      39.346  22.477  26.609  1.00  0.00     0.060 A 
ATOM     38  C   UNL A   1      38.788  23.715  26.264  1.00  0.00     0.016 A 
ATOM     39  C   UNL A   1      40.425  22.392  27.489  1.00  0.00     0.016 A 
ATOM     40  C   UNL A   1      39.355  24.886  26.744  1.00  0.00     0.010 A 
ATOM     41  C   UNL A   1      41.006  23.572  27.956  1.00  0.00     0.010 A 
ATOM     42  C   UNL A   1      40.502  24.819  27.541  1.00  0.00    -0.014 A 
BRANCH  42  43
ATOM     43  C   UNL A   1      41.277  26.059  27.757  1.00  0.00     0.031 A 
ATOM     44  C   UNL A   1      40.647  27.171  28.549  1.00  0.00     0.074 A 
ATOM     45  C   UNL A   1      42.546  26.150  27.328  1.00  0.00     0.049 A 
ATOM     46  N   UNL A   1      41.138  28.337  28.877  1.00  0.00    -0.248 NA
ATOM     47  C   UNL A   1      39.279  26.933  29.040  1.00  0.00     0.031 C 
ATOM     48  C   UNL A   1      43.268  25.106  26.604  1.00  0.00     0.029 A 
ATOM     49  N   UNL A   1      43.452  27.170  27.447  1.00  0.00    -0.354 N 
ATOM     50  C   UNL A   1      40.138  28.974  29.604  1.00  0.00     0.074 A 
ATOM     51  C   UNL A   1      39.003  28.080  29.643  1.00  0.00     0.031 C 
ATOM     52  C   UNL A   1      44.510  25.543  26.337  1.00  0.00     0.029 A 
ATOM     53  C   UNL A   1      44.655  26.906  26.843  1.00  0.00     0.049 A 
ATOM     54  H   UNL A   1      43.259  28.012  27.922  1.00  0.00     0.167 HD
ATOM     55  C   UNL A   1      40.172  30.192  30.194  1.00  0.00     0.037 A 
ATOM     56  C   UNL A   1      45.739  27.691  26.699  1.00  0.00     0.037 A 
ATOM     57  C   UNL A   1      41.311  31.071  30.149  1.00  0.00     0.049 A 
ATOM     58  C   UNL A   1      45.724  29.071  27.300  1.00  0.00     0.074 A 
ATOM     59  C   UNL A   1      41.458  32.323  30.718  1.00  0.00     0.029 A 
ATOM     60  N   UNL A   1      42.497  30.789  29.487  1.00  0.00    -0.354 N 
ATOM     61  N   UNL A   1      44.782  29.661  27.997  1.00  0.00    -0.248 NA
ATOM     62  C   UNL A   1      46.926  29.891  27.099  1.00  0.00     0.031 C 
ATOM     63  C   UNL A   1      42.713  32.822  30.352  1.00  0.00     0.029 A 
ATOM     64  C   UNL A   1      43.372  31.855  29.610  1.00  0.00     0.049 A 
ATOM     65  H   UNL A   1      42.690  29.954  29.002  1.00  0.00     0.167 HD
ATOM     66  C   UNL A   1      45.287  30.907  28.343  1.00  0.00     0.074 A 
ATOM     67  C   UNL A   1      46.625  30.980  27.792  1.00  0.00     0.031 C 
ATOM     68  C   UNL A   1      44.702  31.903  29.054  1.00  0.00     0.037 A 
BRANCH  55  69
ATOM     69  C   UNL A   1      38.933  30.654  30.903  1.00  0.00     0.057 A 
ATOM     70  C   UNL A   1      38.735  30.441  32.275  1.00  0.00     0.134 A 
ATOM     71  C   UNL A   1      37.931  31.345  30.208  1.00  0.00     0.134 A 
ATOM     72  F   UNL A   1      39.646  29.772  32.998  1.00  0.00    -0.206 F 
ATOM     73  C   UNL A   1      37.576  30.876  32.922  1.00  0.00     0.040 A 
ATOM     74  C   UNL A   1      36.782  31.810  30.850  1.00  0.00     0.040 A 
ATOM     75  F   UNL A   1      38.057  31.585  28.895  1.00  0.00    -0.206 F 
ATOM     76  C   UNL A   1      36.599  31.570  32.209  1.00  0.00     0.006 A 
ENDBRANCH  55  69
BRANCH  56  77
ATOM     77  C   UNL A   1      46.919  27.196  25.946  1.00  0.00     0.057 A 
ATOM     78  C   UNL A   1      47.946  26.491  26.583  1.00  0.00     0.134 A 
ATOM     79  C   UNL A   1      47.052  27.427  24.571  1.00  0.00     0.134 A 
ATOM     80  F   UNL A   1      47.887  26.254  27.901  1.00  0.00    -0.206 F 
ATOM     81  C   UNL A   1      49.073  26.053  25.885  1.00  0.00     0.040 A 
ATOM     82  C   UNL A   1      48.160  26.971  23.856  1.00  0.00     0.040 A 
ATOM     83  F   UNL A   1      46.100  28.092  23.900  1.00  0.00    -0.206 F 
ATOM     84  C   UNL A   1      49.179  26.288  24.515  1.00  0.00     0.006 A 
ENDBRANCH  56  77
BRANCH  68  85
ATOM     85  C   UNL A   1      45.521  33.135  29.309  1.00  0.00     0.057 A 
ATOM     86  C   UNL A   1      46.371  33.247  30.417  1.00  0.00     0.134 A 
ATOM     87  C   UNL A   1      45.483  34.212  28.413  1.00  0.00     0.134 A 
ATOM     88  F   UNL A   1      46.447  32.256  31.319  1.00  0.00    -0.206 F 
ATOM     89  C   UNL A   1      47.130  34.397  30.641  1.00  0.00     0.040 A 
ATOM     90  C   UNL A   1      46.260  35.354  28.609  1.00  0.00     0.040 A 
ATOM     91  F   UNL A   1      44.699  34.166  27.325  1.00  0.00    -0.206 F 
ATOM     92  C   UNL A   1      47.080  35.452  29.731  1.00  0.00     0.006 A 
ENDBRANCH  68  85
ENDBRANCH  42  43
ENDBRANCH  35  37
ENDBRANCH  34  35
ENDBRANCH  33  34
ENDBRANCH  32  33
ENDBRANCH  31  32
ENDBRANCH  30  31
ENDBRANCH   1  30
TORSDOF 20
ENDMDL
MODEL 3
REMARK VINA RESULT:     -11.5      3.990      9.581
REMARK SMILES CCCC(=O)Nc1cccc(C(=O)N[C@@H](C(=O)OCCOCCOC(=O)c2ccc(-c3c4nc(c(-c5c(F)cccc5F)c5ccc([nH]5)c(-c5c(F)cccc5F)c5nc(c(-c6c(F)cccc6F)c6ccc3[nH]6)C=C5)C=C4)cc2)C2=C(C)N=N[C@@H]2C)c1
REMARK SMILES IDX 19 1 18 2 16 3 17 4 15 5 14 6 12 7 13 8 11 10 7 11 8 12
REMARK SMILES IDX 88 13 9 14 10 15 6 16 4 17 5 18 3 20 2 21 1 22 81 23 82 24
REMARK SMILES IDX 86 25 83 26 84 27 85 28 87 29 20 30 21 31 22 32 23 33 24 34
REMARK SMILES IDX 25 35 26 36 27 37 28 38 80 39 29 40 79 41 30 42 31 43 32 44
REMARK SMILES IDX 73 45 33 46 78 47 72 48 74 49 34 50 77 51 71 52 70 53 35 55
REMARK SMILES IDX 61 56 44 57 60 58 45 59 48 60 59 61 75 62 46 63 47 64 58 66
REMARK SMILES IDX 76 67 49 68 36 69 37 70 42 71 38 72 39 73 41 74 43 75 40 76
REMARK SMILES IDX 62 77 63 78 68 79 64 80 65 81 67 82 69 83 66 84 50 85 51 86
REMARK SMILES IDX 56 87 52 88 53 89 55 90 57 91 54 92
REMARK H PARENT 14 9 6 19 74 54 48 65
REMARK Flexibility Score: inf
ROOT
ATOM      1  C   UNL A   1      32.507  21.632  23.014  1.00  0.00     0.261 C 
ENDROOT
BRANCH   1   2
ATOM      2  O   UNL A   1      32.020  22.977  23.095  1.00  0.00    -0.461 OA
BRANCH   2   3
ATOM      3  C   UNL A   1      32.773  23.908  22.434  1.00  0.00     0.333 C 
ATOM      4  O   UNL A   1      33.580  23.628  21.559  1.00  0.00    -0.249 OA
BRANCH   3   5
ATOM      5  C   UNL A   1      32.475  25.361  22.918  1.00  0.00     0.223 C 
BRANCH   5   6
ATOM      6  N   UNL A   1      33.431  26.306  22.322  1.00  0.00    -0.335 N 
ATOM      7  C   UNL A   1      33.471  27.683  22.262  1.00  0.00     0.252 C 
ATOM      8  O   UNL A   1      34.366  28.200  21.593  1.00  0.00    -0.269 OA
ATOM      9  H   UNL A   1      34.192  25.869  21.878  1.00  0.00     0.165 HD
BRANCH   7  10
ATOM     10  C   UNL A   1      32.543  28.570  23.014  1.00  0.00     0.041 A 
ATOM     11  C   UNL A   1      30.343  29.456  23.468  1.00  0.00     0.041 A 
ATOM     12  C   UNL A   1      30.751  29.925  24.712  1.00  0.00     0.026 A 
ATOM     13  C   UNL A   1      31.253  28.874  22.583  1.00  0.00     0.040 A 
ATOM     14  C   UNL A   1      32.082  29.764  25.091  1.00  0.00     0.003 A 
ATOM     15  C   UNL A   1      32.969  29.071  24.257  1.00  0.00     0.014 A 
BRANCH  11  16
ATOM     16  N   UNL A   1      28.997  29.521  23.086  1.00  0.00    -0.326 N 
ATOM     17  C   UNL A   1      28.240  30.655  23.281  1.00  0.00     0.224 C 
ATOM     18  O   UNL A   1      27.091  30.541  23.708  1.00  0.00    -0.275 OA
ATOM     19  H   UNL A   1      28.579  28.733  22.668  1.00  0.00     0.169 HD
BRANCH  17  20
ATOM     20  C   UNL A   1      28.827  32.018  22.926  1.00  0.00     0.100 C 
BRANCH  20  21
ATOM     21  C   UNL A   1      28.079  32.769  21.831  1.00  0.00     0.006 C 
ATOM     22  C   UNL A   1      28.073  32.066  20.480  1.00  0.00     0.004 C 
ENDBRANCH  20  21
ENDBRANCH  17  20
ENDBRANCH  11  16
ENDBRANCH   7  10
ENDBRANCH   5   6
BRANCH   5  23
ATOM     23  C   UNL A   1      32.402  25.446  24.431  1.00  0.00     0.012 C 
ATOM     24  C   UNL A   1      33.247  25.210  25.451  1.00  0.00     0.064 C 
ATOM     25  C   UNL A   1      31.192  26.052  25.125  1.00  0.00     0.156 C 
ATOM     26  C   UNL A   1      34.673  24.783  25.520  1.00  0.00     0.069 C 
ATOM     27  N   UNL A   1      32.680  25.443  26.683  1.00  0.00    -0.160 NA
ATOM     28  N   UNL A   1      31.513  25.881  26.564  1.00  0.00    -0.181 NA
ATOM     29  C   UNL A   1      29.794  25.500  24.902  1.00  0.00     0.040 C 
ENDBRANCH   5  23
ENDBRANCH   3   5
ENDBRANCH   2   3
ENDBRANCH   1   2
BRANCH   1  30
ATOM     30  C   UNL A   1      33.302  21.220  24.260  1.00  0.00     0.202 C 
BRANCH  30  31
ATOM     31  O   UNL A   1      34.694  21.506  24.307  1.00  0.00    -0.374 OA
BRANCH  31  32
ATOM     32  C   UNL A   1      35.510  20.808  25.244  1.00  0.00     0.202 C 
BRANCH  32  33
ATOM     33  C   UNL A   1      37.022  20.712  25.009  1.00  0.00     0.261 C 
BRANCH  33  34
ATOM     34  O   UNL A   1      37.722  21.886  25.447  1.00  0.00    -0.460 OA
BRANCH  34  35
ATOM     35  C   UNL A   1      38.913  21.625  26.028  1.00  0.00     0.338 C 
ATOM     36  O   UNL A   1      39.630  20.644  25.851  1.00  0.00    -0.246 OA
BRANCH  35  37
ATOM     37  C   UNL A   1      39.382  22.799  26.771  1.00  0.00     0.060 A 
ATOM     38  C   UNL A   1      38.777  24.027  26.471  1.00  0.00     0.016 A 
ATOM     39  C   UNL A   1      40.464  22.724  27.649  1.00  0.00     0.016 A 
ATOM     40  C   UNL A   1      39.299  25.200  26.993  1.00  0.00     0.010 A 
ATOM     41  C   UNL A   1      41.000  23.908  28.159  1.00  0.00     0.010 A 
ATOM     42  C   UNL A   1      40.448  25.149  27.789  1.00  0.00    -0.014 A 
BRANCH  42  43
ATOM     43  C   UNL A   1      41.174  26.409  28.051  1.00  0.00     0.031 A 
ATOM     44  C   UNL A   1      42.570  26.558  27.517  1.00  0.00     0.074 A 
ATOM     45  C   UNL A   1      40.562  27.426  28.678  1.00  0.00     0.049 A 
ATOM     46  N   UNL A   1      43.390  27.573  27.609  1.00  0.00    -0.248 NA
ATOM     47  C   UNL A   1      43.116  25.409  26.775  1.00  0.00     0.031 C 
ATOM     48  C   UNL A   1      39.190  27.403  29.182  1.00  0.00     0.029 A 
ATOM     49  N   UNL A   1      41.018  28.680  28.991  1.00  0.00    -0.354 N 
ATOM     50  C   UNL A   1      44.548  27.181  26.946  1.00  0.00     0.074 A 
ATOM     51  C   UNL A   1      44.338  25.827  26.484  1.00  0.00     0.031 C 
ATOM     52  C   UNL A   1      38.917  28.591  29.748  1.00  0.00     0.029 A 
ATOM     53  C   UNL A   1      40.104  29.440  29.674  1.00  0.00     0.049 A 
ATOM     54  H   UNL A   1      41.916  29.003  28.748  1.00  0.00     0.167 HD
ATOM     55  C   UNL A   1      45.679  27.894  26.734  1.00  0.00     0.037 A 
ATOM     56  C   UNL A   1      40.226  30.674  30.197  1.00  0.00     0.037 A 
ATOM     57  C   UNL A   1      45.873  29.242  27.199  1.00  0.00     0.049 A 
ATOM     58  C   UNL A   1      41.521  31.418  30.013  1.00  0.00     0.074 A 
ATOM     59  C   UNL A   1      46.975  30.062  27.033  1.00  0.00     0.029 A 
ATOM     60  N   UNL A   1      44.940  29.965  27.928  1.00  0.00    -0.354 N 
ATOM     61  N   UNL A   1      42.606  31.048  29.374  1.00  0.00    -0.248 NA
ATOM     62  C   UNL A   1      41.607  32.753  30.618  1.00  0.00     0.031 C 
ATOM     63  C   UNL A   1      46.730  31.260  27.712  1.00  0.00     0.029 A 
ATOM     64  C   UNL A   1      45.452  31.212  28.245  1.00  0.00     0.049 A 
ATOM     65  H   UNL A   1      44.046  29.641  28.183  1.00  0.00     0.167 HD
ATOM     66  C   UNL A   1      43.490  32.114  29.473  1.00  0.00     0.074 A 
ATOM     67  C   UNL A   1      42.808  33.150  30.222  1.00  0.00     0.031 C 
ATOM     68  C   UNL A   1      44.752  32.230  28.989  1.00  0.00     0.037 A 
BRANCH  55  69
ATOM     69  C   UNL A   1      46.800  27.216  26.001  1.00  0.00     0.057 A 
ATOM     70  C   UNL A   1      46.978  27.353  24.618  1.00  0.00     0.134 A 
ATOM     71  C   UNL A   1      47.731  26.432  26.695  1.00  0.00     0.134 A 
ATOM     72  F   UNL A   1      46.112  28.075  23.889  1.00  0.00    -0.206 F 
ATOM     73  C   UNL A   1      48.025  26.715  23.949  1.00  0.00     0.040 A 
ATOM     74  C   UNL A   1      48.799  25.814  26.042  1.00  0.00     0.040 A 
ATOM     75  F   UNL A   1      47.622  26.260  28.021  1.00  0.00    -0.206 F 
ATOM     76  C   UNL A   1      48.944  25.949  24.664  1.00  0.00     0.006 A 
ENDBRANCH  55  69
BRANCH  56  77
ATOM     77  C   UNL A   1      39.098  31.275  30.952  1.00  0.00     0.057 A 
ATOM     78  C   UNL A   1      38.120  32.045  30.312  1.00  0.00     0.134 A 
ATOM     79  C   UNL A   1      38.978  31.103  32.338  1.00  0.00     0.134 A 
ATOM     80  F   UNL A   1      38.190  32.262  28.991  1.00  0.00    -0.206 F 
ATOM     81  C   UNL A   1      37.077  32.639  31.024  1.00  0.00     0.040 A 
ATOM     82  C   UNL A   1      37.924  31.669  33.057  1.00  0.00     0.040 A 
ATOM     83  F   UNL A   1      39.878  30.372  33.010  1.00  0.00    -0.206 F 
ATOM     84  C   UNL A   1      36.974  32.447  32.401  1.00  0.00     0.006 A 
ENDBRANCH  56  77
BRANCH  68  85
ATOM     85  C   UNL A   1      45.456  33.536  29.219  1.00  0.00     0.057 A 
ATOM     86  C   UNL A   1      45.336  34.612  28.331  1.00  0.00     0.134 A 
ATOM     87  C   UNL A   1      46.239  33.729  30.366  1.00  0.00     0.134 A 
ATOM     88  F   UNL A   1      44.610  34.490  27.209  1.00  0.00    -0.206 F 
ATOM     89  C   UNL A   1      45.994  35.822  28.558  1.00  0.00     0.040 A 
ATOM     90  C   UNL A   1      46.875  34.944  30.620  1.00  0.00     0.040 A 
ATOM     91  F   UNL A   1      46.387  32.743  31.265  1.00  0.00    -0.206 F 
ATOM     92  C   UNL A   1      46.761  35.991  29.710  1.00  0.00     0.006 A 
ENDBRANCH  68  85
ENDBRANCH  42  43
ENDBRANCH  35  37
ENDBRANCH  34  35
ENDBRANCH  33  34
ENDBRANCH  32  33
ENDBRANCH  31  32
ENDBRANCH  30  31
ENDBRANCH   1  30
TORSDOF 20
ENDMDL
