MODEL 1
REMARK VINA RESULT:      -9.1      0.000      0.000
REMARK SMILES Cc1c(CC(=O)OCCOCCOC(=O)c2ccc(-c3c4nc(c(-c5c(F)cccc5F)c5ccc([nH]5)c(-c5c(F)cccc5F)c5nc(c(-c6c(F)cccc6F)c6ccc3[nH]6)C=C5)C=C4)cc2)cc(-c2ccc(S(C)(=O)=O)cc2)n1-c1ccccc1
REMARK SMILES IDX 9 1 8 2 7 3 5 4 6 5 4 6 3 7 1 8 2 9 82 10 70 11 71 12 83 13
REMARK SMILES IDX 84 14 88 15 85 16 87 17 86 18 72 19 73 20 81 21 74 22 80 23
REMARK SMILES IDX 75 24 76 25 77 26 78 27 79 28 10 29 11 30 12 31 13 32 14 33
REMARK SMILES IDX 15 34 16 35 17 36 69 37 18 38 68 39 19 40 20 41 21 42 62 43
REMARK SMILES IDX 22 44 67 45 61 46 63 47 23 48 66 49 60 50 59 51 24 53 50 54
REMARK SMILES IDX 33 55 49 56 34 57 37 58 48 59 64 60 35 61 36 62 47 64 65 65
REMARK SMILES IDX 38 66 25 67 26 68 31 69 27 70 28 71 30 72 32 73 29 74 51 75
REMARK SMILES IDX 52 76 57 77 53 78 54 79 56 80 58 81 55 82 39 83 40 84 45 85
REMARK SMILES IDX 41 86 42 87 44 88 46 89 43 90
REMARK H PARENT 63 52 37 63
REMARK Flexibility Score: inf
ROOT
ATOM      1  C   UNL A   1      38.528  31.314  35.022  1.00  0.00     0.202 C 
ENDROOT
BRANCH   1   2
ATOM      2  C   UNL A   1      38.583  30.945  33.527  1.00  0.00     0.261 C 
BRANCH   2   3
ATOM      3  O   UNL A   1      37.325  30.474  32.994  1.00  0.00    -0.463 OA
BRANCH   3   4
ATOM      4  C   UNL A   1      37.302  29.180  32.567  1.00  0.00     0.310 C 
ATOM      5  O   UNL A   1      37.515  28.215  33.300  1.00  0.00    -0.252 OA
BRANCH   4   6
ATOM      6  C   UNL A   1      37.088  28.990  31.076  1.00  0.00     0.160 C 
BRANCH   6   7
ATOM      7  C   UNL A   1      38.249  28.603  30.186  1.00  0.00    -0.015 A 
ATOM      8  C   UNL A   1      38.778  30.792  28.866  1.00  0.00     0.065 C 
ATOM      9  C   UNL A   1      38.976  29.366  29.263  1.00  0.00     0.024 A 
ATOM     10  N   UNL A   1      39.894  28.536  28.606  1.00  0.00    -0.314 N 
ATOM     11  C   UNL A   1      38.678  27.264  30.000  1.00  0.00     0.033 A 
ATOM     12  C   UNL A   1      39.628  27.229  28.995  1.00  0.00     0.053 A 
BRANCH  10  13
ATOM     13  C   UNL A   1      40.919  28.922  27.676  1.00  0.00     0.046 A 
ATOM     14  C   UNL A   1      40.857  28.569  26.332  1.00  0.00     0.026 A 
ATOM     15  C   UNL A   1      42.090  29.521  28.136  1.00  0.00     0.026 A 
ATOM     16  C   UNL A   1      41.945  28.842  25.486  1.00  0.00     0.002 A 
ATOM     17  C   UNL A   1      43.188  29.774  27.313  1.00  0.00     0.002 A 
ATOM     18  C   UNL A   1      43.111  29.438  25.975  1.00  0.00     0.000 A 
ENDBRANCH  10  13
BRANCH  12  19
ATOM     19  C   UNL A   1      40.317  26.052  28.484  1.00  0.00    -0.001 A 
ATOM     20  C   UNL A   1      39.649  25.165  27.635  1.00  0.00     0.011 A 
ATOM     21  C   UNL A   1      41.656  25.824  28.825  1.00  0.00     0.011 A 
ATOM     22  C   UNL A   1      40.307  24.045  27.135  1.00  0.00     0.021 A 
ATOM     23  C   UNL A   1      42.320  24.699  28.335  1.00  0.00     0.021 A 
ATOM     24  C   UNL A   1      41.635  23.815  27.493  1.00  0.00     0.067 A 
BRANCH  24  25
ATOM     25  S   UNL A   1      42.502  22.415  26.825  1.00  0.00     0.175 S 
ATOM     26  C   UNL A   1      41.752  21.021  27.631  1.00  0.00     0.163 C 
ATOM     27  O   UNL A   1      42.118  22.353  25.394  1.00  0.00    -0.224 OA
ATOM     28  O   UNL A   1      43.855  22.485  27.219  1.00  0.00    -0.224 OA
ENDBRANCH  24  25
ENDBRANCH  12  19
ENDBRANCH   6   7
ENDBRANCH   4   6
ENDBRANCH   3   4
ENDBRANCH   2   3
ENDBRANCH   1   2
BRANCH   1  29
ATOM     29  O   UNL A   1      37.335  31.933  35.469  1.00  0.00    -0.374 OA
BRANCH  29  30
ATOM     30  C   UNL A   1      37.385  33.356  35.547  1.00  0.00     0.202 C 
BRANCH  30  31
ATOM     31  C   UNL A   1      36.299  34.208  34.782  1.00  0.00     0.261 C 
BRANCH  31  32
ATOM     32  O   UNL A   1      36.487  35.044  33.512  1.00  0.00    -0.460 OA
BRANCH  32  33
ATOM     33  C   UNL A   1      37.072  34.384  32.394  1.00  0.00     0.338 C 
ATOM     34  O   UNL A   1      36.361  33.653  31.701  1.00  0.00    -0.246 OA
BRANCH  33  35
ATOM     35  C   UNL A   1      38.651  34.454  31.929  1.00  0.00     0.060 A 
ATOM     36  C   UNL A   1      39.113  34.140  30.644  1.00  0.00     0.016 A 
ATOM     37  C   UNL A   1      39.750  34.337  32.826  1.00  0.00     0.016 A 
ATOM     38  C   UNL A   1      40.565  33.687  30.306  1.00  0.00     0.010 A 
ATOM     39  C   UNL A   1      41.182  33.810  32.499  1.00  0.00     0.010 A 
ATOM     40  C   UNL A   1      41.640  33.291  31.241  1.00  0.00    -0.014 A 
BRANCH  40  41
ATOM     41  C   UNL A   1      42.930  31.958  31.048  1.00  0.00     0.031 A 
ATOM     42  C   UNL A   1      44.668  32.232  30.228  1.00  0.00     0.074 A 
ATOM     43  C   UNL A   1      42.708  30.606  31.519  1.00  0.00     0.049 A 
ATOM     44  N   UNL A   1      45.726  32.273  31.028  1.00  0.00    -0.248 NA
ATOM     45  C   UNL A   1      45.603  33.370  29.287  1.00  0.00     0.031 C 
ATOM     46  C   UNL A   1      41.492  29.772  31.628  1.00  0.00     0.029 A 
ATOM     47  N   UNL A   1      43.608  29.626  32.070  1.00  0.00    -0.354 N 
ATOM     48  C   UNL A   1      45.798  33.651  31.348  1.00  0.00     0.074 A 
ATOM     49  C   UNL A   1      46.290  34.157  30.155  1.00  0.00     0.031 C 
ATOM     50  C   UNL A   1      41.743  28.530  32.186  1.00  0.00     0.029 A 
ATOM     51  C   UNL A   1      43.134  28.387  32.640  1.00  0.00     0.049 A 
ATOM     52  H   UNL A   1      44.575  29.807  32.057  1.00  0.00     0.167 HD
ATOM     53  C   UNL A   1      44.599  34.112  31.816  1.00  0.00     0.037 A 
ATOM     54  C   UNL A   1      43.898  27.384  33.296  1.00  0.00     0.037 A 
ATOM     55  C   UNL A   1      44.554  33.051  33.122  1.00  0.00     0.049 A 
ATOM     56  C   UNL A   1      45.314  27.859  33.476  1.00  0.00     0.074 A 
ATOM     57  C   UNL A   1      45.132  32.980  34.416  1.00  0.00     0.029 A 
ATOM     58  N   UNL A   1      44.838  31.640  32.941  1.00  0.00    -0.354 N 
ATOM     59  N   UNL A   1      46.224  27.898  32.550  1.00  0.00    -0.248 NA
ATOM     60  C   UNL A   1      45.844  28.228  34.803  1.00  0.00     0.031 C 
ATOM     61  C   UNL A   1      46.149  31.856  34.462  1.00  0.00     0.029 A 
ATOM     62  C   UNL A   1      46.148  31.206  33.229  1.00  0.00     0.049 A 
ATOM     63  H   UNL A   1      44.146  31.013  32.630  1.00  0.00     0.167 HD
ATOM     64  C   UNL A   1      47.025  28.915  32.999  1.00  0.00     0.074 A 
ATOM     65  C   UNL A   1      47.000  28.786  34.435  1.00  0.00     0.031 C 
ATOM     66  C   UNL A   1      46.789  30.075  32.323  1.00  0.00     0.037 A 
BRANCH  53  67
ATOM     67  C   UNL A   1      43.705  34.630  30.239  1.00  0.00     0.057 A 
ATOM     68  C   UNL A   1      43.553  36.010  29.998  1.00  0.00     0.134 A 
ATOM     69  C   UNL A   1      43.561  33.959  28.807  1.00  0.00     0.134 A 
ATOM     70  F   UNL A   1      43.607  36.874  31.016  1.00  0.00    -0.206 F 
ATOM     71  C   UNL A   1      43.552  36.590  28.655  1.00  0.00     0.040 A 
ATOM     72  C   UNL A   1      43.476  34.533  27.532  1.00  0.00     0.040 A 
ATOM     73  F   UNL A   1      43.711  32.653  28.499  1.00  0.00    -0.206 F 
ATOM     74  C   UNL A   1      43.570  35.875  27.445  1.00  0.00     0.006 A 
ENDBRANCH  53  67
BRANCH  54  75
ATOM     75  C   UNL A   1      43.907  25.972  33.997  1.00  0.00     0.057 A 
ATOM     76  C   UNL A   1      43.008  25.737  35.105  1.00  0.00     0.134 A 
ATOM     77  C   UNL A   1      44.309  24.788  33.375  1.00  0.00     0.134 A 
ATOM     78  F   UNL A   1      42.555  26.758  35.849  1.00  0.00    -0.206 F 
ATOM     79  C   UNL A   1      42.449  24.482  35.442  1.00  0.00     0.040 A 
ATOM     80  C   UNL A   1      43.794  23.508  33.744  1.00  0.00     0.040 A 
ATOM     81  F   UNL A   1      45.142  24.830  32.329  1.00  0.00    -0.206 F 
ATOM     82  C   UNL A   1      42.830  23.355  34.741  1.00  0.00     0.006 A 
ENDBRANCH  54  75
BRANCH  66  83
ATOM     83  C   UNL A   1      46.637  29.678  30.668  1.00  0.00     0.057 A 
ATOM     84  C   UNL A   1      45.798  28.655  30.070  1.00  0.00     0.134 A 
ATOM     85  C   UNL A   1      47.554  30.140  29.710  1.00  0.00     0.134 A 
ATOM     86  F   UNL A   1      44.895  27.961  30.751  1.00  0.00    -0.206 F 
ATOM     87  C   UNL A   1      45.827  28.172  28.747  1.00  0.00     0.040 A 
ATOM     88  C   UNL A   1      47.601  29.654  28.355  1.00  0.00     0.040 A 
ATOM     89  F   UNL A   1      48.480  31.047  30.043  1.00  0.00    -0.206 F 
ATOM     90  C   UNL A   1      46.750  28.663  27.872  1.00  0.00     0.006 A 
ENDBRANCH  66  83
ENDBRANCH  40  41
ENDBRANCH  33  35
ENDBRANCH  32  33
ENDBRANCH  31  32
ENDBRANCH  30  31
ENDBRANCH  29  30
ENDBRANCH   1  29
TORSDOF 18
ENDMDL
MODEL 2
REMARK VINA RESULT:      -8.7      5.762     10.008
REMARK SMILES Cc1c(CC(=O)OCCOCCOC(=O)c2ccc(-c3c4nc(c(-c5c(F)cccc5F)c5ccc([nH]5)c(-c5c(F)cccc5F)c5nc(c(-c6c(F)cccc6F)c6ccc3[nH]6)C=C5)C=C4)cc2)cc(-c2ccc(S(C)(=O)=O)cc2)n1-c1ccccc1
REMARK SMILES IDX 9 1 8 2 7 3 5 4 6 5 4 6 3 7 1 8 2 9 82 10 70 11 71 12 83 13
REMARK SMILES IDX 84 14 88 15 85 16 87 17 86 18 72 19 73 20 81 21 74 22 80 23
REMARK SMILES IDX 75 24 76 25 77 26 78 27 79 28 10 29 11 30 12 31 13 32 14 33
REMARK SMILES IDX 15 34 16 35 17 36 69 37 18 38 68 39 19 40 20 41 21 42 62 43
REMARK SMILES IDX 22 44 67 45 61 46 63 47 23 48 66 49 60 50 59 51 24 53 50 54
REMARK SMILES IDX 33 55 49 56 34 57 37 58 48 59 64 60 35 61 36 62 47 64 65 65
REMARK SMILES IDX 38 66 25 67 26 68 31 69 27 70 28 71 30 72 32 73 29 74 51 75
REMARK SMILES IDX 52 76 57 77 53 78 54 79 56 80 58 81 55 82 39 83 40 84 45 85
REMARK SMILES IDX 41 86 42 87 44 88 46 89 43 90
REMARK H PARENT 63 52 37 63
REMARK Flexibility Score: inf
ROOT
ATOM      1  C   UNL A   1      36.352  21.486  25.536  1.00  0.00     0.202 C 
ENDROOT
BRANCH   1   2
ATOM      2  C   UNL A   1      35.152  21.312  24.586  1.00  0.00     0.261 C 
BRANCH   2   3
ATOM      3  O   UNL A   1      33.874  21.269  25.262  1.00  0.00    -0.463 OA
BRANCH   3   4
ATOM      4  C   UNL A   1      32.824  20.802  24.529  1.00  0.00     0.310 C 
ATOM      5  O   UNL A   1      32.913  19.878  23.721  1.00  0.00    -0.252 OA
BRANCH   4   6
ATOM      6  C   UNL A   1      31.523  21.566  24.695  1.00  0.00     0.160 C 
BRANCH   6   7
ATOM      7  C   UNL A   1      31.539  23.075  24.816  1.00  0.00    -0.015 A 
ATOM      8  C   UNL A   1      32.838  23.508  27.039  1.00  0.00     0.065 C 
ATOM      9  C   UNL A   1      32.107  23.898  25.796  1.00  0.00     0.024 A 
ATOM     10  N   UNL A   1      31.768  25.231  25.525  1.00  0.00    -0.314 N 
ATOM     11  C   UNL A   1      30.759  23.932  23.999  1.00  0.00     0.033 A 
ATOM     12  C   UNL A   1      30.855  25.225  24.478  1.00  0.00     0.053 A 
BRANCH  10  13
ATOM     13  C   UNL A   1      32.238  26.411  26.197  1.00  0.00     0.046 A 
ATOM     14  C   UNL A   1      31.398  27.178  26.998  1.00  0.00     0.026 A 
ATOM     15  C   UNL A   1      33.510  26.910  25.927  1.00  0.00     0.026 A 
ATOM     16  C   UNL A   1      31.855  28.398  27.523  1.00  0.00     0.002 A 
ATOM     17  C   UNL A   1      33.967  28.133  26.419  1.00  0.00     0.002 A 
ATOM     18  C   UNL A   1      33.134  28.879  27.231  1.00  0.00     0.000 A 
ENDBRANCH  10  13
BRANCH  12  19
ATOM     19  C   UNL A   1      30.201  26.409  23.938  1.00  0.00    -0.001 A 
ATOM     20  C   UNL A   1      28.810  26.530  24.004  1.00  0.00     0.011 A 
ATOM     21  C   UNL A   1      30.969  27.435  23.376  1.00  0.00     0.011 A 
ATOM     22  C   UNL A   1      28.182  27.665  23.499  1.00  0.00     0.021 A 
ATOM     23  C   UNL A   1      30.347  28.572  22.859  1.00  0.00     0.021 A 
ATOM     24  C   UNL A   1      28.953  28.675  22.924  1.00  0.00     0.067 A 
BRANCH  24  25
ATOM     25  S   UNL A   1      28.168  30.151  22.318  1.00  0.00     0.175 S 
ATOM     26  C   UNL A   1      29.370  31.426  22.608  1.00  0.00     0.163 C 
ATOM     27  O   UNL A   1      28.064  29.973  20.849  1.00  0.00    -0.224 OA
ATOM     28  O   UNL A   1      27.030  30.419  23.106  1.00  0.00    -0.224 OA
ENDBRANCH  24  25
ENDBRANCH  12  19
ENDBRANCH   6   7
ENDBRANCH   4   6
ENDBRANCH   3   4
ENDBRANCH   2   3
ENDBRANCH   1   2
BRANCH   1  29
ATOM     29  O   UNL A   1      37.588  20.961  25.085  1.00  0.00    -0.374 OA
BRANCH  29  30
ATOM     30  C   UNL A   1      38.746  21.538  25.686  1.00  0.00     0.202 C 
BRANCH  30  31
ATOM     31  C   UNL A   1      39.935  20.598  26.125  1.00  0.00     0.261 C 
BRANCH  31  32
ATOM     32  O   UNL A   1      41.321  21.013  26.629  1.00  0.00    -0.460 OA
BRANCH  32  33
ATOM     33  C   UNL A   1      41.773  22.312  26.259  1.00  0.00     0.338 C 
ATOM     34  O   UNL A   1      42.520  22.422  25.285  1.00  0.00    -0.246 OA
BRANCH  33  35
ATOM     35  C   UNL A   1      41.434  23.726  27.033  1.00  0.00     0.060 A 
ATOM     36  C   UNL A   1      40.890  24.859  26.413  1.00  0.00     0.016 A 
ATOM     37  C   UNL A   1      42.081  24.154  28.227  1.00  0.00     0.016 A 
ATOM     38  C   UNL A   1      41.041  26.318  26.935  1.00  0.00     0.010 A 
ATOM     39  C   UNL A   1      42.297  25.623  28.707  1.00  0.00     0.010 A 
ATOM     40  C   UNL A   1      41.930  26.820  28.005  1.00  0.00    -0.014 A 
BRANCH  40  41
ATOM     41  C   UNL A   1      42.863  28.433  28.094  1.00  0.00     0.031 A 
ATOM     42  C   UNL A   1      42.208  30.024  28.992  1.00  0.00     0.074 A 
ATOM     43  C   UNL A   1      44.170  28.594  27.490  1.00  0.00     0.049 A 
ATOM     44  N   UNL A   1      42.768  30.352  30.149  1.00  0.00    -0.248 NA
ATOM     45  C   UNL A   1      40.786  30.726  29.726  1.00  0.00     0.031 C 
ATOM     46  C   UNL A   1      44.797  28.002  26.289  1.00  0.00     0.029 A 
ATOM     47  N   UNL A   1      45.315  29.374  27.883  1.00  0.00    -0.354 N 
ATOM     48  C   UNL A   1      41.961  29.648  31.076  1.00  0.00     0.074 A 
ATOM     49  C   UNL A   1      40.816  30.429  31.051  1.00  0.00     0.031 C 
ATOM     50  C   UNL A   1      46.106  28.416  26.109  1.00  0.00     0.029 A 
ATOM     51  C   UNL A   1      46.590  29.250  27.218  1.00  0.00     0.049 A 
ATOM     52  H   UNL A   1      45.225  30.010  28.628  1.00  0.00     0.167 HD
ATOM     53  C   UNL A   1      41.865  28.326  30.741  1.00  0.00     0.037 A 
ATOM     54  C   UNL A   1      47.815  29.885  27.561  1.00  0.00     0.037 A 
ATOM     55  C   UNL A   1      43.522  28.047  30.842  1.00  0.00     0.049 A 
ATOM     56  C   UNL A   1      47.659  30.620  28.864  1.00  0.00     0.074 A 
ATOM     57  C   UNL A   1      44.468  27.808  31.871  1.00  0.00     0.029 A 
ATOM     58  N   UNL A   1      44.465  28.951  30.213  1.00  0.00    -0.354 N 
ATOM     59  N   UNL A   1      47.063  31.763  29.022  1.00  0.00    -0.248 NA
ATOM     60  C   UNL A   1      48.298  30.142  30.105  1.00  0.00     0.031 C 
ATOM     61  C   UNL A   1      45.390  29.005  32.008  1.00  0.00     0.029 A 
ATOM     62  C   UNL A   1      45.051  29.938  31.030  1.00  0.00     0.049 A 
ATOM     63  H   UNL A   1      44.686  28.878  29.257  1.00  0.00     0.167 HD
ATOM     64  C   UNL A   1      46.650  31.676  30.325  1.00  0.00     0.074 A 
ATOM     65  C   UNL A   1      47.701  30.946  30.988  1.00  0.00     0.031 C 
ATOM     66  C   UNL A   1      45.323  31.372  30.412  1.00  0.00     0.037 A 
BRANCH  53  67
ATOM     67  C   UNL A   1      40.380  28.295  29.580  1.00  0.00     0.057 A 
ATOM     68  C   UNL A   1      39.127  27.961  30.131  1.00  0.00     0.134 A 
ATOM     69  C   UNL A   1      40.030  29.090  28.250  1.00  0.00     0.134 A 
ATOM     70  F   UNL A   1      39.064  27.263  31.268  1.00  0.00    -0.206 F 
ATOM     71  C   UNL A   1      37.866  28.522  29.644  1.00  0.00     0.040 A 
ATOM     72  C   UNL A   1      38.801  29.547  27.755  1.00  0.00     0.040 A 
ATOM     73  F   UNL A   1      40.895  29.691  27.407  1.00  0.00    -0.206 F 
ATOM     74  C   UNL A   1      37.708  29.344  28.515  1.00  0.00     0.006 A 
ENDBRANCH  53  67
BRANCH  54  75
ATOM     75  C   UNL A   1      49.333  30.116  27.204  1.00  0.00     0.057 A 
ATOM     76  C   UNL A   1      49.844  31.468  27.163  1.00  0.00     0.134 A 
ATOM     77  C   UNL A   1      50.341  29.171  27.409  1.00  0.00     0.134 A 
ATOM     78  F   UNL A   1      49.023  32.504  26.929  1.00  0.00    -0.206 F 
ATOM     79  C   UNL A   1      51.176  31.840  27.458  1.00  0.00     0.040 A 
ATOM     80  C   UNL A   1      51.701  29.532  27.652  1.00  0.00     0.040 A 
ATOM     81  F   UNL A   1      50.037  27.869  27.473  1.00  0.00    -0.206 F 
ATOM     82  C   UNL A   1      52.114  30.864  27.726  1.00  0.00     0.006 A 
ENDBRANCH  54  75
BRANCH  66  83
ATOM     83  C   UNL A   1      44.507  32.314  29.242  1.00  0.00     0.057 A 
ATOM     84  C   UNL A   1      44.782  32.402  27.819  1.00  0.00     0.134 A 
ATOM     85  C   UNL A   1      43.629  33.347  29.608  1.00  0.00     0.134 A 
ATOM     86  F   UNL A   1      45.651  31.619  27.193  1.00  0.00    -0.206 F 
ATOM     87  C   UNL A   1      44.269  33.330  26.892  1.00  0.00     0.040 A 
ATOM     88  C   UNL A   1      43.099  34.307  28.674  1.00  0.00     0.040 A 
ATOM     89  F   UNL A   1      43.275  33.512  30.888  1.00  0.00    -0.206 F 
ATOM     90  C   UNL A   1      43.424  34.312  27.320  1.00  0.00     0.006 A 
ENDBRANCH  66  83
ENDBRANCH  40  41
ENDBRANCH  33  35
ENDBRANCH  32  33
ENDBRANCH  31  32
ENDBRANCH  30  31
ENDBRANCH  29  30
ENDBRANCH   1  29
TORSDOF 18
ENDMDL
MODEL 3
REMARK VINA RESULT:      -8.7      3.592      8.927
REMARK SMILES Cc1c(CC(=O)OCCOCCOC(=O)c2ccc(-c3c4nc(c(-c5c(F)cccc5F)c5ccc([nH]5)c(-c5c(F)cccc5F)c5nc(c(-c6c(F)cccc6F)c6ccc3[nH]6)C=C5)C=C4)cc2)cc(-c2ccc(S(C)(=O)=O)cc2)n1-c1ccccc1
REMARK SMILES IDX 9 1 8 2 7 3 5 4 6 5 4 6 3 7 1 8 2 9 82 10 70 11 71 12 83 13
REMARK SMILES IDX 84 14 88 15 85 16 87 17 86 18 72 19 73 20 81 21 74 22 80 23
REMARK SMILES IDX 75 24 76 25 77 26 78 27 79 28 10 29 11 30 12 31 13 32 14 33
REMARK SMILES IDX 15 34 16 35 17 36 69 37 18 38 68 39 19 40 20 41 21 42 62 43
REMARK SMILES IDX 22 44 67 45 61 46 63 47 23 48 66 49 60 50 59 51 24 53 50 54
REMARK SMILES IDX 33 55 49 56 34 57 37 58 48 59 64 60 35 61 36 62 47 64 65 65
REMARK SMILES IDX 38 66 25 67 26 68 31 69 27 70 28 71 30 72 32 73 29 74 51 75
REMARK SMILES IDX 52 76 57 77 53 78 54 79 56 80 58 81 55 82 39 83 40 84 45 85
REMARK SMILES IDX 41 86 42 87 44 88 46 89 43 90
REMARK H PARENT 63 52 37 63
REMARK Flexibility Score: inf
ROOT
ATOM      1  C   UNL A   1      45.296  24.680  36.755  1.00  0.00     0.202 C 
ENDROOT
BRANCH   1   2
ATOM      2  C   UNL A   1      44.138  25.292  35.943  1.00  0.00     0.261 C 
BRANCH   2   3
ATOM      3  O   UNL A   1      42.840  25.120  36.556  1.00  0.00    -0.463 OA
BRANCH   3   4
ATOM      4  C   UNL A   1      41.779  25.621  35.863  1.00  0.00     0.310 C 
ATOM      5  O   UNL A   1      40.606  25.440  36.184  1.00  0.00    -0.252 OA
BRANCH   4   6
ATOM      6  C   UNL A   1      42.129  26.357  34.582  1.00  0.00     0.160 C 
BRANCH   6   7
ATOM      7  C   UNL A   1      41.506  27.705  34.286  1.00  0.00    -0.015 A 
ATOM      8  C   UNL A   1      42.051  29.121  36.411  1.00  0.00     0.065 C 
ATOM      9  C   UNL A   1      41.485  28.879  35.050  1.00  0.00     0.024 A 
ATOM     10  N   UNL A   1      40.694  29.834  34.396  1.00  0.00    -0.314 N 
ATOM     11  C   UNL A   1      40.623  27.936  33.201  1.00  0.00     0.033 A 
ATOM     12  C   UNL A   1      40.088  29.205  33.316  1.00  0.00     0.053 A 
BRANCH  10  13
ATOM     13  C   UNL A   1      40.501  31.210  34.760  1.00  0.00     0.046 A 
ATOM     14  C   UNL A   1      39.339  31.642  35.392  1.00  0.00     0.026 A 
ATOM     15  C   UNL A   1      41.406  32.180  34.334  1.00  0.00     0.026 A 
ATOM     16  C   UNL A   1      39.127  33.015  35.602  1.00  0.00     0.002 A 
ATOM     17  C   UNL A   1      41.195  33.547  34.512  1.00  0.00     0.002 A 
ATOM     18  C   UNL A   1      40.049  33.967  35.159  1.00  0.00     0.000 A 
ENDBRANCH  10  13
BRANCH  12  19
ATOM     19  C   UNL A   1      39.130  29.836  32.418  1.00  0.00    -0.001 A 
ATOM     20  C   UNL A   1      39.557  30.821  31.521  1.00  0.00     0.011 A 
ATOM     21  C   UNL A   1      37.789  29.438  32.436  1.00  0.00     0.011 A 
ATOM     22  C   UNL A   1      38.648  31.418  30.653  1.00  0.00     0.021 A 
ATOM     23  C   UNL A   1      36.869  30.038  31.575  1.00  0.00     0.021 A 
ATOM     24  C   UNL A   1      37.309  31.028  30.690  1.00  0.00     0.067 A 
BRANCH  24  25
ATOM     25  S   UNL A   1      36.146  31.748  29.555  1.00  0.00     0.175 S 
ATOM     26  C   UNL A   1      35.814  30.445  28.396  1.00  0.00     0.163 C 
ATOM     27  O   UNL A   1      34.905  31.965  30.339  1.00  0.00    -0.224 OA
ATOM     28  O   UNL A   1      36.774  32.809  28.870  1.00  0.00    -0.224 OA
ENDBRANCH  24  25
ENDBRANCH  12  19
ENDBRANCH   6   7
ENDBRANCH   4   6
ENDBRANCH   3   4
ENDBRANCH   2   3
ENDBRANCH   1   2
BRANCH   1  29
ATOM     29  O   UNL A   1      45.908  23.529  36.201  1.00  0.00    -0.374 OA
BRANCH  29  30
ATOM     30  C   UNL A   1      47.136  23.141  36.817  1.00  0.00     0.202 C 
BRANCH  30  31
ATOM     31  C   UNL A   1      48.379  22.800  35.907  1.00  0.00     0.261 C 
BRANCH  31  32
ATOM     32  O   UNL A   1      49.506  23.741  35.468  1.00  0.00    -0.460 OA
BRANCH  32  33
ATOM     33  C   UNL A   1      49.520  24.123  34.096  1.00  0.00     0.338 C 
ATOM     34  O   UNL A   1      50.290  23.541  33.329  1.00  0.00    -0.246 OA
BRANCH  33  35
ATOM     35  C   UNL A   1      48.628  25.322  33.402  1.00  0.00     0.060 A 
ATOM     36  C   UNL A   1      47.414  25.802  33.912  1.00  0.00     0.016 A 
ATOM     37  C   UNL A   1      48.678  25.653  32.018  1.00  0.00     0.016 A 
ATOM     38  C   UNL A   1      46.313  26.512  33.070  1.00  0.00     0.010 A 
ATOM     39  C   UNL A   1      47.543  26.294  31.161  1.00  0.00     0.010 A 
ATOM     40  C   UNL A   1      46.215  26.619  31.598  1.00  0.00    -0.014 A 
BRANCH  40  41
ATOM     41  C   UNL A   1      44.696  26.560  30.517  1.00  0.00     0.031 A 
ATOM     42  C   UNL A   1      43.740  28.129  29.891  1.00  0.00     0.074 A 
ATOM     43  C   UNL A   1      44.131  25.306  30.061  1.00  0.00     0.049 A 
ATOM     44  N   UNL A   1      43.875  28.464  28.614  1.00  0.00    -0.248 NA
ATOM     45  C   UNL A   1      43.603  29.858  30.108  1.00  0.00     0.031 C 
ATOM     46  C   UNL A   1      44.066  23.959  30.666  1.00  0.00     0.029 A 
ATOM     47  N   UNL A   1      43.462  24.948  28.837  1.00  0.00    -0.354 N 
ATOM     48  C   UNL A   1      45.003  29.320  28.654  1.00  0.00     0.074 A 
ATOM     49  C   UNL A   1      44.435  30.453  29.214  1.00  0.00     0.031 C 
ATOM     50  C   UNL A   1      43.458  23.029  29.841  1.00  0.00     0.029 A 
ATOM     51  C   UNL A   1      43.129  23.580  28.518  1.00  0.00     0.049 A 
ATOM     52  H   UNL A   1      43.224  25.658  28.198  1.00  0.00     0.167 HD
ATOM     53  C   UNL A   1      46.053  28.723  29.294  1.00  0.00     0.037 A 
ATOM     54  C   UNL A   1      42.558  23.081  27.315  1.00  0.00     0.037 A 
ATOM     55  C   UNL A   1      46.142  27.431  28.218  1.00  0.00     0.049 A 
ATOM     56  C   UNL A   1      42.480  24.184  26.295  1.00  0.00     0.074 A 
ATOM     57  C   UNL A   1      46.682  27.197  26.927  1.00  0.00     0.029 A 
ATOM     58  N   UNL A   1      44.947  26.709  27.826  1.00  0.00    -0.354 N 
ATOM     59  N   UNL A   1      41.599  25.138  26.276  1.00  0.00    -0.248 NA
ATOM     60  C   UNL A   1      43.363  24.209  25.113  1.00  0.00     0.031 C 
ATOM     61  C   UNL A   1      45.557  27.019  25.926  1.00  0.00     0.029 A 
ATOM     62  C   UNL A   1      44.343  27.080  26.608  1.00  0.00     0.049 A 
ATOM     63  H   UNL A   1      44.573  25.992  28.386  1.00  0.00     0.167 HD
ATOM     64  C   UNL A   1      42.289  26.131  25.632  1.00  0.00     0.074 A 
ATOM     65  C   UNL A   1      43.098  25.437  24.661  1.00  0.00     0.031 C 
ATOM     66  C   UNL A   1      42.762  27.063  26.508  1.00  0.00     0.037 A 
BRANCH  53  67
ATOM     67  C   UNL A   1      45.764  29.190  31.098  1.00  0.00     0.057 A 
ATOM     68  C   UNL A   1      46.605  30.170  31.661  1.00  0.00     0.134 A 
ATOM     69  C   UNL A   1      44.470  29.199  32.019  1.00  0.00     0.134 A 
ATOM     70  F   UNL A   1      47.805  30.407  31.123  1.00  0.00    -0.206 F 
ATOM     71  C   UNL A   1      46.157  31.112  32.687  1.00  0.00     0.040 A 
ATOM     72  C   UNL A   1      44.094  30.061  33.057  1.00  0.00     0.040 A 
ATOM     73  F   UNL A   1      43.337  28.488  31.841  1.00  0.00    -0.206 F 
ATOM     74  C   UNL A   1      44.909  31.097  33.334  1.00  0.00     0.006 A 
ENDBRANCH  53  67
BRANCH  54  75
ATOM     75  C   UNL A   1      42.011  21.831  26.528  1.00  0.00     0.057 A 
ATOM     76  C   UNL A   1      42.949  20.843  26.045  1.00  0.00     0.134 A 
ATOM     77  C   UNL A   1      40.720  21.315  26.672  1.00  0.00     0.134 A 
ATOM     78  F   UNL A   1      44.228  21.172  25.803  1.00  0.00    -0.206 F 
ATOM     79  C   UNL A   1      42.666  19.466  25.885  1.00  0.00     0.040 A 
ATOM     80  C   UNL A   1      40.410  19.938  26.459  1.00  0.00     0.040 A 
ATOM     81  F   UNL A   1      39.730  22.100  27.112  1.00  0.00    -0.206 F 
ATOM     82  C   UNL A   1      41.386  19.001  26.114  1.00  0.00     0.006 A 
ENDBRANCH  54  75
BRANCH  66  83
ATOM     83  C   UNL A   1      41.517  27.381  27.635  1.00  0.00     0.057 A 
ATOM     84  C   UNL A   1      40.815  26.430  28.479  1.00  0.00     0.134 A 
ATOM     85  C   UNL A   1      40.835  28.608  27.656  1.00  0.00     0.134 A 
ATOM     86  F   UNL A   1      41.164  25.155  28.590  1.00  0.00    -0.206 F 
ATOM     87  C   UNL A   1      39.649  26.641  29.241  1.00  0.00     0.040 A 
ATOM     88  C   UNL A   1      39.639  28.840  28.425  1.00  0.00     0.040 A 
ATOM     89  F   UNL A   1      41.258  29.629  26.901  1.00  0.00    -0.206 F 
ATOM     90  C   UNL A   1      39.035  27.859  29.208  1.00  0.00     0.006 A 
ENDBRANCH  66  83
ENDBRANCH  40  41
ENDBRANCH  33  35
ENDBRANCH  32  33
ENDBRANCH  31  32
ENDBRANCH  30  31
ENDBRANCH  29  30
ENDBRANCH   1  29
TORSDOF 18
ENDMDL
