MODEL 1
REMARK VINA RESULT:     -11.9      0.000      0.000
REMARK SMILES O=C(OCCOCCOC(=O)[C@H]1CCCN(c2nc(-c3ccco3)cc(C(F)(F)F)n2)C1)c1ccc(-c2c3nc(c(-c4c(F)cccc4F)c4ccc([nH]4)c(-c4c(F)cccc4F)c4nc(c(-c5c(F)cccc5F)c5ccc2[nH]5)C=C4)C=C3)cc1
REMARK SMILES IDX 6 1 5 2 4 3 3 4 2 5 1 6 33 7 34 8 86 9 35 10 85 11 36 12
REMARK SMILES IDX 37 13 38 14 79 15 39 16 84 17 78 18 80 19 40 20 83 21 77 22
REMARK SMILES IDX 76 23 41 25 67 26 50 27 66 28 51 29 54 30 65 31 81 32 52 33
REMARK SMILES IDX 53 34 64 36 82 37 55 38 42 39 43 40 48 41 44 42 45 43 47 44
REMARK SMILES IDX 49 45 46 46 68 47 69 48 74 49 70 50 71 51 73 52 75 53 72 54
REMARK SMILES IDX 56 55 57 56 62 57 58 58 59 59 61 60 63 61 60 62 7 63 8 64
REMARK SMILES IDX 9 65 10 66 11 67 12 68 13 69 32 70 14 71 16 72 15 73 17 74
REMARK SMILES IDX 18 75 31 76 19 77 26 78 25 79 20 80 21 81 24 82 22 83 23 84
REMARK SMILES IDX 27 85 28 86 29 87 30 88
REMARK H PARENT 80 24 54 35
REMARK Flexibility Score: inf
ROOT
ATOM      1  O   UNL A   1      43.264  20.927  25.096  1.00  0.00    -0.374 OA
ENDROOT
BRANCH   1   2
ATOM      2  C   UNL A   1      44.620  21.359  24.932  1.00  0.00     0.202 C 
BRANCH   2   3
ATOM      3  C   UNL A   1      44.883  22.576  24.031  1.00  0.00     0.261 C 
BRANCH   3   4
ATOM      4  O   UNL A   1      44.085  23.704  24.423  1.00  0.00    -0.460 OA
BRANCH   4   5
ATOM      5  C   UNL A   1      44.503  24.855  25.003  1.00  0.00     0.338 C 
ATOM      6  O   UNL A   1      45.588  25.325  24.671  1.00  0.00    -0.246 OA
BRANCH   5   7
ATOM      7  C   UNL A   1      43.704  25.587  26.033  1.00  0.00     0.060 A 
ATOM      8  C   UNL A   1      43.766  26.961  26.254  1.00  0.00     0.016 A 
ATOM      9  C   UNL A   1      42.784  24.843  26.789  1.00  0.00     0.016 A 
ATOM     10  C   UNL A   1      43.032  27.578  27.240  1.00  0.00     0.010 A 
ATOM     11  C   UNL A   1      42.004  25.461  27.772  1.00  0.00     0.010 A 
ATOM     12  C   UNL A   1      42.161  26.828  28.013  1.00  0.00    -0.014 A 
BRANCH  12  13
ATOM     13  C   UNL A   1      41.616  27.523  29.181  1.00  0.00     0.031 A 
ATOM     14  C   UNL A   1      42.443  27.519  30.428  1.00  0.00     0.074 A 
ATOM     15  C   UNL A   1      40.562  28.340  29.015  1.00  0.00     0.049 A 
ATOM     16  N   UNL A   1      42.227  28.117  31.565  1.00  0.00    -0.248 NA
ATOM     17  C   UNL A   1      43.707  26.760  30.376  1.00  0.00     0.031 C 
ATOM     18  C   UNL A   1      39.837  28.533  27.754  1.00  0.00     0.029 A 
ATOM     19  N   UNL A   1      39.964  29.208  29.881  1.00  0.00    -0.354 N 
ATOM     20  C   UNL A   1      43.303  27.777  32.373  1.00  0.00     0.074 A 
ATOM     21  C   UNL A   1      44.176  26.926  31.601  1.00  0.00     0.031 C 
ATOM     22  C   UNL A   1      38.909  29.487  27.926  1.00  0.00     0.029 A 
ATOM     23  C   UNL A   1      38.929  29.914  29.318  1.00  0.00     0.049 A 
ATOM     24  H   UNL A   1      40.247  29.319  30.818  1.00  0.00     0.167 HD
ATOM     25  C   UNL A   1      43.521  28.140  33.657  1.00  0.00     0.037 A 
ATOM     26  C   UNL A   1      38.079  30.783  29.893  1.00  0.00     0.037 A 
ATOM     27  C   UNL A   1      42.625  28.996  34.382  1.00  0.00     0.049 A 
ATOM     28  C   UNL A   1      38.279  31.077  31.354  1.00  0.00     0.074 A 
ATOM     29  C   UNL A   1      42.674  29.380  35.707  1.00  0.00     0.029 A 
ATOM     30  N   UNL A   1      41.506  29.604  33.824  1.00  0.00    -0.354 N 
ATOM     31  N   UNL A   1      39.238  30.672  32.155  1.00  0.00    -0.248 NA
ATOM     32  C   UNL A   1      37.275  31.930  31.997  1.00  0.00     0.031 C 
ATOM     33  C   UNL A   1      41.552  30.178  35.963  1.00  0.00     0.029 A 
ATOM     34  C   UNL A   1      40.841  30.344  34.782  1.00  0.00     0.049 A 
ATOM     35  H   UNL A   1      41.227  29.518  32.883  1.00  0.00     0.167 HD
ATOM     36  C   UNL A   1      38.972  31.244  33.390  1.00  0.00     0.074 A 
ATOM     37  C   UNL A   1      37.766  32.035  33.223  1.00  0.00     0.031 C 
ATOM     38  C   UNL A   1      39.652  31.129  34.558  1.00  0.00     0.037 A 
BRANCH  25  39
ATOM     39  C   UNL A   1      44.699  27.521  34.347  1.00  0.00     0.057 A 
ATOM     40  C   UNL A   1      44.637  26.274  34.981  1.00  0.00     0.134 A 
ATOM     41  C   UNL A   1      45.906  28.227  34.432  1.00  0.00     0.134 A 
ATOM     42  F   UNL A   1      43.499  25.561  34.972  1.00  0.00    -0.206 F 
ATOM     43  C   UNL A   1      45.723  25.764  35.699  1.00  0.00     0.040 A 
ATOM     44  C   UNL A   1      47.006  27.717  35.123  1.00  0.00     0.040 A 
ATOM     45  F   UNL A   1      46.031  29.434  33.861  1.00  0.00    -0.206 F 
ATOM     46  C   UNL A   1      46.912  26.486  35.768  1.00  0.00     0.006 A 
ENDBRANCH  25  39
BRANCH  26  47
ATOM     47  C   UNL A   1      36.958  31.373  29.118  1.00  0.00     0.057 A 
ATOM     48  C   UNL A   1      36.980  32.705  28.690  1.00  0.00     0.134 A 
ATOM     49  C   UNL A   1      35.816  30.620  28.806  1.00  0.00     0.134 A 
ATOM     50  F   UNL A   1      38.034  33.486  28.969  1.00  0.00    -0.206 F 
ATOM     51  C   UNL A   1      35.904  33.272  28.002  1.00  0.00     0.040 A 
ATOM     52  C   UNL A   1      34.747  31.165  28.093  1.00  0.00     0.040 A 
ATOM     53  F   UNL A   1      35.726  29.336  29.183  1.00  0.00    -0.206 F 
ATOM     54  C   UNL A   1      34.785  32.499  27.698  1.00  0.00     0.006 A 
ENDBRANCH  26  47
BRANCH  38  55
ATOM     55  C   UNL A   1      39.132  31.925  35.716  1.00  0.00     0.057 A 
ATOM     56  C   UNL A   1      38.241  31.386  36.650  1.00  0.00     0.134 A 
ATOM     57  C   UNL A   1      39.567  33.243  35.912  1.00  0.00     0.134 A 
ATOM     58  F   UNL A   1      37.780  30.133  36.508  1.00  0.00    -0.206 F 
ATOM     59  C   UNL A   1      37.774  32.141  37.725  1.00  0.00     0.040 A 
ATOM     60  C   UNL A   1      39.133  33.996  37.002  1.00  0.00     0.040 A 
ATOM     61  F   UNL A   1      40.430  33.811  35.056  1.00  0.00    -0.206 F 
ATOM     62  C   UNL A   1      38.227  33.446  37.906  1.00  0.00     0.006 A 
ENDBRANCH  38  55
ENDBRANCH  12  13
ENDBRANCH   5   7
ENDBRANCH   4   5
ENDBRANCH   3   4
ENDBRANCH   2   3
ENDBRANCH   1   2
BRANCH   1  63
ATOM     63  C   UNL A   1      43.057  19.576  25.530  1.00  0.00     0.202 C 
BRANCH  63  64
ATOM     64  C   UNL A   1      41.578  19.322  25.824  1.00  0.00     0.261 C 
BRANCH  64  65
ATOM     65  O   UNL A   1      40.911  20.585  25.759  1.00  0.00    -0.463 OA
BRANCH  65  66
ATOM     66  C   UNL A   1      40.447  21.026  26.955  1.00  0.00     0.310 C 
ATOM     67  O   UNL A   1      40.983  20.813  28.037  1.00  0.00    -0.252 OA
BRANCH  66  68
ATOM     68  C   UNL A   1      39.226  21.895  26.780  1.00  0.00     0.119 C 
ATOM     69  C   UNL A   1      39.521  23.352  26.348  1.00  0.00     0.019 C 
ATOM     70  C   UNL A   1      38.310  21.198  25.792  1.00  0.00     0.135 C 
ATOM     71  C   UNL A   1      38.229  24.131  26.095  1.00  0.00     0.022 C 
ATOM     72  N   UNL A   1      37.181  22.059  25.534  1.00  0.00    -0.340 N 
ATOM     73  C   UNL A   1      37.387  23.401  25.051  1.00  0.00     0.120 C 
BRANCH  72  74
ATOM     74  C   UNL A   1      35.931  21.539  25.642  1.00  0.00     0.226 A 
ATOM     75  N   UNL A   1      35.655  20.398  25.002  1.00  0.00    -0.210 NA
ATOM     76  N   UNL A   1      35.031  22.255  26.317  1.00  0.00    -0.208 NA
ATOM     77  C   UNL A   1      34.388  19.958  25.059  1.00  0.00     0.112 A 
ATOM     78  C   UNL A   1      33.748  21.828  26.312  1.00  0.00     0.150 A 
ATOM     79  C   UNL A   1      33.379  20.657  25.682  1.00  0.00     0.066 A 
BRANCH  77  80
ATOM     80  C   UNL A   1      34.117  18.690  24.404  1.00  0.00     0.152 A 
ATOM     81  C   UNL A   1      34.833  17.517  24.253  1.00  0.00     0.052 A 
ATOM     82  O   UNL A   1      32.948  18.608  23.698  1.00  0.00    -0.463 OA
ATOM     83  C   UNL A   1      34.068  16.682  23.403  1.00  0.00     0.043 A 
ATOM     84  C   UNL A   1      32.933  17.393  23.090  1.00  0.00     0.196 A 
ENDBRANCH  77  80
BRANCH  78  85
ATOM     85  C   UNL A   1      32.708  22.708  26.968  1.00  0.00     0.433 C 
ATOM     86  F   UNL A   1      32.897  24.037  26.733  1.00  0.00    -0.165 F 
ATOM     87  F   UNL A   1      31.441  22.426  26.547  1.00  0.00    -0.165 F 
ATOM     88  F   UNL A   1      32.676  22.577  28.327  1.00  0.00    -0.165 F 
ENDBRANCH  78  85
ENDBRANCH  72  74
ENDBRANCH  66  68
ENDBRANCH  65  66
ENDBRANCH  64  65
ENDBRANCH  63  64
ENDBRANCH   1  63
TORSDOF 17
ENDMDL
MODEL 2
REMARK VINA RESULT:     -11.7      3.655      8.457
REMARK SMILES O=C(OCCOCCOC(=O)[C@H]1CCCN(c2nc(-c3ccco3)cc(C(F)(F)F)n2)C1)c1ccc(-c2c3nc(c(-c4c(F)cccc4F)c4ccc([nH]4)c(-c4c(F)cccc4F)c4nc(c(-c5c(F)cccc5F)c5ccc2[nH]5)C=C4)C=C3)cc1
REMARK SMILES IDX 6 1 5 2 4 3 3 4 2 5 1 6 33 7 34 8 86 9 35 10 85 11 36 12
REMARK SMILES IDX 37 13 38 14 79 15 39 16 84 17 78 18 80 19 40 20 83 21 77 22
REMARK SMILES IDX 76 23 41 25 67 26 50 27 66 28 51 29 54 30 65 31 81 32 52 33
REMARK SMILES IDX 53 34 64 36 82 37 55 38 42 39 43 40 48 41 44 42 45 43 47 44
REMARK SMILES IDX 49 45 46 46 68 47 69 48 74 49 70 50 71 51 73 52 75 53 72 54
REMARK SMILES IDX 56 55 57 56 62 57 58 58 59 59 61 60 63 61 60 62 7 63 8 64
REMARK SMILES IDX 9 65 10 66 11 67 12 68 13 69 32 70 14 71 16 72 15 73 17 74
REMARK SMILES IDX 18 75 31 76 19 77 26 78 25 79 20 80 21 81 24 82 22 83 23 84
REMARK SMILES IDX 27 85 28 86 29 87 30 88
REMARK H PARENT 80 24 54 35
REMARK Flexibility Score: inf
ROOT
ATOM      1  O   UNL A   1      31.538  30.298  25.455  1.00  0.00    -0.374 OA
ENDROOT
BRANCH   1   2
ATOM      2  C   UNL A   1      32.095  30.970  26.591  1.00  0.00     0.202 C 
BRANCH   2   3
ATOM      3  C   UNL A   1      31.499  32.329  26.986  1.00  0.00     0.261 C 
BRANCH   3   4
ATOM      4  O   UNL A   1      32.512  33.344  27.070  1.00  0.00    -0.460 OA
BRANCH   4   5
ATOM      5  C   UNL A   1      33.241  33.701  28.155  1.00  0.00     0.338 C 
ATOM      6  O   UNL A   1      32.843  34.628  28.857  1.00  0.00    -0.246 OA
BRANCH   5   7
ATOM      7  C   UNL A   1      34.513  33.019  28.544  1.00  0.00     0.060 A 
ATOM      8  C   UNL A   1      34.599  31.708  29.006  1.00  0.00     0.016 A 
ATOM      9  C   UNL A   1      35.710  33.734  28.375  1.00  0.00     0.016 A 
ATOM     10  C   UNL A   1      35.794  31.141  29.383  1.00  0.00     0.010 A 
ATOM     11  C   UNL A   1      36.938  33.160  28.720  1.00  0.00     0.010 A 
ATOM     12  C   UNL A   1      36.965  31.871  29.258  1.00  0.00    -0.014 A 
BRANCH  12  13
ATOM     13  C   UNL A   1      38.136  31.277  29.907  1.00  0.00     0.031 A 
ATOM     14  C   UNL A   1      38.300  31.514  31.375  1.00  0.00     0.074 A 
ATOM     15  C   UNL A   1      38.844  30.348  29.240  1.00  0.00     0.049 A 
ATOM     16  N   UNL A   1      39.198  31.043  32.193  1.00  0.00    -0.248 NA
ATOM     17  C   UNL A   1      37.291  32.378  32.017  1.00  0.00     0.031 C 
ATOM     18  C   UNL A   1      38.595  29.933  27.855  1.00  0.00     0.029 A 
ATOM     19  N   UNL A   1      39.864  29.541  29.654  1.00  0.00    -0.354 N 
ATOM     20  C   UNL A   1      38.887  31.582  33.434  1.00  0.00     0.074 A 
ATOM     21  C   UNL A   1      37.717  32.410  33.268  1.00  0.00     0.031 C 
ATOM     22  C   UNL A   1      39.424  28.923  27.547  1.00  0.00     0.029 A 
ATOM     23  C   UNL A   1      40.302  28.676  28.681  1.00  0.00     0.049 A 
ATOM     24  H   UNL A   1      40.247  29.575  30.560  1.00  0.00     0.167 HD
ATOM     25  C   UNL A   1      39.544  31.403  34.601  1.00  0.00     0.037 A 
ATOM     26  C   UNL A   1      41.328  27.808  28.715  1.00  0.00     0.037 A 
ATOM     27  C   UNL A   1      40.702  30.561  34.717  1.00  0.00     0.049 A 
ATOM     28  C   UNL A   1      42.113  27.717  29.994  1.00  0.00     0.074 A 
ATOM     29  C   UNL A   1      41.516  30.351  35.812  1.00  0.00     0.029 A 
ATOM     30  N   UNL A   1      41.208  29.786  33.680  1.00  0.00    -0.354 N 
ATOM     31  N   UNL A   1      41.887  28.308  31.145  1.00  0.00    -0.248 NA
ATOM     32  C   UNL A   1      43.300  26.859  29.979  1.00  0.00     0.031 C 
ATOM     33  C   UNL A   1      42.546  29.488  35.420  1.00  0.00     0.029 A 
ATOM     34  C   UNL A   1      42.336  29.110  34.101  1.00  0.00     0.049 A 
ATOM     35  H   UNL A   1      40.819  29.728  32.777  1.00  0.00     0.167 HD
ATOM     36  C   UNL A   1      42.886  27.870  32.002  1.00  0.00     0.074 A 
ATOM     37  C   UNL A   1      43.710  26.953  31.235  1.00  0.00     0.031 C 
ATOM     38  C   UNL A   1      43.111  28.194  33.300  1.00  0.00     0.037 A 
BRANCH  25  39
ATOM     39  C   UNL A   1      39.077  32.212  35.774  1.00  0.00     0.057 A 
ATOM     40  C   UNL A   1      38.181  31.715  36.729  1.00  0.00     0.134 A 
ATOM     41  C   UNL A   1      39.487  33.544  35.908  1.00  0.00     0.134 A 
ATOM     42  F   UNL A   1      37.717  30.458  36.639  1.00  0.00    -0.206 F 
ATOM     43  C   UNL A   1      37.688  32.522  37.759  1.00  0.00     0.040 A 
ATOM     44  C   UNL A   1      39.023  34.353  36.947  1.00  0.00     0.040 A 
ATOM     45  F   UNL A   1      40.332  34.089  35.020  1.00  0.00    -0.206 F 
ATOM     46  C   UNL A   1      38.112  33.845  37.869  1.00  0.00     0.006 A 
ENDBRANCH  25  39
BRANCH  26  47
ATOM     47  C   UNL A   1      41.697  27.022  27.509  1.00  0.00     0.057 A 
ATOM     48  C   UNL A   1      41.266  25.703  27.331  1.00  0.00     0.134 A 
ATOM     49  C   UNL A   1      42.516  27.568  26.510  1.00  0.00     0.134 A 
ATOM     50  F   UNL A   1      40.494  25.114  28.256  1.00  0.00    -0.206 F 
ATOM     51  C   UNL A   1      41.652  24.949  26.219  1.00  0.00     0.040 A 
ATOM     52  C   UNL A   1      42.885  26.837  25.379  1.00  0.00     0.040 A 
ATOM     53  F   UNL A   1      42.966  28.827  26.613  1.00  0.00    -0.206 F 
ATOM     54  C   UNL A   1      42.461  25.519  25.237  1.00  0.00     0.006 A 
ENDBRANCH  26  47
BRANCH  38  55
ATOM     55  C   UNL A   1      44.256  27.501  33.973  1.00  0.00     0.057 A 
ATOM     56  C   UNL A   1      45.540  28.056  34.017  1.00  0.00     0.134 A 
ATOM     57  C   UNL A   1      44.053  26.274  34.618  1.00  0.00     0.134 A 
ATOM     58  F   UNL A   1      45.799  29.223  33.406  1.00  0.00    -0.206 F 
ATOM     59  C   UNL A   1      46.592  27.399  34.654  1.00  0.00     0.040 A 
ATOM     60  C   UNL A   1      45.089  25.624  35.287  1.00  0.00     0.040 A 
ATOM     61  F   UNL A   1      42.841  25.697  34.620  1.00  0.00    -0.206 F 
ATOM     62  C   UNL A   1      46.365  26.184  35.297  1.00  0.00     0.006 A 
ENDBRANCH  38  55
ENDBRANCH  12  13
ENDBRANCH   5   7
ENDBRANCH   4   5
ENDBRANCH   3   4
ENDBRANCH   2   3
ENDBRANCH   1   2
BRANCH   1  63
ATOM     63  C   UNL A   1      32.386  29.373  24.761  1.00  0.00     0.202 C 
BRANCH  63  64
ATOM     64  C   UNL A   1      32.387  28.011  25.457  1.00  0.00     0.261 C 
BRANCH  64  65
ATOM     65  O   UNL A   1      32.561  27.019  24.443  1.00  0.00    -0.463 OA
BRANCH  65  66
ATOM     66  C   UNL A   1      31.480  26.221  24.260  1.00  0.00     0.310 C 
ATOM     67  O   UNL A   1      30.606  26.404  23.420  1.00  0.00    -0.252 OA
BRANCH  66  68
ATOM     68  C   UNL A   1      31.531  25.017  25.169  1.00  0.00     0.119 C 
ATOM     69  C   UNL A   1      30.212  24.713  25.921  1.00  0.00     0.019 C 
ATOM     70  C   UNL A   1      31.978  23.834  24.332  1.00  0.00     0.135 C 
ATOM     71  C   UNL A   1      30.320  23.423  26.736  1.00  0.00     0.022 C 
ATOM     72  N   UNL A   1      31.938  22.651  25.158  1.00  0.00    -0.340 N 
ATOM     73  C   UNL A   1      30.716  22.268  25.819  1.00  0.00     0.120 C 
BRANCH  72  74
ATOM     74  C   UNL A   1      33.035  21.852  25.200  1.00  0.00     0.226 A 
ATOM     75  N   UNL A   1      34.223  22.409  25.455  1.00  0.00    -0.210 NA
ATOM     76  N   UNL A   1      32.862  20.564  24.899  1.00  0.00    -0.208 NA
ATOM     77  C   UNL A   1      35.298  21.606  25.404  1.00  0.00     0.112 A 
ATOM     78  C   UNL A   1      33.962  19.784  24.793  1.00  0.00     0.150 A 
ATOM     79  C   UNL A   1      35.225  20.279  25.046  1.00  0.00     0.066 A 
BRANCH  77  80
ATOM     80  C   UNL A   1      36.574  22.215  25.735  1.00  0.00     0.152 A 
ATOM     81  C   UNL A   1      36.963  23.495  26.083  1.00  0.00     0.052 A 
ATOM     82  O   UNL A   1      37.679  21.418  25.613  1.00  0.00    -0.463 OA
ATOM     83  C   UNL A   1      38.376  23.481  26.167  1.00  0.00     0.043 A 
ATOM     84  C   UNL A   1      38.763  22.195  25.870  1.00  0.00     0.196 A 
ENDBRANCH  77  80
BRANCH  78  85
ATOM     85  C   UNL A   1      33.773  18.359  24.325  1.00  0.00     0.433 C 
ATOM     86  F   UNL A   1      33.154  18.263  23.115  1.00  0.00    -0.165 F 
ATOM     87  F   UNL A   1      34.955  17.688  24.201  1.00  0.00    -0.165 F 
ATOM     88  F   UNL A   1      33.019  17.610  25.183  1.00  0.00    -0.165 F 
ENDBRANCH  78  85
ENDBRANCH  72  74
ENDBRANCH  66  68
ENDBRANCH  65  66
ENDBRANCH  64  65
ENDBRANCH  63  64
ENDBRANCH   1  63
TORSDOF 17
ENDMDL
MODEL 3
REMARK VINA RESULT:     -11.6      4.567      7.806
REMARK SMILES O=C(OCCOCCOC(=O)[C@H]1CCCN(c2nc(-c3ccco3)cc(C(F)(F)F)n2)C1)c1ccc(-c2c3nc(c(-c4c(F)cccc4F)c4ccc([nH]4)c(-c4c(F)cccc4F)c4nc(c(-c5c(F)cccc5F)c5ccc2[nH]5)C=C4)C=C3)cc1
REMARK SMILES IDX 6 1 5 2 4 3 3 4 2 5 1 6 33 7 34 8 86 9 35 10 85 11 36 12
REMARK SMILES IDX 37 13 38 14 79 15 39 16 84 17 78 18 80 19 40 20 83 21 77 22
REMARK SMILES IDX 76 23 41 25 67 26 50 27 66 28 51 29 54 30 65 31 81 32 52 33
REMARK SMILES IDX 53 34 64 36 82 37 55 38 42 39 43 40 48 41 44 42 45 43 47 44
REMARK SMILES IDX 49 45 46 46 68 47 69 48 74 49 70 50 71 51 73 52 75 53 72 54
REMARK SMILES IDX 56 55 57 56 62 57 58 58 59 59 61 60 63 61 60 62 7 63 8 64
REMARK SMILES IDX 9 65 10 66 11 67 12 68 13 69 32 70 14 71 16 72 15 73 17 74
REMARK SMILES IDX 18 75 31 76 19 77 26 78 25 79 20 80 21 81 24 82 22 83 23 84
REMARK SMILES IDX 27 85 28 86 29 87 30 88
REMARK H PARENT 80 24 54 35
REMARK Flexibility Score: inf
ROOT
ATOM      1  O   UNL A   1      35.605  21.636  26.072  1.00  0.00    -0.374 OA
ENDROOT
BRANCH   1   2
ATOM      2  C   UNL A   1      36.399  22.080  24.965  1.00  0.00     0.202 C 
BRANCH   2   3
ATOM      3  C   UNL A   1      37.654  21.270  24.610  1.00  0.00     0.261 C 
BRANCH   3   4
ATOM      4  O   UNL A   1      38.305  20.763  25.785  1.00  0.00    -0.460 OA
BRANCH   4   5
ATOM      5  C   UNL A   1      39.572  21.000  26.200  1.00  0.00     0.338 C 
ATOM      6  O   UNL A   1      40.406  20.103  26.100  1.00  0.00    -0.246 OA
BRANCH   5   7
ATOM      7  C   UNL A   1      40.011  22.308  26.776  1.00  0.00     0.060 A 
ATOM      8  C   UNL A   1      39.486  23.548  26.417  1.00  0.00     0.016 A 
ATOM      9  C   UNL A   1      40.980  22.276  27.792  1.00  0.00     0.016 A 
ATOM     10  C   UNL A   1      39.952  24.724  26.956  1.00  0.00     0.010 A 
ATOM     11  C   UNL A   1      41.440  23.461  28.375  1.00  0.00     0.010 A 
ATOM     12  C   UNL A   1      40.943  24.686  27.924  1.00  0.00    -0.014 A 
BRANCH  12  13
ATOM     13  C   UNL A   1      41.536  25.984  28.252  1.00  0.00     0.031 A 
ATOM     14  C   UNL A   1      42.868  26.301  27.649  1.00  0.00     0.074 A 
ATOM     15  C   UNL A   1      40.767  26.918  28.839  1.00  0.00     0.049 A 
ATOM     16  N   UNL A   1      43.566  27.398  27.717  1.00  0.00    -0.248 NA
ATOM     17  C   UNL A   1      43.484  25.244  26.823  1.00  0.00     0.031 C 
ATOM     18  C   UNL A   1      39.380  26.716  29.271  1.00  0.00     0.029 A 
ATOM     19  N   UNL A   1      41.014  28.232  29.109  1.00  0.00    -0.354 N 
ATOM     20  C   UNL A   1      44.718  27.151  26.982  1.00  0.00     0.074 A 
ATOM     21  C   UNL A   1      44.626  25.806  26.468  1.00  0.00     0.031 C 
ATOM     22  C   UNL A   1      38.890  27.881  29.725  1.00  0.00     0.029 A 
ATOM     23  C   UNL A   1      39.947  28.881  29.681  1.00  0.00     0.049 A 
ATOM     24  H   UNL A   1      41.872  28.673  28.912  1.00  0.00     0.167 HD
ATOM     25  C   UNL A   1      45.762  27.984  26.775  1.00  0.00     0.037 A 
ATOM     26  C   UNL A   1      39.867  30.140  30.145  1.00  0.00     0.037 A 
ATOM     27  C   UNL A   1      45.804  29.319  27.303  1.00  0.00     0.049 A 
ATOM     28  C   UNL A   1      41.087  31.006  30.004  1.00  0.00     0.074 A 
ATOM     29  C   UNL A   1      46.828  30.243  27.245  1.00  0.00     0.029 A 
ATOM     30  N   UNL A   1      44.755  29.917  27.993  1.00  0.00    -0.354 N 
ATOM     31  N   UNL A   1      42.223  30.741  29.400  1.00  0.00    -0.248 NA
ATOM     32  C   UNL A   1      41.027  32.334  30.620  1.00  0.00     0.031 C 
ATOM     33  C   UNL A   1      46.416  31.382  27.947  1.00  0.00     0.029 A 
ATOM     34  C   UNL A   1      45.113  31.192  28.386  1.00  0.00     0.049 A 
ATOM     35  H   UNL A   1      43.885  29.493  28.176  1.00  0.00     0.167 HD
ATOM     36  C   UNL A   1      43.004  31.879  29.536  1.00  0.00     0.074 A 
ATOM     37  C   UNL A   1      42.201  32.840  30.271  1.00  0.00     0.031 C 
ATOM     38  C   UNL A   1      44.267  32.115  29.102  1.00  0.00     0.037 A 
BRANCH  25  39
ATOM     39  C   UNL A   1      46.948  27.420  26.051  1.00  0.00     0.057 A 
ATOM     40  C   UNL A   1      47.085  27.482  24.659  1.00  0.00     0.134 A 
ATOM     41  C   UNL A   1      47.941  26.739  26.767  1.00  0.00     0.134 A 
ATOM     42  F   UNL A   1      46.150  28.086  23.909  1.00  0.00    -0.206 F 
ATOM     43  C   UNL A   1      48.153  26.864  24.002  1.00  0.00     0.040 A 
ATOM     44  C   UNL A   1      49.026  26.140  26.125  1.00  0.00     0.040 A 
ATOM     45  F   UNL A   1      47.863  26.627  28.101  1.00  0.00    -0.206 F 
ATOM     46  C   UNL A   1      49.128  26.193  24.737  1.00  0.00     0.006 A 
ENDBRANCH  25  39
BRANCH  26  47
ATOM     47  C   UNL A   1      38.635  30.622  30.820  1.00  0.00     0.057 A 
ATOM     48  C   UNL A   1      38.403  30.393  32.180  1.00  0.00     0.134 A 
ATOM     49  C   UNL A   1      37.639  31.308  30.109  1.00  0.00     0.134 A 
ATOM     50  F   UNL A   1      39.306  29.728  32.916  1.00  0.00    -0.206 F 
ATOM     51  C   UNL A   1      37.222  30.805  32.803  1.00  0.00     0.040 A 
ATOM     52  C   UNL A   1      36.467  31.753  30.725  1.00  0.00     0.040 A 
ATOM     53  F   UNL A   1      37.793  31.565  28.802  1.00  0.00    -0.206 F 
ATOM     54  C   UNL A   1      36.252  31.492  32.075  1.00  0.00     0.006 A 
ENDBRANCH  26  47
BRANCH  38  55
ATOM     55  C   UNL A   1      44.819  33.483  29.364  1.00  0.00     0.057 A 
ATOM     56  C   UNL A   1      44.621  34.547  28.477  1.00  0.00     0.134 A 
ATOM     57  C   UNL A   1      45.528  33.740  30.545  1.00  0.00     0.134 A 
ATOM     58  F   UNL A   1      43.961  34.359  27.324  1.00  0.00    -0.206 F 
ATOM     59  C   UNL A   1      45.137  35.816  28.741  1.00  0.00     0.040 A 
ATOM     60  C   UNL A   1      46.019  35.011  30.835  1.00  0.00     0.040 A 
ATOM     61  F   UNL A   1      45.740  32.763  31.440  1.00  0.00    -0.206 F 
ATOM     62  C   UNL A   1      45.831  36.051  29.927  1.00  0.00     0.006 A 
ENDBRANCH  38  55
ENDBRANCH  12  13
ENDBRANCH   5   7
ENDBRANCH   4   5
ENDBRANCH   3   4
ENDBRANCH   2   3
ENDBRANCH   1   2
BRANCH   1  63
ATOM     63  C   UNL A   1      34.379  20.958  25.768  1.00  0.00     0.202 C 
BRANCH  63  64
ATOM     64  C   UNL A   1      33.295  21.313  26.786  1.00  0.00     0.261 C 
BRANCH  64  65
ATOM     65  O   UNL A   1      33.224  22.740  26.847  1.00  0.00    -0.463 OA
BRANCH  65  66
ATOM     66  C   UNL A   1      31.962  23.233  26.779  1.00  0.00     0.310 C 
ATOM     67  O   UNL A   1      31.103  23.083  27.642  1.00  0.00    -0.252 OA
BRANCH  66  68
ATOM     68  C   UNL A   1      31.768  24.070  25.540  1.00  0.00     0.119 C 
ATOM     69  C   UNL A   1      31.108  23.330  24.351  1.00  0.00     0.019 C 
ATOM     70  C   UNL A   1      30.972  25.298  25.940  1.00  0.00     0.135 C 
ATOM     71  C   UNL A   1      30.856  24.276  23.176  1.00  0.00     0.022 C 
ATOM     72  N   UNL A   1      30.690  26.065  24.751  1.00  0.00    -0.340 N 
ATOM     73  C   UNL A   1      30.003  25.455  23.640  1.00  0.00     0.120 C 
BRANCH  72  74
ATOM     74  C   UNL A   1      30.977  27.392  24.751  1.00  0.00     0.226 A 
ATOM     75  N   UNL A   1      31.957  27.834  25.545  1.00  0.00    -0.210 NA
ATOM     76  N   UNL A   1      30.198  28.183  24.013  1.00  0.00    -0.208 NA
ATOM     77  C   UNL A   1      32.158  29.161  25.585  1.00  0.00     0.112 A 
ATOM     78  C   UNL A   1      30.375  29.520  24.114  1.00  0.00     0.150 A 
ATOM     79  C   UNL A   1      31.368  30.060  24.905  1.00  0.00     0.066 A 
BRANCH  77  80
ATOM     80  C   UNL A   1      33.261  29.621  26.412  1.00  0.00     0.152 A 
ATOM     81  C   UNL A   1      34.465  29.065  26.798  1.00  0.00     0.052 A 
ATOM     82  O   UNL A   1      33.091  30.825  27.038  1.00  0.00    -0.463 OA
ATOM     83  C   UNL A   1      35.056  29.969  27.713  1.00  0.00     0.043 A 
ATOM     84  C   UNL A   1      34.178  31.023  27.827  1.00  0.00     0.196 A 
ENDBRANCH  77  80
BRANCH  78  85
ATOM     85  C   UNL A   1      29.406  30.418  23.377  1.00  0.00     0.433 C 
ATOM     86  F   UNL A   1      29.738  30.619  22.071  1.00  0.00    -0.165 F 
ATOM     87  F   UNL A   1      28.134  29.924  23.373  1.00  0.00    -0.165 F 
ATOM     88  F   UNL A   1      29.308  31.665  23.927  1.00  0.00    -0.165 F 
ENDBRANCH  78  85
ENDBRANCH  72  74
ENDBRANCH  66  68
ENDBRANCH  65  66
ENDBRANCH  64  65
ENDBRANCH  63  64
ENDBRANCH   1  63
TORSDOF 17
ENDMDL
