MODEL 1
REMARK VINA RESULT:     -10.2      0.000      0.000
REMARK SMILES O=C(C[C@H]([NH2+]Cc1ccccc1C1CC1)c1cccs1)OCCOCCOC(=O)c1ccc(-c2c3nc(c(-c4c(F)cccc4F)c4ccc([nH]4)c(-c4c(F)cccc4F)c4nc(c(-c5c(F)cccc5F)c5ccc2[nH]5)C=C4)C=C3)cc1
REMARK SMILES IDX 22 1 21 2 2 3 1 4 3 5 4 6 16 7 17 8 20 9 18 10 19 11 5 12
REMARK SMILES IDX 6 15 7 16 8 17 12 18 9 19 11 20 10 21 13 22 14 23 15 24
REMARK SMILES IDX 23 25 24 26 25 27 26 28 27 29 28 30 29 31 30 32 31 33 83 34
REMARK SMILES IDX 32 35 82 36 33 37 34 38 35 39 76 40 36 41 81 42 75 43 77 44
REMARK SMILES IDX 37 45 80 46 74 47 73 48 38 50 64 51 47 52 63 53 48 54 51 55
REMARK SMILES IDX 62 56 78 57 49 58 50 59 61 61 79 62 52 63 39 64 40 65 45 66
REMARK SMILES IDX 41 67 42 68 44 69 46 70 43 71 65 72 66 73 71 74 67 75 68 76
REMARK SMILES IDX 70 77 72 78 69 79 53 80 54 81 59 82 55 83 56 84 58 85 60 86
REMARK SMILES IDX 57 87
REMARK H PARENT 5 13 5 14 77 49 51 60
REMARK Flexibility Score: inf
ROOT
ATOM      1  C   UNL A   1      35.681  22.451  25.844  1.00  0.00     0.261 C 
ENDROOT
BRANCH   1   2
ATOM      2  O   UNL A   1      35.829  23.359  24.735  1.00  0.00    -0.463 OA
BRANCH   2   3
ATOM      3  C   UNL A   1      35.461  23.104  23.462  1.00  0.00     0.312 C 
ATOM      4  O   UNL A   1      36.311  22.989  22.581  1.00  0.00    -0.252 OA
BRANCH   3   5
ATOM      5  C   UNL A   1      34.009  22.975  23.145  1.00  0.00     0.193 C 
BRANCH   5   6
ATOM      6  C   UNL A   1      33.205  24.290  23.186  1.00  0.00     0.235 C 
BRANCH   6   7
ATOM      7  C   UNL A   1      32.415  24.260  24.487  1.00  0.00     0.062 A 
ATOM      8  C   UNL A   1      32.694  24.856  25.702  1.00  0.00     0.021 A 
ATOM      9  S   UNL A   1      31.021  23.253  24.600  1.00  0.00    -0.143 S 
ATOM     10  C   UNL A   1      31.816  24.421  26.739  1.00  0.00     0.012 A 
ATOM     11  C   UNL A   1      30.876  23.529  26.279  1.00  0.00     0.065 A 
ENDBRANCH   6   7
BRANCH   6  12
ATOM     12  N   UNL A   1      34.017  25.522  23.091  1.00  0.00    -0.335 N 
ATOM     13  H   UNL A   1      34.834  25.333  22.512  1.00  0.00     0.347 HD
ATOM     14  H   UNL A   1      34.286  25.793  24.036  1.00  0.00     0.347 HD
BRANCH  12  15
ATOM     15  C   UNL A   1      33.258  26.643  22.493  1.00  0.00     0.298 C 
BRANCH  15  16
ATOM     16  C   UNL A   1      32.773  27.692  23.476  1.00  0.00     0.010 A 
ATOM     17  C   UNL A   1      33.755  28.357  24.248  1.00  0.00     0.010 A 
ATOM     18  C   UNL A   1      31.396  27.968  23.720  1.00  0.00    -0.036 A 
ATOM     19  C   UNL A   1      33.423  29.313  25.205  1.00  0.00     0.001 A 
ATOM     20  C   UNL A   1      31.111  28.971  24.687  1.00  0.00     0.004 A 
ATOM     21  C   UNL A   1      32.095  29.630  25.418  1.00  0.00     0.000 A 
BRANCH  18  22
ATOM     22  C   UNL A   1      30.151  27.315  23.124  1.00  0.00     0.020 C 
ATOM     23  C   UNL A   1      29.139  26.553  23.929  1.00  0.00     0.009 C 
ATOM     24  C   UNL A   1      28.752  27.840  23.244  1.00  0.00     0.009 C 
ENDBRANCH  18  22
ENDBRANCH  15  16
ENDBRANCH  12  15
ENDBRANCH   6  12
ENDBRANCH   5   6
ENDBRANCH   3   5
ENDBRANCH   2   3
ENDBRANCH   1   2
BRANCH   1  25
ATOM     25  C   UNL A   1      36.352  21.129  25.507  1.00  0.00     0.202 C 
BRANCH  25  26
ATOM     26  O   UNL A   1      37.762  21.223  25.315  1.00  0.00    -0.374 OA
BRANCH  26  27
ATOM     27  C   UNL A   1      38.474  20.019  25.027  1.00  0.00     0.202 C 
BRANCH  27  28
ATOM     28  C   UNL A   1      39.539  19.597  26.046  1.00  0.00     0.261 C 
BRANCH  28  29
ATOM     29  O   UNL A   1      40.693  18.972  25.456  1.00  0.00    -0.460 OA
BRANCH  29  30
ATOM     30  C   UNL A   1      41.845  19.099  26.163  1.00  0.00     0.338 C 
ATOM     31  O   UNL A   1      42.688  18.248  26.365  1.00  0.00    -0.246 OA
BRANCH  30  32
ATOM     32  C   UNL A   1      42.020  20.505  26.576  1.00  0.00     0.060 A 
ATOM     33  C   UNL A   1      42.259  21.473  25.590  1.00  0.00     0.016 A 
ATOM     34  C   UNL A   1      42.049  20.848  27.928  1.00  0.00     0.016 A 
ATOM     35  C   UNL A   1      42.550  22.788  25.960  1.00  0.00     0.010 A 
ATOM     36  C   UNL A   1      42.362  22.158  28.297  1.00  0.00     0.010 A 
ATOM     37  C   UNL A   1      42.636  23.128  27.318  1.00  0.00    -0.014 A 
BRANCH  37  38
ATOM     38  C   UNL A   1      43.156  24.454  27.735  1.00  0.00     0.031 A 
ATOM     39  C   UNL A   1      42.179  25.511  28.145  1.00  0.00     0.074 A 
ATOM     40  C   UNL A   1      44.470  24.733  27.696  1.00  0.00     0.049 A 
ATOM     41  N   UNL A   1      42.397  26.766  28.432  1.00  0.00    -0.248 NA
ATOM     42  C   UNL A   1      40.768  25.102  28.228  1.00  0.00     0.031 C 
ATOM     43  C   UNL A   1      45.499  23.779  27.317  1.00  0.00     0.029 A 
ATOM     44  N   UNL A   1      45.164  25.888  27.949  1.00  0.00    -0.354 N 
ATOM     45  C   UNL A   1      41.151  27.306  28.712  1.00  0.00     0.074 A 
ATOM     46  C   UNL A   1      40.180  26.244  28.557  1.00  0.00     0.031 C 
ATOM     47  C   UNL A   1      46.701  24.376  27.360  1.00  0.00     0.029 A 
ATOM     48  C   UNL A   1      46.515  25.782  27.707  1.00  0.00     0.049 A 
ATOM     49  H   UNL A   1      44.738  26.714  28.273  1.00  0.00     0.167 HD
ATOM     50  C   UNL A   1      40.848  28.578  29.057  1.00  0.00     0.037 A 
ATOM     51  C   UNL A   1      47.480  26.722  27.714  1.00  0.00     0.037 A 
ATOM     52  C   UNL A   1      41.816  29.633  29.180  1.00  0.00     0.049 A 
ATOM     53  C   UNL A   1      47.101  28.146  28.023  1.00  0.00     0.074 A 
ATOM     54  C   UNL A   1      41.610  30.950  29.548  1.00  0.00     0.029 A 
ATOM     55  N   UNL A   1      43.171  29.497  28.912  1.00  0.00    -0.354 N 
ATOM     56  N   UNL A   1      45.927  28.636  28.341  1.00  0.00    -0.248 NA
ATOM     57  C   UNL A   1      48.171  29.151  27.957  1.00  0.00     0.031 C 
ATOM     58  C   UNL A   1      42.829  31.625  29.445  1.00  0.00     0.029 A 
ATOM     59  C   UNL A   1      43.807  30.717  29.070  1.00  0.00     0.049 A 
ATOM     60  H   UNL A   1      43.614  28.658  28.649  1.00  0.00     0.167 HD
ATOM     61  C   UNL A   1      46.120  29.997  28.532  1.00  0.00     0.074 A 
ATOM     62  C   UNL A   1      47.529  30.255  28.313  1.00  0.00     0.031 C 
ATOM     63  C   UNL A   1      45.214  30.950  28.857  1.00  0.00     0.037 A 
BRANCH  50  64
ATOM     64  C   UNL A   1      39.402  28.900  29.272  1.00  0.00     0.057 A 
ATOM     65  C   UNL A   1      38.793  28.775  30.528  1.00  0.00     0.134 A 
ATOM     66  C   UNL A   1      38.610  29.351  28.210  1.00  0.00     0.134 A 
ATOM     67  F   UNL A   1      39.493  28.327  31.581  1.00  0.00    -0.206 F 
ATOM     68  C   UNL A   1      37.442  29.068  30.714  1.00  0.00     0.040 A 
ATOM     69  C   UNL A   1      37.264  29.672  28.389  1.00  0.00     0.040 A 
ATOM     70  F   UNL A   1      39.132  29.488  26.982  1.00  0.00    -0.206 F 
ATOM     71  C   UNL A   1      36.676  29.524  29.643  1.00  0.00     0.006 A 
ENDBRANCH  50  64
BRANCH  51  72
ATOM     72  C   UNL A   1      48.884  26.373  27.365  1.00  0.00     0.057 A 
ATOM     73  C   UNL A   1      49.342  26.436  26.044  1.00  0.00     0.134 A 
ATOM     74  C   UNL A   1      49.789  25.919  28.334  1.00  0.00     0.134 A 
ATOM     75  F   UNL A   1      48.519  26.838  25.064  1.00  0.00    -0.206 F 
ATOM     76  C   UNL A   1      50.634  26.036  25.694  1.00  0.00     0.040 A 
ATOM     77  C   UNL A   1      51.093  25.544  28.003  1.00  0.00     0.040 A 
ATOM     78  F   UNL A   1      49.418  25.832  29.620  1.00  0.00    -0.206 F 
ATOM     79  C   UNL A   1      51.515  25.591  26.678  1.00  0.00     0.006 A 
ENDBRANCH  51  72
BRANCH  63  80
ATOM     80  C   UNL A   1      45.717  32.353  29.032  1.00  0.00     0.057 A 
ATOM     81  C   UNL A   1      45.746  33.265  27.971  1.00  0.00     0.134 A 
ATOM     82  C   UNL A   1      46.111  32.814  30.295  1.00  0.00     0.134 A 
ATOM     83  F   UNL A   1      45.396  32.882  26.734  1.00  0.00    -0.206 F 
ATOM     84  C   UNL A   1      46.160  34.585  28.157  1.00  0.00     0.040 A 
ATOM     85  C   UNL A   1      46.500  34.137  30.500  1.00  0.00     0.040 A 
ATOM     86  F   UNL A   1      46.098  31.991  31.354  1.00  0.00    -0.206 F 
ATOM     87  C   UNL A   1      46.527  35.027  29.427  1.00  0.00     0.006 A 
ENDBRANCH  63  80
ENDBRANCH  37  38
ENDBRANCH  30  32
ENDBRANCH  29  30
ENDBRANCH  28  29
ENDBRANCH  27  28
ENDBRANCH  26  27
ENDBRANCH  25  26
ENDBRANCH   1  25
TORSDOF 20
ENDMDL
MODEL 2
REMARK VINA RESULT:     -10.1      4.892      9.818
REMARK SMILES O=C(C[C@H]([NH2+]Cc1ccccc1C1CC1)c1cccs1)OCCOCCOC(=O)c1ccc(-c2c3nc(c(-c4c(F)cccc4F)c4ccc([nH]4)c(-c4c(F)cccc4F)c4nc(c(-c5c(F)cccc5F)c5ccc2[nH]5)C=C4)C=C3)cc1
REMARK SMILES IDX 22 1 21 2 2 3 1 4 3 5 4 6 16 7 17 8 20 9 18 10 19 11 5 12
REMARK SMILES IDX 6 15 7 16 8 17 12 18 9 19 11 20 10 21 13 22 14 23 15 24
REMARK SMILES IDX 23 25 24 26 25 27 26 28 27 29 28 30 29 31 30 32 31 33 83 34
REMARK SMILES IDX 32 35 82 36 33 37 34 38 35 39 76 40 36 41 81 42 75 43 77 44
REMARK SMILES IDX 37 45 80 46 74 47 73 48 38 50 64 51 47 52 63 53 48 54 51 55
REMARK SMILES IDX 62 56 78 57 49 58 50 59 61 61 79 62 52 63 39 64 40 65 45 66
REMARK SMILES IDX 41 67 42 68 44 69 46 70 43 71 65 72 66 73 71 74 67 75 68 76
REMARK SMILES IDX 70 77 72 78 69 79 53 80 54 81 59 82 55 83 56 84 58 85 60 86
REMARK SMILES IDX 57 87
REMARK H PARENT 5 13 5 14 77 49 51 60
REMARK Flexibility Score: inf
ROOT
ATOM      1  C   UNL A   1      32.499  27.436  26.753  1.00  0.00     0.261 C 
ENDROOT
BRANCH   1   2
ATOM      2  O   UNL A   1      31.199  26.817  26.820  1.00  0.00    -0.463 OA
BRANCH   2   3
ATOM      3  C   UNL A   1      30.837  25.690  26.172  1.00  0.00     0.312 C 
ATOM      4  O   UNL A   1      29.804  25.100  26.484  1.00  0.00    -0.252 OA
BRANCH   3   5
ATOM      5  C   UNL A   1      31.714  25.173  25.081  1.00  0.00     0.193 C 
BRANCH   5   6
ATOM      6  C   UNL A   1      31.110  25.237  23.664  1.00  0.00     0.235 C 
BRANCH   6   7
ATOM      7  C   UNL A   1      31.536  26.579  23.086  1.00  0.00     0.062 A 
ATOM      8  C   UNL A   1      32.805  27.077  22.854  1.00  0.00     0.021 A 
ATOM      9  S   UNL A   1      30.337  27.776  22.765  1.00  0.00    -0.143 S 
ATOM     10  C   UNL A   1      32.794  28.458  22.497  1.00  0.00     0.012 A 
ATOM     11  C   UNL A   1      31.517  28.966  22.437  1.00  0.00     0.065 A 
ENDBRANCH   6   7
BRANCH   6  12
ATOM     12  N   UNL A   1      31.500  24.129  22.767  1.00  0.00    -0.335 N 
ATOM     13  H   UNL A   1      31.281  24.392  21.806  1.00  0.00     0.347 HD
ATOM     14  H   UNL A   1      30.983  23.299  23.051  1.00  0.00     0.347 HD
BRANCH  12  15
ATOM     15  C   UNL A   1      32.944  23.821  22.859  1.00  0.00     0.298 C 
BRANCH  15  16
ATOM     16  C   UNL A   1      33.280  22.477  23.481  1.00  0.00     0.010 A 
ATOM     17  C   UNL A   1      32.324  21.444  23.338  1.00  0.00     0.010 A 
ATOM     18  C   UNL A   1      34.447  22.239  24.264  1.00  0.00    -0.036 A 
ATOM     19  C   UNL A   1      32.511  20.181  23.896  1.00  0.00     0.001 A 
ATOM     20  C   UNL A   1      34.602  20.928  24.788  1.00  0.00     0.004 A 
ATOM     21  C   UNL A   1      33.660  19.918  24.615  1.00  0.00     0.000 A 
BRANCH  18  22
ATOM     22  C   UNL A   1      35.559  23.203  24.672  1.00  0.00     0.020 C 
ATOM     23  C   UNL A   1      35.328  24.468  25.447  1.00  0.00     0.009 C 
ATOM     24  C   UNL A   1      36.126  23.341  26.053  1.00  0.00     0.009 C 
ENDBRANCH  18  22
ENDBRANCH  15  16
ENDBRANCH  12  15
ENDBRANCH   6  12
ENDBRANCH   5   6
ENDBRANCH   3   5
ENDBRANCH   2   3
ENDBRANCH   1   2
BRANCH   1  25
ATOM     25  C   UNL A   1      32.387  28.770  26.032  1.00  0.00     0.202 C 
BRANCH  25  26
ATOM     26  O   UNL A   1      31.852  29.822  26.833  1.00  0.00    -0.374 OA
BRANCH  26  27
ATOM     27  C   UNL A   1      31.429  31.013  26.168  1.00  0.00     0.202 C 
BRANCH  27  28
ATOM     28  C   UNL A   1      31.463  32.304  26.995  1.00  0.00     0.261 C 
BRANCH  28  29
ATOM     29  O   UNL A   1      32.650  33.091  26.796  1.00  0.00    -0.460 OA
BRANCH  29  30
ATOM     30  C   UNL A   1      33.118  33.722  27.903  1.00  0.00     0.338 C 
ATOM     31  O   UNL A   1      32.563  34.587  28.553  1.00  0.00    -0.246 OA
BRANCH  30  32
ATOM     32  C   UNL A   1      34.397  33.114  28.317  1.00  0.00     0.060 A 
ATOM     33  C   UNL A   1      34.414  31.760  28.681  1.00  0.00     0.016 A 
ATOM     34  C   UNL A   1      35.545  33.897  28.442  1.00  0.00     0.016 A 
ATOM     35  C   UNL A   1      35.582  31.190  29.193  1.00  0.00     0.010 A 
ATOM     36  C   UNL A   1      36.706  33.330  28.975  1.00  0.00     0.010 A 
ATOM     37  C   UNL A   1      36.723  31.983  29.374  1.00  0.00    -0.014 A 
BRANCH  37  38
ATOM     38  C   UNL A   1      37.899  31.461  30.115  1.00  0.00     0.031 A 
ATOM     39  C   UNL A   1      38.790  30.467  29.439  1.00  0.00     0.074 A 
ATOM     40  C   UNL A   1      38.139  31.822  31.387  1.00  0.00     0.049 A 
ATOM     41  N   UNL A   1      39.795  29.794  29.932  1.00  0.00    -0.248 NA
ATOM     42  C   UNL A   1      38.498  30.180  28.026  1.00  0.00     0.031 C 
ATOM     43  C   UNL A   1      37.339  32.781  32.132  1.00  0.00     0.029 A 
ATOM     44  N   UNL A   1      39.094  31.418  32.285  1.00  0.00    -0.354 N 
ATOM     45  C   UNL A   1      40.248  28.991  28.897  1.00  0.00     0.074 A 
ATOM     46  C   UNL A   1      39.405  29.255  27.750  1.00  0.00     0.031 C 
ATOM     47  C   UNL A   1      37.828  32.902  33.377  1.00  0.00     0.029 A 
ATOM     48  C   UNL A   1      38.941  31.972  33.536  1.00  0.00     0.049 A 
ATOM     49  H   UNL A   1      39.819  30.792  32.056  1.00  0.00     0.167 HD
ATOM     50  C   UNL A   1      41.270  28.105  28.911  1.00  0.00     0.037 A 
ATOM     51  C   UNL A   1      39.592  31.718  34.688  1.00  0.00     0.037 A 
ATOM     52  C   UNL A   1      42.082  27.829  30.064  1.00  0.00     0.049 A 
ATOM     53  C   UNL A   1      40.671  30.668  34.693  1.00  0.00     0.074 A 
ATOM     54  C   UNL A   1      43.157  26.965  30.171  1.00  0.00     0.029 A 
ATOM     55  N   UNL A   1      41.892  28.392  31.318  1.00  0.00    -0.354 N 
ATOM     56  N   UNL A   1      41.130  29.952  33.694  1.00  0.00    -0.248 NA
ATOM     57  C   UNL A   1      41.312  30.376  35.983  1.00  0.00     0.031 C 
ATOM     58  C   UNL A   1      43.579  26.961  31.503  1.00  0.00     0.029 A 
ATOM     59  C   UNL A   1      42.807  27.865  32.215  1.00  0.00     0.049 A 
ATOM     60  H   UNL A   1      41.209  29.066  31.538  1.00  0.00     0.167 HD
ATOM     61  C   UNL A   1      42.123  29.142  34.230  1.00  0.00     0.074 A 
ATOM     62  C   UNL A   1      42.215  29.467  35.638  1.00  0.00     0.031 C 
ATOM     63  C   UNL A   1      42.889  28.210  33.612  1.00  0.00     0.037 A 
BRANCH  50  64
ATOM     64  C   UNL A   1      41.524  27.338  27.651  1.00  0.00     0.057 A 
ATOM     65  C   UNL A   1      40.959  26.076  27.425  1.00  0.00     0.134 A 
ATOM     66  C   UNL A   1      42.336  27.874  26.645  1.00  0.00     0.134 A 
ATOM     67  F   UNL A   1      40.187  25.498  28.358  1.00  0.00    -0.206 F 
ATOM     68  C   UNL A   1      41.211  25.365  26.251  1.00  0.00     0.040 A 
ATOM     69  C   UNL A   1      42.576  27.185  25.456  1.00  0.00     0.040 A 
ATOM     70  F   UNL A   1      42.910  29.077  26.803  1.00  0.00    -0.206 F 
ATOM     71  C   UNL A   1      42.016  25.924  25.260  1.00  0.00     0.006 A 
ENDBRANCH  50  64
BRANCH  51  72
ATOM     72  C   UNL A   1      39.213  32.416  35.946  1.00  0.00     0.057 A 
ATOM     73  C   UNL A   1      38.287  31.860  36.837  1.00  0.00     0.134 A 
ATOM     74  C   UNL A   1      39.725  33.682  36.264  1.00  0.00     0.134 A 
ATOM     75  F   UNL A   1      37.740  30.662  36.579  1.00  0.00    -0.206 F 
ATOM     76  C   UNL A   1      37.866  32.542  37.980  1.00  0.00     0.040 A 
ATOM     77  C   UNL A   1      39.335  34.363  37.420  1.00  0.00     0.040 A 
ATOM     78  F   UNL A   1      40.614  34.275  35.456  1.00  0.00    -0.206 F 
ATOM     79  C   UNL A   1      38.393  33.798  38.276  1.00  0.00     0.006 A 
ENDBRANCH  51  72
BRANCH  63  80
ATOM     80  C   UNL A   1      43.917  27.499  34.441  1.00  0.00     0.057 A 
ATOM     81  C   UNL A   1      45.192  28.035  34.657  1.00  0.00     0.134 A 
ATOM     82  C   UNL A   1      43.600  26.297  35.087  1.00  0.00     0.134 A 
ATOM     83  F   UNL A   1      45.562  29.174  34.054  1.00  0.00    -0.206 F 
ATOM     84  C   UNL A   1      46.121  27.394  35.479  1.00  0.00     0.040 A 
ATOM     85  C   UNL A   1      44.509  25.662  35.932  1.00  0.00     0.040 A 
ATOM     86  F   UNL A   1      42.392  25.736  34.927  1.00  0.00    -0.206 F 
ATOM     87  C   UNL A   1      45.776  26.209  36.128  1.00  0.00     0.006 A 
ENDBRANCH  63  80
ENDBRANCH  37  38
ENDBRANCH  30  32
ENDBRANCH  29  30
ENDBRANCH  28  29
ENDBRANCH  27  28
ENDBRANCH  26  27
ENDBRANCH  25  26
ENDBRANCH   1  25
TORSDOF 20
ENDMDL
MODEL 3
REMARK VINA RESULT:      -9.9      1.631      6.587
REMARK SMILES O=C(C[C@H]([NH2+]Cc1ccccc1C1CC1)c1cccs1)OCCOCCOC(=O)c1ccc(-c2c3nc(c(-c4c(F)cccc4F)c4ccc([nH]4)c(-c4c(F)cccc4F)c4nc(c(-c5c(F)cccc5F)c5ccc2[nH]5)C=C4)C=C3)cc1
REMARK SMILES IDX 22 1 21 2 2 3 1 4 3 5 4 6 16 7 17 8 20 9 18 10 19 11 5 12
REMARK SMILES IDX 6 15 7 16 8 17 12 18 9 19 11 20 10 21 13 22 14 23 15 24
REMARK SMILES IDX 23 25 24 26 25 27 26 28 27 29 28 30 29 31 30 32 31 33 83 34
REMARK SMILES IDX 32 35 82 36 33 37 34 38 35 39 76 40 36 41 81 42 75 43 77 44
REMARK SMILES IDX 37 45 80 46 74 47 73 48 38 50 64 51 47 52 63 53 48 54 51 55
REMARK SMILES IDX 62 56 78 57 49 58 50 59 61 61 79 62 52 63 39 64 40 65 45 66
REMARK SMILES IDX 41 67 42 68 44 69 46 70 43 71 65 72 66 73 71 74 67 75 68 76
REMARK SMILES IDX 70 77 72 78 69 79 53 80 54 81 59 82 55 83 56 84 58 85 60 86
REMARK SMILES IDX 57 87
REMARK H PARENT 5 13 5 14 77 49 51 60
REMARK Flexibility Score: inf
ROOT
ATOM      1  C   UNL A   1      36.117  23.640  23.383  1.00  0.00     0.261 C 
ENDROOT
BRANCH   1   2
ATOM      2  O   UNL A   1      34.822  23.794  22.769  1.00  0.00    -0.463 OA
BRANCH   2   3
ATOM      3  C   UNL A   1      33.802  24.522  23.270  1.00  0.00     0.312 C 
ATOM      4  O   UNL A   1      34.027  25.543  23.916  1.00  0.00    -0.252 OA
BRANCH   3   5
ATOM      5  C   UNL A   1      32.404  24.059  23.032  1.00  0.00     0.193 C 
BRANCH   5   6
ATOM      6  C   UNL A   1      31.683  23.478  24.265  1.00  0.00     0.235 C 
BRANCH   6   7
ATOM      7  C   UNL A   1      32.332  22.127  24.533  1.00  0.00     0.062 A 
ATOM      8  C   UNL A   1      32.365  20.992  23.745  1.00  0.00     0.021 A 
ATOM      9  S   UNL A   1      33.043  21.827  26.074  1.00  0.00    -0.143 S 
ATOM     10  C   UNL A   1      32.894  19.862  24.435  1.00  0.00     0.012 A 
ATOM     11  C   UNL A   1      33.277  20.173  25.719  1.00  0.00     0.065 A 
ENDBRANCH   6   7
BRANCH   6  12
ATOM     12  N   UNL A   1      31.721  24.329  25.472  1.00  0.00    -0.335 N 
ATOM     13  H   UNL A   1      32.494  24.990  25.383  1.00  0.00     0.347 HD
ATOM     14  H   UNL A   1      31.844  23.721  26.280  1.00  0.00     0.347 HD
BRANCH  12  15
ATOM     15  C   UNL A   1      30.465  25.088  25.658  1.00  0.00     0.298 C 
BRANCH  15  16
ATOM     16  C   UNL A   1      30.436  26.461  25.010  1.00  0.00     0.010 A 
ATOM     17  C   UNL A   1      29.683  26.597  23.820  1.00  0.00     0.010 A 
ATOM     18  C   UNL A   1      31.192  27.573  25.483  1.00  0.00    -0.036 A 
ATOM     19  C   UNL A   1      29.614  27.800  23.122  1.00  0.00     0.001 A 
ATOM     20  C   UNL A   1      31.065  28.784  24.751  1.00  0.00     0.004 A 
ATOM     21  C   UNL A   1      30.298  28.902  23.595  1.00  0.00     0.000 A 
BRANCH  18  22
ATOM     22  C   UNL A   1      32.168  27.659  26.654  1.00  0.00     0.020 C 
ATOM     23  C   UNL A   1      33.651  27.834  26.496  1.00  0.00     0.009 C 
ATOM     24  C   UNL A   1      32.824  28.914  27.148  1.00  0.00     0.009 C 
ENDBRANCH  18  22
ENDBRANCH  15  16
ENDBRANCH  12  15
ENDBRANCH   6  12
ENDBRANCH   5   6
ENDBRANCH   3   5
ENDBRANCH   2   3
ENDBRANCH   1   2
BRANCH   1  25
ATOM     25  C   UNL A   1      36.204  22.273  24.043  1.00  0.00     0.202 C 
BRANCH  25  26
ATOM     26  O   UNL A   1      37.203  22.176  25.056  1.00  0.00    -0.374 OA
BRANCH  26  27
ATOM     27  C   UNL A   1      37.899  20.936  25.185  1.00  0.00     0.202 C 
BRANCH  27  28
ATOM     28  C   UNL A   1      39.319  21.009  25.760  1.00  0.00     0.261 C 
BRANCH  28  29
ATOM     29  O   UNL A   1      39.848  19.733  26.165  1.00  0.00    -0.460 OA
BRANCH  29  30
ATOM     30  C   UNL A   1      41.202  19.639  26.153  1.00  0.00     0.338 C 
ATOM     31  O   UNL A   1      41.877  18.714  25.746  1.00  0.00    -0.246 OA
BRANCH  30  32
ATOM     32  C   UNL A   1      41.791  20.914  26.606  1.00  0.00     0.060 A 
ATOM     33  C   UNL A   1      41.650  21.284  27.951  1.00  0.00     0.016 A 
ATOM     34  C   UNL A   1      42.386  21.784  25.690  1.00  0.00     0.016 A 
ATOM     35  C   UNL A   1      42.088  22.539  28.379  1.00  0.00     0.010 A 
ATOM     36  C   UNL A   1      42.803  23.047  26.116  1.00  0.00     0.010 A 
ATOM     37  C   UNL A   1      42.636  23.439  27.455  1.00  0.00    -0.014 A 
BRANCH  37  38
ATOM     38  C   UNL A   1      42.905  24.848  27.837  1.00  0.00     0.031 A 
ATOM     39  C   UNL A   1      44.308  25.245  28.174  1.00  0.00     0.074 A 
ATOM     40  C   UNL A   1      41.910  25.745  27.939  1.00  0.00     0.049 A 
ATOM     41  N   UNL A   1      44.751  26.380  28.644  1.00  0.00    -0.248 NA
ATOM     42  C   UNL A   1      45.345  24.222  27.970  1.00  0.00     0.031 C 
ATOM     43  C   UNL A   1      40.517  25.463  27.631  1.00  0.00     0.029 A 
ATOM     44  N   UNL A   1      41.902  27.055  28.345  1.00  0.00    -0.354 N 
ATOM     45  C   UNL A   1      46.116  26.206  28.809  1.00  0.00     0.074 A 
ATOM     46  C   UNL A   1      46.429  24.855  28.395  1.00  0.00     0.031 C 
ATOM     47  C   UNL A   1      39.778  26.562  27.855  1.00  0.00     0.029 A 
ATOM     48  C   UNL A   1      40.643  27.609  28.389  1.00  0.00     0.049 A 
ATOM     49  H   UNL A   1      42.718  27.552  28.583  1.00  0.00     0.167 HD
ATOM     50  C   UNL A   1      47.023  27.094  29.276  1.00  0.00     0.037 A 
ATOM     51  C   UNL A   1      40.230  28.804  28.855  1.00  0.00     0.037 A 
ATOM     52  C   UNL A   1      46.697  28.425  29.713  1.00  0.00     0.049 A 
ATOM     53  C   UNL A   1      41.250  29.742  29.444  1.00  0.00     0.074 A 
ATOM     54  C   UNL A   1      47.550  29.408  30.181  1.00  0.00     0.029 A 
ATOM     55  N   UNL A   1      45.413  28.949  29.761  1.00  0.00    -0.354 N 
ATOM     56  N   UNL A   1      42.549  29.589  29.546  1.00  0.00    -0.248 NA
ATOM     57  C   UNL A   1      40.751  31.008  30.000  1.00  0.00     0.031 C 
ATOM     58  C   UNL A   1      46.776  30.506  30.567  1.00  0.00     0.029 A 
ATOM     59  C   UNL A   1      45.447  30.230  30.287  1.00  0.00     0.049 A 
ATOM     60  H   UNL A   1      44.600  28.480  29.465  1.00  0.00     0.167 HD
ATOM     61  C   UNL A   1      43.023  30.744  30.156  1.00  0.00     0.074 A 
ATOM     62  C   UNL A   1      41.875  31.597  30.385  1.00  0.00     0.031 C 
ATOM     63  C   UNL A   1      44.293  31.068  30.497  1.00  0.00     0.037 A 
BRANCH  50  64
ATOM     64  C   UNL A   1      48.441  26.628  29.384  1.00  0.00     0.057 A 
ATOM     65  C   UNL A   1      49.376  26.857  28.367  1.00  0.00     0.134 A 
ATOM     66  C   UNL A   1      48.880  25.950  30.528  1.00  0.00     0.134 A 
ATOM     67  F   UNL A   1      49.013  27.483  27.237  1.00  0.00    -0.206 F 
ATOM     68  C   UNL A   1      50.693  26.409  28.473  1.00  0.00     0.040 A 
ATOM     69  C   UNL A   1      50.200  25.520  30.658  1.00  0.00     0.040 A 
ATOM     70  F   UNL A   1      48.033  25.697  31.536  1.00  0.00    -0.206 F 
ATOM     71  C   UNL A   1      51.109  25.744  29.626  1.00  0.00     0.006 A 
ENDBRANCH  50  64
BRANCH  51  72
ATOM     72  C   UNL A   1      38.787  29.169  28.845  1.00  0.00     0.057 A 
ATOM     73  C   UNL A   1      38.002  29.063  29.998  1.00  0.00     0.134 A 
ATOM     74  C   UNL A   1      38.145  29.581  27.669  1.00  0.00     0.134 A 
ATOM     75  F   UNL A   1      38.550  28.649  31.151  1.00  0.00    -0.206 F 
ATOM     76  C   UNL A   1      36.630  29.327  29.981  1.00  0.00     0.040 A 
ATOM     77  C   UNL A   1      36.780  29.877  27.644  1.00  0.00     0.040 A 
ATOM     78  F   UNL A   1      38.835  29.704  26.527  1.00  0.00    -0.206 F 
ATOM     79  C   UNL A   1      36.016  29.739  28.799  1.00  0.00     0.006 A 
ENDBRANCH  51  72
BRANCH  63  80
ATOM     80  C   UNL A   1      44.520  32.412  31.123  1.00  0.00     0.057 A 
ATOM     81  C   UNL A   1      44.520  32.591  32.512  1.00  0.00     0.134 A 
ATOM     82  C   UNL A   1      44.809  33.527  30.325  1.00  0.00     0.134 A 
ATOM     83  F   UNL A   1      44.234  31.567  33.330  1.00  0.00    -0.206 F 
ATOM     84  C   UNL A   1      44.790  33.835  33.085  1.00  0.00     0.040 A 
ATOM     85  C   UNL A   1      45.108  34.768  30.887  1.00  0.00     0.040 A 
ATOM     86  F   UNL A   1      44.831  33.420  28.988  1.00  0.00    -0.206 F 
ATOM     87  C   UNL A   1      45.097  34.925  32.272  1.00  0.00     0.006 A 
ENDBRANCH  63  80
ENDBRANCH  37  38
ENDBRANCH  30  32
ENDBRANCH  29  30
ENDBRANCH  28  29
ENDBRANCH  27  28
ENDBRANCH  26  27
ENDBRANCH  25  26
ENDBRANCH   1  25
TORSDOF 20
ENDMDL
