MODEL 1
REMARK VINA RESULT:     -11.3      0.000      0.000
REMARK SMILES CS(=O)(=O)[C@@H]1CCC[C@@H](Sc2ccc(C(=O)OCCOCCOC(=O)c3ccc(-c4c5nc(c(-c6c(F)cccc6F)c6ccc([nH]6)c(-c6c(F)cccc6F)c6nc(c(-c7c(F)cccc7F)c7ccc4[nH]7)C=C6)C=C5)cc3)cn2)C1
REMARK SMILES IDX 19 1 18 2 17 3 15 4 16 5 14 6 11 7 12 8 81 9 13 10 80 11
REMARK SMILES IDX 10 12 9 13 5 14 6 15 82 16 7 17 8 18 2 19 1 20 3 21 4 22
REMARK SMILES IDX 20 23 21 24 22 25 23 26 24 27 25 28 26 29 27 30 79 31 28 32
REMARK SMILES IDX 78 33 29 34 30 35 31 36 72 37 32 38 77 39 71 40 73 41 33 42
REMARK SMILES IDX 76 43 70 44 69 45 34 47 60 48 43 49 59 50 44 51 47 52 58 53
REMARK SMILES IDX 74 54 45 55 46 56 57 58 75 59 48 60 35 61 36 62 41 63 37 64
REMARK SMILES IDX 38 65 40 66 42 67 39 68 61 69 62 70 67 71 63 72 64 73 66 74
REMARK SMILES IDX 68 75 65 76 49 77 50 78 55 79 51 80 52 81 54 82 56 83 53 84
REMARK H PARENT 73 46 47 57
REMARK Flexibility Score: inf
ROOT
ATOM      1  C   UNL A   1      34.632  33.352  28.088  1.00  0.00     0.202 C 
ENDROOT
BRANCH   1   2
ATOM      2  C   UNL A   1      34.052  31.973  28.415  1.00  0.00     0.261 C 
BRANCH   2   3
ATOM      3  O   UNL A   1      33.913  31.188  27.226  1.00  0.00    -0.460 OA
BRANCH   3   4
ATOM      4  C   UNL A   1      34.547  29.989  27.203  1.00  0.00     0.339 C 
ATOM      5  O   UNL A   1      35.707  29.760  27.498  1.00  0.00    -0.246 OA
BRANCH   4   6
ATOM      6  C   UNL A   1      33.556  28.949  26.868  1.00  0.00     0.078 A 
ATOM      7  C   UNL A   1      31.772  26.880  26.312  1.00  0.00     0.096 A 
ATOM      8  C   UNL A   1      31.396  27.959  27.078  1.00  0.00     0.036 A 
ATOM      9  N   UNL A   1      33.040  26.811  25.840  1.00  0.00    -0.249 NA
ATOM     10  C   UNL A   1      32.263  29.003  27.357  1.00  0.00     0.020 A 
ATOM     11  C   UNL A   1      33.902  27.834  26.124  1.00  0.00     0.128 A 
BRANCH   7  12
ATOM     12  S   UNL A   1      30.733  25.488  25.944  1.00  0.00    -0.103 SA
BRANCH  12  13
ATOM     13  C   UNL A   1      30.082  25.531  24.189  1.00  0.00     0.054 C 
ATOM     14  C   UNL A   1      30.264  27.897  23.271  1.00  0.00     0.109 C 
ATOM     15  C   UNL A   1      31.131  27.392  22.102  1.00  0.00     0.020 C 
ATOM     16  C   UNL A   1      29.335  26.811  23.789  1.00  0.00     0.034 C 
ATOM     17  C   UNL A   1      31.761  25.999  22.254  1.00  0.00     0.002 C 
ATOM     18  C   UNL A   1      30.958  24.982  23.059  1.00  0.00     0.015 C 
BRANCH  14  19
ATOM     19  S   UNL A   1      29.389  29.411  22.845  1.00  0.00     0.150 S 
ATOM     20  C   UNL A   1      27.680  28.914  22.941  1.00  0.00     0.158 C 
ATOM     21  O   UNL A   1      29.658  29.705  21.451  1.00  0.00    -0.229 OA
ATOM     22  O   UNL A   1      29.631  30.400  23.876  1.00  0.00    -0.229 OA
ENDBRANCH  14  19
ENDBRANCH  12  13
ENDBRANCH   7  12
ENDBRANCH   4   6
ENDBRANCH   3   4
ENDBRANCH   2   3
ENDBRANCH   1   2
BRANCH   1  23
ATOM     23  O   UNL A   1      35.084  34.110  29.209  1.00  0.00    -0.374 OA
BRANCH  23  24
ATOM     24  C   UNL A   1      34.114  34.396  30.221  1.00  0.00     0.202 C 
BRANCH  24  25
ATOM     25  C   UNL A   1      34.464  33.926  31.638  1.00  0.00     0.261 C 
BRANCH  25  26
ATOM     26  O   UNL A   1      34.824  32.532  31.657  1.00  0.00    -0.460 OA
BRANCH  26  27
ATOM     27  C   UNL A   1      35.841  32.225  32.497  1.00  0.00     0.338 C 
ATOM     28  O   UNL A   1      35.904  32.436  33.696  1.00  0.00    -0.246 OA
BRANCH  27  29
ATOM     29  C   UNL A   1      36.844  31.417  31.781  1.00  0.00     0.060 A 
ATOM     30  C   UNL A   1      37.751  30.677  32.549  1.00  0.00     0.016 A 
ATOM     31  C   UNL A   1      36.944  31.444  30.388  1.00  0.00     0.016 A 
ATOM     32  C   UNL A   1      38.802  30.004  31.931  1.00  0.00     0.010 A 
ATOM     33  C   UNL A   1      38.001  30.771  29.770  1.00  0.00     0.010 A 
ATOM     34  C   UNL A   1      38.957  30.083  30.542  1.00  0.00    -0.014 A 
BRANCH  34  35
ATOM     35  C   UNL A   1      40.198  29.590  29.900  1.00  0.00     0.031 A 
ATOM     36  C   UNL A   1      41.337  30.550  29.695  1.00  0.00     0.074 A 
ATOM     37  C   UNL A   1      40.310  28.312  29.502  1.00  0.00     0.049 A 
ATOM     38  N   UNL A   1      42.465  30.378  29.056  1.00  0.00    -0.248 NA
ATOM     39  C   UNL A   1      41.176  31.890  30.282  1.00  0.00     0.031 C 
ATOM     40  C   UNL A   1      39.296  27.275  29.690  1.00  0.00     0.029 A 
ATOM     41  N   UNL A   1      41.326  27.674  28.837  1.00  0.00    -0.354 N 
ATOM     42  C   UNL A   1      43.138  31.590  29.148  1.00  0.00     0.074 A 
ATOM     43  C   UNL A   1      42.280  32.498  29.878  1.00  0.00     0.031 C 
ATOM     44  C   UNL A   1      39.735  26.133  29.135  1.00  0.00     0.029 A 
ATOM     45  C   UNL A   1      41.038  26.370  28.516  1.00  0.00     0.049 A 
ATOM     46  H   UNL A   1      42.179  28.109  28.611  1.00  0.00     0.167 HD
ATOM     47  C   UNL A   1      44.364  31.914  28.671  1.00  0.00     0.037 A 
ATOM     48  C   UNL A   1      41.733  25.483  27.778  1.00  0.00     0.037 A 
ATOM     49  C   UNL A   1      45.213  31.004  27.949  1.00  0.00     0.049 A 
ATOM     50  C   UNL A   1      43.059  25.890  27.192  1.00  0.00     0.074 A 
ATOM     51  C   UNL A   1      46.480  31.228  27.439  1.00  0.00     0.029 A 
ATOM     52  N   UNL A   1      44.879  29.697  27.627  1.00  0.00    -0.354 N 
ATOM     53  N   UNL A   1      43.696  27.032  27.294  1.00  0.00    -0.248 NA
ATOM     54  C   UNL A   1      43.765  24.882  26.388  1.00  0.00     0.031 C 
ATOM     55  C   UNL A   1      46.887  30.077  26.759  1.00  0.00     0.029 A 
ATOM     56  C   UNL A   1      45.903  29.112  26.903  1.00  0.00     0.049 A 
ATOM     57  H   UNL A   1      44.036  29.252  27.877  1.00  0.00     0.167 HD
ATOM     58  C   UNL A   1      44.891  26.868  26.602  1.00  0.00     0.074 A 
ATOM     59  C   UNL A   1      44.893  25.513  26.091  1.00  0.00     0.031 C 
ATOM     60  C   UNL A   1      45.897  27.756  26.412  1.00  0.00     0.037 A 
BRANCH  47  61
ATOM     61  C   UNL A   1      44.842  33.321  28.888  1.00  0.00     0.057 A 
ATOM     62  C   UNL A   1      45.612  33.684  30.001  1.00  0.00     0.134 A 
ATOM     63  C   UNL A   1      44.554  34.322  27.950  1.00  0.00     0.134 A 
ATOM     64  F   UNL A   1      45.913  32.778  30.945  1.00  0.00    -0.206 F 
ATOM     65  C   UNL A   1      46.052  34.995  30.189  1.00  0.00     0.040 A 
ATOM     66  C   UNL A   1      45.014  35.630  28.111  1.00  0.00     0.040 A 
ATOM     67  F   UNL A   1      43.826  34.044  26.858  1.00  0.00    -0.206 F 
ATOM     68  C   UNL A   1      45.759  35.971  29.238  1.00  0.00     0.006 A 
ENDBRANCH  47  61
BRANCH  48  69
ATOM     69  C   UNL A   1      41.183  24.124  27.536  1.00  0.00     0.057 A 
ATOM     70  C   UNL A   1      40.134  23.918  26.632  1.00  0.00     0.134 A 
ATOM     71  C   UNL A   1      41.678  23.005  28.216  1.00  0.00     0.134 A 
ATOM     72  F   UNL A   1      39.603  24.954  25.966  1.00  0.00    -0.206 F 
ATOM     73  C   UNL A   1      39.583  22.651  26.430  1.00  0.00     0.040 A 
ATOM     74  C   UNL A   1      41.155  21.729  28.002  1.00  0.00     0.040 A 
ATOM     75  F   UNL A   1      42.687  23.133  29.090  1.00  0.00    -0.206 F 
ATOM     76  C   UNL A   1      40.097  21.551  27.113  1.00  0.00     0.006 A 
ENDBRANCH  48  69
BRANCH  60  77
ATOM     77  C   UNL A   1      47.113  27.279  25.668  1.00  0.00     0.057 A 
ATOM     78  C   UNL A   1      48.130  26.548  26.292  1.00  0.00     0.134 A 
ATOM     79  C   UNL A   1      47.240  27.519  24.293  1.00  0.00     0.134 A 
ATOM     80  F   UNL A   1      48.078  26.294  27.609  1.00  0.00    -0.206 F 
ATOM     81  C   UNL A   1      49.242  26.091  25.580  1.00  0.00     0.040 A 
ATOM     82  C   UNL A   1      48.330  27.040  23.565  1.00  0.00     0.040 A 
ATOM     83  F   UNL A   1      46.296  28.204  23.630  1.00  0.00    -0.206 F 
ATOM     84  C   UNL A   1      49.339  26.330  24.211  1.00  0.00     0.006 A 
ENDBRANCH  60  77
ENDBRANCH  34  35
ENDBRANCH  27  29
ENDBRANCH  26  27
ENDBRANCH  25  26
ENDBRANCH  24  25
ENDBRANCH  23  24
ENDBRANCH   1  23
TORSDOF 17
ENDMDL
MODEL 2
REMARK VINA RESULT:     -11.1      5.071      9.972
REMARK SMILES CS(=O)(=O)[C@@H]1CCC[C@@H](Sc2ccc(C(=O)OCCOCCOC(=O)c3ccc(-c4c5nc(c(-c6c(F)cccc6F)c6ccc([nH]6)c(-c6c(F)cccc6F)c6nc(c(-c7c(F)cccc7F)c7ccc4[nH]7)C=C6)C=C5)cc3)cn2)C1
REMARK SMILES IDX 19 1 18 2 17 3 15 4 16 5 14 6 11 7 12 8 81 9 13 10 80 11
REMARK SMILES IDX 10 12 9 13 5 14 6 15 82 16 7 17 8 18 2 19 1 20 3 21 4 22
REMARK SMILES IDX 20 23 21 24 22 25 23 26 24 27 25 28 26 29 27 30 79 31 28 32
REMARK SMILES IDX 78 33 29 34 30 35 31 36 72 37 32 38 77 39 71 40 73 41 33 42
REMARK SMILES IDX 76 43 70 44 69 45 34 47 60 48 43 49 59 50 44 51 47 52 58 53
REMARK SMILES IDX 74 54 45 55 46 56 57 58 75 59 48 60 35 61 36 62 41 63 37 64
REMARK SMILES IDX 38 65 40 66 42 67 39 68 61 69 62 70 67 71 63 72 64 73 66 74
REMARK SMILES IDX 68 75 65 76 49 77 50 78 55 79 51 80 52 81 54 82 56 83 53 84
REMARK H PARENT 73 46 47 57
REMARK Flexibility Score: inf
ROOT
ATOM      1  C   UNL A   1      40.769  21.533  26.001  1.00  0.00     0.202 C 
ENDROOT
BRANCH   1   2
ATOM      2  C   UNL A   1      39.318  21.065  26.149  1.00  0.00     0.261 C 
BRANCH   2   3
ATOM      3  O   UNL A   1      38.451  21.834  25.307  1.00  0.00    -0.460 OA
BRANCH   3   4
ATOM      4  C   UNL A   1      37.961  22.990  25.820  1.00  0.00     0.339 C 
ATOM      5  O   UNL A   1      38.429  23.653  26.729  1.00  0.00    -0.246 OA
BRANCH   4   6
ATOM      6  C   UNL A   1      36.801  23.400  25.007  1.00  0.00     0.078 A 
ATOM      7  C   UNL A   1      34.572  24.024  23.451  1.00  0.00     0.096 A 
ATOM      8  C   UNL A   1      34.657  24.420  24.766  1.00  0.00     0.036 A 
ATOM      9  N   UNL A   1      35.580  23.296  22.911  1.00  0.00    -0.249 NA
ATOM     10  C   UNL A   1      35.760  24.130  25.553  1.00  0.00     0.020 A 
ATOM     11  C   UNL A   1      36.664  22.998  23.689  1.00  0.00     0.128 A 
BRANCH   7  12
ATOM     12  S   UNL A   1      33.179  24.321  22.392  1.00  0.00    -0.103 SA
BRANCH  12  13
ATOM     13  C   UNL A   1      31.683  23.308  22.884  1.00  0.00     0.054 C 
ATOM     14  C   UNL A   1      32.425  21.324  24.294  1.00  0.00     0.109 C 
ATOM     15  C   UNL A   1      31.513  21.785  25.447  1.00  0.00     0.020 C 
ATOM     16  C   UNL A   1      31.901  21.789  22.946  1.00  0.00     0.034 C 
ATOM     17  C   UNL A   1      31.007  23.235  25.398  1.00  0.00     0.002 C 
ATOM     18  C   UNL A   1      30.778  23.820  24.008  1.00  0.00     0.015 C 
BRANCH  14  19
ATOM     19  S   UNL A   1      32.720  19.550  24.348  1.00  0.00     0.150 S 
ATOM     20  C   UNL A   1      34.478  19.456  24.632  1.00  0.00     0.158 C 
ATOM     21  O   UNL A   1      32.485  19.018  23.020  1.00  0.00    -0.229 OA
ATOM     22  O   UNL A   1      32.045  18.995  25.504  1.00  0.00    -0.229 OA
ENDBRANCH  14  19
ENDBRANCH  12  13
ENDBRANCH   7  12
ENDBRANCH   4   6
ENDBRANCH   3   4
ENDBRANCH   2   3
ENDBRANCH   1   2
BRANCH   1  23
ATOM     23  O   UNL A   1      41.751  20.497  26.000  1.00  0.00    -0.374 OA
BRANCH  23  24
ATOM     24  C   UNL A   1      43.109  20.903  26.193  1.00  0.00     0.202 C 
BRANCH  24  25
ATOM     25  C   UNL A   1      43.742  21.698  25.046  1.00  0.00     0.261 C 
BRANCH  25  26
ATOM     26  O   UNL A   1      43.052  22.942  24.824  1.00  0.00    -0.460 OA
BRANCH  26  27
ATOM     27  C   UNL A   1      43.811  24.047  25.013  1.00  0.00     0.338 C 
ATOM     28  O   UNL A   1      44.857  24.335  24.458  1.00  0.00    -0.246 OA
BRANCH  27  29
ATOM     29  C   UNL A   1      43.099  24.988  25.897  1.00  0.00     0.060 A 
ATOM     30  C   UNL A   1      43.526  26.321  25.905  1.00  0.00     0.016 A 
ATOM     31  C   UNL A   1      42.086  24.557  26.756  1.00  0.00     0.016 A 
ATOM     32  C   UNL A   1      42.981  27.222  26.817  1.00  0.00     0.010 A 
ATOM     33  C   UNL A   1      41.543  25.461  27.672  1.00  0.00     0.010 A 
ATOM     34  C   UNL A   1      42.017  26.785  27.734  1.00  0.00    -0.014 A 
BRANCH  34  35
ATOM     35  C   UNL A   1      41.615  27.656  28.864  1.00  0.00     0.031 A 
ATOM     36  C   UNL A   1      42.372  27.555  30.159  1.00  0.00     0.074 A 
ATOM     37  C   UNL A   1      40.590  28.516  28.743  1.00  0.00     0.049 A 
ATOM     38  N   UNL A   1      42.129  28.125  31.311  1.00  0.00    -0.248 NA
ATOM     39  C   UNL A   1      43.560  26.686  30.155  1.00  0.00     0.031 C 
ATOM     40  C   UNL A   1      39.812  28.740  27.526  1.00  0.00     0.029 A 
ATOM     41  N   UNL A   1      40.017  29.350  29.669  1.00  0.00    -0.354 N 
ATOM     42  C   UNL A   1      43.119  27.669  32.172  1.00  0.00     0.074 A 
ATOM     43  C   UNL A   1      43.949  26.753  31.419  1.00  0.00     0.031 C 
ATOM     44  C   UNL A   1      38.848  29.640  27.786  1.00  0.00     0.029 A 
ATOM     45  C   UNL A   1      38.916  30.021  29.196  1.00  0.00     0.049 A 
ATOM     46  H   UNL A   1      40.362  29.458  30.585  1.00  0.00     0.167 HD
ATOM     47  C   UNL A   1      43.322  27.990  33.472  1.00  0.00     0.037 A 
ATOM     48  C   UNL A   1      38.045  30.822  29.838  1.00  0.00     0.037 A 
ATOM     49  C   UNL A   1      42.495  28.906  34.214  1.00  0.00     0.049 A 
ATOM     50  C   UNL A   1      38.244  31.105  31.304  1.00  0.00     0.074 A 
ATOM     51  C   UNL A   1      42.625  29.312  35.530  1.00  0.00     0.029 A 
ATOM     52  N   UNL A   1      41.377  29.550  33.705  1.00  0.00    -0.354 N 
ATOM     53  N   UNL A   1      39.190  30.682  32.109  1.00  0.00    -0.248 NA
ATOM     54  C   UNL A   1      37.255  31.979  31.951  1.00  0.00     0.031 C 
ATOM     55  C   UNL A   1      41.554  30.157  35.834  1.00  0.00     0.029 A 
ATOM     56  C   UNL A   1      40.794  30.331  34.689  1.00  0.00     0.049 A 
ATOM     57  H   UNL A   1      41.048  29.465  32.781  1.00  0.00     0.167 HD
ATOM     58  C   UNL A   1      38.932  31.267  33.344  1.00  0.00     0.074 A 
ATOM     59  C   UNL A   1      37.745  32.080  33.179  1.00  0.00     0.031 C 
ATOM     60  C   UNL A   1      39.619  31.147  34.507  1.00  0.00     0.037 A 
BRANCH  47  61
ATOM     61  C   UNL A   1      44.463  27.321  34.183  1.00  0.00     0.057 A 
ATOM     62  C   UNL A   1      44.338  26.054  34.767  1.00  0.00     0.134 A 
ATOM     63  C   UNL A   1      45.717  27.944  34.257  1.00  0.00     0.134 A 
ATOM     64  F   UNL A   1      43.162  25.408  34.746  1.00  0.00    -0.206 F 
ATOM     65  C   UNL A   1      45.409  25.443  35.423  1.00  0.00     0.040 A 
ATOM     66  C   UNL A   1      46.803  27.330  34.883  1.00  0.00     0.040 A 
ATOM     67  F   UNL A   1      45.909  29.156  33.715  1.00  0.00    -0.206 F 
ATOM     68  C   UNL A   1      46.648  26.078  35.475  1.00  0.00     0.006 A 
ENDBRANCH  47  61
BRANCH  48  69
ATOM     69  C   UNL A   1      36.891  31.406  29.105  1.00  0.00     0.057 A 
ATOM     70  C   UNL A   1      35.760  30.638  28.806  1.00  0.00     0.134 A 
ATOM     71  C   UNL A   1      36.901  32.737  28.670  1.00  0.00     0.134 A 
ATOM     72  F   UNL A   1      35.701  29.351  29.177  1.00  0.00    -0.206 F 
ATOM     73  C   UNL A   1      34.690  31.166  28.080  1.00  0.00     0.040 A 
ATOM     74  C   UNL A   1      35.826  33.285  27.969  1.00  0.00     0.040 A 
ATOM     75  F   UNL A   1      37.952  33.528  28.930  1.00  0.00    -0.206 F 
ATOM     76  C   UNL A   1      34.719  32.495  27.664  1.00  0.00     0.006 A 
ENDBRANCH  48  69
BRANCH  60  77
ATOM     77  C   UNL A   1      39.142  31.954  35.681  1.00  0.00     0.057 A 
ATOM     78  C   UNL A   1      38.267  31.431  36.641  1.00  0.00     0.134 A 
ATOM     79  C   UNL A   1      39.608  33.262  35.876  1.00  0.00     0.134 A 
ATOM     80  F   UNL A   1      37.774  30.190  36.508  1.00  0.00    -0.206 F 
ATOM     81  C   UNL A   1      37.853  32.187  37.739  1.00  0.00     0.040 A 
ATOM     82  C   UNL A   1      39.226  34.016  36.987  1.00  0.00     0.040 A 
ATOM     83  F   UNL A   1      40.457  33.821  35.001  1.00  0.00    -0.206 F 
ATOM     84  C   UNL A   1      38.340  33.481  37.919  1.00  0.00     0.006 A 
ENDBRANCH  60  77
ENDBRANCH  34  35
ENDBRANCH  27  29
ENDBRANCH  26  27
ENDBRANCH  25  26
ENDBRANCH  24  25
ENDBRANCH  23  24
ENDBRANCH   1  23
TORSDOF 17
ENDMDL
MODEL 3
REMARK VINA RESULT:     -11.0      4.673      9.731
REMARK SMILES CS(=O)(=O)[C@@H]1CCC[C@@H](Sc2ccc(C(=O)OCCOCCOC(=O)c3ccc(-c4c5nc(c(-c6c(F)cccc6F)c6ccc([nH]6)c(-c6c(F)cccc6F)c6nc(c(-c7c(F)cccc7F)c7ccc4[nH]7)C=C6)C=C5)cc3)cn2)C1
REMARK SMILES IDX 19 1 18 2 17 3 15 4 16 5 14 6 11 7 12 8 81 9 13 10 80 11
REMARK SMILES IDX 10 12 9 13 5 14 6 15 82 16 7 17 8 18 2 19 1 20 3 21 4 22
REMARK SMILES IDX 20 23 21 24 22 25 23 26 24 27 25 28 26 29 27 30 79 31 28 32
REMARK SMILES IDX 78 33 29 34 30 35 31 36 72 37 32 38 77 39 71 40 73 41 33 42
REMARK SMILES IDX 76 43 70 44 69 45 34 47 60 48 43 49 59 50 44 51 47 52 58 53
REMARK SMILES IDX 74 54 45 55 46 56 57 58 75 59 48 60 35 61 36 62 41 63 37 64
REMARK SMILES IDX 38 65 40 66 42 67 39 68 61 69 62 70 67 71 63 72 64 73 66 74
REMARK SMILES IDX 68 75 65 76 49 77 50 78 55 79 51 80 52 81 54 82 56 83 53 84
REMARK H PARENT 73 46 47 57
REMARK Flexibility Score: inf
ROOT
ATOM      1  C   UNL A   1      40.763  20.646  27.198  1.00  0.00     0.202 C 
ENDROOT
BRANCH   1   2
ATOM      2  C   UNL A   1      40.174  21.343  25.968  1.00  0.00     0.261 C 
BRANCH   2   3
ATOM      3  O   UNL A   1      38.846  21.808  26.238  1.00  0.00    -0.460 OA
BRANCH   3   4
ATOM      4  C   UNL A   1      37.867  21.395  25.395  1.00  0.00     0.339 C 
ATOM      5  O   UNL A   1      37.893  20.435  24.645  1.00  0.00    -0.246 OA
BRANCH   4   6
ATOM      6  C   UNL A   1      36.680  22.243  25.616  1.00  0.00     0.078 A 
ATOM      7  C   UNL A   1      34.404  23.831  25.883  1.00  0.00     0.096 A 
ATOM      8  C   UNL A   1      34.514  22.628  26.540  1.00  0.00     0.036 A 
ATOM      9  N   UNL A   1      35.410  24.239  25.072  1.00  0.00    -0.249 NA
ATOM     10  C   UNL A   1      35.641  21.828  26.430  1.00  0.00     0.020 A 
ATOM     11  C   UNL A   1      36.519  23.447  24.952  1.00  0.00     0.128 A 
BRANCH   7  12
ATOM     12  S   UNL A   1      32.980  24.890  25.941  1.00  0.00    -0.103 SA
BRANCH  12  13
ATOM     13  C   UNL A   1      33.352  26.617  25.318  1.00  0.00     0.054 C 
ATOM     14  C   UNL A   1      31.201  27.711  24.512  1.00  0.00     0.109 C 
ATOM     15  C   UNL A   1      31.404  28.873  25.502  1.00  0.00     0.020 C 
ATOM     16  C   UNL A   1      32.524  27.079  24.111  1.00  0.00     0.034 C 
ATOM     17  C   UNL A   1      32.402  28.645  26.648  1.00  0.00     0.002 C 
ATOM     18  C   UNL A   1      33.587  27.737  26.335  1.00  0.00     0.015 C 
BRANCH  14  19
ATOM     19  S   UNL A   1      30.215  28.212  23.092  1.00  0.00     0.150 S 
ATOM     20  C   UNL A   1      28.597  27.583  23.501  1.00  0.00     0.158 C 
ATOM     21  O   UNL A   1      30.674  27.459  21.941  1.00  0.00    -0.229 OA
ATOM     22  O   UNL A   1      30.141  29.658  23.057  1.00  0.00    -0.229 OA
ENDBRANCH  14  19
ENDBRANCH  12  13
ENDBRANCH   7  12
ENDBRANCH   4   6
ENDBRANCH   3   4
ENDBRANCH   2   3
ENDBRANCH   1   2
BRANCH   1  23
ATOM     23  O   UNL A   1      42.164  20.383  27.143  1.00  0.00    -0.374 OA
BRANCH  23  24
ATOM     24  C   UNL A   1      42.731  20.208  25.842  1.00  0.00     0.202 C 
BRANCH  24  25
ATOM     25  C   UNL A   1      43.893  21.142  25.484  1.00  0.00     0.261 C 
BRANCH  25  26
ATOM     26  O   UNL A   1      43.837  22.367  26.239  1.00  0.00    -0.460 OA
BRANCH  26  27
ATOM     27  C   UNL A   1      43.633  23.478  25.492  1.00  0.00     0.338 C 
ATOM     28  O   UNL A   1      43.823  23.615  24.296  1.00  0.00    -0.246 OA
BRANCH  27  29
ATOM     29  C   UNL A   1      42.965  24.505  26.311  1.00  0.00     0.060 A 
ATOM     30  C   UNL A   1      43.499  25.799  26.292  1.00  0.00     0.016 A 
ATOM     31  C   UNL A   1      41.886  24.189  27.140  1.00  0.00     0.016 A 
ATOM     32  C   UNL A   1      42.993  26.775  27.149  1.00  0.00     0.010 A 
ATOM     33  C   UNL A   1      41.382  25.168  28.000  1.00  0.00     0.010 A 
ATOM     34  C   UNL A   1      41.959  26.451  28.037  1.00  0.00    -0.014 A 
BRANCH  34  35
ATOM     35  C   UNL A   1      41.584  27.393  29.118  1.00  0.00     0.031 A 
ATOM     36  C   UNL A   1      42.334  27.335  30.420  1.00  0.00     0.074 A 
ATOM     37  C   UNL A   1      40.590  28.280  28.947  1.00  0.00     0.049 A 
ATOM     38  N   UNL A   1      42.107  27.972  31.539  1.00  0.00    -0.248 NA
ATOM     39  C   UNL A   1      43.491  26.427  30.468  1.00  0.00     0.031 C 
ATOM     40  C   UNL A   1      39.823  28.466  27.717  1.00  0.00     0.029 A 
ATOM     41  N   UNL A   1      40.043  29.181  29.826  1.00  0.00    -0.354 N 
ATOM     42  C   UNL A   1      43.079  27.529  32.428  1.00  0.00     0.074 A 
ATOM     43  C   UNL A   1      43.879  26.547  31.728  1.00  0.00     0.031 C 
ATOM     44  C   UNL A   1      38.890  29.411  27.925  1.00  0.00     0.029 A 
ATOM     45  C   UNL A   1      38.967  29.863  29.313  1.00  0.00     0.049 A 
ATOM     46  H   UNL A   1      40.389  29.325  30.736  1.00  0.00     0.167 HD
ATOM     47  C   UNL A   1      43.289  27.911  33.710  1.00  0.00     0.037 A 
ATOM     48  C   UNL A   1      38.122  30.726  29.908  1.00  0.00     0.037 A 
ATOM     49  C   UNL A   1      42.491  28.892  34.399  1.00  0.00     0.049 A 
ATOM     50  C   UNL A   1      38.327  31.079  31.358  1.00  0.00     0.074 A 
ATOM     51  C   UNL A   1      42.632  29.363  35.693  1.00  0.00     0.029 A 
ATOM     52  N   UNL A   1      41.398  29.547  33.852  1.00  0.00    -0.354 N 
ATOM     53  N   UNL A   1      39.255  30.666  32.188  1.00  0.00    -0.248 NA
ATOM     54  C   UNL A   1      37.366  32.018  31.955  1.00  0.00     0.031 C 
ATOM     55  C   UNL A   1      41.589  30.258  35.947  1.00  0.00     0.029 A 
ATOM     56  C   UNL A   1      40.839  30.397  34.790  1.00  0.00     0.049 A 
ATOM     57  H   UNL A   1      41.069  29.424  32.932  1.00  0.00     0.167 HD
ATOM     58  C   UNL A   1      39.014  31.324  33.390  1.00  0.00     0.074 A 
ATOM     59  C   UNL A   1      37.856  32.167  33.177  1.00  0.00     0.031 C 
ATOM     60  C   UNL A   1      39.693  31.242  34.560  1.00  0.00     0.037 A 
BRANCH  47  61
ATOM     61  C   UNL A   1      44.404  27.242  34.460  1.00  0.00     0.057 A 
ATOM     62  C   UNL A   1      44.216  26.050  35.171  1.00  0.00     0.134 A 
ATOM     63  C   UNL A   1      45.697  27.785  34.445  1.00  0.00     0.134 A 
ATOM     64  F   UNL A   1      43.001  25.483  35.240  1.00  0.00    -0.206 F 
ATOM     65  C   UNL A   1      45.263  25.437  35.862  1.00  0.00     0.040 A 
ATOM     66  C   UNL A   1      46.759  27.166  35.106  1.00  0.00     0.040 A 
ATOM     67  F   UNL A   1      45.950  28.922  33.780  1.00  0.00    -0.206 F 
ATOM     68  C   UNL A   1      46.541  25.992  35.824  1.00  0.00     0.006 A 
ENDBRANCH  47  61
BRANCH  48  69
ATOM     69  C   UNL A   1      36.991  31.309  29.141  1.00  0.00     0.057 A 
ATOM     70  C   UNL A   1      37.031  32.631  28.684  1.00  0.00     0.134 A 
ATOM     71  C   UNL A   1      35.836  30.566  28.865  1.00  0.00     0.134 A 
ATOM     72  F   UNL A   1      38.101  33.400  28.936  1.00  0.00    -0.206 F 
ATOM     73  C   UNL A   1      35.955  33.201  28.000  1.00  0.00     0.040 A 
ATOM     74  C   UNL A   1      34.766  31.114  28.158  1.00  0.00     0.040 A 
ATOM     75  F   UNL A   1      35.737  29.292  29.270  1.00  0.00    -0.206 F 
ATOM     76  C   UNL A   1      34.820  32.440  27.730  1.00  0.00     0.006 A 
ENDBRANCH  48  69
BRANCH  60  77
ATOM     77  C   UNL A   1      39.241  32.125  35.689  1.00  0.00     0.057 A 
ATOM     78  C   UNL A   1      38.330  31.691  36.659  1.00  0.00     0.134 A 
ATOM     79  C   UNL A   1      39.767  33.417  35.829  1.00  0.00     0.134 A 
ATOM     80  F   UNL A   1      37.778  30.470  36.576  1.00  0.00    -0.206 F 
ATOM     81  C   UNL A   1      37.939  32.517  37.714  1.00  0.00     0.040 A 
ATOM     82  C   UNL A   1      39.408  34.240  36.898  1.00  0.00     0.040 A 
ATOM     83  F   UNL A   1      40.653  33.893  34.942  1.00  0.00    -0.206 F 
ATOM     84  C   UNL A   1      38.485  33.793  37.841  1.00  0.00     0.006 A 
ENDBRANCH  60  77
ENDBRANCH  34  35
ENDBRANCH  27  29
ENDBRANCH  26  27
ENDBRANCH  25  26
ENDBRANCH  24  25
ENDBRANCH  23  24
ENDBRANCH   1  23
TORSDOF 17
ENDMDL
