MODEL 1
REMARK VINA RESULT:     -11.0      0.000      0.000
REMARK SMILES COCCN1C(=O)C[C@H](C(=O)OCCOCCOC(=O)c2ccc(-c3c4nc(c(-c5c(F)cccc5F)c5ccc([nH]5)c(-c5c(F)cccc5F)c5nc(c(-c6c(F)cccc6F)c6ccc3[nH]6)C=C5)C=C4)cc2)[C@@H]1c1ccccc1N1CCOCC1
REMARK SMILES IDX 14 1 13 2 12 3 10 4 11 5 9 6 5 7 6 8 75 9 7 10 8 11 4 12
REMARK SMILES IDX 3 13 2 14 1 15 76 16 77 17 81 18 78 19 80 20 79 21 82 22
REMARK SMILES IDX 83 23 87 24 84 25 86 26 85 27 15 28 16 29 17 30 18 31 19 32
REMARK SMILES IDX 20 33 21 34 22 35 74 36 23 37 73 38 24 39 25 40 26 41 67 42
REMARK SMILES IDX 27 43 72 44 66 45 68 46 28 47 71 48 65 49 64 50 29 52 55 53
REMARK SMILES IDX 38 54 54 55 39 56 42 57 53 58 69 59 40 60 41 61 52 63 70 64
REMARK SMILES IDX 43 65 30 66 31 67 36 68 32 69 33 70 35 71 37 72 34 73 56 74
REMARK SMILES IDX 57 75 62 76 58 77 59 78 61 79 63 80 60 81 44 82 45 83 50 84
REMARK SMILES IDX 46 85 47 86 49 87 51 88 48 89
REMARK H PARENT 68 51 42 62
REMARK Flexibility Score: inf
ROOT
ATOM      1  C   UNL A   1      38.937  20.688  25.642  1.00  0.00     0.202 C 
ENDROOT
BRANCH   1   2
ATOM      2  C   UNL A   1      37.894  21.784  25.345  1.00  0.00     0.261 C 
BRANCH   2   3
ATOM      3  O   UNL A   1      36.942  21.660  24.292  1.00  0.00    -0.463 OA
BRANCH   3   4
ATOM      4  C   UNL A   1      36.205  22.738  23.956  1.00  0.00     0.312 C 
ATOM      5  O   UNL A   1      36.015  23.132  22.817  1.00  0.00    -0.252 OA
BRANCH   4   6
ATOM      6  C   UNL A   1      35.497  23.331  25.128  1.00  0.00     0.136 C 
ATOM      7  N   UNL A   1      33.374  23.703  26.049  1.00  0.00    -0.332 N 
ATOM      8  C   UNL A   1      33.943  24.944  25.786  1.00  0.00     0.224 C 
ATOM      9  C   UNL A   1      34.269  22.581  25.672  1.00  0.00     0.132 C 
ATOM     10  O   UNL A   1      33.593  26.030  26.217  1.00  0.00    -0.275 OA
ATOM     11  C   UNL A   1      35.037  24.746  24.803  1.00  0.00     0.118 C 
BRANCH   7  12
ATOM     12  C   UNL A   1      32.256  23.582  26.983  1.00  0.00     0.148 C 
BRANCH  12  13
ATOM     13  C   UNL A   1      30.922  24.182  26.476  1.00  0.00     0.181 C 
BRANCH  13  14
ATOM     14  O   UNL A   1      29.785  23.844  27.280  1.00  0.00    -0.383 OA
ATOM     15  C   UNL A   1      29.336  22.503  27.107  1.00  0.00     0.194 C 
ENDBRANCH  13  14
ENDBRANCH  12  13
ENDBRANCH   7  12
BRANCH   9  16
ATOM     16  C   UNL A   1      33.688  21.438  24.827  1.00  0.00    -0.001 A 
ATOM     17  C   UNL A   1      33.947  20.104  25.223  1.00  0.00     0.008 A 
ATOM     18  C   UNL A   1      32.849  21.643  23.682  1.00  0.00     0.042 A 
ATOM     19  C   UNL A   1      33.385  19.000  24.588  1.00  0.00     0.001 A 
ATOM     20  C   UNL A   1      32.282  20.493  23.076  1.00  0.00     0.026 A 
ATOM     21  C   UNL A   1      32.533  19.195  23.522  1.00  0.00     0.002 A 
BRANCH  18  22
ATOM     22  N   UNL A   1      32.493  22.903  23.187  1.00  0.00    -0.367 N 
ATOM     23  C   UNL A   1      33.125  23.442  21.969  1.00  0.00     0.145 C 
ATOM     24  C   UNL A   1      31.089  23.392  23.323  1.00  0.00     0.145 C 
ATOM     25  C   UNL A   1      33.020  24.979  21.975  1.00  0.00     0.181 C 
ATOM     26  C   UNL A   1      30.972  24.922  23.147  1.00  0.00     0.181 C 
ATOM     27  O   UNL A   1      31.645  25.395  21.972  1.00  0.00    -0.378 OA
ENDBRANCH  18  22
ENDBRANCH   9  16
ENDBRANCH   4   6
ENDBRANCH   3   4
ENDBRANCH   2   3
ENDBRANCH   1   2
BRANCH   1  28
ATOM     28  O   UNL A   1      40.300  20.884  25.982  1.00  0.00    -0.374 OA
BRANCH  28  29
ATOM     29  C   UNL A   1      40.768  21.051  27.305  1.00  0.00     0.202 C 
BRANCH  29  30
ATOM     30  C   UNL A   1      41.312  22.421  27.673  1.00  0.00     0.261 C 
BRANCH  30  31
ATOM     31  O   UNL A   1      40.596  23.468  27.016  1.00  0.00    -0.460 OA
BRANCH  31  32
ATOM     32  C   UNL A   1      41.354  24.552  26.740  1.00  0.00     0.338 C 
ATOM     33  O   UNL A   1      42.219  24.663  25.884  1.00  0.00    -0.246 OA
BRANCH  32  34
ATOM     34  C   UNL A   1      40.898  25.687  27.552  1.00  0.00     0.060 A 
ATOM     35  C   UNL A   1      41.677  26.851  27.523  1.00  0.00     0.016 A 
ATOM     36  C   UNL A   1      39.766  25.596  28.366  1.00  0.00     0.016 A 
ATOM     37  C   UNL A   1      41.368  27.907  28.366  1.00  0.00     0.010 A 
ATOM     38  C   UNL A   1      39.466  26.650  29.225  1.00  0.00     0.010 A 
ATOM     39  C   UNL A   1      40.300  27.781  29.262  1.00  0.00    -0.014 A 
BRANCH  39  40
ATOM     40  C   UNL A   1      40.211  28.725  30.393  1.00  0.00     0.031 A 
ATOM     41  C   UNL A   1      39.178  29.812  30.324  1.00  0.00     0.074 A 
ATOM     42  C   UNL A   1      41.004  28.584  31.466  1.00  0.00     0.049 A 
ATOM     43  N   UNL A   1      38.931  30.778  31.169  1.00  0.00    -0.248 NA
ATOM     44  C   UNL A   1      38.306  29.811  29.136  1.00  0.00     0.031 C 
ATOM     45  C   UNL A   1      42.000  27.532  31.648  1.00  0.00     0.029 A 
ATOM     46  N   UNL A   1      41.093  29.341  32.603  1.00  0.00    -0.354 N 
ATOM     47  C   UNL A   1      37.888  31.505  30.610  1.00  0.00     0.074 A 
ATOM     48  C   UNL A   1      37.567  30.889  29.342  1.00  0.00     0.031 C 
ATOM     49  C   UNL A   1      42.618  27.721  32.827  1.00  0.00     0.029 A 
ATOM     50  C   UNL A   1      42.080  28.925  33.458  1.00  0.00     0.049 A 
ATOM     51  H   UNL A   1      40.505  30.110  32.788  1.00  0.00     0.167 HD
ATOM     52  C   UNL A   1      37.253  32.588  31.115  1.00  0.00     0.037 A 
ATOM     53  C   UNL A   1      42.515  29.478  34.606  1.00  0.00     0.037 A 
ATOM     54  C   UNL A   1      37.588  33.190  32.378  1.00  0.00     0.049 A 
ATOM     55  C   UNL A   1      41.840  30.724  35.115  1.00  0.00     0.074 A 
ATOM     56  C   UNL A   1      37.000  34.276  32.999  1.00  0.00     0.029 A 
ATOM     57  N   UNL A   1      38.615  32.759  33.206  1.00  0.00    -0.354 N 
ATOM     58  N   UNL A   1      40.839  31.394  34.597  1.00  0.00    -0.248 NA
ATOM     59  C   UNL A   1      42.352  31.287  36.371  1.00  0.00     0.031 C 
ATOM     60  C   UNL A   1      37.712  34.541  34.173  1.00  0.00     0.029 A 
ATOM     61  C   UNL A   1      38.700  33.579  34.318  1.00  0.00     0.049 A 
ATOM     62  H   UNL A   1      39.197  31.985  33.029  1.00  0.00     0.167 HD
ATOM     63  C   UNL A   1      40.582  32.440  35.475  1.00  0.00     0.074 A 
ATOM     64  C   UNL A   1      41.526  32.305  36.566  1.00  0.00     0.031 C 
ATOM     65  C   UNL A   1      39.649  33.423  35.392  1.00  0.00     0.037 A 
BRANCH  52  66
ATOM     66  C   UNL A   1      36.172  33.210  30.278  1.00  0.00     0.057 A 
ATOM     67  C   UNL A   1      34.811  33.044  30.569  1.00  0.00     0.134 A 
ATOM     68  C   UNL A   1      36.502  33.991  29.163  1.00  0.00     0.134 A 
ATOM     69  F   UNL A   1      34.425  32.291  31.610  1.00  0.00    -0.206 F 
ATOM     70  C   UNL A   1      33.819  33.610  29.765  1.00  0.00     0.040 A 
ATOM     71  C   UNL A   1      35.519  34.587  28.370  1.00  0.00     0.040 A 
ATOM     72  F   UNL A   1      37.785  34.191  28.826  1.00  0.00    -0.206 F 
ATOM     73  C   UNL A   1      34.173  34.390  28.666  1.00  0.00     0.006 A 
ENDBRANCH  52  66
BRANCH  53  74
ATOM     74  C   UNL A   1      43.654  28.867  35.335  1.00  0.00     0.057 A 
ATOM     75  C   UNL A   1      43.452  27.903  36.327  1.00  0.00     0.134 A 
ATOM     76  C   UNL A   1      44.977  29.233  35.052  1.00  0.00     0.134 A 
ATOM     77  F   UNL A   1      42.208  27.525  36.657  1.00  0.00    -0.206 F 
ATOM     78  C   UNL A   1      44.520  27.335  37.023  1.00  0.00     0.040 A 
ATOM     79  C   UNL A   1      46.056  28.654  35.719  1.00  0.00     0.040 A 
ATOM     80  F   UNL A   1      45.240  30.148  34.106  1.00  0.00    -0.206 F 
ATOM     81  C   UNL A   1      45.828  27.706  36.715  1.00  0.00     0.006 A 
ENDBRANCH  53  74
BRANCH  65  82
ATOM     82  C   UNL A   1      39.581  34.404  36.527  1.00  0.00     0.057 A 
ATOM     83  C   UNL A   1      38.883  34.126  37.708  1.00  0.00     0.134 A 
ATOM     84  C   UNL A   1      40.264  35.625  36.450  1.00  0.00     0.134 A 
ATOM     85  F   UNL A   1      38.201  32.980  37.842  1.00  0.00    -0.206 F 
ATOM     86  C   UNL A   1      38.843  35.040  38.763  1.00  0.00     0.040 A 
ATOM     87  C   UNL A   1      40.258  36.532  37.510  1.00  0.00     0.040 A 
ATOM     88  F   UNL A   1      40.963  35.948  35.352  1.00  0.00    -0.206 F 
ATOM     89  C   UNL A   1      39.539  36.244  38.667  1.00  0.00     0.006 A 
ENDBRANCH  65  82
ENDBRANCH  39  40
ENDBRANCH  32  34
ENDBRANCH  31  32
ENDBRANCH  30  31
ENDBRANCH  29  30
ENDBRANCH  28  29
ENDBRANCH   1  28
TORSDOF 19
ENDMDL
MODEL 2
REMARK VINA RESULT:     -10.9      0.507      6.045
REMARK SMILES COCCN1C(=O)C[C@H](C(=O)OCCOCCOC(=O)c2ccc(-c3c4nc(c(-c5c(F)cccc5F)c5ccc([nH]5)c(-c5c(F)cccc5F)c5nc(c(-c6c(F)cccc6F)c6ccc3[nH]6)C=C5)C=C4)cc2)[C@@H]1c1ccccc1N1CCOCC1
REMARK SMILES IDX 14 1 13 2 12 3 10 4 11 5 9 6 5 7 6 8 75 9 7 10 8 11 4 12
REMARK SMILES IDX 3 13 2 14 1 15 76 16 77 17 81 18 78 19 80 20 79 21 82 22
REMARK SMILES IDX 83 23 87 24 84 25 86 26 85 27 15 28 16 29 17 30 18 31 19 32
REMARK SMILES IDX 20 33 21 34 22 35 74 36 23 37 73 38 24 39 25 40 26 41 67 42
REMARK SMILES IDX 27 43 72 44 66 45 68 46 28 47 71 48 65 49 64 50 29 52 55 53
REMARK SMILES IDX 38 54 54 55 39 56 42 57 53 58 69 59 40 60 41 61 52 63 70 64
REMARK SMILES IDX 43 65 30 66 31 67 36 68 32 69 33 70 35 71 37 72 34 73 56 74
REMARK SMILES IDX 57 75 62 76 58 77 59 78 61 79 63 80 60 81 44 82 45 83 50 84
REMARK SMILES IDX 46 85 47 86 49 87 51 88 48 89
REMARK H PARENT 68 51 42 62
REMARK Flexibility Score: inf
ROOT
ATOM      1  C   UNL A   1      38.835  20.381  25.571  1.00  0.00     0.202 C 
ENDROOT
BRANCH   1   2
ATOM      2  C   UNL A   1      37.840  21.524  25.285  1.00  0.00     0.261 C 
BRANCH   2   3
ATOM      3  O   UNL A   1      36.900  21.461  24.216  1.00  0.00    -0.463 OA
BRANCH   3   4
ATOM      4  C   UNL A   1      36.215  22.576  23.892  1.00  0.00     0.312 C 
ATOM      5  O   UNL A   1      36.065  23.004  22.759  1.00  0.00    -0.252 OA
BRANCH   4   6
ATOM      6  C   UNL A   1      35.505  23.168  25.063  1.00  0.00     0.136 C 
ATOM      7  N   UNL A   1      33.381  23.566  25.969  1.00  0.00    -0.332 N 
ATOM      8  C   UNL A   1      33.972  24.800  25.723  1.00  0.00     0.224 C 
ATOM      9  C   UNL A   1      34.262  22.433  25.589  1.00  0.00     0.132 C 
ATOM     10  O   UNL A   1      33.635  25.887  26.161  1.00  0.00    -0.275 OA
ATOM     11  C   UNL A   1      35.070  24.594  24.747  1.00  0.00     0.118 C 
BRANCH   7  12
ATOM     12  C   UNL A   1      32.253  23.454  26.893  1.00  0.00     0.148 C 
BRANCH  12  13
ATOM     13  C   UNL A   1      30.909  23.987  26.340  1.00  0.00     0.181 C 
BRANCH  13  14
ATOM     14  O   UNL A   1      29.811  23.865  27.251  1.00  0.00    -0.383 OA
ATOM     15  C   UNL A   1      29.182  22.588  27.227  1.00  0.00     0.194 C 
ENDBRANCH  13  14
ENDBRANCH  12  13
ENDBRANCH   7  12
BRANCH   9  16
ATOM     16  C   UNL A   1      33.670  21.307  24.729  1.00  0.00    -0.001 A 
ATOM     17  C   UNL A   1      33.911  19.966  25.110  1.00  0.00     0.008 A 
ATOM     18  C   UNL A   1      32.839  21.536  23.582  1.00  0.00     0.042 A 
ATOM     19  C   UNL A   1      33.338  18.876  24.461  1.00  0.00     0.001 A 
ATOM     20  C   UNL A   1      32.260  20.400  22.961  1.00  0.00     0.026 A 
ATOM     21  C   UNL A   1      32.493  19.094  23.393  1.00  0.00     0.002 A 
BRANCH  18  22
ATOM     22  N   UNL A   1      32.501  22.806  23.101  1.00  0.00    -0.367 N 
ATOM     23  C   UNL A   1      33.141  23.349  21.890  1.00  0.00     0.145 C 
ATOM     24  C   UNL A   1      31.102  23.312  23.240  1.00  0.00     0.145 C 
ATOM     25  C   UNL A   1      33.057  24.888  21.912  1.00  0.00     0.181 C 
ATOM     26  C   UNL A   1      31.007  24.846  23.081  1.00  0.00     0.181 C 
ATOM     27  O   UNL A   1      31.688  25.322  21.912  1.00  0.00    -0.378 OA
ENDBRANCH  18  22
ENDBRANCH   9  16
ENDBRANCH   4   6
ENDBRANCH   3   4
ENDBRANCH   2   3
ENDBRANCH   1   2
BRANCH   1  28
ATOM     28  O   UNL A   1      40.215  20.514  25.871  1.00  0.00    -0.374 OA
BRANCH  28  29
ATOM     29  C   UNL A   1      40.733  20.612  27.182  1.00  0.00     0.202 C 
BRANCH  29  30
ATOM     30  C   UNL A   1      41.320  21.953  27.589  1.00  0.00     0.261 C 
BRANCH  30  31
ATOM     31  O   UNL A   1      40.681  23.037  26.911  1.00  0.00    -0.460 OA
BRANCH  31  32
ATOM     32  C   UNL A   1      41.504  24.079  26.662  1.00  0.00     0.338 C 
ATOM     33  O   UNL A   1      42.454  24.117  25.894  1.00  0.00    -0.246 OA
BRANCH  32  34
ATOM     34  C   UNL A   1      41.013  25.269  27.368  1.00  0.00     0.060 A 
ATOM     35  C   UNL A   1      41.727  26.461  27.190  1.00  0.00     0.016 A 
ATOM     36  C   UNL A   1      39.914  25.207  28.229  1.00  0.00     0.016 A 
ATOM     37  C   UNL A   1      41.388  27.584  27.930  1.00  0.00     0.010 A 
ATOM     38  C   UNL A   1      39.584  26.329  28.984  1.00  0.00     0.010 A 
ATOM     39  C   UNL A   1      40.357  27.499  28.873  1.00  0.00    -0.014 A 
BRANCH  39  40
ATOM     40  C   UNL A   1      40.253  28.551  29.902  1.00  0.00     0.031 A 
ATOM     41  C   UNL A   1      41.215  28.507  31.054  1.00  0.00     0.074 A 
ATOM     42  C   UNL A   1      39.353  29.539  29.784  1.00  0.00     0.049 A 
ATOM     43  N   UNL A   1      41.300  29.292  32.096  1.00  0.00    -0.248 NA
ATOM     44  C   UNL A   1      42.216  27.426  31.029  1.00  0.00     0.031 C 
ATOM     45  C   UNL A   1      38.413  29.696  28.677  1.00  0.00     0.029 A 
ATOM     46  N   UNL A   1      39.085  30.593  30.614  1.00  0.00    -0.354 N 
ATOM     47  C   UNL A   1      42.352  28.793  32.854  1.00  0.00     0.074 A 
ATOM     48  C   UNL A   1      42.856  27.623  32.171  1.00  0.00     0.031 C 
ATOM     49  C   UNL A   1      37.652  30.780  28.908  1.00  0.00     0.029 A 
ATOM     50  C   UNL A   1      38.034  31.366  30.191  1.00  0.00     0.049 A 
ATOM     51  H   UNL A   1      39.596  30.778  31.436  1.00  0.00     0.167 HD
ATOM     52  C   UNL A   1      42.853  29.275  34.015  1.00  0.00     0.037 A 
ATOM     53  C   UNL A   1      37.436  32.410  30.794  1.00  0.00     0.037 A 
ATOM     54  C   UNL A   1      42.336  30.439  34.683  1.00  0.00     0.049 A 
ATOM     55  C   UNL A   1      37.966  32.886  32.121  1.00  0.00     0.074 A 
ATOM     56  C   UNL A   1      42.777  31.030  35.852  1.00  0.00     0.029 A 
ATOM     57  N   UNL A   1      41.251  31.182  34.240  1.00  0.00    -0.354 N 
ATOM     58  N   UNL A   1      38.974  32.428  32.823  1.00  0.00    -0.248 NA
ATOM     59  C   UNL A   1      37.277  34.028  32.736  1.00  0.00     0.031 C 
ATOM     60  C   UNL A   1      41.920  32.093  36.150  1.00  0.00     0.029 A 
ATOM     61  C   UNL A   1      40.985  32.207  35.132  1.00  0.00     0.049 A 
ATOM     62  H   UNL A   1      40.744  31.006  33.414  1.00  0.00     0.167 HD
ATOM     63  C   UNL A   1      39.060  33.240  33.947  1.00  0.00     0.074 A 
ATOM     64  C   UNL A   1      38.008  34.228  33.824  1.00  0.00     0.031 C 
ATOM     65  C   UNL A   1      39.931  33.179  34.986  1.00  0.00     0.037 A 
BRANCH  52  66
ATOM     66  C   UNL A   1      43.980  28.512  34.650  1.00  0.00     0.057 A 
ATOM     67  C   UNL A   1      45.325  28.792  34.369  1.00  0.00     0.134 A 
ATOM     68  C   UNL A   1      43.714  27.484  35.563  1.00  0.00     0.134 A 
ATOM     69  F   UNL A   1      45.650  29.751  33.489  1.00  0.00    -0.206 F 
ATOM     70  C   UNL A   1      46.360  28.057  34.951  1.00  0.00     0.040 A 
ATOM     71  C   UNL A   1      44.741  26.764  36.175  1.00  0.00     0.040 A 
ATOM     72  F   UNL A   1      42.450  27.163  35.878  1.00  0.00    -0.206 F 
ATOM     73  C   UNL A   1      46.069  27.044  35.862  1.00  0.00     0.006 A 
ENDBRANCH  52  66
BRANCH  53  74
ATOM     74  C   UNL A   1      36.262  33.057  30.157  1.00  0.00     0.057 A 
ATOM     75  C   UNL A   1      36.411  33.943  29.086  1.00  0.00     0.134 A 
ATOM     76  C   UNL A   1      34.959  32.800  30.605  1.00  0.00     0.134 A 
ATOM     77  F   UNL A   1      37.633  34.244  28.624  1.00  0.00    -0.206 F 
ATOM     78  C   UNL A   1      35.310  34.562  28.492  1.00  0.00     0.040 A 
ATOM     79  C   UNL A   1      33.848  33.390  30.003  1.00  0.00     0.040 A 
ATOM     80  F   UNL A   1      34.748  31.954  31.626  1.00  0.00    -0.206 F 
ATOM     81  C   UNL A   1      34.023  34.281  28.947  1.00  0.00     0.006 A 
ENDBRANCH  53  74
BRANCH  65  82
ATOM     82  C   UNL A   1      39.804  34.231  36.051  1.00  0.00     0.057 A 
ATOM     83  C   UNL A   1      39.051  34.026  37.213  1.00  0.00     0.134 A 
ATOM     84  C   UNL A   1      40.485  35.450  35.927  1.00  0.00     0.134 A 
ATOM     85  F   UNL A   1      38.367  32.886  37.388  1.00  0.00    -0.206 F 
ATOM     86  C   UNL A   1      38.957  35.006  38.203  1.00  0.00     0.040 A 
ATOM     87  C   UNL A   1      40.425  36.424  36.925  1.00  0.00     0.040 A 
ATOM     88  F   UNL A   1      41.235  35.706  34.845  1.00  0.00    -0.206 F 
ATOM     89  C   UNL A   1      39.652  36.206  38.062  1.00  0.00     0.006 A 
ENDBRANCH  65  82
ENDBRANCH  39  40
ENDBRANCH  32  34
ENDBRANCH  31  32
ENDBRANCH  30  31
ENDBRANCH  29  30
ENDBRANCH  28  29
ENDBRANCH   1  28
TORSDOF 19
ENDMDL
MODEL 3
REMARK VINA RESULT:     -10.6      7.193      9.278
REMARK SMILES COCCN1C(=O)C[C@H](C(=O)OCCOCCOC(=O)c2ccc(-c3c4nc(c(-c5c(F)cccc5F)c5ccc([nH]5)c(-c5c(F)cccc5F)c5nc(c(-c6c(F)cccc6F)c6ccc3[nH]6)C=C5)C=C4)cc2)[C@@H]1c1ccccc1N1CCOCC1
REMARK SMILES IDX 14 1 13 2 12 3 10 4 11 5 9 6 5 7 6 8 75 9 7 10 8 11 4 12
REMARK SMILES IDX 3 13 2 14 1 15 76 16 77 17 81 18 78 19 80 20 79 21 82 22
REMARK SMILES IDX 83 23 87 24 84 25 86 26 85 27 15 28 16 29 17 30 18 31 19 32
REMARK SMILES IDX 20 33 21 34 22 35 74 36 23 37 73 38 24 39 25 40 26 41 67 42
REMARK SMILES IDX 27 43 72 44 66 45 68 46 28 47 71 48 65 49 64 50 29 52 55 53
REMARK SMILES IDX 38 54 54 55 39 56 42 57 53 58 69 59 40 60 41 61 52 63 70 64
REMARK SMILES IDX 43 65 30 66 31 67 36 68 32 69 33 70 35 71 37 72 34 73 56 74
REMARK SMILES IDX 57 75 62 76 58 77 59 78 61 79 63 80 60 81 44 82 45 83 50 84
REMARK SMILES IDX 46 85 47 86 49 87 51 88 48 89
REMARK H PARENT 68 51 42 62
REMARK Flexibility Score: inf
ROOT
ATOM      1  C   UNL A   1      38.792  20.841  25.711  1.00  0.00     0.202 C 
ENDROOT
BRANCH   1   2
ATOM      2  C   UNL A   1      37.687  21.877  25.421  1.00  0.00     0.261 C 
BRANCH   2   3
ATOM      3  O   UNL A   1      36.837  21.779  24.282  1.00  0.00    -0.463 OA
BRANCH   3   4
ATOM      4  C   UNL A   1      36.063  22.836  23.961  1.00  0.00     0.312 C 
ATOM      5  O   UNL A   1      35.865  23.245  22.828  1.00  0.00    -0.252 OA
BRANCH   4   6
ATOM      6  C   UNL A   1      35.325  23.380  25.138  1.00  0.00     0.136 C 
ATOM      7  N   UNL A   1      33.181  23.695  26.031  1.00  0.00    -0.332 N 
ATOM      8  C   UNL A   1      33.739  24.951  25.821  1.00  0.00     0.224 C 
ATOM      9  C   UNL A   1      34.097  22.597  25.632  1.00  0.00     0.132 C 
ATOM     10  O   UNL A   1      33.367  26.017  26.282  1.00  0.00    -0.275 OA
ATOM     11  C   UNL A   1      34.853  24.800  24.853  1.00  0.00     0.118 C 
BRANCH   7  12
ATOM     12  C   UNL A   1      32.047  23.528  26.939  1.00  0.00     0.148 C 
BRANCH  12  13
ATOM     13  C   UNL A   1      30.726  24.166  26.446  1.00  0.00     0.181 C 
BRANCH  13  14
ATOM     14  O   UNL A   1      29.599  23.906  27.292  1.00  0.00    -0.383 OA
ATOM     15  C   UNL A   1      29.197  22.540  27.312  1.00  0.00     0.194 C 
ENDBRANCH  13  14
ENDBRANCH  12  13
ENDBRANCH   7  12
BRANCH   9  16
ATOM     16  C   UNL A   1      33.546  21.477  24.738  1.00  0.00    -0.001 A 
ATOM     17  C   UNL A   1      33.789  20.133  25.110  1.00  0.00     0.008 A 
ATOM     18  C   UNL A   1      32.751  21.712  23.568  1.00  0.00     0.042 A 
ATOM     19  C   UNL A   1      33.250  19.046  24.428  1.00  0.00     0.001 A 
ATOM     20  C   UNL A   1      32.206  20.579  22.913  1.00  0.00     0.026 A 
ATOM     21  C   UNL A   1      32.438  19.269  23.336  1.00  0.00     0.002 A 
BRANCH  18  22
ATOM     22  N   UNL A   1      32.415  22.985  23.093  1.00  0.00    -0.367 N 
ATOM     23  C   UNL A   1      33.030  23.518  21.863  1.00  0.00     0.145 C 
ATOM     24  C   UNL A   1      31.027  23.508  23.267  1.00  0.00     0.145 C 
ATOM     25  C   UNL A   1      32.964  25.057  21.884  1.00  0.00     0.181 C 
ATOM     26  C   UNL A   1      30.945  25.042  23.106  1.00  0.00     0.181 C 
ATOM     27  O   UNL A   1      31.601  25.508  21.919  1.00  0.00    -0.378 OA
ENDBRANCH  18  22
ENDBRANCH   9  16
ENDBRANCH   4   6
ENDBRANCH   3   4
ENDBRANCH   2   3
ENDBRANCH   1   2
BRANCH   1  28
ATOM     28  O   UNL A   1      40.150  21.113  26.017  1.00  0.00    -0.374 OA
BRANCH  28  29
ATOM     29  C   UNL A   1      40.720  20.938  27.298  1.00  0.00     0.202 C 
BRANCH  29  30
ATOM     30  C   UNL A   1      41.801  21.923  27.709  1.00  0.00     0.261 C 
BRANCH  30  31
ATOM     31  O   UNL A   1      41.680  23.162  27.007  1.00  0.00    -0.460 OA
BRANCH  31  32
ATOM     32  C   UNL A   1      42.613  23.333  26.045  1.00  0.00     0.338 C 
ATOM     33  O   UNL A   1      42.826  22.624  25.073  1.00  0.00    -0.246 OA
BRANCH  32  34
ATOM     34  C   UNL A   1      43.297  24.616  26.250  1.00  0.00     0.060 A 
ATOM     35  C   UNL A   1      43.464  25.441  25.130  1.00  0.00     0.016 A 
ATOM     36  C   UNL A   1      43.813  24.980  27.497  1.00  0.00     0.016 A 
ATOM     37  C   UNL A   1      44.213  26.603  25.236  1.00  0.00     0.010 A 
ATOM     38  C   UNL A   1      44.579  26.138  27.599  1.00  0.00     0.010 A 
ATOM     39  C   UNL A   1      44.823  26.918  26.456  1.00  0.00    -0.014 A 
BRANCH  39  40
ATOM     40  C   UNL A   1      45.903  27.923  26.466  1.00  0.00     0.031 A 
ATOM     41  C   UNL A   1      45.522  29.366  26.625  1.00  0.00     0.074 A 
ATOM     42  C   UNL A   1      47.188  27.547  26.378  1.00  0.00     0.049 A 
ATOM     43  N   UNL A   1      46.281  30.430  26.628  1.00  0.00    -0.248 NA
ATOM     44  C   UNL A   1      44.087  29.647  26.803  1.00  0.00     0.031 C 
ATOM     45  C   UNL A   1      47.660  26.169  26.272  1.00  0.00     0.029 A 
ATOM     46  N   UNL A   1      48.330  28.303  26.359  1.00  0.00    -0.354 N 
ATOM     47  C   UNL A   1      45.416  31.505  26.793  1.00  0.00     0.074 A 
ATOM     48  C   UNL A   1      44.074  30.969  26.858  1.00  0.00     0.031 C 
ATOM     49  C   UNL A   1      49.001  26.178  26.180  1.00  0.00     0.029 A 
ATOM     50  C   UNL A   1      49.470  27.563  26.186  1.00  0.00     0.049 A 
ATOM     51  H   UNL A   1      48.331  29.283  26.458  1.00  0.00     0.167 HD
ATOM     52  C   UNL A   1      45.718  32.820  26.888  1.00  0.00     0.037 A 
ATOM     53  C   UNL A   1      50.743  27.967  26.023  1.00  0.00     0.037 A 
ATOM     54  C   UNL A   1      47.059  33.335  26.818  1.00  0.00     0.049 A 
ATOM     55  C   UNL A   1      51.049  29.442  26.061  1.00  0.00     0.074 A 
ATOM     56  C   UNL A   1      47.486  34.646  26.921  1.00  0.00     0.029 A 
ATOM     57  N   UNL A   1      48.191  32.558  26.614  1.00  0.00    -0.354 N 
ATOM     58  N   UNL A   1      50.233  30.452  26.242  1.00  0.00    -0.248 NA
ATOM     59  C   UNL A   1      52.453  29.830  25.879  1.00  0.00     0.031 C 
ATOM     60  C   UNL A   1      48.870  34.668  26.717  1.00  0.00     0.029 A 
ATOM     61  C   UNL A   1      49.314  33.365  26.554  1.00  0.00     0.049 A 
ATOM     62  H   UNL A   1      48.194  31.577  26.524  1.00  0.00     0.167 HD
ATOM     63  C   UNL A   1      51.025  31.593  26.222  1.00  0.00     0.074 A 
ATOM     64  C   UNL A   1      52.390  31.146  26.026  1.00  0.00     0.031 C 
ATOM     65  C   UNL A   1      50.662  32.894  26.358  1.00  0.00     0.037 A 
BRANCH  52  66
ATOM     66  C   UNL A   1      44.575  33.784  27.026  1.00  0.00     0.057 A 
ATOM     67  C   UNL A   1      44.097  34.204  28.275  1.00  0.00     0.134 A 
ATOM     68  C   UNL A   1      43.946  34.305  25.888  1.00  0.00     0.134 A 
ATOM     69  F   UNL A   1      44.642  33.730  29.406  1.00  0.00    -0.206 F 
ATOM     70  C   UNL A   1      43.018  35.083  28.386  1.00  0.00     0.040 A 
ATOM     71  C   UNL A   1      42.886  35.208  25.986  1.00  0.00     0.040 A 
ATOM     72  F   UNL A   1      44.351  33.945  24.661  1.00  0.00    -0.206 F 
ATOM     73  C   UNL A   1      42.414  35.593  27.239  1.00  0.00     0.006 A 
ENDBRANCH  52  66
BRANCH  53  74
ATOM     74  C   UNL A   1      51.813  26.965  25.792  1.00  0.00     0.057 A 
ATOM     75  C   UNL A   1      52.172  26.567  24.501  1.00  0.00     0.134 A 
ATOM     76  C   UNL A   1      52.506  26.383  26.862  1.00  0.00     0.134 A 
ATOM     77  F   UNL A   1      51.533  27.073  23.437  1.00  0.00    -0.206 F 
ATOM     78  C   UNL A   1      53.170  25.616  24.280  1.00  0.00     0.040 A 
ATOM     79  C   UNL A   1      53.524  25.452  26.656  1.00  0.00     0.040 A 
ATOM     80  F   UNL A   1      52.214  26.727  28.126  1.00  0.00    -0.206 F 
ATOM     81  C   UNL A   1      53.853  25.060  25.360  1.00  0.00     0.006 A 
ENDBRANCH  53  74
BRANCH  65  82
ATOM     82  C   UNL A   1      51.759  33.920  26.335  1.00  0.00     0.057 A 
ATOM     83  C   UNL A   1      52.420  34.328  27.499  1.00  0.00     0.134 A 
ATOM     84  C   UNL A   1      52.187  34.472  25.120  1.00  0.00     0.134 A 
ATOM     85  F   UNL A   1      52.051  33.845  28.695  1.00  0.00    -0.206 F 
ATOM     86  C   UNL A   1      53.451  35.270  27.461  1.00  0.00     0.040 A 
ATOM     87  C   UNL A   1      53.238  35.389  25.066  1.00  0.00     0.040 A 
ATOM     88  F   UNL A   1      51.606  34.116  23.965  1.00  0.00    -0.206 F 
ATOM     89  C   UNL A   1      53.866  35.796  26.239  1.00  0.00     0.006 A 
ENDBRANCH  65  82
ENDBRANCH  39  40
ENDBRANCH  32  34
ENDBRANCH  31  32
ENDBRANCH  30  31
ENDBRANCH  29  30
ENDBRANCH  28  29
ENDBRANCH   1  28
TORSDOF 19
ENDMDL
