MODEL 1
REMARK VINA RESULT:     -11.3      0.000      0.000
REMARK SMILES C[C@@H](C(=O)OCCOCCOC(=O)c1ccc(-c2c3nc(c(-c4c(F)cccc4F)c4ccc([nH]4)c(-c4c(F)cccc4F)c4nc(c(-c5c(F)cccc5F)c5ccc2[nH]5)C=C4)C=C3)cc1)c1ccc(-c2ccccc2)c(F)c1
REMARK SMILES IDX 8 1 7 2 6 3 5 4 3 5 4 6 2 7 1 8 68 9 69 10 80 11 70 12 78 13
REMARK SMILES IDX 71 14 79 15 72 16 73 17 77 18 74 19 76 20 75 21 9 22 10 23
REMARK SMILES IDX 11 24 12 25 13 26 14 27 15 28 67 29 16 30 66 31 17 32 18 33
REMARK SMILES IDX 19 34 60 35 20 36 65 37 59 38 61 39 21 40 64 41 58 42 57 43
REMARK SMILES IDX 22 45 48 46 31 47 47 48 32 49 35 50 46 51 62 52 33 53 34 54
REMARK SMILES IDX 45 56 63 57 36 58 23 59 24 60 29 61 25 62 26 63 28 64 30 65
REMARK SMILES IDX 27 66 49 67 50 68 55 69 51 70 52 71 54 72 56 73 53 74 37 75
REMARK SMILES IDX 38 76 43 77 39 78 40 79 42 80 44 81 41 82
REMARK H PARENT 61 44 35 55
REMARK Flexibility Score: inf
ROOT
ATOM      1  O   UNL A   1      46.008  20.120  24.835  1.00  0.00    -0.374 OA
ENDROOT
BRANCH   1   2
ATOM      2  C   UNL A   1      45.008  19.374  24.140  1.00  0.00     0.202 C 
BRANCH   2   3
ATOM      3  C   UNL A   1      43.872  18.818  25.004  1.00  0.00     0.261 C 
BRANCH   3   4
ATOM      4  O   UNL A   1      42.824  19.792  25.134  1.00  0.00    -0.463 OA
BRANCH   4   5
ATOM      5  C   UNL A   1      42.166  19.790  26.324  1.00  0.00     0.313 C 
ATOM      6  O   UNL A   1      42.160  18.845  27.104  1.00  0.00    -0.252 OA
BRANCH   5   7
ATOM      7  C   UNL A   1      41.525  21.144  26.639  1.00  0.00     0.126 C 
ATOM      8  C   UNL A   1      41.678  21.585  28.101  1.00  0.00     0.025 C 
BRANCH   7   9
ATOM      9  C   UNL A   1      40.073  21.256  26.173  1.00  0.00    -0.031 A 
ATOM     10  C   UNL A   1      39.396  20.217  25.514  1.00  0.00     0.005 A 
ATOM     11  C   UNL A   1      39.374  22.454  26.385  1.00  0.00     0.044 A 
ATOM     12  C   UNL A   1      38.085  20.387  25.045  1.00  0.00     0.012 A 
ATOM     13  C   UNL A   1      38.068  22.615  25.912  1.00  0.00     0.131 A 
ATOM     14  C   UNL A   1      37.401  21.600  25.216  1.00  0.00     0.017 A 
ATOM     15  F   UNL A   1      37.465  23.794  26.131  1.00  0.00    -0.206 F 
BRANCH  14  16
ATOM     16  C   UNL A   1      36.065  21.801  24.627  1.00  0.00    -0.015 A 
ATOM     17  C   UNL A   1      35.846  22.736  23.600  1.00  0.00     0.009 A 
ATOM     18  C   UNL A   1      34.955  21.090  25.115  1.00  0.00     0.009 A 
ATOM     19  C   UNL A   1      34.564  22.954  23.087  1.00  0.00     0.001 A 
ATOM     20  C   UNL A   1      33.672  21.309  24.605  1.00  0.00     0.001 A 
ATOM     21  C   UNL A   1      33.477  22.243  23.591  1.00  0.00     0.000 A 
ENDBRANCH  14  16
ENDBRANCH   7   9
ENDBRANCH   5   7
ENDBRANCH   4   5
ENDBRANCH   3   4
ENDBRANCH   2   3
ENDBRANCH   1   2
BRANCH   1  22
ATOM     22  C   UNL A   1      45.935  21.546  24.763  1.00  0.00     0.202 C 
BRANCH  22  23
ATOM     23  C   UNL A   1      45.215  22.258  25.914  1.00  0.00     0.261 C 
BRANCH  23  24
ATOM     24  O   UNL A   1      44.194  23.160  25.448  1.00  0.00    -0.460 OA
BRANCH  24  25
ATOM     25  C   UNL A   1      44.572  24.457  25.382  1.00  0.00     0.338 C 
ATOM     26  O   UNL A   1      45.400  24.952  24.625  1.00  0.00    -0.246 OA
BRANCH  25  27
ATOM     27  C   UNL A   1      43.719  25.287  26.249  1.00  0.00     0.060 A 
ATOM     28  C   UNL A   1      44.048  26.644  26.366  1.00  0.00     0.016 A 
ATOM     29  C   UNL A   1      42.682  24.741  27.009  1.00  0.00     0.016 A 
ATOM     30  C   UNL A   1      43.374  27.450  27.280  1.00  0.00     0.010 A 
ATOM     31  C   UNL A   1      42.013  25.549  27.935  1.00  0.00     0.010 A 
ATOM     32  C   UNL A   1      42.381  26.897  28.100  1.00  0.00    -0.014 A 
BRANCH  32  33
ATOM     33  C   UNL A   1      41.846  27.697  29.228  1.00  0.00     0.031 A 
ATOM     34  C   UNL A   1      42.537  27.629  30.564  1.00  0.00     0.074 A 
ATOM     35  C   UNL A   1      40.787  28.507  29.059  1.00  0.00     0.049 A 
ATOM     36  N   UNL A   1      42.240  28.234  31.684  1.00  0.00    -0.248 NA
ATOM     37  C   UNL A   1      43.725  26.763  30.644  1.00  0.00     0.031 C 
ATOM     38  C   UNL A   1      40.058  28.691  27.806  1.00  0.00     0.029 A 
ATOM     39  N   UNL A   1      40.141  29.326  29.950  1.00  0.00    -0.354 N 
ATOM     40  C   UNL A   1      43.197  27.821  32.602  1.00  0.00     0.074 A 
ATOM     41  C   UNL A   1      44.070  26.893  31.916  1.00  0.00     0.031 C 
ATOM     42  C   UNL A   1      39.057  29.565  28.010  1.00  0.00     0.029 A 
ATOM     43  C   UNL A   1      39.060  29.980  29.412  1.00  0.00     0.049 A 
ATOM     44  H   UNL A   1      40.426  29.435  30.886  1.00  0.00     0.167 HD
ATOM     45  C   UNL A   1      43.343  28.189  33.897  1.00  0.00     0.037 A 
ATOM     46  C   UNL A   1      38.166  30.804  29.992  1.00  0.00     0.037 A 
ATOM     47  C   UNL A   1      42.479  29.116  34.579  1.00  0.00     0.049 A 
ATOM     48  C   UNL A   1      38.310  31.145  31.451  1.00  0.00     0.074 A 
ATOM     49  C   UNL A   1      42.558  29.566  35.886  1.00  0.00     0.029 A 
ATOM     50  N   UNL A   1      41.373  29.728  34.011  1.00  0.00    -0.354 N 
ATOM     51  N   UNL A   1      39.234  30.769  32.302  1.00  0.00    -0.248 NA
ATOM     52  C   UNL A   1      37.286  32.028  32.030  1.00  0.00     0.031 C 
ATOM     53  C   UNL A   1      41.474  30.420  36.120  1.00  0.00     0.029 A 
ATOM     54  C   UNL A   1      40.747  30.535  34.946  1.00  0.00     0.049 A 
ATOM     55  H   UNL A   1      41.078  29.608  33.079  1.00  0.00     0.167 HD
ATOM     56  C   UNL A   1      38.919  31.388  33.505  1.00  0.00     0.074 A 
ATOM     57  C   UNL A   1      37.725  32.173  33.273  1.00  0.00     0.031 C 
ATOM     58  C   UNL A   1      39.563  31.315  34.696  1.00  0.00     0.037 A 
BRANCH  45  59
ATOM     59  C   UNL A   1      44.470  27.571  34.668  1.00  0.00     0.057 A 
ATOM     60  C   UNL A   1      44.328  26.347  35.334  1.00  0.00     0.134 A 
ATOM     61  C   UNL A   1      45.726  28.190  34.714  1.00  0.00     0.134 A 
ATOM     62  F   UNL A   1      43.147  25.710  35.341  1.00  0.00    -0.206 F 
ATOM     63  C   UNL A   1      45.388  25.772  36.036  1.00  0.00     0.040 A 
ATOM     64  C   UNL A   1      46.800  27.615  35.392  1.00  0.00     0.040 A 
ATOM     65  F   UNL A   1      45.929  29.363  34.093  1.00  0.00    -0.206 F 
ATOM     66  C   UNL A   1      46.632  26.403  36.060  1.00  0.00     0.006 A 
ENDBRANCH  45  59
BRANCH  46  67
ATOM     67  C   UNL A   1      37.043  31.360  29.197  1.00  0.00     0.057 A 
ATOM     68  C   UNL A   1      37.072  32.675  28.721  1.00  0.00     0.134 A 
ATOM     69  C   UNL A   1      35.904  30.596  28.917  1.00  0.00     0.134 A 
ATOM     70  F   UNL A   1      38.126  33.463  28.978  1.00  0.00    -0.206 F 
ATOM     71  C   UNL A   1      36.001  33.218  28.009  1.00  0.00     0.040 A 
ATOM     72  C   UNL A   1      34.835  31.118  28.187  1.00  0.00     0.040 A 
ATOM     73  F   UNL A   1      35.815  29.329  29.347  1.00  0.00    -0.206 F 
ATOM     74  C   UNL A   1      34.879  32.436  27.736  1.00  0.00     0.006 A 
ENDBRANCH  46  67
BRANCH  58  75
ATOM     75  C   UNL A   1      39.010  32.130  35.828  1.00  0.00     0.057 A 
ATOM     76  C   UNL A   1      38.163  31.573  36.794  1.00  0.00     0.134 A 
ATOM     77  C   UNL A   1      39.365  33.477  35.976  1.00  0.00     0.134 A 
ATOM     78  F   UNL A   1      37.776  30.293  36.702  1.00  0.00    -0.206 F 
ATOM     79  C   UNL A   1      37.672  32.333  37.857  1.00  0.00     0.040 A 
ATOM     80  C   UNL A   1      38.899  34.241  37.048  1.00  0.00     0.040 A 
ATOM     81  F   UNL A   1      40.180  34.068  35.089  1.00  0.00    -0.206 F 
ATOM     82  C   UNL A   1      38.045  33.670  37.989  1.00  0.00     0.006 A 
ENDBRANCH  58  75
ENDBRANCH  32  33
ENDBRANCH  25  27
ENDBRANCH  24  25
ENDBRANCH  23  24
ENDBRANCH  22  23
ENDBRANCH   1  22
TORSDOF 16
ENDMDL
MODEL 2
REMARK VINA RESULT:     -10.9      0.811      6.322
REMARK SMILES C[C@@H](C(=O)OCCOCCOC(=O)c1ccc(-c2c3nc(c(-c4c(F)cccc4F)c4ccc([nH]4)c(-c4c(F)cccc4F)c4nc(c(-c5c(F)cccc5F)c5ccc2[nH]5)C=C4)C=C3)cc1)c1ccc(-c2ccccc2)c(F)c1
REMARK SMILES IDX 8 1 7 2 6 3 5 4 3 5 4 6 2 7 1 8 68 9 69 10 80 11 70 12 78 13
REMARK SMILES IDX 71 14 79 15 72 16 73 17 77 18 74 19 76 20 75 21 9 22 10 23
REMARK SMILES IDX 11 24 12 25 13 26 14 27 15 28 67 29 16 30 66 31 17 32 18 33
REMARK SMILES IDX 19 34 60 35 20 36 65 37 59 38 61 39 21 40 64 41 58 42 57 43
REMARK SMILES IDX 22 45 48 46 31 47 47 48 32 49 35 50 46 51 62 52 33 53 34 54
REMARK SMILES IDX 45 56 63 57 36 58 23 59 24 60 29 61 25 62 26 63 28 64 30 65
REMARK SMILES IDX 27 66 49 67 50 68 55 69 51 70 52 71 54 72 56 73 53 74 37 75
REMARK SMILES IDX 38 76 43 77 39 78 40 79 42 80 44 81 41 82
REMARK H PARENT 61 44 35 55
REMARK Flexibility Score: inf
ROOT
ATOM      1  O   UNL A   1      45.193  20.848  25.323  1.00  0.00    -0.374 OA
ENDROOT
BRANCH   1   2
ATOM      2  C   UNL A   1      45.011  19.486  24.928  1.00  0.00     0.202 C 
BRANCH   2   3
ATOM      3  C   UNL A   1      43.667  18.858  25.310  1.00  0.00     0.261 C 
BRANCH   3   4
ATOM      4  O   UNL A   1      42.647  19.868  25.373  1.00  0.00    -0.463 OA
BRANCH   4   5
ATOM      5  C   UNL A   1      42.093  20.065  26.600  1.00  0.00     0.313 C 
ATOM      6  O   UNL A   1      41.947  19.181  27.437  1.00  0.00    -0.252 OA
BRANCH   5   7
ATOM      7  C   UNL A   1      41.777  21.538  26.868  1.00  0.00     0.126 C 
ATOM      8  C   UNL A   1      42.123  22.005  28.288  1.00  0.00     0.025 C 
BRANCH   7   9
ATOM      9  C   UNL A   1      40.351  21.937  26.483  1.00  0.00    -0.031 A 
ATOM     10  C   UNL A   1      39.476  21.084  25.793  1.00  0.00     0.005 A 
ATOM     11  C   UNL A   1      39.886  23.220  26.807  1.00  0.00     0.044 A 
ATOM     12  C   UNL A   1      38.199  21.515  25.402  1.00  0.00     0.012 A 
ATOM     13  C   UNL A   1      38.613  23.643  26.411  1.00  0.00     0.131 A 
ATOM     14  C   UNL A   1      37.750  22.813  25.685  1.00  0.00     0.017 A 
ATOM     15  F   UNL A   1      38.239  24.890  26.737  1.00  0.00    -0.206 F 
BRANCH  14  16
ATOM     16  C   UNL A   1      36.450  23.288  25.177  1.00  0.00    -0.015 A 
ATOM     17  C   UNL A   1      36.093  23.151  23.825  1.00  0.00     0.009 A 
ATOM     18  C   UNL A   1      35.546  23.942  26.032  1.00  0.00     0.009 A 
ATOM     19  C   UNL A   1      34.879  23.653  23.347  1.00  0.00     0.001 A 
ATOM     20  C   UNL A   1      34.333  24.447  25.555  1.00  0.00     0.001 A 
ATOM     21  C   UNL A   1      34.001  24.304  24.211  1.00  0.00     0.000 A 
ENDBRANCH  14  16
ENDBRANCH   7   9
ENDBRANCH   5   7
ENDBRANCH   4   5
ENDBRANCH   3   4
ENDBRANCH   2   3
ENDBRANCH   1   2
BRANCH   1  22
ATOM     22  C   UNL A   1      45.283  21.828  24.287  1.00  0.00     0.202 C 
BRANCH  22  23
ATOM     23  C   UNL A   1      44.250  22.960  24.317  1.00  0.00     0.261 C 
BRANCH  23  24
ATOM     24  O   UNL A   1      44.250  23.670  25.571  1.00  0.00    -0.460 OA
BRANCH  24  25
ATOM     25  C   UNL A   1      44.561  24.983  25.478  1.00  0.00     0.338 C 
ATOM     26  O   UNL A   1      45.298  25.515  24.654  1.00  0.00    -0.246 OA
BRANCH  25  27
ATOM     27  C   UNL A   1      43.750  25.773  26.419  1.00  0.00     0.060 A 
ATOM     28  C   UNL A   1      44.120  27.108  26.623  1.00  0.00     0.016 A 
ATOM     29  C   UNL A   1      42.712  25.202  27.159  1.00  0.00     0.016 A 
ATOM     30  C   UNL A   1      43.487  27.866  27.606  1.00  0.00     0.010 A 
ATOM     31  C   UNL A   1      42.084  25.962  28.154  1.00  0.00     0.010 A 
ATOM     32  C   UNL A   1      42.494  27.284  28.406  1.00  0.00    -0.014 A 
BRANCH  32  33
ATOM     33  C   UNL A   1      42.004  28.016  29.598  1.00  0.00     0.031 A 
ATOM     34  C   UNL A   1      40.753  28.844  29.483  1.00  0.00     0.074 A 
ATOM     35  C   UNL A   1      42.637  27.913  30.780  1.00  0.00     0.049 A 
ATOM     36  N   UNL A   1      40.150  29.570  30.389  1.00  0.00    -0.248 NA
ATOM     37  C   UNL A   1      40.091  28.853  28.168  1.00  0.00     0.031 C 
ATOM     38  C   UNL A   1      43.833  27.111  31.029  1.00  0.00     0.029 A 
ATOM     39  N   UNL A   1      42.357  28.490  31.993  1.00  0.00    -0.354 N 
ATOM     40  C   UNL A   1      39.045  30.123  29.757  1.00  0.00     0.074 A 
ATOM     41  C   UNL A   1      39.072  29.672  28.382  1.00  0.00     0.031 C 
ATOM     42  C   UNL A   1      44.190  27.253  32.317  1.00  0.00     0.029 A 
ATOM     43  C   UNL A   1      43.265  28.175  32.973  1.00  0.00     0.049 A 
ATOM     44  H   UNL A   1      41.580  29.075  32.145  1.00  0.00     0.167 HD
ATOM     45  C   UNL A   1      38.086  30.927  30.277  1.00  0.00     0.037 A 
ATOM     46  C   UNL A   1      43.347  28.598  34.250  1.00  0.00     0.037 A 
ATOM     47  C   UNL A   1      38.055  31.372  31.644  1.00  0.00     0.049 A 
ATOM     48  C   UNL A   1      42.307  29.545  34.785  1.00  0.00     0.074 A 
ATOM     49  C   UNL A   1      37.114  32.172  32.269  1.00  0.00     0.029 A 
ATOM     50  N   UNL A   1      39.011  31.061  32.598  1.00  0.00    -0.354 N 
ATOM     51  N   UNL A   1      41.251  30.042  34.185  1.00  0.00    -0.248 NA
ATOM     52  C   UNL A   1      42.469  29.991  36.177  1.00  0.00     0.031 C 
ATOM     53  C   UNL A   1      37.524  32.379  33.591  1.00  0.00     0.029 A 
ATOM     54  C   UNL A   1      38.697  31.672  33.800  1.00  0.00     0.049 A 
ATOM     55  H   UNL A   1      39.798  30.489  32.442  1.00  0.00     0.167 HD
ATOM     56  C   UNL A   1      40.612  30.833  35.132  1.00  0.00     0.074 A 
ATOM     57  C   UNL A   1      41.391  30.743  36.348  1.00  0.00     0.031 C 
ATOM     58  C   UNL A   1      39.479  31.566  35.004  1.00  0.00     0.037 A 
BRANCH  45  59
ATOM     59  C   UNL A   1      37.002  31.393  29.353  1.00  0.00     0.057 A 
ATOM     60  C   UNL A   1      35.927  30.569  28.997  1.00  0.00     0.134 A 
ATOM     61  C   UNL A   1      37.014  32.697  28.840  1.00  0.00     0.134 A 
ATOM     62  F   UNL A   1      35.864  29.305  29.443  1.00  0.00    -0.206 F 
ATOM     63  C   UNL A   1      34.914  31.017  28.149  1.00  0.00     0.040 A 
ATOM     64  C   UNL A   1      35.996  33.164  28.009  1.00  0.00     0.040 A 
ATOM     65  F   UNL A   1      38.015  33.538  29.145  1.00  0.00    -0.206 F 
ATOM     66  C   UNL A   1      34.943  32.322  27.657  1.00  0.00     0.006 A 
ENDBRANCH  45  59
BRANCH  46  67
ATOM     67  C   UNL A   1      44.463  28.139  35.114  1.00  0.00     0.057 A 
ATOM     68  C   UNL A   1      44.367  26.959  35.858  1.00  0.00     0.134 A 
ATOM     69  C   UNL A   1      45.640  28.886  35.236  1.00  0.00     0.134 A 
ATOM     70  F   UNL A   1      43.253  26.214  35.802  1.00  0.00    -0.206 F 
ATOM     71  C   UNL A   1      45.395  26.543  36.706  1.00  0.00     0.040 A 
ATOM     72  C   UNL A   1      46.687  28.472  36.063  1.00  0.00     0.040 A 
ATOM     73  F   UNL A   1      45.793  30.028  34.550  1.00  0.00    -0.206 F 
ATOM     74  C   UNL A   1      46.562  27.300  36.806  1.00  0.00     0.006 A 
ENDBRANCH  46  67
BRANCH  58  75
ATOM     75  C   UNL A   1      38.996  32.302  36.219  1.00  0.00     0.057 A 
ATOM     76  C   UNL A   1      39.354  33.632  36.468  1.00  0.00     0.134 A 
ATOM     77  C   UNL A   1      38.127  31.683  37.127  1.00  0.00     0.134 A 
ATOM     78  F   UNL A   1      40.192  34.276  35.644  1.00  0.00    -0.206 F 
ATOM     79  C   UNL A   1      38.880  34.316  37.589  1.00  0.00     0.040 A 
ATOM     80  C   UNL A   1      37.628  32.364  38.239  1.00  0.00     0.040 A 
ATOM     81  F   UNL A   1      37.738  30.412  36.941  1.00  0.00    -0.206 F 
ATOM     82  C   UNL A   1      38.009  33.683  38.475  1.00  0.00     0.006 A 
ENDBRANCH  58  75
ENDBRANCH  32  33
ENDBRANCH  25  27
ENDBRANCH  24  25
ENDBRANCH  23  24
ENDBRANCH  22  23
ENDBRANCH   1  22
TORSDOF 16
ENDMDL
MODEL 3
REMARK VINA RESULT:     -10.9      4.845     11.363
REMARK SMILES C[C@@H](C(=O)OCCOCCOC(=O)c1ccc(-c2c3nc(c(-c4c(F)cccc4F)c4ccc([nH]4)c(-c4c(F)cccc4F)c4nc(c(-c5c(F)cccc5F)c5ccc2[nH]5)C=C4)C=C3)cc1)c1ccc(-c2ccccc2)c(F)c1
REMARK SMILES IDX 8 1 7 2 6 3 5 4 3 5 4 6 2 7 1 8 68 9 69 10 80 11 70 12 78 13
REMARK SMILES IDX 71 14 79 15 72 16 73 17 77 18 74 19 76 20 75 21 9 22 10 23
REMARK SMILES IDX 11 24 12 25 13 26 14 27 15 28 67 29 16 30 66 31 17 32 18 33
REMARK SMILES IDX 19 34 60 35 20 36 65 37 59 38 61 39 21 40 64 41 58 42 57 43
REMARK SMILES IDX 22 45 48 46 31 47 47 48 32 49 35 50 46 51 62 52 33 53 34 54
REMARK SMILES IDX 45 56 63 57 36 58 23 59 24 60 29 61 25 62 26 63 28 64 30 65
REMARK SMILES IDX 27 66 49 67 50 68 55 69 51 70 52 71 54 72 56 73 53 74 37 75
REMARK SMILES IDX 38 76 43 77 39 78 40 79 42 80 44 81 41 82
REMARK H PARENT 61 44 35 55
REMARK Flexibility Score: inf
ROOT
ATOM      1  O   UNL A   1      33.863  36.108  28.741  1.00  0.00    -0.374 OA
ENDROOT
BRANCH   1   2
ATOM      2  C   UNL A   1      32.908  35.667  29.708  1.00  0.00     0.202 C 
BRANCH   2   3
ATOM      3  C   UNL A   1      32.985  36.351  31.077  1.00  0.00     0.261 C 
BRANCH   3   4
ATOM      4  O   UNL A   1      33.230  35.378  32.105  1.00  0.00    -0.463 OA
BRANCH   4   5
ATOM      5  C   UNL A   1      34.469  35.416  32.665  1.00  0.00     0.313 C 
ATOM      6  O   UNL A   1      34.955  36.412  33.190  1.00  0.00    -0.252 OA
BRANCH   5   7
ATOM      7  C   UNL A   1      35.148  34.044  32.673  1.00  0.00     0.126 C 
ATOM      8  C   UNL A   1      35.181  33.370  34.051  1.00  0.00     0.025 C 
BRANCH   7   9
ATOM      9  C   UNL A   1      36.531  34.043  32.020  1.00  0.00    -0.031 A 
ATOM     10  C   UNL A   1      37.699  34.424  32.698  1.00  0.00     0.005 A 
ATOM     11  C   UNL A   1      36.654  33.668  30.674  1.00  0.00     0.044 A 
ATOM     12  C   UNL A   1      38.938  34.471  32.040  1.00  0.00     0.012 A 
ATOM     13  C   UNL A   1      37.892  33.721  30.025  1.00  0.00     0.131 A 
ATOM     14  C   UNL A   1      39.055  34.141  30.682  1.00  0.00     0.017 A 
ATOM     15  F   UNL A   1      37.935  33.367  28.731  1.00  0.00    -0.206 F 
BRANCH  14  16
ATOM     16  C   UNL A   1      40.340  34.296  29.977  1.00  0.00    -0.015 A 
ATOM     17  C   UNL A   1      41.449  33.488  30.281  1.00  0.00     0.009 A 
ATOM     18  C   UNL A   1      40.504  35.299  29.005  1.00  0.00     0.009 A 
ATOM     19  C   UNL A   1      42.677  33.682  29.641  1.00  0.00     0.001 A 
ATOM     20  C   UNL A   1      41.732  35.495  28.367  1.00  0.00     0.001 A 
ATOM     21  C   UNL A   1      42.819  34.687  28.687  1.00  0.00     0.000 A 
ENDBRANCH  14  16
ENDBRANCH   7   9
ENDBRANCH   5   7
ENDBRANCH   4   5
ENDBRANCH   3   4
ENDBRANCH   2   3
ENDBRANCH   1   2
BRANCH   1  22
ATOM     22  C   UNL A   1      34.537  35.107  27.976  1.00  0.00     0.202 C 
BRANCH  22  23
ATOM     23  C   UNL A   1      34.015  33.671  28.108  1.00  0.00     0.261 C 
BRANCH  23  24
ATOM     24  O   UNL A   1      34.992  32.693  27.705  1.00  0.00    -0.460 OA
BRANCH  24  25
ATOM     25  C   UNL A   1      34.619  31.407  27.897  1.00  0.00     0.338 C 
ATOM     26  O   UNL A   1      33.510  30.919  27.706  1.00  0.00    -0.246 OA
BRANCH  25  27
ATOM     27  C   UNL A   1      35.788  30.574  28.222  1.00  0.00     0.060 A 
ATOM     28  C   UNL A   1      35.866  30.053  29.520  1.00  0.00     0.016 A 
ATOM     29  C   UNL A   1      36.834  30.381  27.317  1.00  0.00     0.016 A 
ATOM     30  C   UNL A   1      37.013  29.381  29.936  1.00  0.00     0.010 A 
ATOM     31  C   UNL A   1      37.990  29.715  27.739  1.00  0.00     0.010 A 
ATOM     32  C   UNL A   1      38.099  29.245  29.061  1.00  0.00    -0.014 A 
BRANCH  32  33
ATOM     33  C   UNL A   1      39.394  28.749  29.586  1.00  0.00     0.031 A 
ATOM     34  C   UNL A   1      39.994  29.414  30.795  1.00  0.00     0.074 A 
ATOM     35  C   UNL A   1      40.008  27.694  29.023  1.00  0.00     0.049 A 
ATOM     36  N   UNL A   1      41.114  29.152  31.417  1.00  0.00    -0.248 NA
ATOM     37  C   UNL A   1      39.224  30.523  31.383  1.00  0.00     0.031 C 
ATOM     38  C   UNL A   1      39.508  26.940  27.875  1.00  0.00     0.029 A 
ATOM     39  N   UNL A   1      41.190  27.076  29.345  1.00  0.00    -0.354 N 
ATOM     40  C   UNL A   1      41.187  30.062  32.464  1.00  0.00     0.074 A 
ATOM     41  C   UNL A   1      40.012  30.902  32.379  1.00  0.00     0.031 C 
ATOM     42  C   UNL A   1      40.383  25.962  27.583  1.00  0.00     0.029 A 
ATOM     43  C   UNL A   1      41.515  26.039  28.506  1.00  0.00     0.049 A 
ATOM     44  H   UNL A   1      41.751  27.351  30.106  1.00  0.00     0.167 HD
ATOM     45  C   UNL A   1      42.142  30.181  33.416  1.00  0.00     0.037 A 
ATOM     46  C   UNL A   1      42.610  25.255  28.477  1.00  0.00     0.037 A 
ATOM     47  C   UNL A   1      43.309  29.344  33.505  1.00  0.00     0.049 A 
ATOM     48  C   UNL A   1      43.690  25.452  29.506  1.00  0.00     0.074 A 
ATOM     49  C   UNL A   1      44.323  29.376  34.446  1.00  0.00     0.029 A 
ATOM     50  N   UNL A   1      43.621  28.329  32.615  1.00  0.00    -0.354 N 
ATOM     51  N   UNL A   1      43.736  26.299  30.507  1.00  0.00    -0.248 NA
ATOM     52  C   UNL A   1      44.871  24.582  29.404  1.00  0.00     0.031 C 
ATOM     53  C   UNL A   1      45.271  28.406  34.101  1.00  0.00     0.029 A 
ATOM     54  C   UNL A   1      44.823  27.742  32.970  1.00  0.00     0.049 A 
ATOM     55  H   UNL A   1      43.068  28.064  31.845  1.00  0.00     0.167 HD
ATOM     56  C   UNL A   1      44.933  26.046  31.165  1.00  0.00     0.074 A 
ATOM     57  C   UNL A   1      45.580  24.961  30.458  1.00  0.00     0.031 C 
ATOM     58  C   UNL A   1      45.450  26.657  32.260  1.00  0.00     0.037 A 
BRANCH  45  59
ATOM     59  C   UNL A   1      41.973  31.273  34.430  1.00  0.00     0.057 A 
ATOM     60  C   UNL A   1      41.291  31.065  35.635  1.00  0.00     0.134 A 
ATOM     61  C   UNL A   1      42.531  32.540  34.212  1.00  0.00     0.134 A 
ATOM     62  F   UNL A   1      40.721  29.880  35.897  1.00  0.00    -0.206 F 
ATOM     63  C   UNL A   1      41.152  32.084  36.579  1.00  0.00     0.040 A 
ATOM     64  C   UNL A   1      42.419  33.559  35.157  1.00  0.00     0.040 A 
ATOM     65  F   UNL A   1      43.200  32.803  33.078  1.00  0.00    -0.206 F 
ATOM     66  C   UNL A   1      41.723  33.334  36.344  1.00  0.00     0.006 A 
ENDBRANCH  45  59
BRANCH  46  67
ATOM     67  C   UNL A   1      42.750  24.213  27.429  1.00  0.00     0.057 A 
ATOM     68  C   UNL A   1      43.301  24.512  26.178  1.00  0.00     0.134 A 
ATOM     69  C   UNL A   1      42.312  22.902  27.646  1.00  0.00     0.134 A 
ATOM     70  F   UNL A   1      43.716  25.757  25.903  1.00  0.00    -0.206 F 
ATOM     71  C   UNL A   1      43.397  23.548  25.174  1.00  0.00     0.040 A 
ATOM     72  C   UNL A   1      42.422  21.921  26.658  1.00  0.00     0.040 A 
ATOM     73  F   UNL A   1      41.773  22.553  28.824  1.00  0.00    -0.206 F 
ATOM     74  C   UNL A   1      42.960  22.245  25.415  1.00  0.00     0.006 A 
ENDBRANCH  46  67
BRANCH  58  75
ATOM     75  C   UNL A   1      46.761  26.144  32.779  1.00  0.00     0.057 A 
ATOM     76  C   UNL A   1      47.982  26.698  32.377  1.00  0.00     0.134 A 
ATOM     77  C   UNL A   1      46.797  25.113  33.726  1.00  0.00     0.134 A 
ATOM     78  F   UNL A   1      48.015  27.680  31.464  1.00  0.00    -0.206 F 
ATOM     79  C   UNL A   1      49.195  26.230  32.883  1.00  0.00     0.040 A 
ATOM     80  C   UNL A   1      48.003  24.652  34.258  1.00  0.00     0.040 A 
ATOM     81  F   UNL A   1      45.661  24.545  34.160  1.00  0.00    -0.206 F 
ATOM     82  C   UNL A   1      49.207  25.208  33.832  1.00  0.00     0.006 A 
ENDBRANCH  58  75
ENDBRANCH  32  33
ENDBRANCH  25  27
ENDBRANCH  24  25
ENDBRANCH  23  24
ENDBRANCH  22  23
ENDBRANCH   1  22
TORSDOF 16
ENDMDL
