MODEL 1
REMARK VINA RESULT:      -9.9      0.000      0.000
REMARK SMILES C[C@@H]1C[C@@]([NH2+]Cc2cccs2)(C(=O)OCCOCCOC(=O)c2ccc(-c3c4nc(c(-c5c(F)cccc5F)c5ccc([nH]5)c(-c5c(F)cccc5F)c5nc(c(-c6c(F)cccc6F)c6ccc3[nH]6)C=C5)C=C4)cc2)CS1
REMARK SMILES IDX 16 1 15 2 14 3 12 4 13 5 4 6 1 7 2 8 3 9 78 10 77 11 5 12
REMARK SMILES IDX 6 15 7 16 8 17 11 18 9 19 10 20 17 21 18 22 19 23 20 24
REMARK SMILES IDX 21 25 22 26 23 27 24 28 76 29 25 30 75 31 26 32 27 33 28 34
REMARK SMILES IDX 69 35 29 36 74 37 68 38 70 39 30 40 73 41 67 42 66 43 31 45
REMARK SMILES IDX 57 46 40 47 56 48 41 49 44 50 55 51 71 52 42 53 43 54 54 56
REMARK SMILES IDX 72 57 45 58 32 59 33 60 38 61 34 62 35 63 37 64 39 65 36 66
REMARK SMILES IDX 58 67 59 68 64 69 60 70 61 71 63 72 65 73 62 74 46 75 47 76
REMARK SMILES IDX 52 77 48 78 49 79 51 80 53 81 50 82
REMARK H PARENT 5 13 5 14 70 44 44 55
REMARK Flexibility Score: inf
ROOT
ATOM      1  C   UNL A   1      37.248  23.699  25.872  1.00  0.00     0.202 C 
ENDROOT
BRANCH   1   2
ATOM      2  C   UNL A   1      35.721  23.710  25.741  1.00  0.00     0.261 C 
BRANCH   2   3
ATOM      3  O   UNL A   1      35.178  22.406  25.480  1.00  0.00    -0.459 OA
BRANCH   3   4
ATOM      4  C   UNL A   1      34.252  21.994  26.390  1.00  0.00     0.369 C 
ATOM      5  O   UNL A   1      34.538  21.579  27.509  1.00  0.00    -0.245 OA
BRANCH   4   6
ATOM      6  C   UNL A   1      32.793  22.128  25.895  1.00  0.00     0.204 C 
ATOM      7  C   UNL A   1      30.636  24.166  23.455  1.00  0.00     0.019 C 
ATOM      8  C   UNL A   1      31.533  24.014  24.671  1.00  0.00     0.050 C 
ATOM      9  C   UNL A   1      32.622  22.927  24.547  1.00  0.00     0.096 C 
ATOM     10  S   UNL A   1      30.589  23.570  26.140  1.00  0.00    -0.151 SA
ATOM     11  C   UNL A   1      32.081  22.994  26.961  1.00  0.00     0.150 C 
BRANCH   6  12
ATOM     12  N   UNL A   1      32.187  20.781  25.641  1.00  0.00    -0.327 N 
ATOM     13  H   UNL A   1      31.219  20.817  25.964  1.00  0.00     0.347 HD
ATOM     14  H   UNL A   1      32.794  20.129  26.138  1.00  0.00     0.347 HD
BRANCH  12  15
ATOM     15  C   UNL A   1      32.167  20.286  24.255  1.00  0.00     0.309 C 
BRANCH  15  16
ATOM     16  C   UNL A   1      32.946  19.020  24.063  1.00  0.00     0.059 A 
ATOM     17  C   UNL A   1      34.016  18.543  24.799  1.00  0.00     0.021 A 
ATOM     18  S   UNL A   1      32.564  17.959  22.768  1.00  0.00    -0.143 S 
ATOM     19  C   UNL A   1      34.628  17.411  24.187  1.00  0.00     0.012 A 
ATOM     20  C   UNL A   1      33.952  17.007  23.057  1.00  0.00     0.065 A 
ENDBRANCH  15  16
ENDBRANCH  12  15
ENDBRANCH   6  12
ENDBRANCH   4   6
ENDBRANCH   3   4
ENDBRANCH   2   3
ENDBRANCH   1   2
BRANCH   1  21
ATOM     21  O   UNL A   1      37.960  22.625  25.264  1.00  0.00    -0.374 OA
BRANCH  21  22
ATOM     22  C   UNL A   1      38.776  21.803  26.096  1.00  0.00     0.202 C 
BRANCH  22  23
ATOM     23  C   UNL A   1      39.383  20.541  25.474  1.00  0.00     0.261 C 
BRANCH  23  24
ATOM     24  O   UNL A   1      40.248  19.857  26.399  1.00  0.00    -0.460 OA
BRANCH  24  25
ATOM     25  C   UNL A   1      41.558  19.880  26.060  1.00  0.00     0.338 C 
ATOM     26  O   UNL A   1      42.142  19.111  25.308  1.00  0.00    -0.246 OA
BRANCH  25  27
ATOM     27  C   UNL A   1      42.196  21.107  26.568  1.00  0.00     0.060 A 
ATOM     28  C   UNL A   1      42.152  21.320  27.953  1.00  0.00     0.016 A 
ATOM     29  C   UNL A   1      42.746  22.068  25.717  1.00  0.00     0.016 A 
ATOM     30  C   UNL A   1      42.590  22.527  28.486  1.00  0.00     0.010 A 
ATOM     31  C   UNL A   1      43.176  23.286  26.254  1.00  0.00     0.010 A 
ATOM     32  C   UNL A   1      43.054  23.536  27.634  1.00  0.00    -0.014 A 
BRANCH  32  33
ATOM     33  C   UNL A   1      43.216  24.905  28.177  1.00  0.00     0.031 A 
ATOM     34  C   UNL A   1      44.599  25.384  28.526  1.00  0.00     0.074 A 
ATOM     35  C   UNL A   1      42.164  25.734  28.288  1.00  0.00     0.049 A 
ATOM     36  N   UNL A   1      44.986  26.546  28.985  1.00  0.00    -0.248 NA
ATOM     37  C   UNL A   1      45.695  24.421  28.326  1.00  0.00     0.031 C 
ATOM     38  C   UNL A   1      40.785  25.400  27.938  1.00  0.00     0.029 A 
ATOM     39  N   UNL A   1      42.099  27.033  28.723  1.00  0.00    -0.354 N 
ATOM     40  C   UNL A   1      46.364  26.455  29.129  1.00  0.00     0.074 A 
ATOM     41  C   UNL A   1      46.744  25.114  28.743  1.00  0.00     0.031 C 
ATOM     42  C   UNL A   1      40.005  26.469  28.176  1.00  0.00     0.029 A 
ATOM     43  C   UNL A   1      40.827  27.552  28.715  1.00  0.00     0.049 A 
ATOM     44  H   UNL A   1      42.888  27.546  29.012  1.00  0.00     0.167 HD
ATOM     45  C   UNL A   1      47.237  27.407  29.535  1.00  0.00     0.037 A 
ATOM     46  C   UNL A   1      40.380  28.758  29.112  1.00  0.00     0.037 A 
ATOM     47  C   UNL A   1      46.859  28.741  29.916  1.00  0.00     0.049 A 
ATOM     48  C   UNL A   1      41.362  29.778  29.625  1.00  0.00     0.074 A 
ATOM     49  C   UNL A   1      47.669  29.784  30.328  1.00  0.00     0.029 A 
ATOM     50  N   UNL A   1      45.555  29.214  29.937  1.00  0.00    -0.354 N 
ATOM     51  N   UNL A   1      42.666  29.690  29.734  1.00  0.00    -0.248 NA
ATOM     52  C   UNL A   1      40.810  31.068  30.065  1.00  0.00     0.031 C 
ATOM     53  C   UNL A   1      46.852  30.874  30.641  1.00  0.00     0.029 A 
ATOM     54  C   UNL A   1      45.537  30.526  30.379  1.00  0.00     0.049 A 
ATOM     55  H   UNL A   1      44.761  28.694  29.676  1.00  0.00     0.167 HD
ATOM     56  C   UNL A   1      43.092  30.916  30.229  1.00  0.00     0.074 A 
ATOM     57  C   UNL A   1      41.909  31.736  30.386  1.00  0.00     0.031 C 
ATOM     58  C   UNL A   1      44.349  31.329  30.525  1.00  0.00     0.037 A 
BRANCH  45  59
ATOM     59  C   UNL A   1      48.686  27.026  29.610  1.00  0.00     0.057 A 
ATOM     60  C   UNL A   1      49.243  26.459  30.765  1.00  0.00     0.134 A 
ATOM     61  C   UNL A   1      49.529  27.204  28.506  1.00  0.00     0.134 A 
ATOM     62  F   UNL A   1      48.494  26.278  31.863  1.00  0.00    -0.206 F 
ATOM     63  C   UNL A   1      50.593  26.105  30.824  1.00  0.00     0.040 A 
ATOM     64  C   UNL A   1      50.873  26.831  28.546  1.00  0.00     0.040 A 
ATOM     65  F   UNL A   1      49.058  27.739  27.370  1.00  0.00    -0.206 F 
ATOM     66  C   UNL A   1      51.410  26.285  29.710  1.00  0.00     0.006 A 
ENDBRANCH  45  59
BRANCH  46  67
ATOM     67  C   UNL A   1      38.930  29.071  29.049  1.00  0.00     0.057 A 
ATOM     68  C   UNL A   1      38.329  29.500  27.861  1.00  0.00     0.134 A 
ATOM     69  C   UNL A   1      38.116  28.964  30.183  1.00  0.00     0.134 A 
ATOM     70  F   UNL A   1      39.061  29.644  26.747  1.00  0.00    -0.206 F 
ATOM     71  C   UNL A   1      36.973  29.829  27.806  1.00  0.00     0.040 A 
ATOM     72  C   UNL A   1      36.755  29.267  30.137  1.00  0.00     0.040 A 
ATOM     73  F   UNL A   1      38.633  28.558  31.352  1.00  0.00    -0.206 F 
ATOM     74  C   UNL A   1      36.181  29.707  28.945  1.00  0.00     0.006 A 
ENDBRANCH  46  67
BRANCH  58  75
ATOM     75  C   UNL A   1      44.513  32.735  31.019  1.00  0.00     0.057 A 
ATOM     76  C   UNL A   1      44.519  33.043  32.385  1.00  0.00     0.134 A 
ATOM     77  C   UNL A   1      44.711  33.789  30.118  1.00  0.00     0.134 A 
ATOM     78  F   UNL A   1      44.324  32.080  33.300  1.00  0.00    -0.206 F 
ATOM     79  C   UNL A   1      44.694  34.351  32.837  1.00  0.00     0.040 A 
ATOM     80  C   UNL A   1      44.912  35.097  30.557  1.00  0.00     0.040 A 
ATOM     81  F   UNL A   1      44.727  33.561  28.795  1.00  0.00    -0.206 F 
ATOM     82  C   UNL A   1      44.898  35.383  31.922  1.00  0.00     0.006 A 
ENDBRANCH  58  75
ENDBRANCH  32  33
ENDBRANCH  25  27
ENDBRANCH  24  25
ENDBRANCH  23  24
ENDBRANCH  22  23
ENDBRANCH  21  22
ENDBRANCH   1  21
TORSDOF 17
ENDMDL
MODEL 2
REMARK VINA RESULT:      -9.7      3.917      5.325
REMARK SMILES C[C@@H]1C[C@@]([NH2+]Cc2cccs2)(C(=O)OCCOCCOC(=O)c2ccc(-c3c4nc(c(-c5c(F)cccc5F)c5ccc([nH]5)c(-c5c(F)cccc5F)c5nc(c(-c6c(F)cccc6F)c6ccc3[nH]6)C=C5)C=C4)cc2)CS1
REMARK SMILES IDX 16 1 15 2 14 3 12 4 13 5 4 6 1 7 2 8 3 9 78 10 77 11 5 12
REMARK SMILES IDX 6 15 7 16 8 17 11 18 9 19 10 20 17 21 18 22 19 23 20 24
REMARK SMILES IDX 21 25 22 26 23 27 24 28 76 29 25 30 75 31 26 32 27 33 28 34
REMARK SMILES IDX 69 35 29 36 74 37 68 38 70 39 30 40 73 41 67 42 66 43 31 45
REMARK SMILES IDX 57 46 40 47 56 48 41 49 44 50 55 51 71 52 42 53 43 54 54 56
REMARK SMILES IDX 72 57 45 58 32 59 33 60 38 61 34 62 35 63 37 64 39 65 36 66
REMARK SMILES IDX 58 67 59 68 64 69 60 70 61 71 63 72 65 73 62 74 46 75 47 76
REMARK SMILES IDX 52 77 48 78 49 79 51 80 53 81 50 82
REMARK H PARENT 5 13 5 14 70 44 44 55
REMARK Flexibility Score: inf
ROOT
ATOM      1  C   UNL A   1      41.200  19.943  26.107  1.00  0.00     0.202 C 
ENDROOT
BRANCH   1   2
ATOM      2  C   UNL A   1      40.313  21.073  26.644  1.00  0.00     0.261 C 
BRANCH   2   3
ATOM      3  O   UNL A   1      39.144  21.290  25.839  1.00  0.00    -0.459 OA
BRANCH   3   4
ATOM      4  C   UNL A   1      38.533  22.488  26.052  1.00  0.00     0.369 C 
ATOM      5  O   UNL A   1      39.112  23.477  26.493  1.00  0.00    -0.245 OA
BRANCH   4   6
ATOM      6  C   UNL A   1      37.039  22.503  25.654  1.00  0.00     0.204 C 
ATOM      7  C   UNL A   1      34.741  23.316  22.685  1.00  0.00     0.019 C 
ATOM      8  C   UNL A   1      35.750  23.682  23.758  1.00  0.00     0.050 C 
ATOM      9  C   UNL A   1      36.767  22.572  24.103  1.00  0.00     0.096 C 
ATOM     10  S   UNL A   1      34.943  24.082  25.318  1.00  0.00    -0.151 SA
ATOM     11  C   UNL A   1      36.483  23.835  26.213  1.00  0.00     0.150 C 
BRANCH   6  12
ATOM     12  N   UNL A   1      36.345  21.261  26.126  1.00  0.00    -0.327 N 
ATOM     13  H   UNL A   1      35.448  21.544  26.519  1.00  0.00     0.347 HD
ATOM     14  H   UNL A   1      37.000  20.835  26.783  1.00  0.00     0.347 HD
BRANCH  12  15
ATOM     15  C   UNL A   1      36.076  20.205  25.137  1.00  0.00     0.309 C 
BRANCH  15  16
ATOM     16  C   UNL A   1      34.619  19.890  24.982  1.00  0.00     0.059 A 
ATOM     17  C   UNL A   1      34.026  18.880  24.246  1.00  0.00     0.021 A 
ATOM     18  S   UNL A   1      33.438  20.868  25.755  1.00  0.00    -0.143 S 
ATOM     19  C   UNL A   1      32.611  19.026  24.173  1.00  0.00     0.012 A 
ATOM     20  C   UNL A   1      32.163  20.087  24.927  1.00  0.00     0.065 A 
ENDBRANCH  15  16
ENDBRANCH  12  15
ENDBRANCH   6  12
ENDBRANCH   4   6
ENDBRANCH   3   4
ENDBRANCH   2   3
ENDBRANCH   1   2
BRANCH   1  21
ATOM     21  O   UNL A   1      42.592  20.208  25.953  1.00  0.00    -0.374 OA
BRANCH  21  22
ATOM     22  C   UNL A   1      42.982  21.492  25.470  1.00  0.00     0.202 C 
BRANCH  22  23
ATOM     23  C   UNL A   1      44.475  21.838  25.494  1.00  0.00     0.261 C 
BRANCH  23  24
ATOM     24  O   UNL A   1      44.743  22.975  26.334  1.00  0.00    -0.460 OA
BRANCH  24  25
ATOM     25  C   UNL A   1      44.615  24.171  25.713  1.00  0.00     0.338 C 
ATOM     26  O   UNL A   1      45.020  24.472  24.597  1.00  0.00    -0.246 OA
BRANCH  25  27
ATOM     27  C   UNL A   1      43.725  25.056  26.484  1.00  0.00     0.060 A 
ATOM     28  C   UNL A   1      44.147  26.379  26.666  1.00  0.00     0.016 A 
ATOM     29  C   UNL A   1      42.555  24.592  27.088  1.00  0.00     0.016 A 
ATOM     30  C   UNL A   1      43.441  27.225  27.513  1.00  0.00     0.010 A 
ATOM     31  C   UNL A   1      41.851  25.441  27.949  1.00  0.00     0.010 A 
ATOM     32  C   UNL A   1      42.320  26.743  28.201  1.00  0.00    -0.014 A 
BRANCH  32  33
ATOM     33  C   UNL A   1      41.775  27.546  29.321  1.00  0.00     0.031 A 
ATOM     34  C   UNL A   1      42.468  27.486  30.655  1.00  0.00     0.074 A 
ATOM     35  C   UNL A   1      40.730  28.371  29.136  1.00  0.00     0.049 A 
ATOM     36  N   UNL A   1      42.191  28.121  31.765  1.00  0.00    -0.248 NA
ATOM     37  C   UNL A   1      43.633  26.590  30.749  1.00  0.00     0.031 C 
ATOM     38  C   UNL A   1      40.008  28.549  27.879  1.00  0.00     0.029 A 
ATOM     39  N   UNL A   1      40.102  29.218  30.012  1.00  0.00    -0.354 N 
ATOM     40  C   UNL A   1      43.143  27.703  32.686  1.00  0.00     0.074 A 
ATOM     41  C   UNL A   1      43.985  26.734  32.018  1.00  0.00     0.031 C 
ATOM     42  C   UNL A   1      39.028  29.452  28.065  1.00  0.00     0.029 A 
ATOM     43  C   UNL A   1      39.042  29.894  29.459  1.00  0.00     0.049 A 
ATOM     44  H   UNL A   1      40.384  29.333  30.948  1.00  0.00     0.167 HD
ATOM     45  C   UNL A   1      43.310  28.099  33.970  1.00  0.00     0.037 A 
ATOM     46  C   UNL A   1      38.177  30.759  30.020  1.00  0.00     0.037 A 
ATOM     47  C   UNL A   1      42.475  29.064  34.632  1.00  0.00     0.049 A 
ATOM     48  C   UNL A   1      38.341  31.133  31.469  1.00  0.00     0.074 A 
ATOM     49  C   UNL A   1      42.570  29.544  35.927  1.00  0.00     0.029 A 
ATOM     50  N   UNL A   1      41.385  29.693  34.050  1.00  0.00    -0.354 N 
ATOM     51  N   UNL A   1      39.259  30.750  32.324  1.00  0.00    -0.248 NA
ATOM     52  C   UNL A   1      37.351  32.063  32.030  1.00  0.00     0.031 C 
ATOM     53  C   UNL A   1      41.510  30.430  36.142  1.00  0.00     0.029 A 
ATOM     54  C   UNL A   1      40.783  30.539  34.968  1.00  0.00     0.049 A 
ATOM     55  H   UNL A   1      41.083  29.559  33.123  1.00  0.00     0.167 HD
ATOM     56  C   UNL A   1      38.974  31.411  33.512  1.00  0.00     0.074 A 
ATOM     57  C   UNL A   1      37.805  32.229  33.265  1.00  0.00     0.031 C 
ATOM     58  C   UNL A   1      39.622  31.349  34.702  1.00  0.00     0.037 A 
BRANCH  45  59
ATOM     59  C   UNL A   1      44.426  27.466  34.747  1.00  0.00     0.057 A 
ATOM     60  C   UNL A   1      44.196  26.430  35.661  1.00  0.00     0.134 A 
ATOM     61  C   UNL A   1      45.751  27.881  34.560  1.00  0.00     0.134 A 
ATOM     62  F   UNL A   1      42.948  25.997  35.899  1.00  0.00    -0.206 F 
ATOM     63  C   UNL A   1      45.242  25.844  36.379  1.00  0.00     0.040 A 
ATOM     64  C   UNL A   1      46.806  27.287  35.252  1.00  0.00     0.040 A 
ATOM     65  F   UNL A   1      46.039  28.867  33.697  1.00  0.00    -0.206 F 
ATOM     66  C   UNL A   1      46.553  26.269  36.169  1.00  0.00     0.006 A 
ENDBRANCH  45  59
BRANCH  46  67
ATOM     67  C   UNL A   1      37.068  31.329  29.214  1.00  0.00     0.057 A 
ATOM     68  C   UNL A   1      37.121  32.640  28.729  1.00  0.00     0.134 A 
ATOM     69  C   UNL A   1      35.921  30.580  28.925  1.00  0.00     0.134 A 
ATOM     70  F   UNL A   1      38.183  33.415  28.991  1.00  0.00    -0.206 F 
ATOM     71  C   UNL A   1      36.066  33.192  28.000  1.00  0.00     0.040 A 
ATOM     72  C   UNL A   1      34.870  31.110  28.179  1.00  0.00     0.040 A 
ATOM     73  F   UNL A   1      35.811  29.317  29.363  1.00  0.00    -0.206 F 
ATOM     74  C   UNL A   1      34.938  32.424  27.719  1.00  0.00     0.006 A 
ENDBRANCH  46  67
BRANCH  58  75
ATOM     75  C   UNL A   1      39.100  32.208  35.815  1.00  0.00     0.057 A 
ATOM     76  C   UNL A   1      38.223  31.709  36.785  1.00  0.00     0.134 A 
ATOM     77  C   UNL A   1      39.515  33.541  35.942  1.00  0.00     0.134 A 
ATOM     78  F   UNL A   1      37.779  30.445  36.715  1.00  0.00    -0.206 F 
ATOM     79  C   UNL A   1      37.760  32.510  37.830  1.00  0.00     0.040 A 
ATOM     80  C   UNL A   1      39.080  34.344  36.995  1.00  0.00     0.040 A 
ATOM     81  F   UNL A   1      40.363  34.078  35.051  1.00  0.00    -0.206 F 
ATOM     82  C   UNL A   1      38.193  33.830  37.940  1.00  0.00     0.006 A 
ENDBRANCH  58  75
ENDBRANCH  32  33
ENDBRANCH  25  27
ENDBRANCH  24  25
ENDBRANCH  23  24
ENDBRANCH  22  23
ENDBRANCH  21  22
ENDBRANCH   1  21
TORSDOF 17
ENDMDL
MODEL 3
REMARK VINA RESULT:      -9.7      2.760      4.701
REMARK SMILES C[C@@H]1C[C@@]([NH2+]Cc2cccs2)(C(=O)OCCOCCOC(=O)c2ccc(-c3c4nc(c(-c5c(F)cccc5F)c5ccc([nH]5)c(-c5c(F)cccc5F)c5nc(c(-c6c(F)cccc6F)c6ccc3[nH]6)C=C5)C=C4)cc2)CS1
REMARK SMILES IDX 16 1 15 2 14 3 12 4 13 5 4 6 1 7 2 8 3 9 78 10 77 11 5 12
REMARK SMILES IDX 6 15 7 16 8 17 11 18 9 19 10 20 17 21 18 22 19 23 20 24
REMARK SMILES IDX 21 25 22 26 23 27 24 28 76 29 25 30 75 31 26 32 27 33 28 34
REMARK SMILES IDX 69 35 29 36 74 37 68 38 70 39 30 40 73 41 67 42 66 43 31 45
REMARK SMILES IDX 57 46 40 47 56 48 41 49 44 50 55 51 71 52 42 53 43 54 54 56
REMARK SMILES IDX 72 57 45 58 32 59 33 60 38 61 34 62 35 63 37 64 39 65 36 66
REMARK SMILES IDX 58 67 59 68 64 69 60 70 61 71 63 72 65 73 62 74 46 75 47 76
REMARK SMILES IDX 52 77 48 78 49 79 51 80 53 81 50 82
REMARK H PARENT 5 13 5 14 70 44 44 55
REMARK Flexibility Score: inf
ROOT
ATOM      1  C   UNL A   1      33.853  21.916  27.146  1.00  0.00     0.202 C 
ENDROOT
BRANCH   1   2
ATOM      2  C   UNL A   1      32.676  22.885  26.982  1.00  0.00     0.261 C 
BRANCH   2   3
ATOM      3  O   UNL A   1      33.040  24.087  26.285  1.00  0.00    -0.459 OA
BRANCH   3   4
ATOM      4  C   UNL A   1      32.064  24.582  25.477  1.00  0.00     0.369 C 
ATOM      5  O   UNL A   1      31.048  23.960  25.178  1.00  0.00    -0.245 OA
BRANCH   4   6
ATOM      6  C   UNL A   1      32.334  26.025  24.989  1.00  0.00     0.204 C 
ATOM      7  C   UNL A   1      30.491  29.150  23.726  1.00  0.00     0.019 C 
ATOM      8  C   UNL A   1      30.923  27.698  23.627  1.00  0.00     0.050 C 
ATOM      9  C   UNL A   1      31.071  26.968  24.979  1.00  0.00     0.096 C 
ATOM     10  S   UNL A   1      32.529  27.537  22.827  1.00  0.00    -0.151 SA
ATOM     11  C   UNL A   1      32.732  25.882  23.500  1.00  0.00     0.150 C 
BRANCH   6  12
ATOM     12  N   UNL A   1      33.337  26.710  25.867  1.00  0.00    -0.327 N 
ATOM     13  H   UNL A   1      33.873  27.347  25.277  1.00  0.00     0.347 HD
ATOM     14  H   UNL A   1      33.868  25.949  26.291  1.00  0.00     0.347 HD
BRANCH  12  15
ATOM     15  C   UNL A   1      32.833  27.490  27.008  1.00  0.00     0.309 C 
BRANCH  15  16
ATOM     16  C   UNL A   1      33.500  28.823  27.161  1.00  0.00     0.059 A 
ATOM     17  C   UNL A   1      34.807  29.100  27.520  1.00  0.00     0.021 A 
ATOM     18  S   UNL A   1      32.607  30.269  26.911  1.00  0.00    -0.143 S 
ATOM     19  C   UNL A   1      35.016  30.488  27.764  1.00  0.00     0.012 A 
ATOM     20  C   UNL A   1      33.889  31.233  27.498  1.00  0.00     0.065 A 
ENDBRANCH  15  16
ENDBRANCH  12  15
ENDBRANCH   6  12
ENDBRANCH   4   6
ENDBRANCH   3   4
ENDBRANCH   2   3
ENDBRANCH   1   2
BRANCH   1  21
ATOM     21  O   UNL A   1      34.400  21.329  25.968  1.00  0.00    -0.374 OA
BRANCH  21  22
ATOM     22  C   UNL A   1      35.628  21.851  25.465  1.00  0.00     0.202 C 
BRANCH  22  23
ATOM     23  C   UNL A   1      36.795  20.875  25.285  1.00  0.00     0.261 C 
BRANCH  23  24
ATOM     24  O   UNL A   1      38.028  21.567  25.014  1.00  0.00    -0.460 OA
BRANCH  24  25
ATOM     25  C   UNL A   1      39.039  21.259  25.859  1.00  0.00     0.338 C 
ATOM     26  O   UNL A   1      39.656  20.203  25.923  1.00  0.00    -0.246 OA
BRANCH  25  27
ATOM     27  C   UNL A   1      39.466  22.457  26.603  1.00  0.00     0.060 A 
ATOM     28  C   UNL A   1      38.861  23.671  26.252  1.00  0.00     0.016 A 
ATOM     29  C   UNL A   1      40.487  22.418  27.555  1.00  0.00     0.016 A 
ATOM     30  C   UNL A   1      39.326  24.864  26.797  1.00  0.00     0.010 A 
ATOM     31  C   UNL A   1      40.960  23.619  28.094  1.00  0.00     0.010 A 
ATOM     32  C   UNL A   1      40.413  24.847  27.679  1.00  0.00    -0.014 A 
BRANCH  32  33
ATOM     33  C   UNL A   1      41.087  26.128  27.999  1.00  0.00     0.031 A 
ATOM     34  C   UNL A   1      42.496  26.342  27.515  1.00  0.00     0.074 A 
ATOM     35  C   UNL A   1      40.433  27.112  28.640  1.00  0.00     0.049 A 
ATOM     36  N   UNL A   1      43.270  27.388  27.648  1.00  0.00    -0.248 NA
ATOM     37  C   UNL A   1      43.113  25.226  26.780  1.00  0.00     0.031 C 
ATOM     38  C   UNL A   1      39.053  27.039  29.115  1.00  0.00     0.029 A 
ATOM     39  N   UNL A   1      40.849  28.369  28.995  1.00  0.00    -0.354 N 
ATOM     40  C   UNL A   1      44.462  27.057  27.016  1.00  0.00     0.074 A 
ATOM     41  C   UNL A   1      44.323  25.702  26.530  1.00  0.00     0.031 C 
ATOM     42  C   UNL A   1      38.735  28.205  29.705  1.00  0.00     0.029 A 
ATOM     43  C   UNL A   1      39.895  29.093  29.669  1.00  0.00     0.049 A 
ATOM     44  H   UNL A   1      41.744  28.721  28.787  1.00  0.00     0.167 HD
ATOM     45  C   UNL A   1      45.569  27.818  26.845  1.00  0.00     0.037 A 
ATOM     46  C   UNL A   1      39.960  30.326  30.205  1.00  0.00     0.037 A 
ATOM     47  C   UNL A   1      45.705  29.166  27.326  1.00  0.00     0.049 A 
ATOM     48  C   UNL A   1      41.227  31.129  30.061  1.00  0.00     0.074 A 
ATOM     49  C   UNL A   1      46.780  30.027  27.192  1.00  0.00     0.029 A 
ATOM     50  N   UNL A   1      44.732  29.848  28.042  1.00  0.00    -0.354 N 
ATOM     51  N   UNL A   1      42.340  30.815  29.440  1.00  0.00    -0.248 NA
ATOM     52  C   UNL A   1      41.245  32.458  30.688  1.00  0.00     0.031 C 
ATOM     53  C   UNL A   1      46.475  31.214  27.865  1.00  0.00     0.029 A 
ATOM     54  C   UNL A   1      45.192  31.111  28.378  1.00  0.00     0.049 A 
ATOM     55  H   UNL A   1      43.846  29.489  28.276  1.00  0.00     0.167 HD
ATOM     56  C   UNL A   1      43.177  31.915  29.579  1.00  0.00     0.074 A 
ATOM     57  C   UNL A   1      42.440  32.908  30.332  1.00  0.00     0.031 C 
ATOM     58  C   UNL A   1      44.442  32.089  29.124  1.00  0.00     0.037 A 
BRANCH  45  59
ATOM     59  C   UNL A   1      46.729  27.195  26.127  1.00  0.00     0.057 A 
ATOM     60  C   UNL A   1      47.685  26.420  26.797  1.00  0.00     0.134 A 
ATOM     61  C   UNL A   1      46.878  27.351  24.743  1.00  0.00     0.134 A 
ATOM     62  F   UNL A   1      47.609  26.246  28.125  1.00  0.00    -0.206 F 
ATOM     63  C   UNL A   1      48.760  25.842  26.119  1.00  0.00     0.040 A 
ATOM     64  C   UNL A   1      47.934  26.758  24.051  1.00  0.00     0.040 A 
ATOM     65  F   UNL A   1      45.996  28.079  24.041  1.00  0.00    -0.206 F 
ATOM     66  C   UNL A   1      48.882  26.005  24.740  1.00  0.00     0.006 A 
ENDBRANCH  45  59
BRANCH  46  67
ATOM     67  C   UNL A   1      38.794  30.881  30.936  1.00  0.00     0.057 A 
ATOM     68  C   UNL A   1      38.619  30.653  32.305  1.00  0.00     0.134 A 
ATOM     69  C   UNL A   1      37.818  31.638  30.278  1.00  0.00     0.134 A 
ATOM     70  F   UNL A   1      39.507  29.916  32.987  1.00  0.00    -0.206 F 
ATOM     71  C   UNL A   1      37.505  31.143  32.990  1.00  0.00     0.040 A 
ATOM     72  C   UNL A   1      36.713  32.154  30.954  1.00  0.00     0.040 A 
ATOM     73  F   UNL A   1      37.930  31.892  28.965  1.00  0.00    -0.206 F 
ATOM     74  C   UNL A   1      36.551  31.901  32.315  1.00  0.00     0.006 A 
ENDBRANCH  46  67
BRANCH  58  75
ATOM     75  C   UNL A   1      45.097  33.409  29.400  1.00  0.00     0.057 A 
ATOM     76  C   UNL A   1      45.904  33.613  30.526  1.00  0.00     0.134 A 
ATOM     77  C   UNL A   1      44.954  34.478  28.504  1.00  0.00     0.134 A 
ATOM     78  F   UNL A   1      46.073  32.634  31.428  1.00  0.00    -0.206 F 
ATOM     79  C   UNL A   1      46.527  34.839  30.764  1.00  0.00     0.040 A 
ATOM     80  C   UNL A   1      45.592  35.699  28.717  1.00  0.00     0.040 A 
ATOM     81  F   UNL A   1      44.203  34.345  27.400  1.00  0.00    -0.206 F 
ATOM     82  C   UNL A   1      46.377  35.885  29.855  1.00  0.00     0.006 A 
ENDBRANCH  58  75
ENDBRANCH  32  33
ENDBRANCH  25  27
ENDBRANCH  24  25
ENDBRANCH  23  24
ENDBRANCH  22  23
ENDBRANCH  21  22
ENDBRANCH   1  21
TORSDOF 17
ENDMDL
