MODEL 1
REMARK VINA RESULT:     -10.4      0.000      0.000
REMARK SMILES CCN(C(=O)C1(C)CCCC1)[C@@H]1COC[C@H]1C(=O)OCCOCCOC(=O)c1ccc(-c2c3nc(c(-c4c(F)cccc4F)c4ccc([nH]4)c(-c4c(F)cccc4F)c4nc(c(-c5c(F)cccc5F)c5ccc2[nH]5)C=C4)C=C3)cc1
REMARK SMILES IDX 21 1 20 2 19 3 17 4 18 5 16 6 12 7 13 8 14 9 15 10 3 11 2 12
REMARK SMILES IDX 1 13 4 14 5 15 6 16 7 17 8 18 11 19 9 20 10 21 22 22 23 23
REMARK SMILES IDX 24 24 25 25 26 26 27 27 28 28 29 29 81 30 30 31 80 32 31 33
REMARK SMILES IDX 32 34 33 35 74 36 34 37 79 38 73 39 75 40 35 41 78 42 72 43
REMARK SMILES IDX 71 44 36 46 62 47 45 48 61 49 46 50 49 51 60 52 76 53 47 54
REMARK SMILES IDX 48 55 59 57 77 58 50 59 37 60 38 61 43 62 39 63 40 64 42 65
REMARK SMILES IDX 44 66 41 67 63 68 64 69 69 70 65 71 66 72 68 73 70 74 67 75
REMARK SMILES IDX 51 76 52 77 57 78 53 79 54 80 56 81 58 82 55 83
REMARK H PARENT 75 45 49 56
REMARK Flexibility Score: inf
ROOT
ATOM      1  C   UNL A   1      32.963  30.252  26.988  1.00  0.00     0.202 C 
ENDROOT
BRANCH   1   2
ATOM      2  C   UNL A   1      33.289  28.760  26.819  1.00  0.00     0.261 C 
BRANCH   2   3
ATOM      3  O   UNL A   1      33.438  28.290  25.459  1.00  0.00    -0.463 OA
BRANCH   3   4
ATOM      4  C   UNL A   1      33.156  26.976  25.263  1.00  0.00     0.313 C 
ATOM      5  O   UNL A   1      32.498  26.291  26.042  1.00  0.00    -0.252 OA
BRANCH   4   6
ATOM      6  C   UNL A   1      33.787  26.352  24.040  1.00  0.00     0.150 C 
ATOM      7  C   UNL A   1      33.324  24.988  23.521  1.00  0.00     0.127 C 
ATOM      8  C   UNL A   1      33.272  25.176  21.992  1.00  0.00     0.186 C 
ATOM      9  O   UNL A   1      33.754  26.499  21.704  1.00  0.00    -0.378 OA
ATOM     10  C   UNL A   1      33.524  27.283  22.874  1.00  0.00     0.177 C 
BRANCH   7  11
ATOM     11  N   UNL A   1      34.118  23.780  23.954  1.00  0.00    -0.336 N 
BRANCH  11  12
ATOM     12  C   UNL A   1      35.573  23.873  24.149  1.00  0.00     0.116 C 
ATOM     13  C   UNL A   1      36.361  22.879  23.313  1.00  0.00     0.027 C 
ENDBRANCH  11  12
BRANCH  11  14
ATOM     14  C   UNL A   1      33.456  22.542  23.905  1.00  0.00     0.228 C 
ATOM     15  O   UNL A   1      32.962  22.172  22.833  1.00  0.00    -0.274 OA
BRANCH  14  16
ATOM     16  C   UNL A   1      33.236  21.692  25.211  1.00  0.00     0.047 C 
ATOM     17  C   UNL A   1      32.899  22.555  26.450  1.00  0.00     0.022 C 
ATOM     18  C   UNL A   1      32.064  20.697  24.984  1.00  0.00     0.016 C 
ATOM     19  C   UNL A   1      34.391  20.723  25.512  1.00  0.00     0.016 C 
ATOM     20  C   UNL A   1      32.664  19.459  24.331  1.00  0.00     0.001 C 
ATOM     21  C   UNL A   1      34.144  19.470  24.681  1.00  0.00     0.001 C 
ENDBRANCH  14  16
ENDBRANCH  11  14
ENDBRANCH   7  11
ENDBRANCH   4   6
ENDBRANCH   3   4
ENDBRANCH   2   3
ENDBRANCH   1   2
BRANCH   1  22
ATOM     22  O   UNL A   1      31.924  30.833  26.214  1.00  0.00    -0.374 OA
BRANCH  22  23
ATOM     23  C   UNL A   1      31.356  32.056  26.639  1.00  0.00     0.202 C 
BRANCH  23  24
ATOM     24  C   UNL A   1      32.255  33.247  26.981  1.00  0.00     0.261 C 
BRANCH  24  25
ATOM     25  O   UNL A   1      32.304  33.664  28.332  1.00  0.00    -0.460 OA
BRANCH  25  26
ATOM     26  C   UNL A   1      33.293  34.541  28.604  1.00  0.00     0.338 C 
ATOM     27  O   UNL A   1      33.280  35.754  28.572  1.00  0.00    -0.246 OA
BRANCH  26  28
ATOM     28  C   UNL A   1      34.445  33.736  28.987  1.00  0.00     0.060 A 
ATOM     29  C   UNL A   1      34.219  32.513  29.620  1.00  0.00     0.016 A 
ATOM     30  C   UNL A   1      35.729  34.215  28.723  1.00  0.00     0.016 A 
ATOM     31  C   UNL A   1      35.307  31.767  30.040  1.00  0.00     0.010 A 
ATOM     32  C   UNL A   1      36.819  33.459  29.135  1.00  0.00     0.010 A 
ATOM     33  C   UNL A   1      36.605  32.252  29.822  1.00  0.00    -0.014 A 
BRANCH  33  34
ATOM     34  C   UNL A   1      37.746  31.541  30.426  1.00  0.00     0.031 A 
ATOM     35  C   UNL A   1      38.096  31.828  31.854  1.00  0.00     0.074 A 
ATOM     36  C   UNL A   1      38.421  30.640  29.696  1.00  0.00     0.049 A 
ATOM     37  N   UNL A   1      39.058  31.329  32.584  1.00  0.00    -0.248 NA
ATOM     38  C   UNL A   1      37.255  32.813  32.554  1.00  0.00     0.031 C 
ATOM     39  C   UNL A   1      38.127  30.291  28.304  1.00  0.00     0.029 A 
ATOM     40  N   UNL A   1      39.492  29.853  30.022  1.00  0.00    -0.354 N 
ATOM     41  C   UNL A   1      38.939  31.941  33.824  1.00  0.00     0.074 A 
ATOM     42  C   UNL A   1      37.839  32.874  33.739  1.00  0.00     0.031 C 
ATOM     43  C   UNL A   1      39.000  29.355  27.897  1.00  0.00     0.029 A 
ATOM     44  C   UNL A   1      39.929  29.069  28.985  1.00  0.00     0.049 A 
ATOM     45  H   UNL A   1      39.908  29.851  30.915  1.00  0.00     0.167 HD
ATOM     46  C   UNL A   1      39.682  31.727  34.934  1.00  0.00     0.037 A 
ATOM     47  C   UNL A   1      40.979  28.230  28.927  1.00  0.00     0.037 A 
ATOM     48  C   UNL A   1      40.776  30.794  34.989  1.00  0.00     0.049 A 
ATOM     49  C   UNL A   1      41.822  28.053  30.160  1.00  0.00     0.074 A 
ATOM     50  C   UNL A   1      41.593  30.480  36.059  1.00  0.00     0.029 A 
ATOM     51  N   UNL A   1      41.210  30.032  33.912  1.00  0.00    -0.354 N 
ATOM     52  N   UNL A   1      41.685  28.608  31.341  1.00  0.00    -0.248 NA
ATOM     53  C   UNL A   1      42.961  27.132  30.055  1.00  0.00     0.031 C 
ATOM     54  C   UNL A   1      42.552  29.564  35.616  1.00  0.00     0.029 A 
ATOM     55  C   UNL A   1      42.299  29.264  34.285  1.00  0.00     0.049 A 
ATOM     56  H   UNL A   1      40.802  30.036  33.016  1.00  0.00     0.167 HD
ATOM     57  C   UNL A   1      42.703  28.087  32.128  1.00  0.00     0.074 A 
ATOM     58  C   UNL A   1      43.438  27.159  31.291  1.00  0.00     0.031 C 
ATOM     59  C   UNL A   1      43.006  28.348  33.424  1.00  0.00     0.037 A 
BRANCH  46  60
ATOM     60  C   UNL A   1      39.351  32.535  36.156  1.00  0.00     0.057 A 
ATOM     61  C   UNL A   1      38.445  32.081  37.124  1.00  0.00     0.134 A 
ATOM     62  C   UNL A   1      39.954  33.780  36.372  1.00  0.00     0.134 A 
ATOM     63  F   UNL A   1      37.817  30.904  36.970  1.00  0.00    -0.206 F 
ATOM     64  C   UNL A   1      38.133  32.846  38.250  1.00  0.00     0.040 A 
ATOM     65  C   UNL A   1      39.670  34.542  37.506  1.00  0.00     0.040 A 
ATOM     66  F   UNL A   1      40.830  34.276  35.486  1.00  0.00    -0.206 F 
ATOM     67  C   UNL A   1      38.753  34.079  38.446  1.00  0.00     0.006 A 
ENDBRANCH  46  60
BRANCH  47  68
ATOM     68  C   UNL A   1      41.284  27.508  27.668  1.00  0.00     0.057 A 
ATOM     69  C   UNL A   1      42.103  28.071  26.684  1.00  0.00     0.134 A 
ATOM     70  C   UNL A   1      40.766  26.229  27.419  1.00  0.00     0.134 A 
ATOM     71  F   UNL A   1      42.619  29.298  26.857  1.00  0.00    -0.206 F 
ATOM     72  C   UNL A   1      42.385  27.400  25.493  1.00  0.00     0.040 A 
ATOM     73  C   UNL A   1      41.061  25.536  26.245  1.00  0.00     0.040 A 
ATOM     74  F   UNL A   1      39.981  25.627  28.325  1.00  0.00    -0.206 F 
ATOM     75  C   UNL A   1      41.867  26.125  25.273  1.00  0.00     0.006 A 
ENDBRANCH  47  68
BRANCH  59  76
ATOM     76  C   UNL A   1      44.159  27.596  34.017  1.00  0.00     0.057 A 
ATOM     77  C   UNL A   1      44.001  26.324  34.580  1.00  0.00     0.134 A 
ATOM     78  C   UNL A   1      45.452  28.134  33.981  1.00  0.00     0.134 A 
ATOM     79  F   UNL A   1      42.786  25.759  34.655  1.00  0.00    -0.206 F 
ATOM     80  C   UNL A   1      45.086  25.623  35.109  1.00  0.00     0.040 A 
ATOM     81  C   UNL A   1      46.547  27.431  34.479  1.00  0.00     0.040 A 
ATOM     82  F   UNL A   1      45.671  29.345  33.445  1.00  0.00    -0.206 F 
ATOM     83  C   UNL A   1      46.364  26.173  35.051  1.00  0.00     0.006 A 
ENDBRANCH  59  76
ENDBRANCH  33  34
ENDBRANCH  26  28
ENDBRANCH  25  26
ENDBRANCH  24  25
ENDBRANCH  23  24
ENDBRANCH  22  23
ENDBRANCH   1  22
TORSDOF 18
ENDMDL
MODEL 2
REMARK VINA RESULT:     -10.3      4.625      9.019
REMARK SMILES CCN(C(=O)C1(C)CCCC1)[C@@H]1COC[C@H]1C(=O)OCCOCCOC(=O)c1ccc(-c2c3nc(c(-c4c(F)cccc4F)c4ccc([nH]4)c(-c4c(F)cccc4F)c4nc(c(-c5c(F)cccc5F)c5ccc2[nH]5)C=C4)C=C3)cc1
REMARK SMILES IDX 21 1 20 2 19 3 17 4 18 5 16 6 12 7 13 8 14 9 15 10 3 11 2 12
REMARK SMILES IDX 1 13 4 14 5 15 6 16 7 17 8 18 11 19 9 20 10 21 22 22 23 23
REMARK SMILES IDX 24 24 25 25 26 26 27 27 28 28 29 29 81 30 30 31 80 32 31 33
REMARK SMILES IDX 32 34 33 35 74 36 34 37 79 38 73 39 75 40 35 41 78 42 72 43
REMARK SMILES IDX 71 44 36 46 62 47 45 48 61 49 46 50 49 51 60 52 76 53 47 54
REMARK SMILES IDX 48 55 59 57 77 58 50 59 37 60 38 61 43 62 39 63 40 64 42 65
REMARK SMILES IDX 44 66 41 67 63 68 64 69 69 70 65 71 66 72 68 73 70 74 67 75
REMARK SMILES IDX 51 76 52 77 57 78 53 79 54 80 56 81 58 82 55 83
REMARK H PARENT 75 45 49 56
REMARK Flexibility Score: inf
ROOT
ATOM      1  C   UNL A   1      37.417  23.157  25.435  1.00  0.00     0.202 C 
ENDROOT
BRANCH   1   2
ATOM      2  C   UNL A   1      36.037  23.166  26.110  1.00  0.00     0.261 C 
BRANCH   2   3
ATOM      3  O   UNL A   1      35.103  24.165  25.638  1.00  0.00    -0.463 OA
BRANCH   3   4
ATOM      4  C   UNL A   1      33.887  23.692  25.259  1.00  0.00     0.313 C 
ATOM      5  O   UNL A   1      33.701  22.995  24.266  1.00  0.00    -0.252 OA
BRANCH   4   6
ATOM      6  C   UNL A   1      32.721  24.154  26.101  1.00  0.00     0.150 C 
ATOM      7  C   UNL A   1      31.357  24.445  25.469  1.00  0.00     0.127 C 
ATOM      8  C   UNL A   1      30.354  23.827  26.461  1.00  0.00     0.186 C 
ATOM      9  O   UNL A   1      31.106  23.326  27.579  1.00  0.00    -0.378 OA
ATOM     10  C   UNL A   1      32.422  23.054  27.098  1.00  0.00     0.177 C 
BRANCH   7  11
ATOM     11  N   UNL A   1      31.052  25.881  25.119  1.00  0.00    -0.336 N 
BRANCH  11  12
ATOM     12  C   UNL A   1      30.494  26.227  23.803  1.00  0.00     0.116 C 
ATOM     13  C   UNL A   1      29.055  26.714  23.864  1.00  0.00     0.027 C 
ENDBRANCH  11  12
BRANCH  11  14
ATOM     14  C   UNL A   1      31.562  26.862  25.987  1.00  0.00     0.228 C 
ATOM     15  O   UNL A   1      31.028  27.016  27.092  1.00  0.00    -0.274 OA
BRANCH  14  16
ATOM     16  C   UNL A   1      32.711  27.832  25.523  1.00  0.00     0.047 C 
ATOM     17  C   UNL A   1      33.618  27.221  24.427  1.00  0.00     0.022 C 
ATOM     18  C   UNL A   1      32.084  29.136  24.958  1.00  0.00     0.016 C 
ATOM     19  C   UNL A   1      33.550  28.387  26.685  1.00  0.00     0.016 C 
ATOM     20  C   UNL A   1      31.847  30.056  26.148  1.00  0.00     0.001 C 
ATOM     21  C   UNL A   1      32.793  29.586  27.242  1.00  0.00     0.001 C 
ENDBRANCH  14  16
ENDBRANCH  11  14
ENDBRANCH   7  11
ENDBRANCH   4   6
ENDBRANCH   3   4
ENDBRANCH   2   3
ENDBRANCH   1   2
BRANCH   1  22
ATOM     22  O   UNL A   1      38.324  22.101  25.714  1.00  0.00    -0.374 OA
BRANCH  22  23
ATOM     23  C   UNL A   1      38.078  20.824  25.159  1.00  0.00     0.202 C 
BRANCH  23  24
ATOM     24  C   UNL A   1      39.087  19.690  25.353  1.00  0.00     0.261 C 
BRANCH  24  25
ATOM     25  O   UNL A   1      39.946  19.762  26.474  1.00  0.00    -0.460 OA
BRANCH  25  26
ATOM     26  C   UNL A   1      41.250  19.571  26.185  1.00  0.00     0.338 C 
ATOM     27  O   UNL A   1      41.808  18.589  25.740  1.00  0.00    -0.246 OA
BRANCH  26  28
ATOM     28  C   UNL A   1      41.914  20.830  26.496  1.00  0.00     0.060 A 
ATOM     29  C   UNL A   1      42.152  21.141  27.835  1.00  0.00     0.016 A 
ATOM     30  C   UNL A   1      42.279  21.684  25.454  1.00  0.00     0.016 A 
ATOM     31  C   UNL A   1      42.731  22.361  28.145  1.00  0.00     0.010 A 
ATOM     32  C   UNL A   1      42.871  22.901  25.767  1.00  0.00     0.010 A 
ATOM     33  C   UNL A   1      43.065  23.251  27.113  1.00  0.00    -0.014 A 
BRANCH  33  34
ATOM     34  C   UNL A   1      43.515  24.611  27.459  1.00  0.00     0.031 A 
ATOM     35  C   UNL A   1      42.492  25.621  27.879  1.00  0.00     0.074 A 
ATOM     36  C   UNL A   1      44.825  24.901  27.416  1.00  0.00     0.049 A 
ATOM     37  N   UNL A   1      42.658  26.871  28.218  1.00  0.00    -0.248 NA
ATOM     38  C   UNL A   1      41.092  25.164  27.916  1.00  0.00     0.031 C 
ATOM     39  C   UNL A   1      45.885  23.965  27.037  1.00  0.00     0.029 A 
ATOM     40  N   UNL A   1      45.486  26.066  27.696  1.00  0.00    -0.354 N 
ATOM     41  C   UNL A   1      41.386  27.350  28.506  1.00  0.00     0.074 A 
ATOM     42  C   UNL A   1      40.456  26.271  28.266  1.00  0.00     0.031 C 
ATOM     43  C   UNL A   1      47.068  24.596  27.109  1.00  0.00     0.029 A 
ATOM     44  C   UNL A   1      46.842  25.982  27.505  1.00  0.00     0.049 A 
ATOM     45  H   UNL A   1      45.034  26.884  28.004  1.00  0.00     0.167 HD
ATOM     46  C   UNL A   1      41.038  28.582  28.943  1.00  0.00     0.037 A 
ATOM     47  C   UNL A   1      47.786  26.934  27.621  1.00  0.00     0.037 A 
ATOM     48  C   UNL A   1      41.986  29.640  29.169  1.00  0.00     0.049 A 
ATOM     49  C   UNL A   1      47.363  28.310  28.055  1.00  0.00     0.074 A 
ATOM     50  C   UNL A   1      41.757  30.925  29.624  1.00  0.00     0.029 A 
ATOM     51  N   UNL A   1      43.352  29.530  28.942  1.00  0.00    -0.354 N 
ATOM     52  N   UNL A   1      46.165  28.750  28.359  1.00  0.00    -0.248 NA
ATOM     53  C   UNL A   1      48.422  29.322  28.166  1.00  0.00     0.031 C 
ATOM     54  C   UNL A   1      42.977  31.608  29.625  1.00  0.00     0.029 A 
ATOM     55  C   UNL A   1      43.977  30.733  29.225  1.00  0.00     0.049 A 
ATOM     56  H   UNL A   1      43.809  28.717  28.627  1.00  0.00     0.167 HD
ATOM     57  C   UNL A   1      46.326  30.080  28.721  1.00  0.00     0.074 A 
ATOM     58  C   UNL A   1      47.743  30.368  28.614  1.00  0.00     0.031 C 
ATOM     59  C   UNL A   1      45.391  30.983  29.108  1.00  0.00     0.037 A 
BRANCH  46  60
ATOM     60  C   UNL A   1      39.578  28.849  29.171  1.00  0.00     0.057 A 
ATOM     61  C   UNL A   1      38.734  29.292  28.144  1.00  0.00     0.134 A 
ATOM     62  C   UNL A   1      39.006  28.651  30.434  1.00  0.00     0.134 A 
ATOM     63  F   UNL A   1      39.221  29.519  26.914  1.00  0.00    -0.206 F 
ATOM     64  C   UNL A   1      37.381  29.550  28.369  1.00  0.00     0.040 A 
ATOM     65  C   UNL A   1      37.650  28.881  30.666  1.00  0.00     0.040 A 
ATOM     66  F   UNL A   1      39.757  28.229  31.463  1.00  0.00    -0.206 F 
ATOM     67  C   UNL A   1      36.834  29.338  29.634  1.00  0.00     0.006 A 
ENDBRANCH  46  60
BRANCH  47  68
ATOM     68  C   UNL A   1      49.203  26.615  27.322  1.00  0.00     0.057 A 
ATOM     69  C   UNL A   1      49.719  26.729  26.027  1.00  0.00     0.134 A 
ATOM     70  C   UNL A   1      50.082  26.193  28.329  1.00  0.00     0.134 A 
ATOM     71  F   UNL A   1      48.925  27.115  25.017  1.00  0.00    -0.206 F 
ATOM     72  C   UNL A   1      51.049  26.420  25.738  1.00  0.00     0.040 A 
ATOM     73  C   UNL A   1      51.421  25.906  28.060  1.00  0.00     0.040 A 
ATOM     74  F   UNL A   1      49.655  26.071  29.595  1.00  0.00    -0.206 F 
ATOM     75  C   UNL A   1      51.907  26.012  26.759  1.00  0.00     0.006 A 
ENDBRANCH  47  68
BRANCH  59  76
ATOM     76  C   UNL A   1      45.881  32.353  29.472  1.00  0.00     0.057 A 
ATOM     77  C   UNL A   1      46.311  32.665  30.768  1.00  0.00     0.134 A 
ATOM     78  C   UNL A   1      45.967  33.358  28.500  1.00  0.00     0.134 A 
ATOM     79  F   UNL A   1      46.242  31.748  31.746  1.00  0.00    -0.206 F 
ATOM     80  C   UNL A   1      46.786  33.936  31.090  1.00  0.00     0.040 A 
ATOM     81  C   UNL A   1      46.467  34.623  28.804  1.00  0.00     0.040 A 
ATOM     82  F   UNL A   1      45.580  33.119  27.238  1.00  0.00    -0.206 F 
ATOM     83  C   UNL A   1      46.873  34.916  30.104  1.00  0.00     0.006 A 
ENDBRANCH  59  76
ENDBRANCH  33  34
ENDBRANCH  26  28
ENDBRANCH  25  26
ENDBRANCH  24  25
ENDBRANCH  23  24
ENDBRANCH  22  23
ENDBRANCH   1  22
TORSDOF 18
ENDMDL
MODEL 3
REMARK VINA RESULT:     -10.3      0.967      2.288
REMARK SMILES CCN(C(=O)C1(C)CCCC1)[C@@H]1COC[C@H]1C(=O)OCCOCCOC(=O)c1ccc(-c2c3nc(c(-c4c(F)cccc4F)c4ccc([nH]4)c(-c4c(F)cccc4F)c4nc(c(-c5c(F)cccc5F)c5ccc2[nH]5)C=C4)C=C3)cc1
REMARK SMILES IDX 21 1 20 2 19 3 17 4 18 5 16 6 12 7 13 8 14 9 15 10 3 11 2 12
REMARK SMILES IDX 1 13 4 14 5 15 6 16 7 17 8 18 11 19 9 20 10 21 22 22 23 23
REMARK SMILES IDX 24 24 25 25 26 26 27 27 28 28 29 29 81 30 30 31 80 32 31 33
REMARK SMILES IDX 32 34 33 35 74 36 34 37 79 38 73 39 75 40 35 41 78 42 72 43
REMARK SMILES IDX 71 44 36 46 62 47 45 48 61 49 46 50 49 51 60 52 76 53 47 54
REMARK SMILES IDX 48 55 59 57 77 58 50 59 37 60 38 61 43 62 39 63 40 64 42 65
REMARK SMILES IDX 44 66 41 67 63 68 64 69 69 70 65 71 66 72 68 73 70 74 67 75
REMARK SMILES IDX 51 76 52 77 57 78 53 79 54 80 56 81 58 82 55 83
REMARK H PARENT 75 45 49 56
REMARK Flexibility Score: inf
ROOT
ATOM      1  C   UNL A   1      32.745  30.252  26.562  1.00  0.00     0.202 C 
ENDROOT
BRANCH   1   2
ATOM      2  C   UNL A   1      32.829  28.718  26.507  1.00  0.00     0.261 C 
BRANCH   2   3
ATOM      3  O   UNL A   1      31.816  28.053  25.717  1.00  0.00    -0.463 OA
BRANCH   3   4
ATOM      4  C   UNL A   1      32.256  27.011  24.965  1.00  0.00     0.313 C 
ATOM      5  O   UNL A   1      33.187  27.084  24.168  1.00  0.00    -0.252 OA
BRANCH   4   6
ATOM      6  C   UNL A   1      31.460  25.734  25.099  1.00  0.00     0.150 C 
ATOM      7  C   UNL A   1      32.103  24.457  25.649  1.00  0.00     0.127 C 
ATOM      8  C   UNL A   1      31.026  23.880  26.588  1.00  0.00     0.186 C 
ATOM      9  O   UNL A   1      29.866  24.722  26.483  1.00  0.00    -0.378 OA
ATOM     10  C   UNL A   1      30.330  26.007  26.068  1.00  0.00     0.177 C 
BRANCH   7  11
ATOM     11  N   UNL A   1      32.624  23.460  24.644  1.00  0.00    -0.336 N 
BRANCH  11  12
ATOM     12  C   UNL A   1      32.243  23.558  23.226  1.00  0.00     0.116 C 
ATOM     13  C   UNL A   1      33.269  22.957  22.280  1.00  0.00     0.027 C 
ENDBRANCH  11  12
BRANCH  11  14
ATOM     14  C   UNL A   1      33.257  22.317  25.162  1.00  0.00     0.228 C 
ATOM     15  O   UNL A   1      32.710  21.217  25.019  1.00  0.00    -0.274 OA
BRANCH  14  16
ATOM     16  C   UNL A   1      34.574  22.440  26.015  1.00  0.00     0.047 C 
ATOM     17  C   UNL A   1      34.324  22.348  27.539  1.00  0.00     0.022 C 
ATOM     18  C   UNL A   1      35.549  21.298  25.618  1.00  0.00     0.016 C 
ATOM     19  C   UNL A   1      35.414  23.679  25.669  1.00  0.00     0.016 C 
ATOM     20  C   UNL A   1      36.335  21.796  24.412  1.00  0.00     0.001 C 
ATOM     21  C   UNL A   1      36.260  23.314  24.455  1.00  0.00     0.001 C 
ENDBRANCH  14  16
ENDBRANCH  11  14
ENDBRANCH   7  11
ENDBRANCH   4   6
ENDBRANCH   3   4
ENDBRANCH   2   3
ENDBRANCH   1   2
BRANCH   1  22
ATOM     22  O   UNL A   1      31.683  30.918  25.896  1.00  0.00    -0.374 OA
BRANCH  22  23
ATOM     23  C   UNL A   1      31.111  32.064  26.496  1.00  0.00     0.202 C 
BRANCH  23  24
ATOM     24  C   UNL A   1      31.981  33.281  26.821  1.00  0.00     0.261 C 
BRANCH  24  25
ATOM     25  O   UNL A   1      32.465  33.405  28.144  1.00  0.00    -0.460 OA
BRANCH  25  26
ATOM     26  C   UNL A   1      33.475  34.288  28.282  1.00  0.00     0.338 C 
ATOM     27  O   UNL A   1      33.478  35.491  28.122  1.00  0.00    -0.246 OA
BRANCH  26  28
ATOM     28  C   UNL A   1      34.632  33.508  28.703  1.00  0.00     0.060 A 
ATOM     29  C   UNL A   1      34.423  32.207  29.161  1.00  0.00     0.016 A 
ATOM     30  C   UNL A   1      35.901  34.085  28.647  1.00  0.00     0.016 A 
ATOM     31  C   UNL A   1      35.507  31.477  29.617  1.00  0.00     0.010 A 
ATOM     32  C   UNL A   1      36.989  33.347  29.094  1.00  0.00     0.010 A 
ATOM     33  C   UNL A   1      36.785  32.056  29.609  1.00  0.00    -0.014 A 
BRANCH  33  34
ATOM     34  C   UNL A   1      37.899  31.341  30.256  1.00  0.00     0.031 A 
ATOM     35  C   UNL A   1      38.190  31.621  31.698  1.00  0.00     0.074 A 
ATOM     36  C   UNL A   1      38.604  30.443  29.550  1.00  0.00     0.049 A 
ATOM     37  N   UNL A   1      39.121  31.117  32.465  1.00  0.00    -0.248 NA
ATOM     38  C   UNL A   1      37.321  32.603  32.367  1.00  0.00     0.031 C 
ATOM     39  C   UNL A   1      38.368  30.101  28.146  1.00  0.00     0.029 A 
ATOM     40  N   UNL A   1      39.660  29.654  29.917  1.00  0.00    -0.354 N 
ATOM     41  C   UNL A   1      38.951  31.724  33.703  1.00  0.00     0.074 A 
ATOM     42  C   UNL A   1      37.856  32.658  33.577  1.00  0.00     0.031 C 
ATOM     43  C   UNL A   1      39.256  29.166  27.771  1.00  0.00     0.029 A 
ATOM     44  C   UNL A   1      40.139  28.875  28.895  1.00  0.00     0.049 A 
ATOM     45  H   UNL A   1      40.038  29.647  30.826  1.00  0.00     0.167 HD
ATOM     46  C   UNL A   1      39.646  31.504  34.842  1.00  0.00     0.037 A 
ATOM     47  C   UNL A   1      41.190  28.035  28.876  1.00  0.00     0.037 A 
ATOM     48  C   UNL A   1      40.737  30.570  34.937  1.00  0.00     0.049 A 
ATOM     49  C   UNL A   1      41.981  27.852  30.143  1.00  0.00     0.074 A 
ATOM     50  C   UNL A   1      41.508  30.250  36.038  1.00  0.00     0.029 A 
ATOM     51  N   UNL A   1      41.214  29.813  33.875  1.00  0.00    -0.354 N 
ATOM     52  N   UNL A   1      41.796  28.401  31.320  1.00  0.00    -0.248 NA
ATOM     53  C   UNL A   1      43.123  26.931  30.081  1.00  0.00     0.031 C 
ATOM     54  C   UNL A   1      42.484  29.336  35.632  1.00  0.00     0.029 A 
ATOM     55  C   UNL A   1      42.287  29.043  34.289  1.00  0.00     0.049 A 
ATOM     56  H   UNL A   1      40.845  29.822  32.963  1.00  0.00     0.167 HD
ATOM     57  C   UNL A   1      42.780  27.876  32.146  1.00  0.00     0.074 A 
ATOM     58  C   UNL A   1      43.549  26.951  31.336  1.00  0.00     0.031 C 
ATOM     59  C   UNL A   1      43.029  28.130  33.455  1.00  0.00     0.037 A 
BRANCH  46  60
ATOM     60  C   UNL A   1      39.265  32.306  36.052  1.00  0.00     0.057 A 
ATOM     61  C   UNL A   1      39.816  33.568  36.311  1.00  0.00     0.134 A 
ATOM     62  C   UNL A   1      38.325  31.814  36.967  1.00  0.00     0.134 A 
ATOM     63  F   UNL A   1      40.736  34.092  35.485  1.00  0.00    -0.206 F 
ATOM     64  C   UNL A   1      39.465  34.301  37.447  1.00  0.00     0.040 A 
ATOM     65  C   UNL A   1      37.946  32.548  38.091  1.00  0.00     0.040 A 
ATOM     66  F   UNL A   1      37.758  30.613  36.781  1.00  0.00    -0.206 F 
ATOM     67  C   UNL A   1      38.522  33.792  38.338  1.00  0.00     0.006 A 
ENDBRANCH  46  60
BRANCH  47  68
ATOM     68  C   UNL A   1      41.547  27.319  27.628  1.00  0.00     0.057 A 
ATOM     69  C   UNL A   1      41.082  26.024  27.373  1.00  0.00     0.134 A 
ATOM     70  C   UNL A   1      42.358  27.914  26.653  1.00  0.00     0.134 A 
ATOM     71  F   UNL A   1      40.312  25.394  28.274  1.00  0.00    -0.206 F 
ATOM     72  C   UNL A   1      41.423  25.340  26.205  1.00  0.00     0.040 A 
ATOM     73  C   UNL A   1      42.685  27.253  25.468  1.00  0.00     0.040 A 
ATOM     74  F   UNL A   1      42.829  29.157  26.830  1.00  0.00    -0.206 F 
ATOM     75  C   UNL A   1      42.223  25.958  25.245  1.00  0.00     0.006 A 
ENDBRANCH  47  68
BRANCH  59  76
ATOM     76  C   UNL A   1      44.156  27.374  34.091  1.00  0.00     0.057 A 
ATOM     77  C   UNL A   1      45.450  27.902  34.168  1.00  0.00     0.134 A 
ATOM     78  C   UNL A   1      43.931  26.121  34.675  1.00  0.00     0.134 A 
ATOM     79  F   UNL A   1      45.733  29.094  33.617  1.00  0.00    -0.206 F 
ATOM     80  C   UNL A   1      46.487  27.200  34.782  1.00  0.00     0.040 A 
ATOM     81  C   UNL A   1      44.952  25.423  35.317  1.00  0.00     0.040 A 
ATOM     82  F   UNL A   1      42.710  25.565  34.643  1.00  0.00    -0.206 F 
ATOM     83  C   UNL A   1      46.237  25.960  35.366  1.00  0.00     0.006 A 
ENDBRANCH  59  76
ENDBRANCH  33  34
ENDBRANCH  26  28
ENDBRANCH  25  26
ENDBRANCH  24  25
ENDBRANCH  23  24
ENDBRANCH  22  23
ENDBRANCH   1  22
TORSDOF 18
ENDMDL
