MODEL 1
REMARK VINA RESULT:     -12.0      0.000      0.000
REMARK SMILES CC[NH2+][C@@]1(C(=O)OCCOCCOC(=O)c2ccc(-c3c4nc(c(-c5c(F)cccc5F)c5ccc([nH]5)c(-c5c(F)cccc5F)c5nc(c(-c6c(F)cccc6F)c6ccc3[nH]6)C=C5)C=C4)cc2)CC[C@@H](n2cnc3ccccc32)C1
REMARK SMILES IDX 10 1 9 2 8 3 7 4 5 5 6 6 4 7 70 8 82 9 71 10 72 11 3 12 2 15
REMARK SMILES IDX 1 16 73 17 74 18 81 19 75 20 76 21 80 22 77 23 79 24 78 25
REMARK SMILES IDX 11 26 12 27 13 28 14 29 15 30 16 31 17 32 69 33 18 34 68 35
REMARK SMILES IDX 19 36 20 37 21 38 62 39 22 40 67 41 61 42 63 43 23 44 66 45
REMARK SMILES IDX 60 46 59 47 24 49 50 50 33 51 49 52 34 53 37 54 48 55 64 56
REMARK SMILES IDX 35 57 36 58 47 60 65 61 38 62 25 63 26 64 31 65 27 66 28 67
REMARK SMILES IDX 30 68 32 69 29 70 51 71 52 72 57 73 53 74 54 75 56 76 58 77
REMARK SMILES IDX 55 78 39 79 40 80 45 81 41 82 42 83 44 84 46 85 43 86
REMARK H PARENT 3 13 3 14 63 48 37 59
REMARK Flexibility Score: inf
ROOT
ATOM      1  O   UNL A   1      41.686  20.034  26.759  1.00  0.00    -0.374 OA
ENDROOT
BRANCH   1   2
ATOM      2  C   UNL A   1      40.320  20.044  26.325  1.00  0.00     0.202 C 
BRANCH   2   3
ATOM      3  C   UNL A   1      39.754  21.451  26.116  1.00  0.00     0.261 C 
BRANCH   3   4
ATOM      4  O   UNL A   1      38.384  21.328  25.701  1.00  0.00    -0.459 OA
BRANCH   4   5
ATOM      5  C   UNL A   1      37.644  22.482  25.659  1.00  0.00     0.368 C 
ATOM      6  O   UNL A   1      38.132  23.589  25.876  1.00  0.00    -0.245 OA
BRANCH   5   7
ATOM      7  C   UNL A   1      35.949  22.126  25.360  1.00  0.00     0.196 C 
ATOM      8  C   UNL A   1      35.871  23.361  24.018  1.00  0.00     0.083 C 
ATOM      9  C   UNL A   1      35.400  23.547  26.387  1.00  0.00     0.106 C 
ATOM     10  C   UNL A   1      34.789  24.436  24.321  1.00  0.00     0.033 C 
ATOM     11  C   UNL A   1      34.164  24.058  25.664  1.00  0.00     0.096 C 
BRANCH   7  12
ATOM     12  N   UNL A   1      35.149  20.184  25.377  1.00  0.00    -0.332 N 
ATOM     13  H   UNL A   1      35.977  19.635  25.145  1.00  0.00     0.347 HD
ATOM     14  H   UNL A   1      34.563  20.401  26.183  1.00  0.00     0.347 HD
BRANCH  12  15
ATOM     15  C   UNL A   1      34.031  19.315  24.737  1.00  0.00     0.257 C 
ATOM     16  C   UNL A   1      34.633  17.959  24.346  1.00  0.00     0.071 C 
ENDBRANCH  12  15
ENDBRANCH   7  12
BRANCH  11  17
ATOM     17  N   UNL A   1      33.242  22.913  25.587  1.00  0.00    -0.327 N 
ATOM     18  C   UNL A   1      32.692  22.359  26.754  1.00  0.00     0.200 A 
ATOM     19  C   UNL A   1      32.159  23.244  24.769  1.00  0.00     0.068 A 
ATOM     20  N   UNL A   1      31.645  23.021  27.238  1.00  0.00    -0.237 NA
ATOM     21  C   UNL A   1      31.234  23.801  26.192  1.00  0.00     0.088 A 
ATOM     22  C   UNL A   1      31.935  24.097  23.145  1.00  0.00     0.028 A 
ATOM     23  C   UNL A   1      30.176  25.278  26.061  1.00  0.00     0.030 A 
ATOM     24  C   UNL A   1      30.784  25.486  23.007  1.00  0.00     0.002 A 
ATOM     25  C   UNL A   1      29.943  26.109  24.470  1.00  0.00     0.002 A 
ENDBRANCH  11  17
ENDBRANCH   5   7
ENDBRANCH   4   5
ENDBRANCH   3   4
ENDBRANCH   2   3
ENDBRANCH   1   2
BRANCH   1  26
ATOM     26  C   UNL A   1      42.663  20.305  25.753  1.00  0.00     0.202 C 
BRANCH  26  27
ATOM     27  C   UNL A   1      43.415  21.622  25.951  1.00  0.00     0.261 C 
BRANCH  27  28
ATOM     28  O   UNL A   1      42.631  22.733  25.482  1.00  0.00    -0.460 OA
BRANCH  28  29
ATOM     29  C   UNL A   1      43.301  23.909  25.423  1.00  0.00     0.338 C 
ATOM     30  O   UNL A   1      44.219  24.191  24.670  1.00  0.00    -0.246 OA
BRANCH  29  31
ATOM     31  C   UNL A   1      42.715  24.896  26.360  1.00  0.00     0.060 A 
ATOM     32  C   UNL A   1      43.272  26.181  26.353  1.00  0.00     0.016 A 
ATOM     33  C   UNL A   1      41.692  24.580  27.264  1.00  0.00     0.016 A 
ATOM     34  C   UNL A   1      42.853  27.129  27.281  1.00  0.00     0.010 A 
ATOM     35  C   UNL A   1      41.274  25.534  28.201  1.00  0.00     0.010 A 
ATOM     36  C   UNL A   1      41.881  26.799  28.235  1.00  0.00    -0.014 A 
BRANCH  36  37
ATOM     37  C   UNL A   1      41.651  27.750  29.346  1.00  0.00     0.031 A 
ATOM     38  C   UNL A   1      40.486  28.696  29.256  1.00  0.00     0.074 A 
ATOM     39  C   UNL A   1      42.395  27.706  30.464  1.00  0.00     0.049 A 
ATOM     40  N   UNL A   1      39.953  29.442  30.188  1.00  0.00    -0.248 NA
ATOM     41  C   UNL A   1      39.828  28.801  27.945  1.00  0.00     0.031 C 
ATOM     42  C   UNL A   1      43.551  26.837  30.680  1.00  0.00     0.029 A 
ATOM     43  N   UNL A   1      42.261  28.395  31.642  1.00  0.00    -0.354 N 
ATOM     44  C   UNL A   1      38.872  30.074  29.589  1.00  0.00     0.074 A 
ATOM     45  C   UNL A   1      38.852  29.661  28.202  1.00  0.00     0.031 C 
ATOM     46  C   UNL A   1      44.015  27.038  31.927  1.00  0.00     0.029 A 
ATOM     47  C   UNL A   1      43.177  28.031  32.596  1.00  0.00     0.049 A 
ATOM     48  H   UNL A   1      41.575  29.085  31.788  1.00  0.00     0.167 HD
ATOM     49  C   UNL A   1      37.964  30.906  30.148  1.00  0.00     0.037 A 
ATOM     50  C   UNL A   1      43.303  28.434  33.875  1.00  0.00     0.037 A 
ATOM     51  C   UNL A   1      37.982  31.338  31.517  1.00  0.00     0.049 A 
ATOM     52  C   UNL A   1      42.309  29.395  34.462  1.00  0.00     0.074 A 
ATOM     53  C   UNL A   1      37.088  32.163  32.177  1.00  0.00     0.029 A 
ATOM     54  N   UNL A   1      38.958  30.986  32.434  1.00  0.00    -0.354 N 
ATOM     55  N   UNL A   1      41.248  29.927  33.907  1.00  0.00    -0.248 NA
ATOM     56  C   UNL A   1      42.524  29.799  35.859  1.00  0.00     0.031 C 
ATOM     57  C   UNL A   1      37.538  32.328  33.494  1.00  0.00     0.029 A 
ATOM     58  C   UNL A   1      38.703  31.593  33.650  1.00  0.00     0.049 A 
ATOM     59  H   UNL A   1      39.720  30.391  32.248  1.00  0.00     0.167 HD
ATOM     60  C   UNL A   1      40.657  30.709  34.890  1.00  0.00     0.074 A 
ATOM     61  C   UNL A   1      41.478  30.585  36.077  1.00  0.00     0.031 C 
ATOM     62  C   UNL A   1      39.530  31.458  34.818  1.00  0.00     0.037 A 
BRANCH  49  63
ATOM     63  C   UNL A   1      36.861  31.390  29.262  1.00  0.00     0.057 A 
ATOM     64  C   UNL A   1      36.866  32.694  28.752  1.00  0.00     0.134 A 
ATOM     65  C   UNL A   1      35.796  30.554  28.914  1.00  0.00     0.134 A 
ATOM     66  F   UNL A   1      37.855  33.544  29.067  1.00  0.00    -0.206 F 
ATOM     67  C   UNL A   1      35.839  33.154  27.929  1.00  0.00     0.040 A 
ATOM     68  C   UNL A   1      34.765  31.002  28.086  1.00  0.00     0.040 A 
ATOM     69  F   UNL A   1      35.735  29.299  29.382  1.00  0.00    -0.206 F 
ATOM     70  C   UNL A   1      34.785  32.305  27.592  1.00  0.00     0.006 A 
ENDBRANCH  49  63
BRANCH  50  71
ATOM     71  C   UNL A   1      44.400  27.896  34.709  1.00  0.00     0.057 A 
ATOM     72  C   UNL A   1      45.613  28.580  34.836  1.00  0.00     0.134 A 
ATOM     73  C   UNL A   1      44.261  26.680  35.385  1.00  0.00     0.134 A 
ATOM     74  F   UNL A   1      45.804  29.741  34.194  1.00  0.00    -0.206 F 
ATOM     75  C   UNL A   1      46.659  28.066  35.604  1.00  0.00     0.040 A 
ATOM     76  C   UNL A   1      45.295  26.159  36.163  1.00  0.00     0.040 A 
ATOM     77  F   UNL A   1      43.120  25.981  35.292  1.00  0.00    -0.206 F 
ATOM     78  C   UNL A   1      46.499  26.853  36.272  1.00  0.00     0.006 A 
ENDBRANCH  50  71
BRANCH  62  79
ATOM     79  C   UNL A   1      39.119  32.191  36.054  1.00  0.00     0.057 A 
ATOM     80  C   UNL A   1      39.565  33.493  36.307  1.00  0.00     0.134 A 
ATOM     81  C   UNL A   1      38.241  31.610  36.975  1.00  0.00     0.134 A 
ATOM     82  F   UNL A   1      40.416  34.097  35.464  1.00  0.00    -0.206 F 
ATOM     83  C   UNL A   1      39.154  34.193  37.443  1.00  0.00     0.040 A 
ATOM     84  C   UNL A   1      37.816  32.302  38.109  1.00  0.00     0.040 A 
ATOM     85  F   UNL A   1      37.781  30.365  36.783  1.00  0.00    -0.206 F 
ATOM     86  C   UNL A   1      38.274  33.597  38.346  1.00  0.00     0.006 A 
ENDBRANCH  62  79
ENDBRANCH  36  37
ENDBRANCH  29  31
ENDBRANCH  28  29
ENDBRANCH  27  28
ENDBRANCH  26  27
ENDBRANCH   1  26
TORSDOF 17
ENDMDL
MODEL 2
REMARK VINA RESULT:     -11.5      4.998     10.033
REMARK SMILES CC[NH2+][C@@]1(C(=O)OCCOCCOC(=O)c2ccc(-c3c4nc(c(-c5c(F)cccc5F)c5ccc([nH]5)c(-c5c(F)cccc5F)c5nc(c(-c6c(F)cccc6F)c6ccc3[nH]6)C=C5)C=C4)cc2)CC[C@@H](n2cnc3ccccc32)C1
REMARK SMILES IDX 10 1 9 2 8 3 7 4 5 5 6 6 4 7 70 8 82 9 71 10 72 11 3 12 2 15
REMARK SMILES IDX 1 16 73 17 74 18 81 19 75 20 76 21 80 22 77 23 79 24 78 25
REMARK SMILES IDX 11 26 12 27 13 28 14 29 15 30 16 31 17 32 69 33 18 34 68 35
REMARK SMILES IDX 19 36 20 37 21 38 62 39 22 40 67 41 61 42 63 43 23 44 66 45
REMARK SMILES IDX 60 46 59 47 24 49 50 50 33 51 49 52 34 53 37 54 48 55 64 56
REMARK SMILES IDX 35 57 36 58 47 60 65 61 38 62 25 63 26 64 31 65 27 66 28 67
REMARK SMILES IDX 30 68 32 69 29 70 51 71 52 72 57 73 53 74 54 75 56 76 58 77
REMARK SMILES IDX 55 78 39 79 40 80 45 81 41 82 42 83 44 84 46 85 43 86
REMARK H PARENT 3 13 3 14 63 48 37 59
REMARK Flexibility Score: inf
ROOT
ATOM      1  O   UNL A   1      35.099  33.471  28.234  1.00  0.00    -0.374 OA
ENDROOT
BRANCH   1   2
ATOM      2  C   UNL A   1      35.058  32.173  27.627  1.00  0.00     0.202 C 
BRANCH   2   3
ATOM      3  C   UNL A   1      33.796  31.377  27.969  1.00  0.00     0.261 C 
BRANCH   3   4
ATOM      4  O   UNL A   1      33.440  30.584  26.825  1.00  0.00    -0.459 OA
BRANCH   4   5
ATOM      5  C   UNL A   1      32.159  30.717  26.354  1.00  0.00     0.368 C 
ATOM      6  O   UNL A   1      31.395  31.594  26.751  1.00  0.00    -0.245 OA
BRANCH   5   7
ATOM      7  C   UNL A   1      31.774  29.428  25.222  1.00  0.00     0.196 C 
ATOM      8  C   UNL A   1      31.659  28.205  26.573  1.00  0.00     0.083 C 
ATOM      9  C   UNL A   1      33.521  28.862  25.170  1.00  0.00     0.106 C 
ATOM     10  C   UNL A   1      32.667  27.043  26.350  1.00  0.00     0.033 C 
ATOM     11  C   UNL A   1      33.406  27.350  25.048  1.00  0.00     0.096 C 
BRANCH   7  12
ATOM     12  N   UNL A   1      30.485  29.668  23.582  1.00  0.00    -0.332 N 
ATOM     13  H   UNL A   1      29.964  30.497  23.868  1.00  0.00     0.347 HD
ATOM     14  H   UNL A   1      31.220  29.402  22.928  1.00  0.00     0.347 HD
BRANCH  12  15
ATOM     15  C   UNL A   1      29.407  28.917  22.752  1.00  0.00     0.257 C 
ATOM     16  C   UNL A   1      29.021  27.635  23.501  1.00  0.00     0.071 C 
ENDBRANCH  12  15
ENDBRANCH   7  12
BRANCH  11  17
ATOM     17  N   UNL A   1      32.604  27.105  23.839  1.00  0.00    -0.327 N 
ATOM     18  C   UNL A   1      33.122  27.393  22.566  1.00  0.00     0.200 A 
ATOM     19  C   UNL A   1      32.217  25.763  23.804  1.00  0.00     0.068 A 
ATOM     20  N   UNL A   1      33.933  26.459  22.078  1.00  0.00    -0.237 NA
ATOM     21  C   UNL A   1      33.664  25.355  22.839  1.00  0.00     0.088 A 
ATOM     22  C   UNL A   1      31.560  24.539  25.022  1.00  0.00     0.028 A 
ATOM     23  C   UNL A   1      34.550  23.794  23.151  1.00  0.00     0.030 A 
ATOM     24  C   UNL A   1      32.383  22.941  25.230  1.00  0.00     0.002 A 
ATOM     25  C   UNL A   1      33.902  22.586  24.334  1.00  0.00     0.002 A 
ENDBRANCH  11  17
ENDBRANCH   5   7
ENDBRANCH   4   5
ENDBRANCH   3   4
ENDBRANCH   2   3
ENDBRANCH   1   2
BRANCH   1  26
ATOM     26  C   UNL A   1      34.206  33.677  29.330  1.00  0.00     0.202 C 
BRANCH  26  27
ATOM     27  C   UNL A   1      34.874  33.592  30.704  1.00  0.00     0.261 C 
BRANCH  27  28
ATOM     28  O   UNL A   1      34.907  32.233  31.172  1.00  0.00    -0.460 OA
BRANCH  28  29
ATOM     29  C   UNL A   1      35.898  31.967  32.057  1.00  0.00     0.338 C 
ATOM     30  O   UNL A   1      35.897  32.210  33.253  1.00  0.00    -0.246 OA
BRANCH  29  31
ATOM     31  C   UNL A   1      37.007  31.235  31.401  1.00  0.00     0.060 A 
ATOM     32  C   UNL A   1      38.011  30.730  32.235  1.00  0.00     0.016 A 
ATOM     33  C   UNL A   1      37.110  31.086  30.011  1.00  0.00     0.016 A 
ATOM     34  C   UNL A   1      39.141  30.131  31.686  1.00  0.00     0.010 A 
ATOM     35  C   UNL A   1      38.249  30.488  29.458  1.00  0.00     0.010 A 
ATOM     36  C   UNL A   1      39.285  30.043  30.294  1.00  0.00    -0.014 A 
BRANCH  36  37
ATOM     37  C   UNL A   1      40.602  29.627  29.760  1.00  0.00     0.031 A 
ATOM     38  C   UNL A   1      40.763  28.223  29.248  1.00  0.00     0.074 A 
ATOM     39  C   UNL A   1      41.608  30.508  29.630  1.00  0.00     0.049 A 
ATOM     40  N   UNL A   1      41.728  27.709  28.533  1.00  0.00    -0.248 NA
ATOM     41  C   UNL A   1      39.683  27.279  29.577  1.00  0.00     0.031 C 
ATOM     42  C   UNL A   1      41.583  31.898  30.083  1.00  0.00     0.029 A 
ATOM     43  N   UNL A   1      42.839  30.362  29.045  1.00  0.00    -0.354 N 
ATOM     44  C   UNL A   1      41.355  26.395  28.289  1.00  0.00     0.074 A 
ATOM     45  C   UNL A   1      40.098  26.175  28.971  1.00  0.00     0.031 C 
ATOM     46  C   UNL A   1      42.746  32.484  29.747  1.00  0.00     0.029 A 
ATOM     47  C   UNL A   1      43.582  31.516  29.039  1.00  0.00     0.049 A 
ATOM     48  H   UNL A   1      43.160  29.512  28.667  1.00  0.00     0.167 HD
ATOM     49  C   UNL A   1      41.990  25.460  27.545  1.00  0.00     0.037 A 
ATOM     50  C   UNL A   1      44.789  31.767  28.496  1.00  0.00     0.037 A 
ATOM     51  C   UNL A   1      43.245  25.659  26.878  1.00  0.00     0.049 A 
ATOM     52  C   UNL A   1      45.497  30.699  27.713  1.00  0.00     0.074 A 
ATOM     53  C   UNL A   1      43.952  24.775  26.081  1.00  0.00     0.029 A 
ATOM     54  N   UNL A   1      43.988  26.825  26.942  1.00  0.00    -0.354 N 
ATOM     55  N   UNL A   1      45.099  29.484  27.425  1.00  0.00    -0.248 NA
ATOM     56  C   UNL A   1      46.817  31.045  27.165  1.00  0.00     0.031 C 
ATOM     57  C   UNL A   1      45.139  25.403  25.681  1.00  0.00     0.029 A 
ATOM     58  C   UNL A   1      45.158  26.680  26.219  1.00  0.00     0.049 A 
ATOM     59  H   UNL A   1      43.723  27.638  27.431  1.00  0.00     0.167 HD
ATOM     60  C   UNL A   1      46.106  28.928  26.647  1.00  0.00     0.074 A 
ATOM     61  C   UNL A   1      47.136  29.937  26.508  1.00  0.00     0.031 C 
ATOM     62  C   UNL A   1      46.169  27.694  26.092  1.00  0.00     0.037 A 
BRANCH  49  63
ATOM     63  C   UNL A   1      41.312  24.134  27.410  1.00  0.00     0.057 A 
ATOM     64  C   UNL A   1      41.760  23.019  28.127  1.00  0.00     0.134 A 
ATOM     65  C   UNL A   1      40.209  23.972  26.565  1.00  0.00     0.134 A 
ATOM     66  F   UNL A   1      42.824  23.115  28.939  1.00  0.00    -0.206 F 
ATOM     67  C   UNL A   1      41.136  21.779  28.003  1.00  0.00     0.040 A 
ATOM     68  C   UNL A   1      39.573  22.736  26.437  1.00  0.00     0.040 A 
ATOM     69  F   UNL A   1      39.744  25.003  25.846  1.00  0.00    -0.206 F 
ATOM     70  C   UNL A   1      40.037  21.635  27.156  1.00  0.00     0.006 A 
ENDBRANCH  49  63
BRANCH  50  71
ATOM     71  C   UNL A   1      45.394  33.108  28.641  1.00  0.00     0.057 A 
ATOM     72  C   UNL A   1      46.256  33.402  29.703  1.00  0.00     0.134 A 
ATOM     73  C   UNL A   1      45.112  34.129  27.728  1.00  0.00     0.134 A 
ATOM     74  F   UNL A   1      46.546  32.464  30.616  1.00  0.00    -0.206 F 
ATOM     75  C   UNL A   1      46.813  34.671  29.856  1.00  0.00     0.040 A 
ATOM     76  C   UNL A   1      45.667  35.401  27.866  1.00  0.00     0.040 A 
ATOM     77  F   UNL A   1      44.286  33.903  26.695  1.00  0.00    -0.206 F 
ATOM     78  C   UNL A   1      46.520  35.674  28.934  1.00  0.00     0.006 A 
ENDBRANCH  50  71
BRANCH  62  79
ATOM     79  C   UNL A   1      47.383  27.372  25.281  1.00  0.00     0.057 A 
ATOM     80  C   UNL A   1      48.487  26.730  25.851  1.00  0.00     0.134 A 
ATOM     81  C   UNL A   1      47.433  27.669  23.914  1.00  0.00     0.134 A 
ATOM     82  F   UNL A   1      48.499  26.429  27.159  1.00  0.00    -0.206 F 
ATOM     83  C   UNL A   1      49.607  26.397  25.087  1.00  0.00     0.040 A 
ATOM     84  C   UNL A   1      48.542  27.334  23.139  1.00  0.00     0.040 A 
ATOM     85  F   UNL A   1      46.403  28.285  23.314  1.00  0.00    -0.206 F 
ATOM     86  C   UNL A   1      49.634  26.696  23.726  1.00  0.00     0.006 A 
ENDBRANCH  62  79
ENDBRANCH  36  37
ENDBRANCH  29  31
ENDBRANCH  28  29
ENDBRANCH  27  28
ENDBRANCH  26  27
ENDBRANCH   1  26
TORSDOF 17
ENDMDL
MODEL 3
REMARK VINA RESULT:     -11.5      4.032      7.920
REMARK SMILES CC[NH2+][C@@]1(C(=O)OCCOCCOC(=O)c2ccc(-c3c4nc(c(-c5c(F)cccc5F)c5ccc([nH]5)c(-c5c(F)cccc5F)c5nc(c(-c6c(F)cccc6F)c6ccc3[nH]6)C=C5)C=C4)cc2)CC[C@@H](n2cnc3ccccc32)C1
REMARK SMILES IDX 10 1 9 2 8 3 7 4 5 5 6 6 4 7 70 8 82 9 71 10 72 11 3 12 2 15
REMARK SMILES IDX 1 16 73 17 74 18 81 19 75 20 76 21 80 22 77 23 79 24 78 25
REMARK SMILES IDX 11 26 12 27 13 28 14 29 15 30 16 31 17 32 69 33 18 34 68 35
REMARK SMILES IDX 19 36 20 37 21 38 62 39 22 40 67 41 61 42 63 43 23 44 66 45
REMARK SMILES IDX 60 46 59 47 24 49 50 50 33 51 49 52 34 53 37 54 48 55 64 56
REMARK SMILES IDX 35 57 36 58 47 60 65 61 38 62 25 63 26 64 31 65 27 66 28 67
REMARK SMILES IDX 30 68 32 69 29 70 51 71 52 72 57 73 53 74 54 75 56 76 58 77
REMARK SMILES IDX 55 78 39 79 40 80 45 81 41 82 42 83 44 84 46 85 43 86
REMARK H PARENT 3 13 3 14 63 48 37 59
REMARK Flexibility Score: inf
ROOT
ATOM      1  O   UNL A   1      35.025  21.039  24.716  1.00  0.00    -0.374 OA
ENDROOT
BRANCH   1   2
ATOM      2  C   UNL A   1      33.867  21.135  25.557  1.00  0.00     0.202 C 
BRANCH   2   3
ATOM      3  C   UNL A   1      32.569  20.720  24.859  1.00  0.00     0.261 C 
BRANCH   3   4
ATOM      4  O   UNL A   1      32.069  21.851  24.127  1.00  0.00    -0.459 OA
BRANCH   4   5
ATOM      5  C   UNL A   1      31.469  22.844  24.857  1.00  0.00     0.368 C 
ATOM      6  O   UNL A   1      30.654  22.612  25.747  1.00  0.00    -0.245 OA
BRANCH   5   7
ATOM      7  C   UNL A   1      31.956  24.429  24.271  1.00  0.00     0.196 C 
ATOM      8  C   UNL A   1      32.799  24.811  25.844  1.00  0.00     0.083 C 
ATOM      9  C   UNL A   1      30.535  25.245  25.101  1.00  0.00     0.106 C 
ATOM     10  C   UNL A   1      32.203  26.092  26.491  1.00  0.00     0.033 C 
ATOM     11  C   UNL A   1      31.101  26.583  25.552  1.00  0.00     0.096 C 
BRANCH   7  12
ATOM     12  N   UNL A   1      32.639  24.785  22.318  1.00  0.00    -0.332 N 
ATOM     13  H   UNL A   1      33.516  24.264  22.324  1.00  0.00     0.347 HD
ATOM     14  H   UNL A   1      31.694  24.709  21.942  1.00  0.00     0.347 HD
BRANCH  12  15
ATOM     15  C   UNL A   1      32.990  25.937  21.334  1.00  0.00     0.257 C 
ATOM     16  C   UNL A   1      32.492  25.551  19.935  1.00  0.00     0.071 C 
ENDBRANCH  12  15
ENDBRANCH   7  12
BRANCH  11  17
ATOM     17  N   UNL A   1      31.608  27.235  24.333  1.00  0.00    -0.327 N 
ATOM     18  C   UNL A   1      30.735  27.914  23.469  1.00  0.00     0.200 A 
ATOM     19  C   UNL A   1      32.603  28.154  24.679  1.00  0.00     0.068 A 
ATOM     20  N   UNL A   1      30.423  29.147  23.859  1.00  0.00    -0.237 NA
ATOM     21  C   UNL A   1      31.385  29.456  24.781  1.00  0.00     0.088 A 
ATOM     22  C   UNL A   1      34.054  28.171  25.821  1.00  0.00     0.028 A 
ATOM     23  C   UNL A   1      31.517  30.717  26.090  1.00  0.00     0.030 A 
ATOM     24  C   UNL A   1      34.233  29.503  27.034  1.00  0.00     0.002 A 
ATOM     25  C   UNL A   1      32.944  30.746  27.203  1.00  0.00     0.002 A 
ENDBRANCH  11  17
ENDBRANCH   5   7
ENDBRANCH   4   5
ENDBRANCH   3   4
ENDBRANCH   2   3
ENDBRANCH   1   2
BRANCH   1  26
ATOM     26  C   UNL A   1      35.929  19.975  25.018  1.00  0.00     0.202 C 
BRANCH  26  27
ATOM     27  C   UNL A   1      37.381  20.260  24.628  1.00  0.00     0.261 C 
BRANCH  27  28
ATOM     28  O   UNL A   1      37.923  21.328  25.423  1.00  0.00    -0.460 OA
BRANCH  28  29
ATOM     29  C   UNL A   1      39.144  21.072  25.951  1.00  0.00     0.338 C 
ATOM     30  O   UNL A   1      39.810  20.061  25.798  1.00  0.00    -0.246 OA
BRANCH  29  31
ATOM     31  C   UNL A   1      39.649  22.245  26.703  1.00  0.00     0.060 A 
ATOM     32  C   UNL A   1      39.068  23.483  26.407  1.00  0.00     0.016 A 
ATOM     33  C   UNL A   1      40.697  22.166  27.630  1.00  0.00     0.016 A 
ATOM     34  C   UNL A   1      39.565  24.646  26.988  1.00  0.00     0.010 A 
ATOM     35  C   UNL A   1      41.201  23.337  28.211  1.00  0.00     0.010 A 
ATOM     36  C   UNL A   1      40.659  24.584  27.861  1.00  0.00    -0.014 A 
BRANCH  36  37
ATOM     37  C   UNL A   1      41.303  25.858  28.255  1.00  0.00     0.031 A 
ATOM     38  C   UNL A   1      42.704  26.133  27.786  1.00  0.00     0.074 A 
ATOM     39  C   UNL A   1      40.622  26.802  28.926  1.00  0.00     0.049 A 
ATOM     40  N   UNL A   1      43.377  27.254  27.803  1.00  0.00    -0.248 NA
ATOM     41  C   UNL A   1      43.437  24.996  27.207  1.00  0.00     0.031 C 
ATOM     42  C   UNL A   1      39.260  26.663  29.437  1.00  0.00     0.029 A 
ATOM     43  N   UNL A   1      40.985  28.080  29.263  1.00  0.00    -0.354 N 
ATOM     44  C   UNL A   1      44.595  26.969  27.202  1.00  0.00     0.074 A 
ATOM     45  C   UNL A   1      44.588  25.560  26.872  1.00  0.00     0.031 C 
ATOM     46  C   UNL A   1      38.895  27.822  30.015  1.00  0.00     0.029 A 
ATOM     47  C   UNL A   1      39.989  28.783  29.894  1.00  0.00     0.049 A 
ATOM     48  H   UNL A   1      41.873  28.458  29.072  1.00  0.00     0.167 HD
ATOM     49  C   UNL A   1      45.619  27.810  26.927  1.00  0.00     0.037 A 
ATOM     50  C   UNL A   1      39.958  30.066  30.300  1.00  0.00     0.037 A 
ATOM     51  C   UNL A   1      45.646  29.205  27.265  1.00  0.00     0.049 A 
ATOM     52  C   UNL A   1      41.126  30.971  30.026  1.00  0.00     0.074 A 
ATOM     53  C   UNL A   1      46.633  30.140  27.004  1.00  0.00     0.029 A 
ATOM     54  N   UNL A   1      44.639  29.862  27.950  1.00  0.00    -0.354 N 
ATOM     55  N   UNL A   1      42.241  30.709  29.389  1.00  0.00    -0.248 NA
ATOM     56  C   UNL A   1      41.022  32.353  30.514  1.00  0.00     0.031 C 
ATOM     57  C   UNL A   1      46.229  31.364  27.555  1.00  0.00     0.029 A 
ATOM     58  C   UNL A   1      44.987  31.187  28.143  1.00  0.00     0.049 A 
ATOM     59  H   UNL A   1      43.799  29.449  28.255  1.00  0.00     0.167 HD
ATOM     60  C   UNL A   1      42.962  31.896  29.381  1.00  0.00     0.074 A 
ATOM     61  C   UNL A   1      42.159  32.880  30.077  1.00  0.00     0.031 C 
ATOM     62  C   UNL A   1      44.176  32.150  28.838  1.00  0.00     0.037 A 
BRANCH  49  63
ATOM     63  C   UNL A   1      46.793  27.226  26.209  1.00  0.00     0.057 A 
ATOM     64  C   UNL A   1      47.827  26.595  26.912  1.00  0.00     0.134 A 
ATOM     65  C   UNL A   1      46.891  27.291  24.816  1.00  0.00     0.134 A 
ATOM     66  F   UNL A   1      47.792  26.520  28.251  1.00  0.00    -0.206 F 
ATOM     67  C   UNL A   1      48.927  26.053  26.249  1.00  0.00     0.040 A 
ATOM     68  C   UNL A   1      47.985  26.746  24.142  1.00  0.00     0.040 A 
ATOM     69  F   UNL A   1      45.935  27.892  24.094  1.00  0.00    -0.206 F 
ATOM     70  C   UNL A   1      49.008  26.127  24.859  1.00  0.00     0.006 A 
ENDBRANCH  49  63
BRANCH  50  71
ATOM     71  C   UNL A   1      38.755  30.592  30.981  1.00  0.00     0.057 A 
ATOM     72  C   UNL A   1      38.627  30.532  32.372  1.00  0.00     0.134 A 
ATOM     73  C   UNL A   1      37.701  31.152  30.252  1.00  0.00     0.134 A 
ATOM     74  F   UNL A   1      39.601  29.989  33.116  1.00  0.00    -0.206 F 
ATOM     75  C   UNL A   1      37.485  31.007  33.017  1.00  0.00     0.040 A 
ATOM     76  C   UNL A   1      36.557  31.637  30.885  1.00  0.00     0.040 A 
ATOM     77  F   UNL A   1      37.770  31.229  28.914  1.00  0.00    -0.206 F 
ATOM     78  C   UNL A   1      36.447  31.563  32.272  1.00  0.00     0.006 A 
ENDBRANCH  50  71
BRANCH  62  79
ATOM     79  C   UNL A   1      44.705  33.542  28.970  1.00  0.00     0.057 A 
ATOM     80  C   UNL A   1      45.521  33.909  30.045  1.00  0.00     0.134 A 
ATOM     81  C   UNL A   1      44.430  34.510  27.997  1.00  0.00     0.134 A 
ATOM     82  F   UNL A   1      45.811  33.025  31.013  1.00  0.00    -0.206 F 
ATOM     83  C   UNL A   1      46.045  35.199  30.151  1.00  0.00     0.040 A 
ATOM     84  C   UNL A   1      44.953  35.799  28.088  1.00  0.00     0.040 A 
ATOM     85  F   UNL A   1      43.653  34.214  26.945  1.00  0.00    -0.206 F 
ATOM     86  C   UNL A   1      45.763  36.147  29.168  1.00  0.00     0.006 A 
ENDBRANCH  62  79
ENDBRANCH  36  37
ENDBRANCH  29  31
ENDBRANCH  28  29
ENDBRANCH  27  28
ENDBRANCH  26  27
ENDBRANCH   1  26
TORSDOF 17
ENDMDL
