MODEL 1
REMARK VINA RESULT:     -10.9      0.000      0.000
REMARK SMILES C[N@@H+]1[C@H]2CC[C@@H]1[C@@H](C(=O)OCCOCCOC(=O)c1ccc(-c3c4nc(c(-c5c(F)cccc5F)c5ccc([nH]5)c(-c5c(F)cccc5F)c5nc(c(-c6c(F)cccc6F)c6ccc3[nH]6)C=C5)C=C4)cc1)[C@@H](OC(=O)c1ccccc1)C2
REMARK SMILES IDX 12 1 11 2 10 3 8 4 9 5 7 6 1 7 2 8 3 9 6 10 4 12 83 13 5 14
REMARK SMILES IDX 73 15 74 16 75 17 76 18 77 19 78 20 82 21 79 22 81 23 80 24
REMARK SMILES IDX 13 25 14 26 15 27 16 28 17 29 18 30 19 31 20 32 72 33 21 34
REMARK SMILES IDX 71 35 22 36 23 37 24 38 65 39 25 40 70 41 64 42 66 43 26 44
REMARK SMILES IDX 69 45 63 46 62 47 27 49 53 50 36 51 52 52 37 53 40 54 51 55
REMARK SMILES IDX 67 56 38 57 39 58 50 60 68 61 41 62 28 63 29 64 34 65 30 66
REMARK SMILES IDX 31 67 33 68 35 69 32 70 54 71 55 72 60 73 56 74 57 75 59 76
REMARK SMILES IDX 61 77 58 78 42 79 43 80 48 81 44 82 45 83 47 84 49 85 46 86
REMARK H PARENT 2 11 66 48 40 59
REMARK Flexibility Score: inf
ROOT
ATOM      1  C   UNL A   1      34.264  21.912  27.332  1.00  0.00     0.202 C 
ENDROOT
BRANCH   1   2
ATOM      2  C   UNL A   1      32.920  22.652  27.427  1.00  0.00     0.261 C 
BRANCH   2   3
ATOM      3  O   UNL A   1      32.823  23.881  26.659  1.00  0.00    -0.463 OA
BRANCH   3   4
ATOM      4  C   UNL A   1      31.993  23.840  25.590  1.00  0.00     0.318 C 
ATOM      5  O   UNL A   1      31.454  22.805  25.192  1.00  0.00    -0.252 OA
BRANCH   4   6
ATOM      6  C   UNL A   1      31.866  25.110  24.772  1.00  0.00     0.198 C 
ATOM      7  C   UNL A   1      33.830  23.451  22.919  1.00  0.00     0.333 C 
ATOM      8  N   UNL A   1      32.879  24.470  22.529  1.00  0.00    -0.332 N 
ATOM      9  C   UNL A   1      33.414  25.821  22.420  1.00  0.00     0.188 C 
ATOM     10  C   UNL A   1      31.650  24.631  23.313  1.00  0.00     0.202 C 
ATOM     11  H   UNL A   1      32.648  24.057  21.627  1.00  0.00     0.348 HD
ATOM     12  C   UNL A   1      32.157  26.538  21.906  1.00  0.00     0.071 C 
ATOM     13  C   UNL A   1      33.895  26.359  23.784  1.00  0.00     0.111 C 
ATOM     14  C   UNL A   1      30.983  25.734  22.480  1.00  0.00     0.072 C 
ATOM     15  C   UNL A   1      32.800  26.350  24.868  1.00  0.00     0.203 C 
BRANCH  15  16
ATOM     16  O   UNL A   1      33.231  26.647  26.228  1.00  0.00    -0.457 OA
BRANCH  16  17
ATOM     17  C   UNL A   1      32.515  27.521  27.005  1.00  0.00     0.338 C 
ATOM     18  O   UNL A   1      31.412  27.343  27.486  1.00  0.00    -0.246 OA
BRANCH  17  19
ATOM     19  C   UNL A   1      33.209  28.832  27.118  1.00  0.00     0.060 A 
ATOM     20  C   UNL A   1      34.596  28.846  27.319  1.00  0.00     0.015 A 
ATOM     21  C   UNL A   1      32.505  30.040  27.100  1.00  0.00     0.015 A 
ATOM     22  C   UNL A   1      35.245  30.034  27.662  1.00  0.00     0.001 A 
ATOM     23  C   UNL A   1      33.163  31.234  27.418  1.00  0.00     0.001 A 
ATOM     24  C   UNL A   1      34.523  31.223  27.736  1.00  0.00     0.000 A 
ENDBRANCH  17  19
ENDBRANCH  16  17
ENDBRANCH  15  16
ENDBRANCH   4   6
ENDBRANCH   3   4
ENDBRANCH   2   3
ENDBRANCH   1   2
BRANCH   1  25
ATOM     25  O   UNL A   1      35.071  22.106  26.179  1.00  0.00    -0.374 OA
BRANCH  25  26
ATOM     26  C   UNL A   1      35.231  21.006  25.306  1.00  0.00     0.202 C 
BRANCH  26  27
ATOM     27  C   UNL A   1      36.645  20.483  25.049  1.00  0.00     0.261 C 
BRANCH  27  28
ATOM     28  O   UNL A   1      37.726  21.441  25.036  1.00  0.00    -0.460 OA
BRANCH  28  29
ATOM     29  C   UNL A   1      38.794  21.101  25.797  1.00  0.00     0.338 C 
ATOM     30  O   UNL A   1      39.350  20.012  25.819  1.00  0.00    -0.246 OA
BRANCH  29  31
ATOM     31  C   UNL A   1      39.362  22.246  26.547  1.00  0.00     0.060 A 
ATOM     32  C   UNL A   1      38.887  23.510  26.186  1.00  0.00     0.016 A 
ATOM     33  C   UNL A   1      40.448  22.143  27.423  1.00  0.00     0.016 A 
ATOM     34  C   UNL A   1      39.533  24.663  26.632  1.00  0.00     0.010 A 
ATOM     35  C   UNL A   1      41.114  23.306  27.856  1.00  0.00     0.010 A 
ATOM     36  C   UNL A   1      40.678  24.574  27.437  1.00  0.00    -0.014 A 
BRANCH  36  37
ATOM     37  C   UNL A   1      41.372  25.829  27.833  1.00  0.00     0.031 A 
ATOM     38  C   UNL A   1      42.780  26.118  27.387  1.00  0.00     0.074 A 
ATOM     39  C   UNL A   1      40.687  26.761  28.522  1.00  0.00     0.049 A 
ATOM     40  N   UNL A   1      43.486  27.213  27.536  1.00  0.00    -0.248 NA
ATOM     41  C   UNL A   1      43.487  25.040  26.681  1.00  0.00     0.031 C 
ATOM     42  C   UNL A   1      39.312  26.610  28.996  1.00  0.00     0.029 A 
ATOM     43  N   UNL A   1      41.046  28.022  28.926  1.00  0.00    -0.354 N 
ATOM     44  C   UNL A   1      44.710  26.968  26.923  1.00  0.00     0.074 A 
ATOM     45  C   UNL A   1      44.666  25.602  26.441  1.00  0.00     0.031 C 
ATOM     46  C   UNL A   1      38.936  27.743  29.611  1.00  0.00     0.029 A 
ATOM     47  C   UNL A   1      40.050  28.688  29.597  1.00  0.00     0.049 A 
ATOM     48  H   UNL A   1      41.933  28.413  28.752  1.00  0.00     0.167 HD
ATOM     49  C   UNL A   1      45.763  27.808  26.762  1.00  0.00     0.037 A 
ATOM     50  C   UNL A   1      40.034  29.918  30.143  1.00  0.00     0.037 A 
ATOM     51  C   UNL A   1      45.816  29.162  27.261  1.00  0.00     0.049 A 
ATOM     52  C   UNL A   1      41.246  30.801  30.016  1.00  0.00     0.074 A 
ATOM     53  C   UNL A   1      46.839  30.089  27.143  1.00  0.00     0.029 A 
ATOM     54  N   UNL A   1      44.805  29.780  27.984  1.00  0.00    -0.354 N 
ATOM     55  N   UNL A   1      42.373  30.574  29.388  1.00  0.00    -0.248 NA
ATOM     56  C   UNL A   1      41.176  32.117  30.667  1.00  0.00     0.031 C 
ATOM     57  C   UNL A   1      46.469  31.247  27.834  1.00  0.00     0.029 A 
ATOM     58  C   UNL A   1      45.192  31.065  28.337  1.00  0.00     0.049 A 
ATOM     59  H   UNL A   1      43.941  29.367  28.213  1.00  0.00     0.167 HD
ATOM     60  C   UNL A   1      43.133  31.728  29.541  1.00  0.00     0.074 A 
ATOM     61  C   UNL A   1      42.330  32.659  30.304  1.00  0.00     0.031 C 
ATOM     62  C   UNL A   1      44.383  31.991  29.088  1.00  0.00     0.037 A 
BRANCH  49  63
ATOM     63  C   UNL A   1      46.961  27.294  26.012  1.00  0.00     0.057 A 
ATOM     64  C   UNL A   1      47.111  27.505  24.634  1.00  0.00     0.134 A 
ATOM     65  C   UNL A   1      48.010  26.649  26.681  1.00  0.00     0.134 A 
ATOM     66  F   UNL A   1      46.146  28.116  23.932  1.00  0.00    -0.206 F 
ATOM     67  C   UNL A   1      48.250  27.075  23.948  1.00  0.00     0.040 A 
ATOM     68  C   UNL A   1      49.165  26.238  26.010  1.00  0.00     0.040 A 
ATOM     69  F   UNL A   1      47.942  26.428  28.003  1.00  0.00    -0.206 F 
ATOM     70  C   UNL A   1      49.284  26.447  24.638  1.00  0.00     0.006 A 
ENDBRANCH  49  63
BRANCH  50  71
ATOM     71  C   UNL A   1      38.826  30.399  30.863  1.00  0.00     0.057 A 
ATOM     72  C   UNL A   1      37.850  31.165  30.218  1.00  0.00     0.134 A 
ATOM     73  C   UNL A   1      38.640  30.131  32.226  1.00  0.00     0.134 A 
ATOM     74  F   UNL A   1      37.982  31.472  28.919  1.00  0.00    -0.206 F 
ATOM     75  C   UNL A   1      36.746  31.673  30.905  1.00  0.00     0.040 A 
ATOM     76  C   UNL A   1      37.527  30.606  32.918  1.00  0.00     0.040 A 
ATOM     77  F   UNL A   1      39.537  29.398  32.901  1.00  0.00    -0.206 F 
ATOM     78  C   UNL A   1      36.581  31.389  32.259  1.00  0.00     0.006 A 
ENDBRANCH  50  71
BRANCH  62  79
ATOM     79  C   UNL A   1      44.945  33.356  29.372  1.00  0.00     0.057 A 
ATOM     80  C   UNL A   1      45.709  33.623  30.514  1.00  0.00     0.134 A 
ATOM     81  C   UNL A   1      44.732  34.413  28.477  1.00  0.00     0.134 A 
ATOM     82  F   UNL A   1      45.937  32.660  31.420  1.00  0.00    -0.206 F 
ATOM     83  C   UNL A   1      46.218  34.898  30.772  1.00  0.00     0.040 A 
ATOM     84  C   UNL A   1      45.261  35.685  28.708  1.00  0.00     0.040 A 
ATOM     85  F   UNL A   1      44.016  34.227  27.358  1.00  0.00    -0.206 F 
ATOM     86  C   UNL A   1      45.999  35.931  29.864  1.00  0.00     0.006 A 
ENDBRANCH  62  79
ENDBRANCH  36  37
ENDBRANCH  29  31
ENDBRANCH  28  29
ENDBRANCH  27  28
ENDBRANCH  26  27
ENDBRANCH  25  26
ENDBRANCH   1  25
TORSDOF 17
ENDMDL
MODEL 2
REMARK VINA RESULT:     -10.9      3.978      8.997
REMARK SMILES C[N@@H+]1[C@H]2CC[C@@H]1[C@@H](C(=O)OCCOCCOC(=O)c1ccc(-c3c4nc(c(-c5c(F)cccc5F)c5ccc([nH]5)c(-c5c(F)cccc5F)c5nc(c(-c6c(F)cccc6F)c6ccc3[nH]6)C=C5)C=C4)cc1)[C@@H](OC(=O)c1ccccc1)C2
REMARK SMILES IDX 12 1 11 2 10 3 8 4 9 5 7 6 1 7 2 8 3 9 6 10 4 12 83 13 5 14
REMARK SMILES IDX 73 15 74 16 75 17 76 18 77 19 78 20 82 21 79 22 81 23 80 24
REMARK SMILES IDX 13 25 14 26 15 27 16 28 17 29 18 30 19 31 20 32 72 33 21 34
REMARK SMILES IDX 71 35 22 36 23 37 24 38 65 39 25 40 70 41 64 42 66 43 26 44
REMARK SMILES IDX 69 45 63 46 62 47 27 49 53 50 36 51 52 52 37 53 40 54 51 55
REMARK SMILES IDX 67 56 38 57 39 58 50 60 68 61 41 62 28 63 29 64 34 65 30 66
REMARK SMILES IDX 31 67 33 68 35 69 32 70 54 71 55 72 60 73 56 74 57 75 59 76
REMARK SMILES IDX 61 77 58 78 42 79 43 80 48 81 44 82 45 83 47 84 49 85 46 86
REMARK H PARENT 2 11 66 48 40 59
REMARK Flexibility Score: inf
ROOT
ATOM      1  C   UNL A   1      33.002  29.504  26.765  1.00  0.00     0.202 C 
ENDROOT
BRANCH   1   2
ATOM      2  C   UNL A   1      33.995  28.439  26.274  1.00  0.00     0.261 C 
BRANCH   2   3
ATOM      3  O   UNL A   1      33.573  27.060  26.443  1.00  0.00    -0.463 OA
BRANCH   3   4
ATOM      4  C   UNL A   1      33.065  26.462  25.339  1.00  0.00     0.318 C 
ATOM      5  O   UNL A   1      33.451  26.715  24.196  1.00  0.00    -0.252 OA
BRANCH   4   6
ATOM      6  C   UNL A   1      31.862  25.564  25.540  1.00  0.00     0.198 C 
ATOM      7  C   UNL A   1      33.889  23.496  24.252  1.00  0.00     0.333 C 
ATOM      8  N   UNL A   1      32.801  23.230  25.168  1.00  0.00    -0.332 N 
ATOM      9  C   UNL A   1      31.537  22.852  24.550  1.00  0.00     0.188 C 
ATOM     10  C   UNL A   1      32.432  24.255  26.149  1.00  0.00     0.202 C 
ATOM     11  H   UNL A   1      33.257  22.456  25.650  1.00  0.00     0.348 HD
ATOM     12  C   UNL A   1      30.721  22.569  25.820  1.00  0.00     0.071 C 
ATOM     13  C   UNL A   1      30.948  24.000  23.703  1.00  0.00     0.111 C 
ATOM     14  C   UNL A   1      31.330  23.486  26.890  1.00  0.00     0.072 C 
ATOM     15  C   UNL A   1      30.737  25.303  24.497  1.00  0.00     0.203 C 
BRANCH  15  16
ATOM     16  O   UNL A   1      30.380  26.485  23.723  1.00  0.00    -0.457 OA
BRANCH  16  17
ATOM     17  C   UNL A   1      29.085  26.930  23.695  1.00  0.00     0.338 C 
ATOM     18  O   UNL A   1      28.088  26.311  24.017  1.00  0.00    -0.246 OA
BRANCH  17  19
ATOM     19  C   UNL A   1      28.994  28.286  23.091  1.00  0.00     0.060 A 
ATOM     20  C   UNL A   1      27.749  28.931  23.066  1.00  0.00     0.015 A 
ATOM     21  C   UNL A   1      30.098  28.898  22.488  1.00  0.00     0.015 A 
ATOM     22  C   UNL A   1      27.573  30.090  22.307  1.00  0.00     0.001 A 
ATOM     23  C   UNL A   1      29.923  30.074  21.750  1.00  0.00     0.001 A 
ATOM     24  C   UNL A   1      28.656  30.647  21.629  1.00  0.00     0.000 A 
ENDBRANCH  17  19
ENDBRANCH  16  17
ENDBRANCH  15  16
ENDBRANCH   4   6
ENDBRANCH   3   4
ENDBRANCH   2   3
ENDBRANCH   1   2
BRANCH   1  25
ATOM     25  O   UNL A   1      32.516  30.465  25.837  1.00  0.00    -0.374 OA
BRANCH  25  26
ATOM     26  C   UNL A   1      31.316  31.135  26.166  1.00  0.00     0.202 C 
BRANCH  26  27
ATOM     27  C   UNL A   1      31.409  32.458  26.928  1.00  0.00     0.261 C 
BRANCH  27  28
ATOM     28  O   UNL A   1      32.604  33.252  26.757  1.00  0.00    -0.460 OA
BRANCH  28  29
ATOM     29  C   UNL A   1      33.149  33.710  27.909  1.00  0.00     0.338 C 
ATOM     30  O   UNL A   1      32.620  34.467  28.710  1.00  0.00    -0.246 OA
BRANCH  29  31
ATOM     31  C   UNL A   1      34.458  33.088  28.220  1.00  0.00     0.060 A 
ATOM     32  C   UNL A   1      34.409  31.843  28.856  1.00  0.00     0.016 A 
ATOM     33  C   UNL A   1      35.685  33.748  28.094  1.00  0.00     0.016 A 
ATOM     34  C   UNL A   1      35.556  31.295  29.427  1.00  0.00     0.010 A 
ATOM     35  C   UNL A   1      36.840  33.205  28.690  1.00  0.00     0.010 A 
ATOM     36  C   UNL A   1      36.776  31.987  29.388  1.00  0.00    -0.014 A 
BRANCH  36  37
ATOM     37  C   UNL A   1      37.956  31.392  30.069  1.00  0.00     0.031 A 
ATOM     38  C   UNL A   1      38.269  31.706  31.508  1.00  0.00     0.074 A 
ATOM     39  C   UNL A   1      38.700  30.485  29.409  1.00  0.00     0.049 A 
ATOM     40  N   UNL A   1      39.182  31.180  32.289  1.00  0.00    -0.248 NA
ATOM     41  C   UNL A   1      37.449  32.740  32.156  1.00  0.00     0.031 C 
ATOM     42  C   UNL A   1      38.490  30.082  28.019  1.00  0.00     0.029 A 
ATOM     43  N   UNL A   1      39.767  29.727  29.822  1.00  0.00    -0.354 N 
ATOM     44  C   UNL A   1      39.034  31.798  33.525  1.00  0.00     0.074 A 
ATOM     45  C   UNL A   1      37.972  32.774  33.376  1.00  0.00     0.031 C 
ATOM     46  C   UNL A   1      39.387  29.136  27.699  1.00  0.00     0.029 A 
ATOM     47  C   UNL A   1      40.250  28.885  28.850  1.00  0.00     0.049 A 
ATOM     48  H   UNL A   1      40.149  29.780  30.728  1.00  0.00     0.167 HD
ATOM     49  C   UNL A   1      39.707  31.564  34.679  1.00  0.00     0.037 A 
ATOM     50  C   UNL A   1      41.274  28.011  28.881  1.00  0.00     0.037 A 
ATOM     51  C   UNL A   1      40.779  30.608  34.823  1.00  0.00     0.049 A 
ATOM     52  C   UNL A   1      42.054  27.827  30.155  1.00  0.00     0.074 A 
ATOM     53  C   UNL A   1      41.517  30.299  35.955  1.00  0.00     0.029 A 
ATOM     54  N   UNL A   1      41.275  29.814  33.800  1.00  0.00    -0.354 N 
ATOM     55  N   UNL A   1      41.867  28.381  31.327  1.00  0.00    -0.248 NA
ATOM     56  C   UNL A   1      43.182  26.887  30.108  1.00  0.00     0.031 C 
ATOM     57  C   UNL A   1      42.490  29.357  35.605  1.00  0.00     0.029 A 
ATOM     58  C   UNL A   1      42.323  29.035  34.269  1.00  0.00     0.049 A 
ATOM     59  H   UNL A   1      40.934  29.804  32.876  1.00  0.00     0.167 HD
ATOM     60  C   UNL A   1      42.831  27.834  32.165  1.00  0.00     0.074 A 
ATOM     61  C   UNL A   1      43.589  26.890  31.369  1.00  0.00     0.031 C 
ATOM     62  C   UNL A   1      43.066  28.089  33.474  1.00  0.00     0.037 A 
BRANCH  49  63
ATOM     63  C   UNL A   1      39.309  32.355  35.896  1.00  0.00     0.057 A 
ATOM     64  C   UNL A   1      38.385  31.859  36.825  1.00  0.00     0.134 A 
ATOM     65  C   UNL A   1      39.910  33.588  36.182  1.00  0.00     0.134 A 
ATOM     66  F   UNL A   1      37.773  30.684  36.614  1.00  0.00    -0.206 F 
ATOM     67  C   UNL A   1      38.058  32.570  37.983  1.00  0.00     0.040 A 
ATOM     68  C   UNL A   1      39.609  34.296  37.349  1.00  0.00     0.040 A 
ATOM     69  F   UNL A   1      40.816  34.117  35.345  1.00  0.00    -0.206 F 
ATOM     70  C   UNL A   1      38.677  33.788  38.251  1.00  0.00     0.006 A 
ENDBRANCH  49  63
BRANCH  50  71
ATOM     71  C   UNL A   1      41.628  27.235  27.664  1.00  0.00     0.057 A 
ATOM     72  C   UNL A   1      42.498  27.752  26.698  1.00  0.00     0.134 A 
ATOM     73  C   UNL A   1      41.074  25.970  27.423  1.00  0.00     0.134 A 
ATOM     74  F   UNL A   1      43.044  28.966  26.862  1.00  0.00    -0.206 F 
ATOM     75  C   UNL A   1      42.783  27.055  25.523  1.00  0.00     0.040 A 
ATOM     76  C   UNL A   1      41.375  25.249  26.268  1.00  0.00     0.040 A 
ATOM     77  F   UNL A   1      40.238  25.417  28.313  1.00  0.00    -0.206 F 
ATOM     78  C   UNL A   1      42.224  25.797  25.308  1.00  0.00     0.006 A 
ENDBRANCH  50  71
BRANCH  62  79
ATOM     79  C   UNL A   1      44.163  27.308  34.142  1.00  0.00     0.057 A 
ATOM     80  C   UNL A   1      45.477  27.787  34.217  1.00  0.00     0.134 A 
ATOM     81  C   UNL A   1      43.894  26.068  34.735  1.00  0.00     0.134 A 
ATOM     82  F   UNL A   1      45.807  28.960  33.657  1.00  0.00    -0.206 F 
ATOM     83  C   UNL A   1      46.490  27.048  34.832  1.00  0.00     0.040 A 
ATOM     84  C   UNL A   1      44.892  25.333  35.379  1.00  0.00     0.040 A 
ATOM     85  F   UNL A   1      42.656  25.552  34.707  1.00  0.00    -0.206 F 
ATOM     86  C   UNL A   1      46.197  25.819  35.421  1.00  0.00     0.006 A 
ENDBRANCH  62  79
ENDBRANCH  36  37
ENDBRANCH  29  31
ENDBRANCH  28  29
ENDBRANCH  27  28
ENDBRANCH  26  27
ENDBRANCH  25  26
ENDBRANCH   1  25
TORSDOF 17
ENDMDL
MODEL 3
REMARK VINA RESULT:     -10.8      4.275      9.160
REMARK SMILES C[N@@H+]1[C@H]2CC[C@@H]1[C@@H](C(=O)OCCOCCOC(=O)c1ccc(-c3c4nc(c(-c5c(F)cccc5F)c5ccc([nH]5)c(-c5c(F)cccc5F)c5nc(c(-c6c(F)cccc6F)c6ccc3[nH]6)C=C5)C=C4)cc1)[C@@H](OC(=O)c1ccccc1)C2
REMARK SMILES IDX 12 1 11 2 10 3 8 4 9 5 7 6 1 7 2 8 3 9 6 10 4 12 83 13 5 14
REMARK SMILES IDX 73 15 74 16 75 17 76 18 77 19 78 20 82 21 79 22 81 23 80 24
REMARK SMILES IDX 13 25 14 26 15 27 16 28 17 29 18 30 19 31 20 32 72 33 21 34
REMARK SMILES IDX 71 35 22 36 23 37 24 38 65 39 25 40 70 41 64 42 66 43 26 44
REMARK SMILES IDX 69 45 63 46 62 47 27 49 53 50 36 51 52 52 37 53 40 54 51 55
REMARK SMILES IDX 67 56 38 57 39 58 50 60 68 61 41 62 28 63 29 64 34 65 30 66
REMARK SMILES IDX 31 67 33 68 35 69 32 70 54 71 55 72 60 73 56 74 57 75 59 76
REMARK SMILES IDX 61 77 58 78 42 79 43 80 48 81 44 82 45 83 47 84 49 85 46 86
REMARK H PARENT 2 11 66 48 40 59
REMARK Flexibility Score: inf
ROOT
ATOM      1  C   UNL A   1      32.637  30.467  26.808  1.00  0.00     0.202 C 
ENDROOT
BRANCH   1   2
ATOM      2  C   UNL A   1      32.661  28.969  26.463  1.00  0.00     0.261 C 
BRANCH   2   3
ATOM      3  O   UNL A   1      31.611  28.513  25.570  1.00  0.00    -0.463 OA
BRANCH   3   4
ATOM      4  C   UNL A   1      31.104  27.287  25.840  1.00  0.00     0.318 C 
ATOM      5  O   UNL A   1      31.080  26.800  26.972  1.00  0.00    -0.252 OA
BRANCH   4   6
ATOM      6  C   UNL A   1      30.700  26.436  24.652  1.00  0.00     0.198 C 
ATOM      7  C   UNL A   1      33.836  25.983  24.617  1.00  0.00     0.333 C 
ATOM      8  N   UNL A   1      32.799  25.090  24.151  1.00  0.00    -0.332 N 
ATOM      9  C   UNL A   1      32.481  25.180  22.732  1.00  0.00     0.188 C 
ATOM     10  C   UNL A   1      31.491  25.112  24.816  1.00  0.00     0.202 C 
ATOM     11  H   UNL A   1      33.283  24.228  24.398  1.00  0.00     0.348 HD
ATOM     12  C   UNL A   1      31.453  24.042  22.641  1.00  0.00     0.071 C 
ATOM     13  C   UNL A   1      31.886  26.555  22.365  1.00  0.00     0.111 C 
ATOM     14  C   UNL A   1      30.810  23.981  24.032  1.00  0.00     0.072 C 
ATOM     15  C   UNL A   1      30.626  26.916  23.173  1.00  0.00     0.203 C 
BRANCH  15  16
ATOM     16  O   UNL A   1      30.129  28.279  23.031  1.00  0.00    -0.457 OA
BRANCH  16  17
ATOM     17  C   UNL A   1      28.783  28.531  23.061  1.00  0.00     0.338 C 
ATOM     18  O   UNL A   1      27.889  27.732  23.266  1.00  0.00    -0.246 OA
BRANCH  17  19
ATOM     19  C   UNL A   1      28.492  29.941  22.683  1.00  0.00     0.060 A 
ATOM     20  C   UNL A   1      28.176  30.230  21.349  1.00  0.00     0.015 A 
ATOM     21  C   UNL A   1      28.595  30.986  23.608  1.00  0.00     0.015 A 
ATOM     22  C   UNL A   1      28.128  31.554  20.909  1.00  0.00     0.001 A 
ATOM     23  C   UNL A   1      28.520  32.312  23.168  1.00  0.00     0.001 A 
ATOM     24  C   UNL A   1      28.324  32.594  21.814  1.00  0.00     0.000 A 
ENDBRANCH  17  19
ENDBRANCH  16  17
ENDBRANCH  15  16
ENDBRANCH   4   6
ENDBRANCH   3   4
ENDBRANCH   2   3
ENDBRANCH   1   2
BRANCH   1  25
ATOM     25  O   UNL A   1      31.620  31.283  26.242  1.00  0.00    -0.374 OA
BRANCH  25  26
ATOM     26  C   UNL A   1      31.494  32.600  26.738  1.00  0.00     0.202 C 
BRANCH  26  27
ATOM     27  C   UNL A   1      32.651  33.184  27.550  1.00  0.00     0.261 C 
BRANCH  27  28
ATOM     28  O   UNL A   1      32.487  34.509  28.101  1.00  0.00    -0.460 OA
BRANCH  28  29
ATOM     29  C   UNL A   1      33.103  34.708  29.291  1.00  0.00     0.338 C 
ATOM     30  O   UNL A   1      32.657  35.333  30.242  1.00  0.00    -0.246 OA
BRANCH  29  31
ATOM     31  C   UNL A   1      34.375  33.958  29.420  1.00  0.00     0.060 A 
ATOM     32  C   UNL A   1      34.325  32.799  30.201  1.00  0.00     0.016 A 
ATOM     33  C   UNL A   1      35.613  34.441  28.982  1.00  0.00     0.016 A 
ATOM     34  C   UNL A   1      35.501  32.168  30.605  1.00  0.00     0.010 A 
ATOM     35  C   UNL A   1      36.801  33.816  29.408  1.00  0.00     0.010 A 
ATOM     36  C   UNL A   1      36.753  32.692  30.249  1.00  0.00    -0.014 A 
BRANCH  36  37
ATOM     37  C   UNL A   1      37.978  32.022  30.760  1.00  0.00     0.031 A 
ATOM     38  C   UNL A   1      38.528  32.333  32.126  1.00  0.00     0.074 A 
ATOM     39  C   UNL A   1      38.547  31.052  30.019  1.00  0.00     0.049 A 
ATOM     40  N   UNL A   1      39.509  31.753  32.774  1.00  0.00    -0.248 NA
ATOM     41  C   UNL A   1      37.892  33.434  32.863  1.00  0.00     0.031 C 
ATOM     42  C   UNL A   1      38.099  30.645  28.688  1.00  0.00     0.029 A 
ATOM     43  N   UNL A   1      39.607  30.223  30.286  1.00  0.00    -0.354 N 
ATOM     44  C   UNL A   1      39.596  32.399  34.002  1.00  0.00     0.074 A 
ATOM     45  C   UNL A   1      38.595  33.448  33.989  1.00  0.00     0.031 C 
ATOM     46  C   UNL A   1      38.867  29.630  28.261  1.00  0.00     0.029 A 
ATOM     47  C   UNL A   1      39.876  29.333  29.275  1.00  0.00     0.049 A 
ATOM     48  H   UNL A   1      40.126  30.262  31.122  1.00  0.00     0.167 HD
ATOM     49  C   UNL A   1      40.418  32.132  35.047  1.00  0.00     0.037 A 
ATOM     50  C   UNL A   1      40.828  28.386  29.173  1.00  0.00     0.037 A 
ATOM     51  C   UNL A   1      41.430  31.102  35.053  1.00  0.00     0.049 A 
ATOM     52  C   UNL A   1      41.778  28.165  30.320  1.00  0.00     0.074 A 
ATOM     53  C   UNL A   1      42.308  30.757  36.068  1.00  0.00     0.029 A 
ATOM     54  N   UNL A   1      41.706  30.258  33.987  1.00  0.00    -0.354 N 
ATOM     55  N   UNL A   1      41.811  28.749  31.492  1.00  0.00    -0.248 NA
ATOM     56  C   UNL A   1      42.817  27.143  30.128  1.00  0.00     0.031 C 
ATOM     57  C   UNL A   1      43.146  29.740  35.600  1.00  0.00     0.029 A 
ATOM     58  C   UNL A   1      42.756  29.411  34.313  1.00  0.00     0.049 A 
ATOM     59  H   UNL A   1      41.228  30.260  33.126  1.00  0.00     0.167 HD
ATOM     60  C   UNL A   1      42.851  28.144  32.188  1.00  0.00     0.074 A 
ATOM     61  C   UNL A   1      43.409  27.135  31.313  1.00  0.00     0.031 C 
ATOM     62  C   UNL A   1      43.300  28.401  33.441  1.00  0.00     0.037 A 
BRANCH  49  63
ATOM     63  C   UNL A   1      40.268  32.969  36.289  1.00  0.00     0.057 A 
ATOM     64  C   UNL A   1      39.322  32.658  37.274  1.00  0.00     0.134 A 
ATOM     65  C   UNL A   1      41.124  34.050  36.538  1.00  0.00     0.134 A 
ATOM     66  F   UNL A   1      38.471  31.636  37.100  1.00  0.00    -0.206 F 
ATOM     67  C   UNL A   1      39.220  33.403  38.452  1.00  0.00     0.040 A 
ATOM     68  C   UNL A   1      41.049  34.786  37.724  1.00  0.00     0.040 A 
ATOM     69  F   UNL A   1      42.066  34.396  35.646  1.00  0.00    -0.206 F 
ATOM     70  C   UNL A   1      40.090  34.465  38.682  1.00  0.00     0.006 A 
ENDBRANCH  49  63
BRANCH  50  71
ATOM     71  C   UNL A   1      40.936  27.568  27.938  1.00  0.00     0.057 A 
ATOM     72  C   UNL A   1      40.302  26.326  27.829  1.00  0.00     0.134 A 
ATOM     73  C   UNL A   1      41.708  27.996  26.850  1.00  0.00     0.134 A 
ATOM     74  F   UNL A   1      39.565  25.853  28.845  1.00  0.00    -0.206 F 
ATOM     75  C   UNL A   1      40.453  25.525  26.696  1.00  0.00     0.040 A 
ATOM     76  C   UNL A   1      41.843  27.219  25.699  1.00  0.00     0.040 A 
ATOM     77  F   UNL A   1      42.337  29.179  26.889  1.00  0.00    -0.206 F 
ATOM     78  C   UNL A   1      41.222  25.974  25.625  1.00  0.00     0.006 A 
ENDBRANCH  50  71
BRANCH  62  79
ATOM     79  C   UNL A   1      44.428  27.552  33.955  1.00  0.00     0.057 A 
ATOM     80  C   UNL A   1      45.766  27.950  33.852  1.00  0.00     0.134 A 
ATOM     81  C   UNL A   1      44.167  26.325  34.580  1.00  0.00     0.134 A 
ATOM     82  F   UNL A   1      46.088  29.105  33.251  1.00  0.00    -0.206 F 
ATOM     83  C   UNL A   1      46.806  27.147  34.326  1.00  0.00     0.040 A 
ATOM     84  C   UNL A   1      45.197  25.527  35.085  1.00  0.00     0.040 A 
ATOM     85  F   UNL A   1      42.908  25.884  34.721  1.00  0.00    -0.206 F 
ATOM     86  C   UNL A   1      46.522  25.935  34.950  1.00  0.00     0.006 A 
ENDBRANCH  62  79
ENDBRANCH  36  37
ENDBRANCH  29  31
ENDBRANCH  28  29
ENDBRANCH  27  28
ENDBRANCH  26  27
ENDBRANCH  25  26
ENDBRANCH   1  25
TORSDOF 17
ENDMDL
