MODEL 1
REMARK VINA RESULT:     -11.8      0.000      0.000
REMARK SMILES Cc1ccc(NC(=O)C[C@@H](C(=O)OCCOCCOC(=O)c2ccc(-c3c4nc(c(-c5c(F)cccc5F)c5ccc([nH]5)c(-c5c(F)cccc5F)c5nc(c(-c6c(F)cccc6F)c6ccc3[nH]6)C=C5)C=C4)cc2)[NH+]2CCOCC2)cc1
REMARK SMILES IDX 15 1 14 2 13 3 11 4 12 5 10 6 9 7 7 8 6 9 8 11 5 12 1 13
REMARK SMILES IDX 2 14 3 15 83 16 4 17 82 18 76 19 77 20 81 21 78 23 80 24
REMARK SMILES IDX 79 25 16 26 17 27 18 28 19 29 20 30 21 31 22 32 23 33 75 34
REMARK SMILES IDX 24 35 74 36 25 37 26 38 27 39 68 40 28 41 73 42 67 43 69 44
REMARK SMILES IDX 29 45 72 46 66 47 65 48 30 50 56 51 39 52 55 53 40 54 43 55
REMARK SMILES IDX 54 56 70 57 41 58 42 59 53 61 71 62 44 63 31 64 32 65 37 66
REMARK SMILES IDX 33 67 34 68 36 69 38 70 35 71 57 72 58 73 63 74 59 75 60 76
REMARK SMILES IDX 62 77 64 78 61 79 45 80 46 81 51 82 47 83 48 84 50 85 52 86
REMARK SMILES IDX 49 87
REMARK H PARENT 6 10 76 22 69 49 43 60
REMARK Flexibility Score: inf
ROOT
ATOM      1  C   UNL A   1      35.584  22.538  24.467  1.00  0.00     0.202 C 
ENDROOT
BRANCH   1   2
ATOM      2  C   UNL A   1      34.628  24.399  23.524  1.00  0.00     0.261 C 
BRANCH   2   3
ATOM      3  O   UNL A   1      33.899  24.661  22.290  1.00  0.00    -0.459 OA
BRANCH   3   4
ATOM      4  C   UNL A   1      33.401  25.832  21.984  1.00  0.00     0.365 C 
ATOM      5  O   UNL A   1      33.449  26.325  20.870  1.00  0.00    -0.245 OA
BRANCH   4   6
ATOM      6  C   UNL A   1      32.624  26.321  23.197  1.00  0.00     0.304 C 
BRANCH   6   7
ATOM      7  C   UNL A   1      31.106  25.842  23.148  1.00  0.00     0.177 C 
BRANCH   7   8
ATOM      8  C   UNL A   1      30.329  25.400  24.415  1.00  0.00     0.231 C 
ATOM      9  N   UNL A   1      30.309  24.088  24.867  1.00  0.00    -0.326 N 
ATOM     10  H   UNL A   1      29.504  23.798  25.354  1.00  0.00     0.169 HD
ATOM     11  O   UNL A   1      29.684  26.227  25.069  1.00  0.00    -0.274 OA
BRANCH   9  12
ATOM     12  C   UNL A   1      31.342  23.117  24.696  1.00  0.00     0.041 A 
ATOM     13  C   UNL A   1      34.364  18.174  24.369  1.00  0.00     0.044 C 
ATOM     14  C   UNL A   1      33.254  19.273  24.189  1.00  0.00    -0.051 A 
ATOM     15  C   UNL A   1      33.214  20.305  25.872  1.00  0.00     0.005 A 
ATOM     16  C   UNL A   1      32.197  20.276  22.660  1.00  0.00     0.005 A 
ATOM     17  C   UNL A   1      32.065  21.891  26.102  1.00  0.00     0.026 A 
ATOM     18  C   UNL A   1      31.557  22.131  22.937  1.00  0.00     0.026 A 
ENDBRANCH   9  12
ENDBRANCH   7   8
ENDBRANCH   6   7
BRANCH   6  19
ATOM     19  N   UNL A   1      32.848  27.775  23.110  1.00  0.00    -0.319 N 
ATOM     20  C   UNL A   1      33.996  28.275  23.906  1.00  0.00     0.291 C 
ATOM     21  C   UNL A   1      31.742  28.706  23.129  1.00  0.00     0.291 C 
ATOM     22  H   UNL A   1      33.080  27.786  22.117  1.00  0.00     0.348 HD
ATOM     23  C   UNL A   1      33.586  28.697  25.304  1.00  0.00     0.221 C 
ATOM     24  C   UNL A   1      31.428  29.235  24.529  1.00  0.00     0.221 C 
ATOM     25  O   UNL A   1      32.586  29.712  25.227  1.00  0.00    -0.370 OA
ENDBRANCH   6  19
ENDBRANCH   4   6
ENDBRANCH   3   4
ENDBRANCH   2   3
ENDBRANCH   1   2
BRANCH   1  26
ATOM     26  O   UNL A   1      37.292  22.436  24.626  1.00  0.00    -0.374 OA
BRANCH  26  27
ATOM     27  C   UNL A   1      37.829  21.665  25.632  1.00  0.00     0.202 C 
BRANCH  27  28
ATOM     28  C   UNL A   1      39.179  22.171  26.094  1.00  0.00     0.261 C 
BRANCH  28  29
ATOM     29  O   UNL A   1      40.212  21.079  25.913  1.00  0.00    -0.460 OA
BRANCH  29  30
ATOM     30  C   UNL A   1      41.595  21.204  26.027  1.00  0.00     0.338 C 
ATOM     31  O   UNL A   1      42.346  20.323  25.618  1.00  0.00    -0.246 OA
BRANCH  30  32
ATOM     32  C   UNL A   1      42.247  22.633  26.495  1.00  0.00     0.060 A 
ATOM     33  C   UNL A   1      42.579  22.632  28.283  1.00  0.00     0.016 A 
ATOM     34  C   UNL A   1      42.020  24.571  25.939  1.00  0.00     0.016 A 
ATOM     35  C   UNL A   1      42.676  24.219  29.144  1.00  0.00     0.010 A 
ATOM     36  C   UNL A   1      42.313  25.876  27.057  1.00  0.00     0.010 A 
ATOM     37  C   UNL A   1      42.479  25.785  28.490  1.00  0.00    -0.014 A 
BRANCH  37  38
ATOM     38  C   UNL A   1      42.584  27.359  28.637  1.00  0.00     0.031 A 
ATOM     39  C   UNL A   1      41.251  28.049  28.829  1.00  0.00     0.074 A 
ATOM     40  C   UNL A   1      43.637  27.833  29.482  1.00  0.00     0.049 A 
ATOM     41  N   UNL A   1      40.916  29.237  28.433  1.00  0.00    -0.248 NA
ATOM     42  C   UNL A   1      40.134  27.362  29.506  1.00  0.00     0.031 C 
ATOM     43  C   UNL A   1      43.639  28.702  30.719  1.00  0.00     0.029 A 
ATOM     44  N   UNL A   1      44.863  27.161  29.755  1.00  0.00    -0.354 N 
ATOM     45  C   UNL A   1      39.735  29.537  29.115  1.00  0.00     0.074 A 
ATOM     46  C   UNL A   1      39.149  28.259  29.451  1.00  0.00     0.031 C 
ATOM     47  C   UNL A   1      44.878  28.764  31.291  1.00  0.00     0.029 A 
ATOM     48  C   UNL A   1      45.777  27.914  30.518  1.00  0.00     0.049 A 
ATOM     49  H   UNL A   1      45.055  26.248  29.439  1.00  0.00     0.167 HD
ATOM     50  C   UNL A   1      39.656  30.608  29.974  1.00  0.00     0.037 A 
ATOM     51  C   UNL A   1      46.957  28.204  29.922  1.00  0.00     0.037 A 
ATOM     52  C   UNL A   1      41.001  31.120  30.332  1.00  0.00     0.049 A 
ATOM     53  C   UNL A   1      46.649  29.495  29.200  1.00  0.00     0.074 A 
ATOM     54  C   UNL A   1      41.684  31.350  31.517  1.00  0.00     0.029 A 
ATOM     55  N   UNL A   1      41.982  31.233  29.343  1.00  0.00    -0.354 N 
ATOM     56  N   UNL A   1      45.450  30.019  29.208  1.00  0.00    -0.248 NA
ATOM     57  C   UNL A   1      47.613  30.394  28.612  1.00  0.00     0.031 C 
ATOM     58  C   UNL A   1      43.042  31.710  31.196  1.00  0.00     0.029 A 
ATOM     59  C   UNL A   1      43.213  31.648  29.816  1.00  0.00     0.049 A 
ATOM     60  H   UNL A   1      41.812  31.035  28.393  1.00  0.00     0.167 HD
ATOM     61  C   UNL A   1      45.443  31.302  28.811  1.00  0.00     0.074 A 
ATOM     62  C   UNL A   1      46.838  31.483  28.421  1.00  0.00     0.031 C 
ATOM     63  C   UNL A   1      44.282  32.037  28.854  1.00  0.00     0.037 A 
BRANCH  50  64
ATOM     64  C   UNL A   1      38.334  31.063  30.631  1.00  0.00     0.057 A 
ATOM     65  C   UNL A   1      37.998  30.685  31.948  1.00  0.00     0.134 A 
ATOM     66  C   UNL A   1      37.423  31.999  30.075  1.00  0.00     0.134 A 
ATOM     67  F   UNL A   1      38.768  29.848  32.655  1.00  0.00    -0.206 F 
ATOM     68  C   UNL A   1      36.874  31.179  32.642  1.00  0.00     0.040 A 
ATOM     69  C   UNL A   1      36.278  32.475  30.748  1.00  0.00     0.040 A 
ATOM     70  F   UNL A   1      37.623  32.551  28.870  1.00  0.00    -0.206 F 
ATOM     71  C   UNL A   1      36.007  32.077  32.045  1.00  0.00     0.006 A 
ENDBRANCH  50  64
BRANCH  51  72
ATOM     72  C   UNL A   1      47.618  26.919  29.479  1.00  0.00     0.057 A 
ATOM     73  C   UNL A   1      47.692  26.640  28.090  1.00  0.00     0.134 A 
ATOM     74  C   UNL A   1      48.560  26.247  30.272  1.00  0.00     0.134 A 
ATOM     75  F   UNL A   1      46.861  27.256  27.234  1.00  0.00    -0.206 F 
ATOM     76  C   UNL A   1      48.673  25.801  27.525  1.00  0.00     0.040 A 
ATOM     77  C   UNL A   1      49.573  25.443  29.714  1.00  0.00     0.040 A 
ATOM     78  F   UNL A   1      48.611  26.470  31.592  1.00  0.00    -0.206 F 
ATOM     79  C   UNL A   1      49.636  25.217  28.340  1.00  0.00     0.006 A 
ENDBRANCH  51  72
BRANCH  63  80
ATOM     80  C   UNL A   1      43.996  33.208  27.937  1.00  0.00     0.057 A 
ATOM     81  C   UNL A   1      44.092  33.173  26.543  1.00  0.00     0.134 A 
ATOM     82  C   UNL A   1      43.439  34.411  28.443  1.00  0.00     0.134 A 
ATOM     83  F   UNL A   1      44.524  32.111  25.865  1.00  0.00    -0.206 F 
ATOM     84  C   UNL A   1      43.699  34.236  25.727  1.00  0.00     0.040 A 
ATOM     85  C   UNL A   1      42.959  35.437  27.635  1.00  0.00     0.040 A 
ATOM     86  F   UNL A   1      43.306  34.672  29.749  1.00  0.00    -0.206 F 
ATOM     87  C   UNL A   1      43.105  35.361  26.268  1.00  0.00     0.006 A 
ENDBRANCH  63  80
ENDBRANCH  37  38
ENDBRANCH  30  32
ENDBRANCH  29  30
ENDBRANCH  28  29
ENDBRANCH  27  28
ENDBRANCH  26  27
ENDBRANCH   1  26
TORSDOF 18
ENDMDL
MODEL 2
REMARK VINA RESULT:     -11.4      3.182      8.960
REMARK SMILES Cc1ccc(NC(=O)C[C@@H](C(=O)OCCOCCOC(=O)c2ccc(-c3c4nc(c(-c5c(F)cccc5F)c5ccc([nH]5)c(-c5c(F)cccc5F)c5nc(c(-c6c(F)cccc6F)c6ccc3[nH]6)C=C5)C=C4)cc2)[NH+]2CCOCC2)cc1
REMARK SMILES IDX 15 1 14 2 13 3 11 4 12 5 10 6 9 7 7 8 6 9 8 11 5 12 1 13
REMARK SMILES IDX 2 14 3 15 83 16 4 17 82 18 76 19 77 20 81 21 78 23 80 24
REMARK SMILES IDX 79 25 16 26 17 27 18 28 19 29 20 30 21 31 22 32 23 33 75 34
REMARK SMILES IDX 24 35 74 36 25 37 26 38 27 39 68 40 28 41 73 42 67 43 69 44
REMARK SMILES IDX 29 45 72 46 66 47 65 48 30 50 56 51 39 52 55 53 40 54 43 55
REMARK SMILES IDX 54 56 70 57 41 58 42 59 53 61 71 62 44 63 31 64 32 65 37 66
REMARK SMILES IDX 33 67 34 68 36 69 38 70 35 71 57 72 58 73 63 74 59 75 60 76
REMARK SMILES IDX 62 77 64 78 61 79 45 80 46 81 51 82 47 83 48 84 50 85 52 86
REMARK SMILES IDX 49 87
REMARK H PARENT 6 10 76 22 69 49 43 60
REMARK Flexibility Score: inf
ROOT
ATOM      1  C   UNL A   1      32.550  28.420  26.464  1.00  0.00     0.202 C 
ENDROOT
BRANCH   1   2
ATOM      2  C   UNL A   1      31.305  26.597  27.093  1.00  0.00     0.261 C 
BRANCH   2   3
ATOM      3  O   UNL A   1      30.446  25.653  26.391  1.00  0.00    -0.459 OA
BRANCH   3   4
ATOM      4  C   UNL A   1      30.547  24.354  26.521  1.00  0.00     0.365 C 
ATOM      5  O   UNL A   1      29.820  23.680  27.230  1.00  0.00    -0.245 OA
BRANCH   4   6
ATOM      6  C   UNL A   1      31.573  23.880  25.503  1.00  0.00     0.304 C 
BRANCH   6   7
ATOM      7  C   UNL A   1      31.000  23.951  24.019  1.00  0.00     0.177 C 
BRANCH   7   8
ATOM      8  C   UNL A   1      31.795  24.579  22.847  1.00  0.00     0.231 C 
ATOM      9  N   UNL A   1      31.418  25.763  22.229  1.00  0.00    -0.326 N 
ATOM     10  H   UNL A   1      31.660  25.866  21.280  1.00  0.00     0.169 HD
ATOM     11  O   UNL A   1      32.810  24.022  22.415  1.00  0.00    -0.274 OA
BRANCH   9  12
ATOM     12  C   UNL A   1      30.713  26.848  22.835  1.00  0.00     0.041 A 
ATOM     13  C   UNL A   1      27.283  31.423  23.826  1.00  0.00     0.044 C 
ATOM     14  C   UNL A   1      27.826  30.023  23.360  1.00  0.00    -0.051 A 
ATOM     15  C   UNL A   1      29.729  30.286  22.904  1.00  0.00     0.005 A 
ATOM     16  C   UNL A   1      27.362  27.968  23.519  1.00  0.00     0.005 A 
ATOM     17  C   UNL A   1      30.898  28.787  22.381  1.00  0.00     0.026 A 
ATOM     18  C   UNL A   1      28.807  26.611  23.485  1.00  0.00     0.026 A 
ENDBRANCH   9  12
ENDBRANCH   7   8
ENDBRANCH   6   7
BRANCH   6  19
ATOM     19  N   UNL A   1      31.878  22.531  26.016  1.00  0.00    -0.319 N 
ATOM     20  C   UNL A   1      32.957  22.484  27.033  1.00  0.00     0.291 C 
ATOM     21  C   UNL A   1      31.927  21.388  25.134  1.00  0.00     0.291 C 
ATOM     22  H   UNL A   1      30.972  22.382  26.460  1.00  0.00     0.348 HD
ATOM     23  C   UNL A   1      34.322  22.258  26.412  1.00  0.00     0.221 C 
ATOM     24  C   UNL A   1      33.337  21.084  24.624  1.00  0.00     0.221 C 
ATOM     25  O   UNL A   1      34.318  21.041  25.668  1.00  0.00    -0.370 OA
ENDBRANCH   6  19
ENDBRANCH   4   6
ENDBRANCH   3   4
ENDBRANCH   2   3
ENDBRANCH   1   2
BRANCH   1  26
ATOM     26  O   UNL A   1      32.695  29.767  27.521  1.00  0.00    -0.374 OA
BRANCH  26  27
ATOM     27  C   UNL A   1      32.856  31.026  26.986  1.00  0.00     0.202 C 
BRANCH  27  28
ATOM     28  C   UNL A   1      34.014  31.777  27.610  1.00  0.00     0.261 C 
BRANCH  28  29
ATOM     29  O   UNL A   1      33.495  33.035  28.273  1.00  0.00    -0.460 OA
BRANCH  29  30
ATOM     30  C   UNL A   1      34.013  33.664  29.402  1.00  0.00     0.338 C 
ATOM     31  O   UNL A   1      33.364  34.510  30.011  1.00  0.00    -0.246 OA
BRANCH  30  32
ATOM     32  C   UNL A   1      35.404  33.115  30.074  1.00  0.00     0.060 A 
ATOM     33  C   UNL A   1      36.849  33.847  29.246  1.00  0.00     0.016 A 
ATOM     34  C   UNL A   1      36.018  31.359  30.883  1.00  0.00     0.016 A 
ATOM     35  C   UNL A   1      38.428  32.971  29.329  1.00  0.00     0.010 A 
ATOM     36  C   UNL A   1      37.696  30.886  30.862  1.00  0.00     0.010 A 
ATOM     37  C   UNL A   1      38.766  31.482  30.097  1.00  0.00    -0.014 A 
BRANCH  37  38
ATOM     38  C   UNL A   1      39.810  30.406  30.608  1.00  0.00     0.031 A 
ATOM     39  C   UNL A   1      39.949  29.204  29.700  1.00  0.00     0.074 A 
ATOM     40  C   UNL A   1      41.044  30.930  31.110  1.00  0.00     0.049 A 
ATOM     41  N   UNL A   1      40.226  27.985  30.044  1.00  0.00    -0.248 NA
ATOM     42  C   UNL A   1      39.736  29.327  28.244  1.00  0.00     0.031 C 
ATOM     43  C   UNL A   1      42.485  30.700  30.716  1.00  0.00     0.029 A 
ATOM     44  N   UNL A   1      41.238  32.218  31.687  1.00  0.00    -0.354 N 
ATOM     45  C   UNL A   1      40.562  27.330  28.857  1.00  0.00     0.074 A 
ATOM     46  C   UNL A   1      39.910  28.080  27.806  1.00  0.00     0.031 C 
ATOM     47  C   UNL A   1      43.331  31.545  31.377  1.00  0.00     0.029 A 
ATOM     48  C   UNL A   1      42.527  32.424  32.218  1.00  0.00     0.049 A 
ATOM     49  H   UNL A   1      40.533  32.905  31.713  1.00  0.00     0.167 HD
ATOM     50  C   UNL A   1      41.806  26.774  28.673  1.00  0.00     0.037 A 
ATOM     51  C   UNL A   1      42.594  32.664  33.548  1.00  0.00     0.037 A 
ATOM     52  C   UNL A   1      42.777  27.266  29.680  1.00  0.00     0.049 A 
ATOM     53  C   UNL A   1      42.688  31.271  34.126  1.00  0.00     0.074 A 
ATOM     54  C   UNL A   1      44.018  27.881  29.631  1.00  0.00     0.029 A 
ATOM     55  N   UNL A   1      42.383  27.392  31.015  1.00  0.00    -0.354 N 
ATOM     56  N   UNL A   1      42.632  30.206  33.368  1.00  0.00    -0.248 NA
ATOM     57  C   UNL A   1      43.045  30.933  35.483  1.00  0.00     0.031 C 
ATOM     58  C   UNL A   1      44.389  28.263  30.971  1.00  0.00     0.029 A 
ATOM     59  C   UNL A   1      43.352  27.932  31.839  1.00  0.00     0.049 A 
ATOM     60  H   UNL A   1      41.494  27.120  31.340  1.00  0.00     0.167 HD
ATOM     61  C   UNL A   1      43.061  29.100  33.996  1.00  0.00     0.074 A 
ATOM     62  C   UNL A   1      43.288  29.612  35.344  1.00  0.00     0.031 C 
ATOM     63  C   UNL A   1      43.164  27.909  33.316  1.00  0.00     0.037 A 
BRANCH  50  64
ATOM     64  C   UNL A   1      42.168  25.915  27.441  1.00  0.00     0.057 A 
ATOM     65  C   UNL A   1      42.862  26.461  26.341  1.00  0.00     0.134 A 
ATOM     66  C   UNL A   1      41.998  24.508  27.346  1.00  0.00     0.134 A 
ATOM     67  F   UNL A   1      43.161  27.764  26.278  1.00  0.00    -0.206 F 
ATOM     68  C   UNL A   1      43.334  25.695  25.255  1.00  0.00     0.040 A 
ATOM     69  C   UNL A   1      42.438  23.737  26.249  1.00  0.00     0.040 A 
ATOM     70  F   UNL A   1      41.448  23.793  28.336  1.00  0.00    -0.206 F 
ATOM     71  C   UNL A   1      43.124  24.328  25.203  1.00  0.00     0.006 A 
ENDBRANCH  50  64
BRANCH  51  72
ATOM     72  C   UNL A   1      41.720  33.851  33.884  1.00  0.00     0.057 A 
ATOM     73  C   UNL A   1      40.544  33.632  34.646  1.00  0.00     0.134 A 
ATOM     74  C   UNL A   1      42.217  35.162  33.919  1.00  0.00     0.134 A 
ATOM     75  F   UNL A   1      40.003  32.405  34.712  1.00  0.00    -0.206 F 
ATOM     76  C   UNL A   1      39.942  34.631  35.437  1.00  0.00     0.040 A 
ATOM     77  C   UNL A   1      41.651  36.157  34.741  1.00  0.00     0.040 A 
ATOM     78  F   UNL A   1      43.348  35.472  33.271  1.00  0.00    -0.206 F 
ATOM     79  C   UNL A   1      40.514  35.897  35.504  1.00  0.00     0.006 A 
ENDBRANCH  51  72
BRANCH  63  80
ATOM     80  C   UNL A   1      43.047  26.552  33.979  1.00  0.00     0.057 A 
ATOM     81  C   UNL A   1      44.070  25.602  34.039  1.00  0.00     0.134 A 
ATOM     82  C   UNL A   1      41.902  26.212  34.745  1.00  0.00     0.134 A 
ATOM     83  F   UNL A   1      45.252  25.760  33.447  1.00  0.00    -0.206 F 
ATOM     84  C   UNL A   1      43.963  24.415  34.767  1.00  0.00     0.040 A 
ATOM     85  C   UNL A   1      41.822  25.077  35.547  1.00  0.00     0.040 A 
ATOM     86  F   UNL A   1      40.791  26.956  34.785  1.00  0.00    -0.206 F 
ATOM     87  C   UNL A   1      42.850  24.161  35.546  1.00  0.00     0.006 A 
ENDBRANCH  63  80
ENDBRANCH  37  38
ENDBRANCH  30  32
ENDBRANCH  29  30
ENDBRANCH  28  29
ENDBRANCH  27  28
ENDBRANCH  26  27
ENDBRANCH   1  26
TORSDOF 18
ENDMDL
MODEL 3
REMARK VINA RESULT:     -11.3      1.876      4.280
REMARK SMILES Cc1ccc(NC(=O)C[C@@H](C(=O)OCCOCCOC(=O)c2ccc(-c3c4nc(c(-c5c(F)cccc5F)c5ccc([nH]5)c(-c5c(F)cccc5F)c5nc(c(-c6c(F)cccc6F)c6ccc3[nH]6)C=C5)C=C4)cc2)[NH+]2CCOCC2)cc1
REMARK SMILES IDX 15 1 14 2 13 3 11 4 12 5 10 6 9 7 7 8 6 9 8 11 5 12 1 13
REMARK SMILES IDX 2 14 3 15 83 16 4 17 82 18 76 19 77 20 81 21 78 23 80 24
REMARK SMILES IDX 79 25 16 26 17 27 18 28 19 29 20 30 21 31 22 32 23 33 75 34
REMARK SMILES IDX 24 35 74 36 25 37 26 38 27 39 68 40 28 41 73 42 67 43 69 44
REMARK SMILES IDX 29 45 72 46 66 47 65 48 30 50 56 51 39 52 55 53 40 54 43 55
REMARK SMILES IDX 54 56 70 57 41 58 42 59 53 61 71 62 44 63 31 64 32 65 37 66
REMARK SMILES IDX 33 67 34 68 36 69 38 70 35 71 57 72 58 73 63 74 59 75 60 76
REMARK SMILES IDX 62 77 64 78 61 79 45 80 46 81 51 82 47 83 48 84 50 85 52 86
REMARK SMILES IDX 49 87
REMARK H PARENT 6 10 76 22 69 49 43 60
REMARK Flexibility Score: inf
ROOT
ATOM      1  C   UNL A   1      38.431  23.117  26.080  1.00  0.00     0.202 C 
ENDROOT
BRANCH   1   2
ATOM      2  C   UNL A   1      36.754  22.914  24.527  1.00  0.00     0.261 C 
BRANCH   2   3
ATOM      3  O   UNL A   1      35.577  22.064  24.397  1.00  0.00    -0.459 OA
BRANCH   3   4
ATOM      4  C   UNL A   1      35.539  20.821  24.804  1.00  0.00     0.365 C 
ATOM      5  O   UNL A   1      36.465  20.255  25.358  1.00  0.00    -0.245 OA
BRANCH   4   6
ATOM      6  C   UNL A   1      34.108  20.335  24.628  1.00  0.00     0.304 C 
BRANCH   6   7
ATOM      7  C   UNL A   1      33.070  21.301  25.352  1.00  0.00     0.177 C 
BRANCH   7   8
ATOM      8  C   UNL A   1      33.434  22.119  26.617  1.00  0.00     0.231 C 
ATOM      9  N   UNL A   1      33.626  23.493  26.597  1.00  0.00    -0.326 N 
ATOM     10  H   UNL A   1      34.253  23.864  27.259  1.00  0.00     0.169 HD
ATOM     11  O   UNL A   1      33.572  21.551  27.707  1.00  0.00    -0.274 OA
BRANCH   9  12
ATOM     12  C   UNL A   1      33.004  24.422  25.708  1.00  0.00     0.041 A 
ATOM     13  C   UNL A   1      29.939  28.808  23.461  1.00  0.00     0.044 C 
ATOM     14  C   UNL A   1      30.933  27.961  24.336  1.00  0.00    -0.051 A 
ATOM     15  C   UNL A   1      30.112  26.177  24.545  1.00  0.00     0.005 A 
ATOM     16  C   UNL A   1      32.965  27.932  24.915  1.00  0.00     0.005 A 
ATOM     17  C   UNL A   1      31.037  24.699  25.465  1.00  0.00     0.026 A 
ATOM     18  C   UNL A   1      33.868  26.212  25.309  1.00  0.00     0.026 A 
ENDBRANCH   9  12
ENDBRANCH   7   8
ENDBRANCH   6   7
BRANCH   6  19
ATOM     19  N   UNL A   1      34.206  18.966  25.168  1.00  0.00    -0.319 N 
ATOM     20  C   UNL A   1      34.909  18.001  24.288  1.00  0.00     0.291 C 
ATOM     21  C   UNL A   1      33.092  18.350  25.852  1.00  0.00     0.291 C 
ATOM     22  H   UNL A   1      34.797  19.210  25.962  1.00  0.00     0.348 HD
ATOM     23  C   UNL A   1      33.958  17.273  23.358  1.00  0.00     0.221 C 
ATOM     24  C   UNL A   1      32.217  17.500  24.928  1.00  0.00     0.221 C 
ATOM     25  O   UNL A   1      32.970  16.583  24.122  1.00  0.00    -0.370 OA
ENDBRANCH   6  19
ENDBRANCH   4   6
ENDBRANCH   3   4
ENDBRANCH   2   3
ENDBRANCH   1   2
BRANCH   1  26
ATOM     26  O   UNL A   1      39.800  22.080  26.006  1.00  0.00    -0.374 OA
BRANCH  26  27
ATOM     27  C   UNL A   1      39.695  20.793  26.485  1.00  0.00     0.202 C 
BRANCH  27  28
ATOM     28  C   UNL A   1      40.946  19.978  26.237  1.00  0.00     0.261 C 
BRANCH  28  29
ATOM     29  O   UNL A   1      41.934  20.806  25.443  1.00  0.00    -0.460 OA
BRANCH  29  30
ATOM     30  C   UNL A   1      43.248  21.107  25.791  1.00  0.00     0.338 C 
ATOM     31  O   UNL A   1      44.184  20.423  25.386  1.00  0.00    -0.246 OA
BRANCH  30  32
ATOM     32  C   UNL A   1      43.586  22.519  26.553  1.00  0.00     0.060 A 
ATOM     33  C   UNL A   1      42.849  22.542  28.216  1.00  0.00     0.016 A 
ATOM     34  C   UNL A   1      43.798  24.452  25.977  1.00  0.00     0.016 A 
ATOM     35  C   UNL A   1      42.513  24.141  28.990  1.00  0.00     0.010 A 
ATOM     36  C   UNL A   1      43.466  25.768  27.071  1.00  0.00     0.010 A 
ATOM     37  C   UNL A   1      42.790  25.700  28.347  1.00  0.00    -0.014 A 
BRANCH  37  38
ATOM     38  C   UNL A   1      42.864  27.271  28.536  1.00  0.00     0.031 A 
ATOM     39  C   UNL A   1      41.515  27.931  28.727  1.00  0.00     0.074 A 
ATOM     40  C   UNL A   1      43.896  27.742  29.408  1.00  0.00     0.049 A 
ATOM     41  N   UNL A   1      41.164  29.123  28.358  1.00  0.00    -0.248 NA
ATOM     42  C   UNL A   1      40.403  27.206  29.371  1.00  0.00     0.031 C 
ATOM     43  C   UNL A   1      43.865  28.578  30.667  1.00  0.00     0.029 A 
ATOM     44  N   UNL A   1      45.131  27.086  29.681  1.00  0.00    -0.354 N 
ATOM     45  C   UNL A   1      39.968  29.383  29.031  1.00  0.00     0.074 A 
ATOM     46  C   UNL A   1      39.402  28.085  29.326  1.00  0.00     0.031 C 
ATOM     47  C   UNL A   1      45.094  28.648  31.258  1.00  0.00     0.029 A 
ATOM     48  C   UNL A   1      46.020  27.836  30.476  1.00  0.00     0.049 A 
ATOM     49  H   UNL A   1      45.344  26.185  29.344  1.00  0.00     0.167 HD
ATOM     50  C   UNL A   1      39.857  30.429  29.917  1.00  0.00     0.037 A 
ATOM     51  C   UNL A   1      47.202  28.163  29.904  1.00  0.00     0.037 A 
ATOM     52  C   UNL A   1      41.187  30.956  30.306  1.00  0.00     0.049 A 
ATOM     53  C   UNL A   1      46.880  29.466  29.212  1.00  0.00     0.074 A 
ATOM     54  C   UNL A   1      41.850  31.168  31.506  1.00  0.00     0.029 A 
ATOM     55  N   UNL A   1      42.180  31.114  29.334  1.00  0.00    -0.354 N 
ATOM     56  N   UNL A   1      45.671  29.967  29.216  1.00  0.00    -0.248 NA
ATOM     57  C   UNL A   1      47.834  30.398  28.661  1.00  0.00     0.031 C 
ATOM     58  C   UNL A   1      43.205  31.561  31.214  1.00  0.00     0.029 A 
ATOM     59  C   UNL A   1      43.396  31.538  29.835  1.00  0.00     0.049 A 
ATOM     60  H   UNL A   1      42.026  30.937  28.378  1.00  0.00     0.167 HD
ATOM     61  C   UNL A   1      45.645  31.260  28.853  1.00  0.00     0.074 A 
ATOM     62  C   UNL A   1      47.041  31.477  28.488  1.00  0.00     0.031 C 
ATOM     63  C   UNL A   1      44.470  31.972  28.899  1.00  0.00     0.037 A 
BRANCH  50  64
ATOM     64  C   UNL A   1      38.518  30.842  30.567  1.00  0.00     0.057 A 
ATOM     65  C   UNL A   1      37.497  31.464  29.818  1.00  0.00     0.134 A 
ATOM     66  C   UNL A   1      38.113  30.512  31.887  1.00  0.00     0.134 A 
ATOM     67  F   UNL A   1      37.676  31.802  28.535  1.00  0.00    -0.206 F 
ATOM     68  C   UNL A   1      36.211  31.739  30.325  1.00  0.00     0.040 A 
ATOM     69  C   UNL A   1      36.840  30.811  32.416  1.00  0.00     0.040 A 
ATOM     70  F   UNL A   1      38.910  29.831  32.722  1.00  0.00    -0.206 F 
ATOM     71  C   UNL A   1      35.874  31.414  31.628  1.00  0.00     0.006 A 
ENDBRANCH  50  64
BRANCH  51  72
ATOM     72  C   UNL A   1      47.893  26.902  29.437  1.00  0.00     0.057 A 
ATOM     73  C   UNL A   1      48.088  26.713  28.045  1.00  0.00     0.134 A 
ATOM     74  C   UNL A   1      48.758  26.170  30.264  1.00  0.00     0.134 A 
ATOM     75  F   UNL A   1      47.339  27.393  27.161  1.00  0.00    -0.206 F 
ATOM     76  C   UNL A   1      49.111  25.902  27.514  1.00  0.00     0.040 A 
ATOM     77  C   UNL A   1      49.813  25.392  29.745  1.00  0.00     0.040 A 
ATOM     78  F   UNL A   1      48.693  26.305  31.595  1.00  0.00    -0.206 F 
ATOM     79  C   UNL A   1      49.995  25.256  28.370  1.00  0.00     0.006 A 
ENDBRANCH  51  72
BRANCH  63  80
ATOM     80  C   UNL A   1      44.174  33.161  28.008  1.00  0.00     0.057 A 
ATOM     81  C   UNL A   1      44.201  33.139  26.611  1.00  0.00     0.134 A 
ATOM     82  C   UNL A   1      43.680  34.374  28.553  1.00  0.00     0.134 A 
ATOM     83  F   UNL A   1      44.566  32.072  25.902  1.00  0.00    -0.206 F 
ATOM     84  C   UNL A   1      43.800  34.222  25.826  1.00  0.00     0.040 A 
ATOM     85  C   UNL A   1      43.192  35.423  27.780  1.00  0.00     0.040 A 
ATOM     86  F   UNL A   1      43.619  34.625  29.867  1.00  0.00    -0.206 F 
ATOM     87  C   UNL A   1      43.268  35.358  26.406  1.00  0.00     0.006 A 
ENDBRANCH  63  80
ENDBRANCH  37  38
ENDBRANCH  30  32
ENDBRANCH  29  30
ENDBRANCH  28  29
ENDBRANCH  27  28
ENDBRANCH  26  27
ENDBRANCH   1  26
TORSDOF 18
ENDMDL
