MODEL 1
REMARK VINA RESULT:     -11.0      0.000      0.000
REMARK SMILES Cc1cnc(NC(=O)NC[C@H]2CC[C@H](C(=O)OCCOCCOC(=O)c3ccc(-c4c5nc(c(-c6c(F)cccc6F)c6ccc([nH]6)c(-c6c(F)cccc6F)c6nc(c(-c7c(F)cccc7F)c7ccc4[nH]7)C=C6)C=C5)cc3)O2)s1
REMARK SMILES IDX 19 1 18 2 17 3 15 4 16 5 14 6 11 7 12 8 80 9 13 10 10 11
REMARK SMILES IDX 9 12 6 13 7 14 8 16 5 18 1 19 2 20 3 21 81 22 4 23 20 24
REMARK SMILES IDX 21 25 22 26 23 27 24 28 25 29 26 30 27 31 79 32 28 33 78 34
REMARK SMILES IDX 29 35 30 36 31 37 72 38 32 39 77 40 71 41 73 42 33 43 76 44
REMARK SMILES IDX 70 45 69 46 34 48 60 49 43 50 59 51 44 52 47 53 58 54 74 55
REMARK SMILES IDX 45 56 46 57 57 59 75 60 48 61 35 62 36 63 41 64 37 65 38 66
REMARK SMILES IDX 40 67 42 68 39 69 61 70 62 71 67 72 63 73 64 74 66 75 68 76
REMARK SMILES IDX 65 77 49 78 50 79 55 80 51 81 52 82 54 83 56 84 53 85
REMARK H PARENT 6 15 9 17 73 47 47 58
REMARK Flexibility Score: inf
ROOT
ATOM      1  C   UNL A   1      45.802  19.792  24.515  1.00  0.00     0.202 C 
ENDROOT
BRANCH   1   2
ATOM      2  C   UNL A   1      44.987  18.773  25.315  1.00  0.00     0.261 C 
BRANCH   2   3
ATOM      3  O   UNL A   1      43.632  19.220  25.504  1.00  0.00    -0.461 OA
BRANCH   3   4
ATOM      4  C   UNL A   1      42.880  18.512  26.395  1.00  0.00     0.335 C 
ATOM      5  O   UNL A   1      43.056  17.330  26.668  1.00  0.00    -0.249 OA
BRANCH   4   6
ATOM      6  C   UNL A   1      41.764  19.363  27.018  1.00  0.00     0.228 C 
ATOM      7  C   UNL A   1      40.452  20.794  25.718  1.00  0.00     0.138 C 
ATOM      8  C   UNL A   1      41.705  21.553  26.134  1.00  0.00     0.037 C 
ATOM      9  O   UNL A   1      40.640  19.429  26.124  1.00  0.00    -0.361 OA
ATOM     10  C   UNL A   1      42.141  20.799  27.361  1.00  0.00     0.047 C 
BRANCH   7  11
ATOM     11  C   UNL A   1      39.172  21.395  26.331  1.00  0.00     0.149 C 
BRANCH  11  12
ATOM     12  N   UNL A   1      39.207  22.820  26.626  1.00  0.00    -0.335 N 
ATOM     13  N   UNL A   1      37.231  23.950  25.888  1.00  0.00    -0.284 N 
ATOM     14  C   UNL A   1      38.424  23.895  26.490  1.00  0.00     0.321 C 
ATOM     15  H   UNL A   1      36.920  24.869  25.727  1.00  0.00     0.174 HD
ATOM     16  O   UNL A   1      38.913  24.971  26.859  1.00  0.00    -0.248 OA
ATOM     17  H   UNL A   1      40.061  23.066  27.052  1.00  0.00     0.165 HD
BRANCH  13  18
ATOM     18  C   UNL A   1      36.359  23.008  25.450  1.00  0.00     0.190 A 
ATOM     19  C   UNL A   1      33.243  21.674  23.714  1.00  0.00     0.058 C 
ATOM     20  C   UNL A   1      34.531  21.888  24.416  1.00  0.00     0.023 A 
ATOM     21  C   UNL A   1      35.026  21.280  25.552  1.00  0.00     0.128 A 
ATOM     22  S   UNL A   1      35.680  23.051  23.885  1.00  0.00    -0.102 S 
ATOM     23  N   UNL A   1      36.122  21.902  26.116  1.00  0.00    -0.228 NA
ENDBRANCH  13  18
ENDBRANCH  11  12
ENDBRANCH   7  11
ENDBRANCH   4   6
ENDBRANCH   3   4
ENDBRANCH   2   3
ENDBRANCH   1   2
BRANCH   1  24
ATOM     24  O   UNL A   1      46.404  20.849  25.263  1.00  0.00    -0.374 OA
BRANCH  24  25
ATOM     25  C   UNL A   1      45.624  22.022  25.485  1.00  0.00     0.202 C 
BRANCH  25  26
ATOM     26  C   UNL A   1      45.003  22.674  24.242  1.00  0.00     0.261 C 
BRANCH  26  27
ATOM     27  O   UNL A   1      44.079  23.729  24.569  1.00  0.00    -0.460 OA
BRANCH  27  28
ATOM     28  C   UNL A   1      44.662  24.863  25.023  1.00  0.00     0.338 C 
ATOM     29  O   UNL A   1      45.732  25.344  24.662  1.00  0.00    -0.246 OA
BRANCH  28  30
ATOM     30  C   UNL A   1      43.762  25.588  25.935  1.00  0.00     0.060 A 
ATOM     31  C   UNL A   1      43.974  26.965  26.082  1.00  0.00     0.016 A 
ATOM     32  C   UNL A   1      42.815  24.928  26.722  1.00  0.00     0.016 A 
ATOM     33  C   UNL A   1      43.280  27.677  27.057  1.00  0.00     0.010 A 
ATOM     34  C   UNL A   1      42.121  25.647  27.705  1.00  0.00     0.010 A 
ATOM     35  C   UNL A   1      42.380  27.016  27.905  1.00  0.00    -0.014 A 
BRANCH  35  36
ATOM     36  C   UNL A   1      41.837  27.744  29.079  1.00  0.00     0.031 A 
ATOM     37  C   UNL A   1      42.541  27.633  30.405  1.00  0.00     0.074 A 
ATOM     38  C   UNL A   1      40.775  28.559  28.950  1.00  0.00     0.049 A 
ATOM     39  N   UNL A   1      42.262  28.216  31.544  1.00  0.00    -0.248 NA
ATOM     40  C   UNL A   1      43.716  26.750  30.454  1.00  0.00     0.031 C 
ATOM     41  C   UNL A   1      40.025  28.780  27.715  1.00  0.00     0.029 A 
ATOM     42  N   UNL A   1      40.147  29.357  29.874  1.00  0.00    -0.354 N 
ATOM     43  C   UNL A   1      43.233  27.783  32.439  1.00  0.00     0.074 A 
ATOM     44  C   UNL A   1      44.081  26.853  31.724  1.00  0.00     0.031 C 
ATOM     45  C   UNL A   1      39.034  29.655  27.958  1.00  0.00     0.029 A 
ATOM     46  C   UNL A   1      39.067  30.039  29.368  1.00  0.00     0.049 A 
ATOM     47  H   UNL A   1      40.444  29.435  30.809  1.00  0.00     0.167 HD
ATOM     48  C   UNL A   1      43.415  28.141  33.733  1.00  0.00     0.037 A 
ATOM     49  C   UNL A   1      38.198  30.870  29.976  1.00  0.00     0.037 A 
ATOM     50  C   UNL A   1      42.572  29.061  34.450  1.00  0.00     0.049 A 
ATOM     51  C   UNL A   1      38.385  31.204  31.433  1.00  0.00     0.074 A 
ATOM     52  C   UNL A   1      42.673  29.477  35.767  1.00  0.00     0.029 A 
ATOM     53  N   UNL A   1      41.470  29.705  33.911  1.00  0.00    -0.354 N 
ATOM     54  N   UNL A   1      39.317  30.798  32.261  1.00  0.00    -0.248 NA
ATOM     55  C   UNL A   1      37.405  32.118  32.034  1.00  0.00     0.031 C 
ATOM     56  C   UNL A   1      41.609  30.345  36.035  1.00  0.00     0.029 A 
ATOM     57  C   UNL A   1      40.873  30.505  34.873  1.00  0.00     0.049 A 
ATOM     58  H   UNL A   1      41.158  29.610  32.982  1.00  0.00     0.167 HD
ATOM     59  C   UNL A   1      39.049  31.426  33.472  1.00  0.00     0.074 A 
ATOM     60  C   UNL A   1      37.879  32.254  33.265  1.00  0.00     0.031 C 
ATOM     61  C   UNL A   1      39.710  31.326  34.652  1.00  0.00     0.037 A 
BRANCH  48  62
ATOM     62  C   UNL A   1      44.574  27.526  34.461  1.00  0.00     0.057 A 
ATOM     63  C   UNL A   1      45.815  28.171  34.546  1.00  0.00     0.134 A 
ATOM     64  C   UNL A   1      44.439  26.296  35.117  1.00  0.00     0.134 A 
ATOM     65  F   UNL A   1      46.014  29.345  33.928  1.00  0.00    -0.206 F 
ATOM     66  C   UNL A   1      46.885  27.607  35.243  1.00  0.00     0.040 A 
ATOM     67  C   UNL A   1      45.494  25.733  35.837  1.00  0.00     0.040 A 
ATOM     68  F   UNL A   1      43.277  25.627  35.078  1.00  0.00    -0.206 F 
ATOM     69  C   UNL A   1      46.723  26.387  35.897  1.00  0.00     0.006 A 
ENDBRANCH  48  62
BRANCH  49  70
ATOM     70  C   UNL A   1      37.057  31.437  29.216  1.00  0.00     0.057 A 
ATOM     71  C   UNL A   1      37.081  32.748  28.729  1.00  0.00     0.134 A 
ATOM     72  C   UNL A   1      35.897  30.686  28.986  1.00  0.00     0.134 A 
ATOM     73  F   UNL A   1      38.155  33.526  28.938  1.00  0.00    -0.206 F 
ATOM     74  C   UNL A   1      35.986  33.301  28.060  1.00  0.00     0.040 A 
ATOM     75  C   UNL A   1      34.806  31.216  28.298  1.00  0.00     0.040 A 
ATOM     76  F   UNL A   1      35.812  29.422  29.427  1.00  0.00    -0.206 F 
ATOM     77  C   UNL A   1      34.846  32.531  27.841  1.00  0.00     0.006 A 
ENDBRANCH  49  70
BRANCH  61  78
ATOM     78  C   UNL A   1      39.200  32.150  35.798  1.00  0.00     0.057 A 
ATOM     79  C   UNL A   1      39.624  33.468  36.007  1.00  0.00     0.134 A 
ATOM     80  C   UNL A   1      38.254  31.625  36.688  1.00  0.00     0.134 A 
ATOM     81  F   UNL A   1      40.536  34.025  35.197  1.00  0.00    -0.206 F 
ATOM     82  C   UNL A   1      39.146  34.226  37.077  1.00  0.00     0.040 A 
ATOM     83  C   UNL A   1      37.751  32.381  37.747  1.00  0.00     0.040 A 
ATOM     84  F   UNL A   1      37.799  30.371  36.540  1.00  0.00    -0.206 F 
ATOM     85  C   UNL A   1      38.202  33.685  37.948  1.00  0.00     0.006 A 
ENDBRANCH  61  78
ENDBRANCH  35  36
ENDBRANCH  28  30
ENDBRANCH  27  28
ENDBRANCH  26  27
ENDBRANCH  25  26
ENDBRANCH  24  25
ENDBRANCH   1  24
TORSDOF 17
ENDMDL
MODEL 2
REMARK VINA RESULT:     -10.9      2.256      3.519
REMARK SMILES Cc1cnc(NC(=O)NC[C@H]2CC[C@H](C(=O)OCCOCCOC(=O)c3ccc(-c4c5nc(c(-c6c(F)cccc6F)c6ccc([nH]6)c(-c6c(F)cccc6F)c6nc(c(-c7c(F)cccc7F)c7ccc4[nH]7)C=C6)C=C5)cc3)O2)s1
REMARK SMILES IDX 19 1 18 2 17 3 15 4 16 5 14 6 11 7 12 8 80 9 13 10 10 11
REMARK SMILES IDX 9 12 6 13 7 14 8 16 5 18 1 19 2 20 3 21 81 22 4 23 20 24
REMARK SMILES IDX 21 25 22 26 23 27 24 28 25 29 26 30 27 31 79 32 28 33 78 34
REMARK SMILES IDX 29 35 30 36 31 37 72 38 32 39 77 40 71 41 73 42 33 43 76 44
REMARK SMILES IDX 70 45 69 46 34 48 60 49 43 50 59 51 44 52 47 53 58 54 74 55
REMARK SMILES IDX 45 56 46 57 57 59 75 60 48 61 35 62 36 63 41 64 37 65 38 66
REMARK SMILES IDX 40 67 42 68 39 69 61 70 62 71 67 72 63 73 64 74 66 75 68 76
REMARK SMILES IDX 65 77 49 78 50 79 55 80 51 81 52 82 54 83 56 84 53 85
REMARK H PARENT 6 15 9 17 73 47 47 58
REMARK Flexibility Score: inf
ROOT
ATOM      1  C   UNL A   1      41.132  21.837  27.480  1.00  0.00     0.202 C 
ENDROOT
BRANCH   1   2
ATOM      2  C   UNL A   1      40.124  21.413  26.409  1.00  0.00     0.261 C 
BRANCH   2   3
ATOM      3  O   UNL A   1      38.990  22.298  26.379  1.00  0.00    -0.461 OA
BRANCH   3   4
ATOM      4  C   UNL A   1      37.992  21.973  25.508  1.00  0.00     0.335 C 
ATOM      5  O   UNL A   1      37.662  20.827  25.225  1.00  0.00    -0.249 OA
BRANCH   4   6
ATOM      6  C   UNL A   1      37.325  23.215  24.900  1.00  0.00     0.228 C 
ATOM      7  C   UNL A   1      35.010  23.516  24.977  1.00  0.00     0.138 C 
ATOM      8  C   UNL A   1      35.335  22.689  23.740  1.00  0.00     0.037 C 
ATOM      9  O   UNL A   1      36.227  23.638  25.727  1.00  0.00    -0.361 OA
ATOM     10  C   UNL A   1      36.775  23.046  23.489  1.00  0.00     0.047 C 
BRANCH   7  11
ATOM     11  C   UNL A   1      34.425  24.896  24.620  1.00  0.00     0.149 C 
BRANCH  11  12
ATOM     12  N   UNL A   1      34.160  25.140  23.209  1.00  0.00    -0.335 N 
ATOM     13  N   UNL A   1      32.104  26.311  22.858  1.00  0.00    -0.284 N 
ATOM     14  C   UNL A   1      33.240  25.740  22.447  1.00  0.00     0.321 C 
ATOM     15  H   UNL A   1      31.483  26.514  22.122  1.00  0.00     0.174 HD
ATOM     16  O   UNL A   1      33.409  25.649  21.223  1.00  0.00    -0.248 OA
ATOM     17  H   UNL A   1      34.870  24.746  22.651  1.00  0.00     0.165 HD
BRANCH  13  18
ATOM     18  C   UNL A   1      31.622  26.668  24.075  1.00  0.00     0.190 A 
ATOM     19  C   UNL A   1      31.755  28.137  27.586  1.00  0.00     0.058 C 
ATOM     20  C   UNL A   1      31.394  27.542  26.277  1.00  0.00     0.023 A 
ATOM     21  C   UNL A   1      30.606  26.444  25.996  1.00  0.00     0.128 A 
ATOM     22  S   UNL A   1      31.984  28.174  24.792  1.00  0.00    -0.102 S 
ATOM     23  N   UNL A   1      30.699  25.976  24.700  1.00  0.00    -0.228 NA
ENDBRANCH  13  18
ENDBRANCH  11  12
ENDBRANCH   7  11
ENDBRANCH   4   6
ENDBRANCH   3   4
ENDBRANCH   2   3
ENDBRANCH   1   2
BRANCH   1  24
ATOM     24  O   UNL A   1      42.502  21.530  27.217  1.00  0.00    -0.374 OA
BRANCH  24  25
ATOM     25  C   UNL A   1      42.844  21.138  25.890  1.00  0.00     0.202 C 
BRANCH  25  26
ATOM     26  C   UNL A   1      43.909  21.986  25.181  1.00  0.00     0.261 C 
BRANCH  26  27
ATOM     27  O   UNL A   1      43.375  23.208  24.635  1.00  0.00    -0.460 OA
BRANCH  27  28
ATOM     28  C   UNL A   1      44.086  24.317  24.944  1.00  0.00     0.338 C 
ATOM     29  O   UNL A   1      45.178  24.649  24.493  1.00  0.00    -0.246 OA
BRANCH  28  30
ATOM     30  C   UNL A   1      43.307  25.217  25.810  1.00  0.00     0.060 A 
ATOM     31  C   UNL A   1      43.913  26.419  26.194  1.00  0.00     0.016 A 
ATOM     32  C   UNL A   1      42.065  24.849  26.335  1.00  0.00     0.016 A 
ATOM     33  C   UNL A   1      43.308  27.231  27.150  1.00  0.00     0.010 A 
ATOM     34  C   UNL A   1      41.461  25.666  27.300  1.00  0.00     0.010 A 
ATOM     35  C   UNL A   1      42.099  26.840  27.742  1.00  0.00    -0.014 A 
BRANCH  35  36
ATOM     36  C   UNL A   1      41.601  27.597  28.918  1.00  0.00     0.031 A 
ATOM     37  C   UNL A   1      42.326  27.479  30.232  1.00  0.00     0.074 A 
ATOM     38  C   UNL A   1      40.561  28.442  28.800  1.00  0.00     0.049 A 
ATOM     39  N   UNL A   1      42.087  28.083  31.369  1.00  0.00    -0.248 NA
ATOM     40  C   UNL A   1      43.476  26.563  30.269  1.00  0.00     0.031 C 
ATOM     41  C   UNL A   1      39.794  28.672  27.577  1.00  0.00     0.029 A 
ATOM     42  N   UNL A   1      39.975  29.269  29.726  1.00  0.00    -0.354 N 
ATOM     43  C   UNL A   1      43.062  27.631  32.250  1.00  0.00     0.074 A 
ATOM     44  C   UNL A   1      43.868  26.668  31.530  1.00  0.00     0.031 C 
ATOM     45  C   UNL A   1      38.834  29.578  27.830  1.00  0.00     0.029 A 
ATOM     46  C   UNL A   1      38.906  29.977  29.234  1.00  0.00     0.049 A 
ATOM     47  H   UNL A   1      40.292  29.347  30.655  1.00  0.00     0.167 HD
ATOM     48  C   UNL A   1      43.280  27.997  33.536  1.00  0.00     0.037 A 
ATOM     49  C   UNL A   1      38.074  30.840  29.849  1.00  0.00     0.037 A 
ATOM     50  C   UNL A   1      42.478  28.949  34.259  1.00  0.00     0.049 A 
ATOM     51  C   UNL A   1      38.300  31.184  31.298  1.00  0.00     0.074 A 
ATOM     52  C   UNL A   1      42.617  29.377  35.568  1.00  0.00     0.029 A 
ATOM     53  N   UNL A   1      41.386  29.621  33.733  1.00  0.00    -0.354 N 
ATOM     54  N   UNL A   1      39.235  30.759  32.113  1.00  0.00    -0.248 NA
ATOM     55  C   UNL A   1      37.358  32.134  31.907  1.00  0.00     0.031 C 
ATOM     56  C   UNL A   1      41.585  30.280  35.847  1.00  0.00     0.029 A 
ATOM     57  C   UNL A   1      40.832  30.448  34.697  1.00  0.00     0.049 A 
ATOM     58  H   UNL A   1      41.054  29.525  32.812  1.00  0.00     0.167 HD
ATOM     59  C   UNL A   1      39.009  31.408  33.321  1.00  0.00     0.074 A 
ATOM     60  C   UNL A   1      37.861  32.268  33.127  1.00  0.00     0.031 C 
ATOM     61  C   UNL A   1      39.690  31.301  34.489  1.00  0.00     0.037 A 
BRANCH  48  62
ATOM     62  C   UNL A   1      44.434  27.355  34.249  1.00  0.00     0.057 A 
ATOM     63  C   UNL A   1      44.318  26.093  34.845  1.00  0.00     0.134 A 
ATOM     64  C   UNL A   1      45.683  27.986  34.308  1.00  0.00     0.134 A 
ATOM     65  F   UNL A   1      43.145  25.441  34.837  1.00  0.00    -0.206 F 
ATOM     66  C   UNL A   1      45.399  25.488  35.490  1.00  0.00     0.040 A 
ATOM     67  C   UNL A   1      46.777  27.381  34.929  1.00  0.00     0.040 A 
ATOM     68  F   UNL A   1      45.862  29.194  33.755  1.00  0.00    -0.206 F 
ATOM     69  C   UNL A   1      46.635  26.130  35.527  1.00  0.00     0.006 A 
ENDBRANCH  48  62
BRANCH  49  70
ATOM     70  C   UNL A   1      36.936  31.432  29.104  1.00  0.00     0.057 A 
ATOM     71  C   UNL A   1      36.973  32.751  28.638  1.00  0.00     0.134 A 
ATOM     72  C   UNL A   1      35.767  30.698  28.868  1.00  0.00     0.134 A 
ATOM     73  F   UNL A   1      38.056  33.513  28.855  1.00  0.00    -0.206 F 
ATOM     74  C   UNL A   1      35.881  33.327  27.985  1.00  0.00     0.040 A 
ATOM     75  C   UNL A   1      34.677  31.253  28.194  1.00  0.00     0.040 A 
ATOM     76  F   UNL A   1      35.669  29.428  29.288  1.00  0.00    -0.206 F 
ATOM     77  C   UNL A   1      34.731  32.574  27.759  1.00  0.00     0.006 A 
ENDBRANCH  49  70
BRANCH  61  78
ATOM     78  C   UNL A   1      39.226  32.152  35.635  1.00  0.00     0.057 A 
ATOM     79  C   UNL A   1      39.643  33.481  35.785  1.00  0.00     0.134 A 
ATOM     80  C   UNL A   1      38.334  31.643  36.587  1.00  0.00     0.134 A 
ATOM     81  F   UNL A   1      40.506  34.025  34.913  1.00  0.00    -0.206 F 
ATOM     82  C   UNL A   1      39.209  34.265  36.855  1.00  0.00     0.040 A 
ATOM     83  C   UNL A   1      37.874  32.424  37.648  1.00  0.00     0.040 A 
ATOM     84  F   UNL A   1      37.889  30.380  36.498  1.00  0.00    -0.206 F 
ATOM     85  C   UNL A   1      38.317  33.739  37.788  1.00  0.00     0.006 A 
ENDBRANCH  61  78
ENDBRANCH  35  36
ENDBRANCH  28  30
ENDBRANCH  27  28
ENDBRANCH  26  27
ENDBRANCH  25  26
ENDBRANCH  24  25
ENDBRANCH   1  24
TORSDOF 17
ENDMDL
MODEL 3
REMARK VINA RESULT:     -10.5      4.928      9.755
REMARK SMILES Cc1cnc(NC(=O)NC[C@H]2CC[C@H](C(=O)OCCOCCOC(=O)c3ccc(-c4c5nc(c(-c6c(F)cccc6F)c6ccc([nH]6)c(-c6c(F)cccc6F)c6nc(c(-c7c(F)cccc7F)c7ccc4[nH]7)C=C6)C=C5)cc3)O2)s1
REMARK SMILES IDX 19 1 18 2 17 3 15 4 16 5 14 6 11 7 12 8 80 9 13 10 10 11
REMARK SMILES IDX 9 12 6 13 7 14 8 16 5 18 1 19 2 20 3 21 81 22 4 23 20 24
REMARK SMILES IDX 21 25 22 26 23 27 24 28 25 29 26 30 27 31 79 32 28 33 78 34
REMARK SMILES IDX 29 35 30 36 31 37 72 38 32 39 77 40 71 41 73 42 33 43 76 44
REMARK SMILES IDX 70 45 69 46 34 48 60 49 43 50 59 51 44 52 47 53 58 54 74 55
REMARK SMILES IDX 45 56 46 57 57 59 75 60 48 61 35 62 36 63 41 64 37 65 38 66
REMARK SMILES IDX 40 67 42 68 39 69 61 70 62 71 67 72 63 73 64 74 66 75 68 76
REMARK SMILES IDX 65 77 49 78 50 79 55 80 51 81 52 82 54 83 56 84 53 85
REMARK H PARENT 6 15 9 17 73 47 47 58
REMARK Flexibility Score: inf
ROOT
ATOM      1  C   UNL A   1      34.583  31.962  29.115  1.00  0.00     0.202 C 
ENDROOT
BRANCH   1   2
ATOM      2  C   UNL A   1      34.490  31.236  27.770  1.00  0.00     0.261 C 
BRANCH   2   3
ATOM      3  O   UNL A   1      33.171  30.702  27.555  1.00  0.00    -0.461 OA
BRANCH   3   4
ATOM      4  C   UNL A   1      33.049  29.775  26.562  1.00  0.00     0.335 C 
ATOM      5  O   UNL A   1      33.000  30.039  25.366  1.00  0.00    -0.249 OA
BRANCH   4   6
ATOM      6  C   UNL A   1      32.964  28.344  27.111  1.00  0.00     0.228 C 
ATOM      7  C   UNL A   1      32.269  26.562  25.770  1.00  0.00     0.138 C 
ATOM      8  C   UNL A   1      31.029  27.210  26.370  1.00  0.00     0.037 C 
ATOM      9  O   UNL A   1      33.381  27.406  26.105  1.00  0.00    -0.361 OA
ATOM     10  C   UNL A   1      31.586  27.898  27.586  1.00  0.00     0.047 C 
BRANCH   7  11
ATOM     11  C   UNL A   1      32.479  25.122  26.275  1.00  0.00     0.149 C 
BRANCH  11  12
ATOM     12  N   UNL A   1      31.322  24.473  26.874  1.00  0.00    -0.335 N 
ATOM     13  N   UNL A   1      31.080  22.203  26.161  1.00  0.00    -0.284 N 
ATOM     14  C   UNL A   1      30.730  23.274  26.879  1.00  0.00     0.321 C 
ATOM     15  H   UNL A   1      30.398  21.493  26.166  1.00  0.00     0.174 HD
ATOM     16  O   UNL A   1      29.681  23.191  27.531  1.00  0.00    -0.248 OA
ATOM     17  H   UNL A   1      30.828  25.106  27.446  1.00  0.00     0.165 HD
BRANCH  13  18
ATOM     18  C   UNL A   1      32.174  21.885  25.424  1.00  0.00     0.190 A 
ATOM     19  C   UNL A   1      35.885  21.700  24.588  1.00  0.00     0.058 C 
ATOM     20  C   UNL A   1      34.408  21.590  24.659  1.00  0.00     0.023 A 
ATOM     21  C   UNL A   1      33.464  21.762  23.666  1.00  0.00     0.128 A 
ATOM     22  S   UNL A   1      33.586  21.231  26.124  1.00  0.00    -0.102 S 
ATOM     23  N   UNL A   1      32.163  21.876  24.111  1.00  0.00    -0.228 NA
ENDBRANCH  13  18
ENDBRANCH  11  12
ENDBRANCH   7  11
ENDBRANCH   4   6
ENDBRANCH   3   4
ENDBRANCH   2   3
ENDBRANCH   1   2
BRANCH   1  24
ATOM     24  O   UNL A   1      34.820  33.369  29.060  1.00  0.00    -0.374 OA
BRANCH  24  25
ATOM     25  C   UNL A   1      33.855  34.171  28.384  1.00  0.00     0.202 C 
BRANCH  25  26
ATOM     26  C   UNL A   1      33.286  35.361  29.170  1.00  0.00     0.261 C 
BRANCH  26  27
ATOM     27  O   UNL A   1      32.528  34.953  30.325  1.00  0.00    -0.460 OA
BRANCH  27  28
ATOM     28  C   UNL A   1      32.842  35.615  31.463  1.00  0.00     0.338 C 
ATOM     29  O   UNL A   1      32.235  36.554  31.968  1.00  0.00    -0.246 OA
BRANCH  28  30
ATOM     30  C   UNL A   1      33.962  34.961  32.159  1.00  0.00     0.060 A 
ATOM     31  C   UNL A   1      35.206  35.603  32.113  1.00  0.00     0.016 A 
ATOM     32  C   UNL A   1      33.838  33.695  32.738  1.00  0.00     0.016 A 
ATOM     33  C   UNL A   1      36.342  34.957  32.595  1.00  0.00     0.010 A 
ATOM     34  C   UNL A   1      34.984  33.046  33.217  1.00  0.00     0.010 A 
ATOM     35  C   UNL A   1      36.247  33.657  33.110  1.00  0.00    -0.014 A 
BRANCH  35  36
ATOM     36  C   UNL A   1      37.497  32.907  33.394  1.00  0.00     0.031 A 
ATOM     37  C   UNL A   1      38.239  33.170  34.677  1.00  0.00     0.074 A 
ATOM     38  C   UNL A   1      37.925  31.946  32.556  1.00  0.00     0.049 A 
ATOM     39  N   UNL A   1      39.323  32.599  35.141  1.00  0.00    -0.248 NA
ATOM     40  C   UNL A   1      37.685  34.210  35.557  1.00  0.00     0.031 C 
ATOM     41  C   UNL A   1      37.281  31.572  31.299  1.00  0.00     0.029 A 
ATOM     42  N   UNL A   1      39.007  31.105  32.644  1.00  0.00    -0.354 N 
ATOM     43  C   UNL A   1      39.572  33.201  36.369  1.00  0.00     0.074 A 
ATOM     44  C   UNL A   1      38.553  34.212  36.558  1.00  0.00     0.031 C 
ATOM     45  C   UNL A   1      37.982  30.577  30.729  1.00  0.00     0.029 A 
ATOM     46  C   UNL A   1      39.135  30.259  31.570  1.00  0.00     0.049 A 
ATOM     47  H   UNL A   1      39.631  31.108  33.405  1.00  0.00     0.167 HD
ATOM     48  C   UNL A   1      40.547  32.924  37.267  1.00  0.00     0.037 A 
ATOM     49  C   UNL A   1      40.079  29.339  31.292  1.00  0.00     0.037 A 
ATOM     50  C   UNL A   1      41.566  31.925  37.082  1.00  0.00     0.049 A 
ATOM     51  C   UNL A   1      41.190  29.094  32.279  1.00  0.00     0.074 A 
ATOM     52  C   UNL A   1      42.602  31.580  37.933  1.00  0.00     0.029 A 
ATOM     53  N   UNL A   1      41.678  31.110  35.966  1.00  0.00    -0.354 N 
ATOM     54  N   UNL A   1      41.403  29.660  33.443  1.00  0.00    -0.248 NA
ATOM     55  C   UNL A   1      42.186  28.075  31.916  1.00  0.00     0.031 C 
ATOM     56  C   UNL A   1      43.364  30.582  37.316  1.00  0.00     0.029 A 
ATOM     57  C   UNL A   1      42.775  30.274  36.101  1.00  0.00     0.049 A 
ATOM     58  H   UNL A   1      41.068  31.123  35.194  1.00  0.00     0.167 HD
ATOM     59  C   UNL A   1      42.540  29.050  33.960  1.00  0.00     0.074 A 
ATOM     60  C   UNL A   1      42.960  28.058  32.993  1.00  0.00     0.031 C 
ATOM     61  C   UNL A   1      43.180  29.290  35.130  1.00  0.00     0.037 A 
BRANCH  48  62
ATOM     62  C   UNL A   1      40.562  33.726  38.536  1.00  0.00     0.057 A 
ATOM     63  C   UNL A   1      41.379  34.854  38.682  1.00  0.00     0.134 A 
ATOM     64  C   UNL A   1      39.725  33.391  39.607  1.00  0.00     0.134 A 
ATOM     65  F   UNL A   1      42.215  35.221  37.698  1.00  0.00    -0.206 F 
ATOM     66  C   UNL A   1      41.376  35.611  39.855  1.00  0.00     0.040 A 
ATOM     67  C   UNL A   1      39.696  34.154  40.776  1.00  0.00     0.040 A 
ATOM     68  F   UNL A   1      38.915  32.324  39.532  1.00  0.00    -0.206 F 
ATOM     69  C   UNL A   1      40.527  35.264  40.904  1.00  0.00     0.006 A 
ENDBRANCH  48  62
BRANCH  49  70
ATOM     70  C   UNL A   1      40.029  28.587  30.014  1.00  0.00     0.057 A 
ATOM     71  C   UNL A   1      39.281  27.412  29.884  1.00  0.00     0.134 A 
ATOM     72  C   UNL A   1      40.760  29.011  28.897  1.00  0.00     0.134 A 
ATOM     73  F   UNL A   1      38.578  26.942  30.926  1.00  0.00    -0.206 F 
ATOM     74  C   UNL A   1      39.277  26.674  28.699  1.00  0.00     0.040 A 
ATOM     75  C   UNL A   1      40.746  28.298  27.698  1.00  0.00     0.040 A 
ATOM     76  F   UNL A   1      41.498  30.130  28.957  1.00  0.00    -0.206 F 
ATOM     77  C   UNL A   1      40.009  27.120  27.600  1.00  0.00     0.006 A 
ENDBRANCH  49  70
BRANCH  61  78
ATOM     78  C   UNL A   1      44.385  28.449  35.439  1.00  0.00     0.057 A 
ATOM     79  C   UNL A   1      44.282  27.232  36.125  1.00  0.00     0.134 A 
ATOM     80  C   UNL A   1      45.661  28.851  35.024  1.00  0.00     0.134 A 
ATOM     81  F   UNL A   1      43.089  26.797  36.560  1.00  0.00    -0.206 F 
ATOM     82  C   UNL A   1      45.407  26.458  36.411  1.00  0.00     0.040 A 
ATOM     83  C   UNL A   1      46.791  28.073  35.281  1.00  0.00     0.040 A 
ATOM     84  F   UNL A   1      45.830  30.001  34.355  1.00  0.00    -0.206 F 
ATOM     85  C   UNL A   1      46.666  26.875  35.983  1.00  0.00     0.006 A 
ENDBRANCH  61  78
ENDBRANCH  35  36
ENDBRANCH  28  30
ENDBRANCH  27  28
ENDBRANCH  26  27
ENDBRANCH  25  26
ENDBRANCH  24  25
ENDBRANCH   1  24
TORSDOF 17
ENDMDL
