MODEL 1
REMARK VINA RESULT:     -10.4      0.000      0.000
REMARK SMILES C[NH2+][C@]1(C(=O)OCCOCCOC(=O)c2ccc(-c3c4nc(c(-c5c(F)cccc5F)c5ccc([nH]5)c(-c5c(F)cccc5F)c5nc(c(-c6c(F)cccc6F)c6ccc3[nH]6)C=C5)C=C4)cc2)CCC[C@@H](Sc2nccs2)C1
REMARK SMILES IDX 9 1 8 2 7 3 6 4 4 5 5 6 3 7 69 8 79 9 70 10 72 11 71 12 2 13
REMARK SMILES IDX 1 14 73 17 74 18 75 19 78 20 76 21 77 22 10 23 11 24 12 25
REMARK SMILES IDX 13 26 14 27 15 28 16 29 68 30 17 31 67 32 18 33 19 34 20 35
REMARK SMILES IDX 61 36 21 37 66 38 60 39 62 40 22 41 65 42 59 43 58 44 23 46
REMARK SMILES IDX 49 47 32 48 48 49 33 50 36 51 47 52 63 53 34 54 35 55 46 57
REMARK SMILES IDX 64 58 37 59 24 60 25 61 30 62 26 63 27 64 29 65 31 66 28 67
REMARK SMILES IDX 50 68 51 69 56 70 52 71 53 72 55 73 57 74 54 75 38 76 39 77
REMARK SMILES IDX 44 78 40 79 41 80 43 81 45 82 42 83
REMARK H PARENT 2 15 2 16 62 45 36 56
REMARK Flexibility Score: inf
ROOT
ATOM      1  O   UNL A   1      41.448  21.208  27.367  1.00  0.00    -0.374 OA
ENDROOT
BRANCH   1   2
ATOM      2  C   UNL A   1      40.213  21.842  27.046  1.00  0.00     0.202 C 
BRANCH   2   3
ATOM      3  C   UNL A   1      39.344  21.162  25.986  1.00  0.00     0.261 C 
BRANCH   3   4
ATOM      4  O   UNL A   1      38.159  21.921  25.708  1.00  0.00    -0.459 OA
BRANCH   4   5
ATOM      5  C   UNL A   1      37.088  21.194  25.283  1.00  0.00     0.368 C 
ATOM      6  O   UNL A   1      37.138  19.999  25.003  1.00  0.00    -0.245 OA
BRANCH   5   7
ATOM      7  C   UNL A   1      35.776  22.040  25.185  1.00  0.00     0.195 C 
ATOM      8  C   UNL A   1      35.954  23.302  24.295  1.00  0.00     0.081 C 
ATOM      9  C   UNL A   1      34.748  21.101  24.515  1.00  0.00     0.096 C 
ATOM     10  C   UNL A   1      34.635  24.006  23.966  1.00  0.00     0.008 C 
ATOM     11  C   UNL A   1      33.446  21.776  24.078  1.00  0.00     0.061 C 
ATOM     12  C   UNL A   1      33.667  23.057  23.268  1.00  0.00     0.015 C 
BRANCH   7  13
ATOM     13  N   UNL A   1      35.346  22.540  26.528  1.00  0.00    -0.335 N 
ATOM     14  C   UNL A   1      34.403  21.693  27.248  1.00  0.00     0.331 C 
ATOM     15  H   UNL A   1      36.181  22.641  27.106  1.00  0.00     0.347 HD
ATOM     16  H   UNL A   1      34.855  23.415  26.353  1.00  0.00     0.347 HD
ENDBRANCH   7  13
BRANCH  11  17
ATOM     17  S   UNL A   1      32.324  20.617  23.199  1.00  0.00    -0.092 SA
BRANCH  17  18
ATOM     18  C   UNL A   1      32.576  19.104  24.047  1.00  0.00     0.150 A 
ATOM     19  N   UNL A   1      32.315  18.973  25.329  1.00  0.00    -0.238 NA
ATOM     20  S   UNL A   1      33.168  17.696  23.268  1.00  0.00    -0.116 S 
ATOM     21  C   UNL A   1      32.616  17.692  25.742  1.00  0.00     0.124 A 
ATOM     22  C   UNL A   1      33.100  16.855  24.762  1.00  0.00     0.087 A 
ENDBRANCH  17  18
ENDBRANCH  11  17
ENDBRANCH   5   7
ENDBRANCH   4   5
ENDBRANCH   3   4
ENDBRANCH   2   3
ENDBRANCH   1   2
BRANCH   1  23
ATOM     23  C   UNL A   1      42.321  20.869  26.287  1.00  0.00     0.202 C 
BRANCH  23  24
ATOM     24  C   UNL A   1      43.384  21.905  25.906  1.00  0.00     0.261 C 
BRANCH  24  25
ATOM     25  O   UNL A   1      42.809  23.076  25.292  1.00  0.00    -0.460 OA
BRANCH  25  26
ATOM     26  C   UNL A   1      43.550  24.202  25.409  1.00  0.00     0.338 C 
ATOM     27  O   UNL A   1      44.552  24.503  24.771  1.00  0.00    -0.246 OA
BRANCH  26  28
ATOM     28  C   UNL A   1      42.892  25.155  26.319  1.00  0.00     0.060 A 
ATOM     29  C   UNL A   1      43.504  26.403  26.500  1.00  0.00     0.016 A 
ATOM     30  C   UNL A   1      41.761  24.804  27.057  1.00  0.00     0.016 A 
ATOM     31  C   UNL A   1      43.018  27.285  27.461  1.00  0.00     0.010 A 
ATOM     32  C   UNL A   1      41.281  25.687  28.032  1.00  0.00     0.010 A 
ATOM     33  C   UNL A   1      41.932  26.913  28.264  1.00  0.00    -0.014 A 
BRANCH  33  34
ATOM     34  C   UNL A   1      41.589  27.739  29.447  1.00  0.00     0.031 A 
ATOM     35  C   UNL A   1      40.416  28.675  29.363  1.00  0.00     0.074 A 
ATOM     36  C   UNL A   1      42.282  27.624  30.592  1.00  0.00     0.049 A 
ATOM     37  N   UNL A   1      39.944  29.497  30.266  1.00  0.00    -0.248 NA
ATOM     38  C   UNL A   1      39.675  28.687  28.092  1.00  0.00     0.031 C 
ATOM     39  C   UNL A   1      43.410  26.722  30.812  1.00  0.00     0.029 A 
ATOM     40  N   UNL A   1      42.134  28.279  31.790  1.00  0.00    -0.354 N 
ATOM     41  C   UNL A   1      38.853  30.122  29.673  1.00  0.00     0.074 A 
ATOM     42  C   UNL A   1      38.751  29.607  28.323  1.00  0.00     0.031 C 
ATOM     43  C   UNL A   1      43.861  26.888  32.068  1.00  0.00     0.029 A 
ATOM     44  C   UNL A   1      43.070  27.924  32.728  1.00  0.00     0.049 A 
ATOM     45  H   UNL A   1      41.425  28.940  31.958  1.00  0.00     0.167 HD
ATOM     46  C   UNL A   1      38.006  31.033  30.206  1.00  0.00     0.037 A 
ATOM     47  C   UNL A   1      43.275  28.397  33.973  1.00  0.00     0.037 A 
ATOM     48  C   UNL A   1      38.106  31.547  31.546  1.00  0.00     0.049 A 
ATOM     49  C   UNL A   1      42.363  29.463  34.521  1.00  0.00     0.074 A 
ATOM     50  C   UNL A   1      37.290  32.466  32.182  1.00  0.00     0.029 A 
ATOM     51  N   UNL A   1      39.090  31.188  32.456  1.00  0.00    -0.354 N 
ATOM     52  N   UNL A   1      41.325  30.032  33.958  1.00  0.00    -0.248 NA
ATOM     53  C   UNL A   1      42.650  29.949  35.879  1.00  0.00     0.031 C 
ATOM     54  C   UNL A   1      37.804  32.694  33.463  1.00  0.00     0.029 A 
ATOM     55  C   UNL A   1      38.914  31.884  33.640  1.00  0.00     0.049 A 
ATOM     56  H   UNL A   1      39.807  30.535  32.285  1.00  0.00     0.167 HD
ATOM     57  C   UNL A   1      40.821  30.922  34.899  1.00  0.00     0.074 A 
ATOM     58  C   UNL A   1      41.662  30.811  36.073  1.00  0.00     0.031 C 
ATOM     59  C   UNL A   1      39.757  31.757  34.800  1.00  0.00     0.037 A 
BRANCH  46  60
ATOM     60  C   UNL A   1      36.908  31.550  29.327  1.00  0.00     0.057 A 
ATOM     61  C   UNL A   1      35.754  30.798  29.067  1.00  0.00     0.134 A 
ATOM     62  C   UNL A   1      36.992  32.825  28.753  1.00  0.00     0.134 A 
ATOM     63  F   UNL A   1      35.620  29.563  29.574  1.00  0.00    -0.206 F 
ATOM     64  C   UNL A   1      34.733  31.288  28.251  1.00  0.00     0.040 A 
ATOM     65  C   UNL A   1      35.967  33.333  27.954  1.00  0.00     0.040 A 
ATOM     66  F   UNL A   1      38.068  33.596  28.964  1.00  0.00    -0.206 F 
ATOM     67  C   UNL A   1      34.835  32.562  27.697  1.00  0.00     0.006 A 
ENDBRANCH  46  60
BRANCH  47  68
ATOM     68  C   UNL A   1      44.401  27.877  34.787  1.00  0.00     0.057 A 
ATOM     69  C   UNL A   1      44.237  26.779  35.638  1.00  0.00     0.134 A 
ATOM     70  C   UNL A   1      45.663  28.482  34.749  1.00  0.00     0.134 A 
ATOM     71  F   UNL A   1      43.044  26.173  35.735  1.00  0.00    -0.206 F 
ATOM     72  C   UNL A   1      45.283  26.307  36.432  1.00  0.00     0.040 A 
ATOM     73  C   UNL A   1      46.725  28.007  35.521  1.00  0.00     0.040 A 
ATOM     74  F   UNL A   1      45.884  29.539  33.954  1.00  0.00    -0.206 F 
ATOM     75  C   UNL A   1      46.534  26.920  36.371  1.00  0.00     0.006 A 
ENDBRANCH  47  68
BRANCH  59  76
ATOM     76  C   UNL A   1      39.424  32.592  36.002  1.00  0.00     0.057 A 
ATOM     77  C   UNL A   1      38.592  32.116  37.022  1.00  0.00     0.134 A 
ATOM     78  C   UNL A   1      39.979  33.868  36.158  1.00  0.00     0.134 A 
ATOM     79  F   UNL A   1      38.020  30.906  36.925  1.00  0.00    -0.206 F 
ATOM     80  C   UNL A   1      38.307  32.890  38.150  1.00  0.00     0.040 A 
ATOM     81  C   UNL A   1      39.720  34.642  37.291  1.00  0.00     0.040 A 
ATOM     82  F   UNL A   1      40.791  34.378  35.221  1.00  0.00    -0.206 F 
ATOM     83  C   UNL A   1      38.877  34.154  38.289  1.00  0.00     0.006 A 
ENDBRANCH  59  76
ENDBRANCH  33  34
ENDBRANCH  26  28
ENDBRANCH  25  26
ENDBRANCH  24  25
ENDBRANCH  23  24
ENDBRANCH   1  23
TORSDOF 17
ENDMDL
MODEL 2
REMARK VINA RESULT:     -10.4      1.755      6.945
REMARK SMILES C[NH2+][C@]1(C(=O)OCCOCCOC(=O)c2ccc(-c3c4nc(c(-c5c(F)cccc5F)c5ccc([nH]5)c(-c5c(F)cccc5F)c5nc(c(-c6c(F)cccc6F)c6ccc3[nH]6)C=C5)C=C4)cc2)CCC[C@@H](Sc2nccs2)C1
REMARK SMILES IDX 9 1 8 2 7 3 6 4 4 5 5 6 3 7 69 8 79 9 70 10 72 11 71 12 2 13
REMARK SMILES IDX 1 14 73 17 74 18 75 19 78 20 76 21 77 22 10 23 11 24 12 25
REMARK SMILES IDX 13 26 14 27 15 28 16 29 68 30 17 31 67 32 18 33 19 34 20 35
REMARK SMILES IDX 61 36 21 37 66 38 60 39 62 40 22 41 65 42 59 43 58 44 23 46
REMARK SMILES IDX 49 47 32 48 48 49 33 50 36 51 47 52 63 53 34 54 35 55 46 57
REMARK SMILES IDX 64 58 37 59 24 60 25 61 30 62 26 63 27 64 29 65 31 66 28 67
REMARK SMILES IDX 50 68 51 69 56 70 52 71 53 72 55 73 57 74 54 75 38 76 39 77
REMARK SMILES IDX 44 78 40 79 41 80 43 81 45 82 42 83
REMARK H PARENT 2 15 2 16 62 45 36 56
REMARK Flexibility Score: inf
ROOT
ATOM      1  O   UNL A   1      41.204  21.344  26.730  1.00  0.00    -0.374 OA
ENDROOT
BRANCH   1   2
ATOM      2  C   UNL A   1      39.899  21.141  26.195  1.00  0.00     0.202 C 
BRANCH   2   3
ATOM      3  C   UNL A   1      38.916  22.308  26.312  1.00  0.00     0.261 C 
BRANCH   3   4
ATOM      4  O   UNL A   1      37.639  21.982  25.747  1.00  0.00    -0.459 OA
BRANCH   4   5
ATOM      5  C   UNL A   1      36.856  23.048  25.422  1.00  0.00     0.368 C 
ATOM      6  O   UNL A   1      37.295  24.158  25.133  1.00  0.00    -0.245 OA
BRANCH   5   7
ATOM      7  C   UNL A   1      35.328  22.716  25.456  1.00  0.00     0.195 C 
ATOM      8  C   UNL A   1      34.949  21.806  26.656  1.00  0.00     0.081 C 
ATOM      9  C   UNL A   1      34.629  24.083  25.629  1.00  0.00     0.096 C 
ATOM     10  C   UNL A   1      33.438  21.675  26.869  1.00  0.00     0.008 C 
ATOM     11  C   UNL A   1      33.132  24.009  25.940  1.00  0.00     0.061 C 
ATOM     12  C   UNL A   1      32.796  23.043  27.080  1.00  0.00     0.015 C 
BRANCH   7  13
ATOM     13  N   UNL A   1      34.902  21.977  24.226  1.00  0.00    -0.335 N 
ATOM     14  C   UNL A   1      34.758  22.782  23.019  1.00  0.00     0.331 C 
ATOM     15  H   UNL A   1      35.598  21.254  24.039  1.00  0.00     0.347 HD
ATOM     16  H   UNL A   1      33.972  21.614  24.430  1.00  0.00     0.347 HD
ENDBRANCH   7  13
BRANCH  11  17
ATOM     17  S   UNL A   1      32.401  25.668  26.234  1.00  0.00    -0.092 SA
BRANCH  17  18
ATOM     18  C   UNL A   1      32.791  26.537  24.763  1.00  0.00     0.150 A 
ATOM     19  N   UNL A   1      32.412  26.109  23.580  1.00  0.00    -0.238 NA
ATOM     20  S   UNL A   1      33.681  28.003  24.766  1.00  0.00    -0.116 S 
ATOM     21  C   UNL A   1      32.862  26.970  22.601  1.00  0.00     0.124 A 
ATOM     22  C   UNL A   1      33.579  28.054  23.054  1.00  0.00     0.087 A 
ENDBRANCH  17  18
ENDBRANCH  11  17
ENDBRANCH   5   7
ENDBRANCH   4   5
ENDBRANCH   3   4
ENDBRANCH   2   3
ENDBRANCH   1   2
BRANCH   1  23
ATOM     23  C   UNL A   1      42.297  20.693  26.078  1.00  0.00     0.202 C 
BRANCH  23  24
ATOM     24  C   UNL A   1      43.394  21.596  25.502  1.00  0.00     0.261 C 
BRANCH  24  25
ATOM     25  O   UNL A   1      42.854  22.764  24.852  1.00  0.00    -0.460 OA
BRANCH  25  26
ATOM     26  C   UNL A   1      43.611  23.880  24.967  1.00  0.00     0.338 C 
ATOM     27  O   UNL A   1      44.643  24.143  24.364  1.00  0.00    -0.246 OA
BRANCH  26  28
ATOM     28  C   UNL A   1      42.933  24.872  25.819  1.00  0.00     0.060 A 
ATOM     29  C   UNL A   1      43.608  26.073  26.073  1.00  0.00     0.016 A 
ATOM     30  C   UNL A   1      41.712  24.597  26.438  1.00  0.00     0.016 A 
ATOM     31  C   UNL A   1      43.091  26.983  26.992  1.00  0.00     0.010 A 
ATOM     32  C   UNL A   1      41.200  25.507  27.371  1.00  0.00     0.010 A 
ATOM     33  C   UNL A   1      41.908  26.684  27.680  1.00  0.00    -0.014 A 
BRANCH  33  34
ATOM     34  C   UNL A   1      41.506  27.526  28.833  1.00  0.00     0.031 A 
ATOM     35  C   UNL A   1      42.286  27.421  30.114  1.00  0.00     0.074 A 
ATOM     36  C   UNL A   1      40.493  28.402  28.727  1.00  0.00     0.049 A 
ATOM     37  N   UNL A   1      42.106  28.049  31.248  1.00  0.00    -0.248 NA
ATOM     38  C   UNL A   1      43.420  26.483  30.118  1.00  0.00     0.031 C 
ATOM     39  C   UNL A   1      39.691  28.627  27.527  1.00  0.00     0.029 A 
ATOM     40  N   UNL A   1      39.966  29.266  29.654  1.00  0.00    -0.354 N 
ATOM     41  C   UNL A   1      43.102  27.584  32.099  1.00  0.00     0.074 A 
ATOM     42  C   UNL A   1      43.864  26.599  31.360  1.00  0.00     0.031 C 
ATOM     43  C   UNL A   1      38.763  29.562  27.794  1.00  0.00     0.029 A 
ATOM     44  C   UNL A   1      38.892  29.982  29.188  1.00  0.00     0.049 A 
ATOM     45  H   UNL A   1      40.324  29.364  30.565  1.00  0.00     0.167 HD
ATOM     46  C   UNL A   1      43.366  27.951  33.375  1.00  0.00     0.037 A 
ATOM     47  C   UNL A   1      38.092  30.861  29.823  1.00  0.00     0.037 A 
ATOM     48  C   UNL A   1      42.609  28.928  34.110  1.00  0.00     0.049 A 
ATOM     49  C   UNL A   1      38.362  31.202  31.264  1.00  0.00     0.074 A 
ATOM     50  C   UNL A   1      42.804  29.375  35.406  1.00  0.00     0.029 A 
ATOM     51  N   UNL A   1      41.505  29.606  33.615  1.00  0.00    -0.354 N 
ATOM     52  N   UNL A   1      39.316  30.770  32.051  1.00  0.00    -0.248 NA
ATOM     53  C   UNL A   1      37.442  32.155  31.904  1.00  0.00     0.031 C 
ATOM     54  C   UNL A   1      41.793  30.294  35.707  1.00  0.00     0.029 A 
ATOM     55  C   UNL A   1      40.996  30.451  34.586  1.00  0.00     0.049 A 
ATOM     56  H   UNL A   1      41.139  29.502  32.707  1.00  0.00     0.167 HD
ATOM     57  C   UNL A   1      39.129  31.415  33.268  1.00  0.00     0.074 A 
ATOM     58  C   UNL A   1      37.975  32.275  33.112  1.00  0.00     0.031 C 
ATOM     59  C   UNL A   1      39.849  31.305  34.412  1.00  0.00     0.037 A 
BRANCH  46  60
ATOM     60  C   UNL A   1      44.512  27.273  34.063  1.00  0.00     0.057 A 
ATOM     61  C   UNL A   1      45.820  27.767  33.981  1.00  0.00     0.134 A 
ATOM     62  C   UNL A   1      44.300  26.125  34.839  1.00  0.00     0.134 A 
ATOM     63  F   UNL A   1      46.091  28.853  33.241  1.00  0.00    -0.206 F 
ATOM     64  C   UNL A   1      46.881  27.132  34.629  1.00  0.00     0.040 A 
ATOM     65  C   UNL A   1      45.350  25.496  35.510  1.00  0.00     0.040 A 
ATOM     66  F   UNL A   1      43.071  25.603  34.961  1.00  0.00    -0.206 F 
ATOM     67  C   UNL A   1      46.646  25.996  35.402  1.00  0.00     0.006 A 
ENDBRANCH  46  60
BRANCH  47  68
ATOM     68  C   UNL A   1      36.949  31.475  29.104  1.00  0.00     0.057 A 
ATOM     69  C   UNL A   1      36.998  32.799  28.656  1.00  0.00     0.134 A 
ATOM     70  C   UNL A   1      35.771  30.757  28.867  1.00  0.00     0.134 A 
ATOM     71  F   UNL A   1      38.091  33.546  28.875  1.00  0.00    -0.206 F 
ATOM     72  C   UNL A   1      35.912  33.393  28.010  1.00  0.00     0.040 A 
ATOM     73  C   UNL A   1      34.686  31.330  28.203  1.00  0.00     0.040 A 
ATOM     74  F   UNL A   1      35.661  29.483  29.273  1.00  0.00    -0.206 F 
ATOM     75  C   UNL A   1      34.753  32.655  27.778  1.00  0.00     0.006 A 
ENDBRANCH  47  68
BRANCH  59  76
ATOM     76  C   UNL A   1      39.429  32.158  35.573  1.00  0.00     0.057 A 
ATOM     77  C   UNL A   1      39.901  33.465  35.737  1.00  0.00     0.134 A 
ATOM     78  C   UNL A   1      38.508  31.677  36.512  1.00  0.00     0.134 A 
ATOM     79  F   UNL A   1      40.794  33.979  34.877  1.00  0.00    -0.206 F 
ATOM     80  C   UNL A   1      39.485  34.261  36.807  1.00  0.00     0.040 A 
ATOM     81  C   UNL A   1      38.067  32.471  37.573  1.00  0.00     0.040 A 
ATOM     82  F   UNL A   1      38.011  30.437  36.407  1.00  0.00    -0.206 F 
ATOM     83  C   UNL A   1      38.561  33.765  37.725  1.00  0.00     0.006 A 
ENDBRANCH  59  76
ENDBRANCH  33  34
ENDBRANCH  26  28
ENDBRANCH  25  26
ENDBRANCH  24  25
ENDBRANCH  23  24
ENDBRANCH   1  23
TORSDOF 17
ENDMDL
MODEL 3
REMARK VINA RESULT:     -10.4      0.592      6.191
REMARK SMILES C[NH2+][C@]1(C(=O)OCCOCCOC(=O)c2ccc(-c3c4nc(c(-c5c(F)cccc5F)c5ccc([nH]5)c(-c5c(F)cccc5F)c5nc(c(-c6c(F)cccc6F)c6ccc3[nH]6)C=C5)C=C4)cc2)CCC[C@@H](Sc2nccs2)C1
REMARK SMILES IDX 9 1 8 2 7 3 6 4 4 5 5 6 3 7 69 8 79 9 70 10 72 11 71 12 2 13
REMARK SMILES IDX 1 14 73 17 74 18 75 19 78 20 76 21 77 22 10 23 11 24 12 25
REMARK SMILES IDX 13 26 14 27 15 28 16 29 68 30 17 31 67 32 18 33 19 34 20 35
REMARK SMILES IDX 61 36 21 37 66 38 60 39 62 40 22 41 65 42 59 43 58 44 23 46
REMARK SMILES IDX 49 47 32 48 48 49 33 50 36 51 47 52 63 53 34 54 35 55 46 57
REMARK SMILES IDX 64 58 37 59 24 60 25 61 30 62 26 63 27 64 29 65 31 66 28 67
REMARK SMILES IDX 50 68 51 69 56 70 52 71 53 72 55 73 57 74 54 75 38 76 39 77
REMARK SMILES IDX 44 78 40 79 41 80 43 81 45 82 42 83
REMARK H PARENT 2 15 2 16 62 45 36 56
REMARK Flexibility Score: inf
ROOT
ATOM      1  O   UNL A   1      40.595  20.914  25.882  1.00  0.00    -0.374 OA
ENDROOT
BRANCH   1   2
ATOM      2  C   UNL A   1      39.995  21.810  26.813  1.00  0.00     0.202 C 
BRANCH   2   3
ATOM      3  C   UNL A   1      38.735  22.544  26.350  1.00  0.00     0.261 C 
BRANCH   3   4
ATOM      4  O   UNL A   1      38.267  22.047  25.089  1.00  0.00    -0.459 OA
BRANCH   4   5
ATOM      5  C   UNL A   1      37.148  21.273  25.146  1.00  0.00     0.368 C 
ATOM      6  O   UNL A   1      37.165  20.048  25.231  1.00  0.00    -0.245 OA
BRANCH   5   7
ATOM      7  C   UNL A   1      35.826  22.107  25.089  1.00  0.00     0.195 C 
ATOM      8  C   UNL A   1      35.967  23.378  24.207  1.00  0.00     0.081 C 
ATOM      9  C   UNL A   1      34.790  21.163  24.439  1.00  0.00     0.096 C 
ATOM     10  C   UNL A   1      34.633  24.072  23.918  1.00  0.00     0.008 C 
ATOM     11  C   UNL A   1      33.470  21.828  24.042  1.00  0.00     0.061 C 
ATOM     12  C   UNL A   1      33.657  23.118  23.237  1.00  0.00     0.015 C 
BRANCH   7  13
ATOM     13  N   UNL A   1      35.426  22.590  26.448  1.00  0.00    -0.335 N 
ATOM     14  C   UNL A   1      34.497  21.737  27.177  1.00  0.00     0.331 C 
ATOM     15  H   UNL A   1      36.274  22.682  27.009  1.00  0.00     0.347 HD
ATOM     16  H   UNL A   1      34.934  23.469  26.294  1.00  0.00     0.347 HD
ENDBRANCH   7  13
BRANCH  11  17
ATOM     17  S   UNL A   1      32.336  20.665  23.183  1.00  0.00    -0.092 SA
BRANCH  17  18
ATOM     18  C   UNL A   1      32.601  19.156  24.033  1.00  0.00     0.150 A 
ATOM     19  N   UNL A   1      32.301  19.012  25.305  1.00  0.00    -0.238 NA
ATOM     20  S   UNL A   1      33.256  17.768  23.269  1.00  0.00    -0.116 S 
ATOM     21  C   UNL A   1      32.623  17.738  25.723  1.00  0.00     0.124 A 
ATOM     22  C   UNL A   1      33.161  16.918  24.757  1.00  0.00     0.087 A 
ENDBRANCH  17  18
ENDBRANCH  11  17
ENDBRANCH   5   7
ENDBRANCH   4   5
ENDBRANCH   3   4
ENDBRANCH   2   3
ENDBRANCH   1   2
BRANCH   1  23
ATOM     23  C   UNL A   1      42.019  20.788  25.906  1.00  0.00     0.202 C 
BRANCH  23  24
ATOM     24  C   UNL A   1      42.823  22.076  26.114  1.00  0.00     0.261 C 
BRANCH  24  25
ATOM     25  O   UNL A   1      42.918  22.861  24.909  1.00  0.00    -0.460 OA
BRANCH  25  26
ATOM     26  C   UNL A   1      43.650  23.993  25.024  1.00  0.00     0.338 C 
ATOM     27  O   UNL A   1      44.676  24.280  24.420  1.00  0.00    -0.246 OA
BRANCH  26  28
ATOM     28  C   UNL A   1      42.951  24.970  25.877  1.00  0.00     0.060 A 
ATOM     29  C   UNL A   1      43.593  26.191  26.120  1.00  0.00     0.016 A 
ATOM     30  C   UNL A   1      41.745  24.661  26.510  1.00  0.00     0.016 A 
ATOM     31  C   UNL A   1      43.057  27.090  27.039  1.00  0.00     0.010 A 
ATOM     32  C   UNL A   1      41.215  25.561  27.443  1.00  0.00     0.010 A 
ATOM     33  C   UNL A   1      41.890  26.760  27.739  1.00  0.00    -0.014 A 
BRANCH  33  34
ATOM     34  C   UNL A   1      41.475  27.595  28.892  1.00  0.00     0.031 A 
ATOM     35  C   UNL A   1      42.246  27.492  30.178  1.00  0.00     0.074 A 
ATOM     36  C   UNL A   1      40.456  28.464  28.782  1.00  0.00     0.049 A 
ATOM     37  N   UNL A   1      42.054  28.115  31.313  1.00  0.00    -0.248 NA
ATOM     38  C   UNL A   1      43.386  26.562  30.187  1.00  0.00     0.031 C 
ATOM     39  C   UNL A   1      39.661  28.687  27.576  1.00  0.00     0.029 A 
ATOM     40  N   UNL A   1      39.917  29.323  29.707  1.00  0.00    -0.354 N 
ATOM     41  C   UNL A   1      43.047  27.654  32.169  1.00  0.00     0.074 A 
ATOM     42  C   UNL A   1      43.821  26.677  31.433  1.00  0.00     0.031 C 
ATOM     43  C   UNL A   1      38.724  29.616  27.839  1.00  0.00     0.029 A 
ATOM     44  C   UNL A   1      38.841  30.032  29.235  1.00  0.00     0.049 A 
ATOM     45  H   UNL A   1      40.268  29.419  30.621  1.00  0.00     0.167 HD
ATOM     46  C   UNL A   1      43.299  28.019  33.448  1.00  0.00     0.037 A 
ATOM     47  C   UNL A   1      38.031  30.904  29.867  1.00  0.00     0.037 A 
ATOM     48  C   UNL A   1      42.530  28.989  34.181  1.00  0.00     0.049 A 
ATOM     49  C   UNL A   1      38.287  31.241  31.312  1.00  0.00     0.074 A 
ATOM     50  C   UNL A   1      42.713  29.433  35.479  1.00  0.00     0.029 A 
ATOM     51  N   UNL A   1      41.425  29.660  33.680  1.00  0.00    -0.354 N 
ATOM     52  N   UNL A   1      39.239  30.814  32.104  1.00  0.00    -0.248 NA
ATOM     53  C   UNL A   1      37.357  32.186  31.948  1.00  0.00     0.031 C 
ATOM     54  C   UNL A   1      41.694  30.345  35.776  1.00  0.00     0.029 A 
ATOM     55  C   UNL A   1      40.903  30.499  34.649  1.00  0.00     0.049 A 
ATOM     56  H   UNL A   1      41.066  29.557  32.769  1.00  0.00     0.167 HD
ATOM     57  C   UNL A   1      39.039  31.454  33.321  1.00  0.00     0.074 A 
ATOM     58  C   UNL A   1      37.880  32.307  33.160  1.00  0.00     0.031 C 
ATOM     59  C   UNL A   1      39.752  31.346  34.470  1.00  0.00     0.037 A 
BRANCH  46  60
ATOM     60  C   UNL A   1      44.444  27.347  34.143  1.00  0.00     0.057 A 
ATOM     61  C   UNL A   1      44.297  26.108  34.780  1.00  0.00     0.134 A 
ATOM     62  C   UNL A   1      45.717  27.932  34.152  1.00  0.00     0.134 A 
ATOM     63  F   UNL A   1      43.101  25.502  34.820  1.00  0.00    -0.206 F 
ATOM     64  C   UNL A   1      45.370  25.485  35.420  1.00  0.00     0.040 A 
ATOM     65  C   UNL A   1      46.802  27.308  34.770  1.00  0.00     0.040 A 
ATOM     66  F   UNL A   1      45.926  29.117  33.558  1.00  0.00    -0.206 F 
ATOM     67  C   UNL A   1      46.629  26.083  35.411  1.00  0.00     0.006 A 
ENDBRANCH  46  60
BRANCH  47  68
ATOM     68  C   UNL A   1      36.888  31.512  29.142  1.00  0.00     0.057 A 
ATOM     69  C   UNL A   1      35.726  30.782  28.874  1.00  0.00     0.134 A 
ATOM     70  C   UNL A   1      36.942  32.833  28.681  1.00  0.00     0.134 A 
ATOM     71  F   UNL A   1      35.625  29.504  29.270  1.00  0.00    -0.206 F 
ATOM     72  C   UNL A   1      34.661  31.338  28.161  1.00  0.00     0.040 A 
ATOM     73  C   UNL A   1      35.877  33.409  27.987  1.00  0.00     0.040 A 
ATOM     74  F   UNL A   1      38.029  33.585  28.907  1.00  0.00    -0.206 F 
ATOM     75  C   UNL A   1      34.735  32.658  27.720  1.00  0.00     0.006 A 
ENDBRANCH  47  68
BRANCH  59  76
ATOM     76  C   UNL A   1      39.317  32.192  35.631  1.00  0.00     0.057 A 
ATOM     77  C   UNL A   1      38.444  31.706  36.611  1.00  0.00     0.134 A 
ATOM     78  C   UNL A   1      39.814  33.491  35.790  1.00  0.00     0.134 A 
ATOM     79  F   UNL A   1      37.924  30.473  36.508  1.00  0.00    -0.206 F 
ATOM     80  C   UNL A   1      38.063  32.491  37.702  1.00  0.00     0.040 A 
ATOM     81  C   UNL A   1      39.459  34.278  36.888  1.00  0.00     0.040 A 
ATOM     82  F   UNL A   1      40.661  34.012  34.891  1.00  0.00    -0.206 F 
ATOM     83  C   UNL A   1      38.577  33.779  37.845  1.00  0.00     0.006 A 
ENDBRANCH  59  76
ENDBRANCH  33  34
ENDBRANCH  26  28
ENDBRANCH  25  26
ENDBRANCH  24  25
ENDBRANCH  23  24
ENDBRANCH   1  23
TORSDOF 17
ENDMDL
