MODEL 1
REMARK VINA RESULT:     -12.2      0.000      0.000
REMARK SMILES O=C(N[C@@H](Cc1c[nH]c2ccccc12)C(=O)N[C@@H](CO)C(=O)OCCOCCOC(=O)c1ccc(-c2c3nc(c(-c4c(F)cccc4F)c4ccc([nH]4)c(-c4c(F)cccc4F)c4nc(c(-c5c(F)cccc5F)c5ccc2[nH]5)C=C4)C=C3)cc1)c1ccc(F)cc1
REMARK SMILES IDX 25 1 24 2 23 3 21 4 22 5 18 6 17 7 15 8 16 9 4 11 3 12 1 13
REMARK SMILES IDX 2 14 86 16 87 17 92 18 88 19 91 20 89 21 90 22 5 23 6 24
REMARK SMILES IDX 7 25 14 26 8 27 9 28 13 29 10 31 12 32 11 33 19 34 20 35
REMARK SMILES IDX 26 37 27 38 28 39 29 40 30 41 31 42 32 43 33 44 85 45 34 46
REMARK SMILES IDX 84 47 35 48 36 49 37 50 78 51 38 52 83 53 77 54 79 55 39 56
REMARK SMILES IDX 82 57 76 58 75 59 40 61 66 62 49 63 65 64 50 65 53 66 64 67
REMARK SMILES IDX 80 68 51 69 52 70 63 72 81 73 54 74 41 75 42 76 47 77 43 78
REMARK SMILES IDX 44 79 46 80 48 81 45 82 67 83 68 84 73 85 69 86 70 87 72 88
REMARK SMILES IDX 74 89 71 90 55 91 56 92 61 93 57 94 58 95 60 96 62 97 59 98
REMARK H PARENT 17 10 3 15 8 30 20 36 79 60 53 71
REMARK Flexibility Score: inf
ROOT
ATOM      1  C   UNL A   1      41.443  20.544  26.548  1.00  0.00     0.202 C 
ENDROOT
BRANCH   1   2
ATOM      2  C   UNL A   1      40.524  21.605  27.180  1.00  0.00     0.261 C 
BRANCH   2   3
ATOM      3  O   UNL A   1      40.075  22.657  26.289  1.00  0.00    -0.462 OA
BRANCH   3   4
ATOM      4  C   UNL A   1      38.666  23.131  26.372  1.00  0.00     0.331 C 
ATOM      5  O   UNL A   1      38.729  24.116  27.162  1.00  0.00    -0.250 OA
BRANCH   4   6
ATOM      6  C   UNL A   1      36.956  22.160  25.364  1.00  0.00     0.218 C 
BRANCH   6   7
ATOM      7  N   UNL A   1      36.305  22.405  23.779  1.00  0.00    -0.339 N 
ATOM      8  C   UNL A   1      35.291  23.145  23.236  1.00  0.00     0.243 C 
ATOM      9  O   UNL A   1      35.295  23.196  21.994  1.00  0.00    -0.273 OA
ATOM     10  H   UNL A   1      36.784  21.880  23.098  1.00  0.00     0.164 HD
BRANCH   8  11
ATOM     11  C   UNL A   1      34.127  23.850  24.002  1.00  0.00     0.176 C 
BRANCH  11  12
ATOM     12  N   UNL A   1      33.431  22.821  24.780  1.00  0.00    -0.340 N 
ATOM     13  O   UNL A   1      31.698  21.740  25.727  1.00  0.00    -0.269 OA
ATOM     14  C   UNL A   1      32.100  22.719  25.105  1.00  0.00     0.251 C 
ATOM     15  H   UNL A   1      34.001  22.094  25.119  1.00  0.00     0.164 HD
BRANCH  14  16
ATOM     16  C   UNL A   1      31.163  23.832  24.814  1.00  0.00     0.040 A 
ATOM     17  C   UNL A   1      30.659  24.080  23.532  1.00  0.00     0.017 A 
ATOM     18  C   UNL A   1      30.800  24.665  25.881  1.00  0.00     0.017 A 
ATOM     19  C   UNL A   1      29.898  25.229  23.295  1.00  0.00     0.040 A 
ATOM     20  C   UNL A   1      30.015  25.795  25.646  1.00  0.00     0.040 A 
ATOM     21  C   UNL A   1      29.594  26.080  24.352  1.00  0.00     0.123 A 
ATOM     22  F   UNL A   1      28.885  27.192  24.120  1.00  0.00    -0.207 F 
ENDBRANCH  14  16
ENDBRANCH  11  12
BRANCH  11  23
ATOM     23  C   UNL A   1      34.312  25.202  24.740  1.00  0.00     0.072 C 
BRANCH  23  24
ATOM     24  C   UNL A   1      33.915  26.353  23.904  1.00  0.00    -0.020 A 
ATOM     25  C   UNL A   1      33.561  26.389  22.560  1.00  0.00     0.087 A 
ATOM     26  C   UNL A   1      33.573  27.581  24.487  1.00  0.00     0.003 A 
ATOM     27  N   UNL A   1      32.743  27.467  22.227  1.00  0.00    -0.361 N 
ATOM     28  C   UNL A   1      32.359  28.133  23.360  1.00  0.00     0.046 A 
ATOM     29  C   UNL A   1      33.619  28.224  26.174  1.00  0.00     0.010 A 
ATOM     30  H   UNL A   1      32.480  27.713  21.312  1.00  0.00     0.166 HD
ATOM     31  C   UNL A   1      31.139  29.347  23.880  1.00  0.00     0.026 A 
ATOM     32  C   UNL A   1      32.400  29.452  26.705  1.00  0.00     0.001 A 
ATOM     33  C   UNL A   1      31.224  30.051  25.536  1.00  0.00     0.002 A 
ENDBRANCH  23  24
ENDBRANCH  11  23
ENDBRANCH   8  11
ENDBRANCH   6   7
BRANCH   6  34
ATOM     34  C   UNL A   1      36.420  20.487  25.360  1.00  0.00     0.193 C 
BRANCH  34  35
ATOM     35  O   UNL A   1      35.011  20.293  25.516  1.00  0.00    -0.394 OA
ATOM     36  H   UNL A   1      34.604  21.117  25.826  1.00  0.00     0.210 HD
ENDBRANCH  34  35
ENDBRANCH   6  34
ENDBRANCH   4   6
ENDBRANCH   3   4
ENDBRANCH   2   3
ENDBRANCH   1   2
BRANCH   1  37
ATOM     37  O   UNL A   1      42.296  20.906  25.474  1.00  0.00    -0.374 OA
BRANCH  37  38
ATOM     38  C   UNL A   1      43.550  21.491  25.807  1.00  0.00     0.202 C 
BRANCH  38  39
ATOM     39  C   UNL A   1      44.320  22.258  24.718  1.00  0.00     0.261 C 
BRANCH  39  40
ATOM     40  O   UNL A   1      43.895  23.633  24.594  1.00  0.00    -0.460 OA
BRANCH  40  41
ATOM     41  C   UNL A   1      44.518  24.509  25.415  1.00  0.00     0.338 C 
ATOM     42  O   UNL A   1      45.714  24.736  25.486  1.00  0.00    -0.246 OA
BRANCH  41  43
ATOM     43  C   UNL A   1      43.528  25.337  26.126  1.00  0.00     0.060 A 
ATOM     44  C   UNL A   1      43.761  26.718  26.190  1.00  0.00     0.016 A 
ATOM     45  C   UNL A   1      42.507  24.755  26.877  1.00  0.00     0.016 A 
ATOM     46  C   UNL A   1      43.007  27.518  27.039  1.00  0.00     0.010 A 
ATOM     47  C   UNL A   1      41.765  25.556  27.755  1.00  0.00     0.010 A 
ATOM     48  C   UNL A   1      42.052  26.929  27.874  1.00  0.00    -0.014 A 
BRANCH  48  49
ATOM     49  C   UNL A   1      41.560  27.719  29.028  1.00  0.00     0.031 A 
ATOM     50  C   UNL A   1      42.315  27.630  30.327  1.00  0.00     0.074 A 
ATOM     51  C   UNL A   1      40.535  28.577  28.895  1.00  0.00     0.049 A 
ATOM     52  N   UNL A   1      42.087  28.235  31.465  1.00  0.00    -0.248 NA
ATOM     53  C   UNL A   1      43.492  26.747  30.341  1.00  0.00     0.031 C 
ATOM     54  C   UNL A   1      39.782  28.810  27.663  1.00  0.00     0.029 A 
ATOM     55  N   UNL A   1      39.956  29.418  29.810  1.00  0.00    -0.354 N 
ATOM     56  C   UNL A   1      43.086  27.801  32.328  1.00  0.00     0.074 A 
ATOM     57  C   UNL A   1      43.905  26.861  31.594  1.00  0.00     0.031 C 
ATOM     58  C   UNL A   1      38.832  29.730  27.903  1.00  0.00     0.029 A 
ATOM     59  C   UNL A   1      38.890  30.122  29.310  1.00  0.00     0.049 A 
ATOM     60  H   UNL A   1      40.276  29.508  30.736  1.00  0.00     0.167 HD
ATOM     61  C   UNL A   1      43.308  28.160  33.615  1.00  0.00     0.037 A 
ATOM     62  C   UNL A   1      38.044  30.969  29.928  1.00  0.00     0.037 A 
ATOM     63  C   UNL A   1      42.491  29.096  34.339  1.00  0.00     0.049 A 
ATOM     64  C   UNL A   1      38.251  31.279  31.389  1.00  0.00     0.074 A 
ATOM     65  C   UNL A   1      42.627  29.529  35.647  1.00  0.00     0.029 A 
ATOM     66  N   UNL A   1      41.380  29.742  33.817  1.00  0.00    -0.354 N 
ATOM     67  N   UNL A   1      39.198  30.864  32.198  1.00  0.00    -0.248 NA
ATOM     68  C   UNL A   1      37.274  32.176  32.021  1.00  0.00     0.031 C 
ATOM     69  C   UNL A   1      41.564  30.392  35.932  1.00  0.00     0.029 A 
ATOM     70  C   UNL A   1      40.803  30.546  34.785  1.00  0.00     0.049 A 
ATOM     71  H   UNL A   1      41.050  29.643  32.894  1.00  0.00     0.167 HD
ATOM     72  C   UNL A   1      38.947  31.473  33.422  1.00  0.00     0.074 A 
ATOM     73  C   UNL A   1      37.768  32.295  33.245  1.00  0.00     0.031 C 
ATOM     74  C   UNL A   1      39.633  31.364  34.588  1.00  0.00     0.037 A 
BRANCH  61  75
ATOM     75  C   UNL A   1      44.452  27.504  34.330  1.00  0.00     0.057 A 
ATOM     76  C   UNL A   1      45.738  28.062  34.350  1.00  0.00     0.134 A 
ATOM     77  C   UNL A   1      44.260  26.303  35.027  1.00  0.00     0.134 A 
ATOM     78  F   UNL A   1      45.996  29.201  33.689  1.00  0.00    -0.206 F 
ATOM     79  C   UNL A   1      46.795  27.438  35.017  1.00  0.00     0.040 A 
ATOM     80  C   UNL A   1      45.302  25.686  35.720  1.00  0.00     0.040 A 
ATOM     81  F   UNL A   1      43.055  25.715  35.050  1.00  0.00    -0.206 F 
ATOM     82  C   UNL A   1      46.576  26.250  35.711  1.00  0.00     0.006 A 
ENDBRANCH  61  75
BRANCH  62  83
ATOM     83  C   UNL A   1      36.908  31.565  29.181  1.00  0.00     0.057 A 
ATOM     84  C   UNL A   1      36.943  32.891  28.734  1.00  0.00     0.134 A 
ATOM     85  C   UNL A   1      35.747  30.827  28.917  1.00  0.00     0.134 A 
ATOM     86  F   UNL A   1      38.016  33.657  28.976  1.00  0.00    -0.206 F 
ATOM     87  C   UNL A   1      35.858  33.468  28.069  1.00  0.00     0.040 A 
ATOM     88  C   UNL A   1      34.666  31.382  28.230  1.00  0.00     0.040 A 
ATOM     89  F   UNL A   1      35.649  29.552  29.319  1.00  0.00    -0.206 F 
ATOM     90  C   UNL A   1      34.718  32.709  27.811  1.00  0.00     0.006 A 
ENDBRANCH  62  83
BRANCH  74  91
ATOM     91  C   UNL A   1      39.151  32.184  35.751  1.00  0.00     0.057 A 
ATOM     92  C   UNL A   1      38.299  31.656  36.729  1.00  0.00     0.134 A 
ATOM     93  C   UNL A   1      39.583  33.507  35.915  1.00  0.00     0.134 A 
ATOM     94  F   UNL A   1      37.840  30.400  36.625  1.00  0.00    -0.206 F 
ATOM     95  C   UNL A   1      37.874  32.423  37.815  1.00  0.00     0.040 A 
ATOM     96  C   UNL A   1      39.189  34.272  37.012  1.00  0.00     0.040 A 
ATOM     97  F   UNL A   1      40.409  34.070  35.021  1.00  0.00    -0.206 F 
ATOM     98  C   UNL A   1      38.326  33.733  37.963  1.00  0.00     0.006 A 
ENDBRANCH  74  91
ENDBRANCH  48  49
ENDBRANCH  41  43
ENDBRANCH  40  41
ENDBRANCH  39  40
ENDBRANCH  38  39
ENDBRANCH  37  38
ENDBRANCH   1  37
TORSDOF 22
ENDMDL
MODEL 2
REMARK VINA RESULT:     -12.0      0.487      5.871
REMARK SMILES O=C(N[C@@H](Cc1c[nH]c2ccccc12)C(=O)N[C@@H](CO)C(=O)OCCOCCOC(=O)c1ccc(-c2c3nc(c(-c4c(F)cccc4F)c4ccc([nH]4)c(-c4c(F)cccc4F)c4nc(c(-c5c(F)cccc5F)c5ccc2[nH]5)C=C4)C=C3)cc1)c1ccc(F)cc1
REMARK SMILES IDX 25 1 24 2 23 3 21 4 22 5 18 6 17 7 15 8 16 9 4 11 3 12 1 13
REMARK SMILES IDX 2 14 86 16 87 17 92 18 88 19 91 20 89 21 90 22 5 23 6 24
REMARK SMILES IDX 7 25 14 26 8 27 9 28 13 29 10 31 12 32 11 33 19 34 20 35
REMARK SMILES IDX 26 37 27 38 28 39 29 40 30 41 31 42 32 43 33 44 85 45 34 46
REMARK SMILES IDX 84 47 35 48 36 49 37 50 78 51 38 52 83 53 77 54 79 55 39 56
REMARK SMILES IDX 82 57 76 58 75 59 40 61 66 62 49 63 65 64 50 65 53 66 64 67
REMARK SMILES IDX 80 68 51 69 52 70 63 72 81 73 54 74 41 75 42 76 47 77 43 78
REMARK SMILES IDX 44 79 46 80 48 81 45 82 67 83 68 84 73 85 69 86 70 87 72 88
REMARK SMILES IDX 74 89 71 90 55 91 56 92 61 93 57 94 58 95 60 96 62 97 59 98
REMARK H PARENT 17 10 3 15 8 30 20 36 79 60 53 71
REMARK Flexibility Score: inf
ROOT
ATOM      1  C   UNL A   1      41.404  20.079  26.284  1.00  0.00     0.202 C 
ENDROOT
BRANCH   1   2
ATOM      2  C   UNL A   1      39.993  20.683  26.175  1.00  0.00     0.261 C 
BRANCH   2   3
ATOM      3  O   UNL A   1      39.882  22.087  26.526  1.00  0.00    -0.462 OA
BRANCH   3   4
ATOM      4  C   UNL A   1      38.590  22.793  26.308  1.00  0.00     0.331 C 
ATOM      5  O   UNL A   1      38.766  23.915  26.863  1.00  0.00    -0.250 OA
BRANCH   4   6
ATOM      6  C   UNL A   1      36.829  21.903  25.312  1.00  0.00     0.218 C 
BRANCH   6   7
ATOM      7  N   UNL A   1      36.108  22.264  23.781  1.00  0.00    -0.339 N 
ATOM      8  C   UNL A   1      35.125  23.100  23.329  1.00  0.00     0.243 C 
ATOM      9  O   UNL A   1      35.061  23.204  22.092  1.00  0.00    -0.273 OA
ATOM     10  H   UNL A   1      36.506  21.734  23.051  1.00  0.00     0.164 HD
BRANCH   8  11
ATOM     11  C   UNL A   1      34.064  23.856  24.191  1.00  0.00     0.176 C 
BRANCH  11  12
ATOM     12  N   UNL A   1      33.319  22.847  24.948  1.00  0.00    -0.340 N 
ATOM     13  O   UNL A   1      31.528  21.791  25.813  1.00  0.00    -0.269 OA
ATOM     14  C   UNL A   1      31.970  22.754  25.194  1.00  0.00     0.251 C 
ATOM     15  H   UNL A   1      33.865  22.128  25.339  1.00  0.00     0.164 HD
BRANCH  14  16
ATOM     16  C   UNL A   1      31.056  23.861  24.820  1.00  0.00     0.040 A 
ATOM     17  C   UNL A   1      30.634  24.081  23.503  1.00  0.00     0.017 A 
ATOM     18  C   UNL A   1      30.629  24.718  25.843  1.00  0.00     0.017 A 
ATOM     19  C   UNL A   1      29.893  25.225  23.193  1.00  0.00     0.040 A 
ATOM     20  C   UNL A   1      29.862  25.843  25.534  1.00  0.00     0.040 A 
ATOM     21  C   UNL A   1      29.524  26.099  24.209  1.00  0.00     0.123 A 
ATOM     22  F   UNL A   1      28.834  27.207  23.908  1.00  0.00    -0.207 F 
ENDBRANCH  14  16
ENDBRANCH  11  12
BRANCH  11  23
ATOM     23  C   UNL A   1      34.401  25.143  24.987  1.00  0.00     0.072 C 
BRANCH  23  24
ATOM     24  C   UNL A   1      33.998  26.368  24.267  1.00  0.00    -0.020 A 
ATOM     25  C   UNL A   1      33.598  26.524  22.945  1.00  0.00     0.087 A 
ATOM     26  C   UNL A   1      33.700  27.547  24.964  1.00  0.00     0.003 A 
ATOM     27  N   UNL A   1      32.790  27.640  22.734  1.00  0.00    -0.361 N 
ATOM     28  C   UNL A   1      32.459  28.213  23.933  1.00  0.00     0.046 A 
ATOM     29  C   UNL A   1      33.817  28.043  26.696  1.00  0.00     0.010 A 
ATOM     30  H   UNL A   1      32.501  27.967  21.853  1.00  0.00     0.166 HD
ATOM     31  C   UNL A   1      31.281  29.397  24.597  1.00  0.00     0.026 A 
ATOM     32  C   UNL A   1      32.640  29.240  27.374  1.00  0.00     0.001 A 
ATOM     33  C   UNL A   1      31.436  29.956  26.303  1.00  0.00     0.002 A 
ENDBRANCH  23  24
ENDBRANCH  11  23
ENDBRANCH   8  11
ENDBRANCH   6   7
BRANCH   6  34
ATOM     34  C   UNL A   1      36.282  20.237  25.213  1.00  0.00     0.193 C 
BRANCH  34  35
ATOM     35  O   UNL A   1      34.864  20.051  25.283  1.00  0.00    -0.394 OA
ATOM     36  H   UNL A   1      34.426  20.681  24.690  1.00  0.00     0.210 HD
ENDBRANCH  34  35
ENDBRANCH   6  34
ENDBRANCH   4   6
ENDBRANCH   3   4
ENDBRANCH   2   3
ENDBRANCH   1   2
BRANCH   1  37
ATOM     37  O   UNL A   1      42.427  20.523  25.405  1.00  0.00    -0.374 OA
BRANCH  37  38
ATOM     38  C   UNL A   1      43.555  21.164  25.990  1.00  0.00     0.202 C 
BRANCH  38  39
ATOM     39  C   UNL A   1      44.160  22.386  25.280  1.00  0.00     0.261 C 
BRANCH  39  40
ATOM     40  O   UNL A   1      43.276  23.528  25.276  1.00  0.00    -0.460 OA
BRANCH  40  41
ATOM     41  C   UNL A   1      43.887  24.735  25.317  1.00  0.00     0.338 C 
ATOM     42  O   UNL A   1      44.873  25.087  24.692  1.00  0.00    -0.246 OA
BRANCH  41  43
ATOM     43  C   UNL A   1      43.084  25.689  26.102  1.00  0.00     0.060 A 
ATOM     44  C   UNL A   1      43.649  26.942  26.376  1.00  0.00     0.016 A 
ATOM     45  C   UNL A   1      41.896  25.296  26.718  1.00  0.00     0.016 A 
ATOM     46  C   UNL A   1      43.056  27.791  27.303  1.00  0.00     0.010 A 
ATOM     47  C   UNL A   1      41.312  26.139  27.673  1.00  0.00     0.010 A 
ATOM     48  C   UNL A   1      41.923  27.364  28.003  1.00  0.00    -0.014 A 
BRANCH  48  49
ATOM     49  C   UNL A   1      41.557  28.095  29.240  1.00  0.00     0.031 A 
ATOM     50  C   UNL A   1      40.356  29.001  29.204  1.00  0.00     0.074 A 
ATOM     51  C   UNL A   1      42.209  27.875  30.394  1.00  0.00     0.049 A 
ATOM     52  N   UNL A   1      39.835  29.730  30.157  1.00  0.00    -0.248 NA
ATOM     53  C   UNL A   1      39.641  29.089  27.920  1.00  0.00     0.031 C 
ATOM     54  C   UNL A   1      43.332  26.956  30.569  1.00  0.00     0.029 A 
ATOM     55  N   UNL A   1      42.010  28.409  31.641  1.00  0.00    -0.354 N 
ATOM     56  C   UNL A   1      38.738  30.366  29.588  1.00  0.00     0.074 A 
ATOM     57  C   UNL A   1      38.683  29.961  28.200  1.00  0.00     0.031 C 
ATOM     58  C   UNL A   1      43.730  26.996  31.851  1.00  0.00     0.029 A 
ATOM     59  C   UNL A   1      42.912  27.968  32.576  1.00  0.00     0.049 A 
ATOM     60  H   UNL A   1      41.289  29.046  31.846  1.00  0.00     0.167 HD
ATOM     61  C   UNL A   1      37.849  31.205  30.171  1.00  0.00     0.037 A 
ATOM     62  C   UNL A   1      43.071  28.327  33.865  1.00  0.00     0.037 A 
ATOM     63  C   UNL A   1      37.907  31.603  31.552  1.00  0.00     0.049 A 
ATOM     64  C   UNL A   1      42.129  29.339  34.466  1.00  0.00     0.074 A 
ATOM     65  C   UNL A   1      37.058  32.449  32.243  1.00  0.00     0.029 A 
ATOM     66  N   UNL A   1      38.876  31.184  32.453  1.00  0.00    -0.354 N 
ATOM     67  N   UNL A   1      41.096  29.936  33.921  1.00  0.00    -0.248 NA
ATOM     68  C   UNL A   1      42.376  29.725  35.863  1.00  0.00     0.031 C 
ATOM     69  C   UNL A   1      37.546  32.587  33.546  1.00  0.00     0.029 A 
ATOM     70  C   UNL A   1      38.663  31.778  33.684  1.00  0.00     0.049 A 
ATOM     71  H   UNL A   1      39.606  30.557  32.246  1.00  0.00     0.167 HD
ATOM     72  C   UNL A   1      40.552  30.741  34.915  1.00  0.00     0.074 A 
ATOM     73  C   UNL A   1      41.362  30.546  36.099  1.00  0.00     0.031 C 
ATOM     74  C   UNL A   1      39.476  31.566  34.855  1.00  0.00     0.037 A 
BRANCH  61  75
ATOM     75  C   UNL A   1      36.768  31.780  29.304  1.00  0.00     0.057 A 
ATOM     76  C   UNL A   1      35.645  31.034  28.918  1.00  0.00     0.134 A 
ATOM     77  C   UNL A   1      36.841  33.108  28.864  1.00  0.00     0.134 A 
ATOM     78  F   UNL A   1      35.520  29.751  29.290  1.00  0.00    -0.206 F 
ATOM     79  C   UNL A   1      34.648  31.581  28.108  1.00  0.00     0.040 A 
ATOM     80  C   UNL A   1      35.836  33.674  28.078  1.00  0.00     0.040 A 
ATOM     81  F   UNL A   1      37.887  33.879  29.197  1.00  0.00    -0.206 F 
ATOM     82  C   UNL A   1      34.739  32.908  27.692  1.00  0.00     0.006 A 
ENDBRANCH  61  75
BRANCH  62  83
ATOM     83  C   UNL A   1      44.179  27.752  34.668  1.00  0.00     0.057 A 
ATOM     84  C   UNL A   1      43.998  26.600  35.442  1.00  0.00     0.134 A 
ATOM     85  C   UNL A   1      45.442  28.356  34.700  1.00  0.00     0.134 A 
ATOM     86  F   UNL A   1      42.805  25.988  35.473  1.00  0.00    -0.206 F 
ATOM     87  C   UNL A   1      45.026  26.081  36.233  1.00  0.00     0.040 A 
ATOM     88  C   UNL A   1      46.486  27.834  35.464  1.00  0.00     0.040 A 
ATOM     89  F   UNL A   1      45.682  29.463  33.981  1.00  0.00    -0.206 F 
ATOM     90  C   UNL A   1      46.276  26.696  36.240  1.00  0.00     0.006 A 
ENDBRANCH  62  83
BRANCH  74  91
ATOM     91  C   UNL A   1      39.089  32.288  36.114  1.00  0.00     0.057 A 
ATOM     92  C   UNL A   1      38.253  31.707  37.076  1.00  0.00     0.134 A 
ATOM     93  C   UNL A   1      39.596  33.565  36.385  1.00  0.00     0.134 A 
ATOM     94  F   UNL A   1      37.725  30.490  36.873  1.00  0.00    -0.206 F 
ATOM     95  C   UNL A   1      37.917  32.381  38.252  1.00  0.00     0.040 A 
ATOM     96  C   UNL A   1      39.291  34.236  37.570  1.00  0.00     0.040 A 
ATOM     97  F   UNL A   1      40.412  34.175  35.511  1.00  0.00    -0.206 F 
ATOM     98  C   UNL A   1      38.443  33.647  38.504  1.00  0.00     0.006 A 
ENDBRANCH  74  91
ENDBRANCH  48  49
ENDBRANCH  41  43
ENDBRANCH  40  41
ENDBRANCH  39  40
ENDBRANCH  38  39
ENDBRANCH  37  38
ENDBRANCH   1  37
TORSDOF 22
ENDMDL
MODEL 3
REMARK VINA RESULT:     -11.8      3.144      8.156
REMARK SMILES O=C(N[C@@H](Cc1c[nH]c2ccccc12)C(=O)N[C@@H](CO)C(=O)OCCOCCOC(=O)c1ccc(-c2c3nc(c(-c4c(F)cccc4F)c4ccc([nH]4)c(-c4c(F)cccc4F)c4nc(c(-c5c(F)cccc5F)c5ccc2[nH]5)C=C4)C=C3)cc1)c1ccc(F)cc1
REMARK SMILES IDX 25 1 24 2 23 3 21 4 22 5 18 6 17 7 15 8 16 9 4 11 3 12 1 13
REMARK SMILES IDX 2 14 86 16 87 17 92 18 88 19 91 20 89 21 90 22 5 23 6 24
REMARK SMILES IDX 7 25 14 26 8 27 9 28 13 29 10 31 12 32 11 33 19 34 20 35
REMARK SMILES IDX 26 37 27 38 28 39 29 40 30 41 31 42 32 43 33 44 85 45 34 46
REMARK SMILES IDX 84 47 35 48 36 49 37 50 78 51 38 52 83 53 77 54 79 55 39 56
REMARK SMILES IDX 82 57 76 58 75 59 40 61 66 62 49 63 65 64 50 65 53 66 64 67
REMARK SMILES IDX 80 68 51 69 52 70 63 72 81 73 54 74 41 75 42 76 47 77 43 78
REMARK SMILES IDX 44 79 46 80 48 81 45 82 67 83 68 84 73 85 69 86 70 87 72 88
REMARK SMILES IDX 74 89 71 90 55 91 56 92 61 93 57 94 58 95 60 96 62 97 59 98
REMARK H PARENT 17 10 3 15 8 30 20 36 79 60 53 71
REMARK Flexibility Score: inf
ROOT
ATOM      1  C   UNL A   1      32.016  29.636  25.701  1.00  0.00     0.202 C 
ENDROOT
BRANCH   1   2
ATOM      2  C   UNL A   1      33.105  29.487  24.625  1.00  0.00     0.261 C 
BRANCH   2   3
ATOM      3  O   UNL A   1      33.487  28.125  24.303  1.00  0.00    -0.462 OA
BRANCH   3   4
ATOM      4  C   UNL A   1      33.779  27.764  22.889  1.00  0.00     0.331 C 
ATOM      5  O   UNL A   1      34.434  28.755  22.458  1.00  0.00    -0.250 OA
BRANCH   4   6
ATOM      6  C   UNL A   1      33.070  25.923  21.894  1.00  0.00     0.218 C 
BRANCH   6   7
ATOM      7  N   UNL A   1      31.941  24.725  22.430  1.00  0.00    -0.339 N 
ATOM      8  C   UNL A   1      30.887  24.685  23.301  1.00  0.00     0.243 C 
ATOM      9  O   UNL A   1      30.197  23.655  23.232  1.00  0.00    -0.273 OA
ATOM     10  H   UNL A   1      32.096  23.852  22.000  1.00  0.00     0.164 HD
BRANCH   8  11
ATOM     11  C   UNL A   1      30.525  25.748  24.386  1.00  0.00     0.176 C 
BRANCH  11  12
ATOM     12  N   UNL A   1      29.069  25.725  24.551  1.00  0.00    -0.340 N 
ATOM     13  O   UNL A   1      26.928  26.356  24.257  1.00  0.00    -0.269 OA
ATOM     14  C   UNL A   1      28.116  26.578  24.048  1.00  0.00     0.251 C 
ATOM     15  H   UNL A   1      28.721  24.989  25.103  1.00  0.00     0.164 HD
BRANCH  14  16
ATOM     16  C   UNL A   1      28.512  27.828  23.354  1.00  0.00     0.040 A 
ATOM     17  C   UNL A   1      27.596  28.837  23.031  1.00  0.00     0.017 A 
ATOM     18  C   UNL A   1      29.861  27.970  22.999  1.00  0.00     0.017 A 
ATOM     19  C   UNL A   1      28.004  29.921  22.249  1.00  0.00     0.040 A 
ATOM     20  C   UNL A   1      30.270  29.070  22.244  1.00  0.00     0.040 A 
ATOM     21  C   UNL A   1      29.333  30.021  21.854  1.00  0.00     0.123 A 
ATOM     22  F   UNL A   1      29.718  31.047  21.085  1.00  0.00    -0.207 F 
ENDBRANCH  14  16
ENDBRANCH  11  12
BRANCH  11  23
ATOM     23  C   UNL A   1      31.322  25.895  25.708  1.00  0.00     0.072 C 
BRANCH  23  24
ATOM     24  C   UNL A   1      31.756  24.591  26.248  1.00  0.00    -0.020 A 
ATOM     25  C   UNL A   1      30.993  23.558  26.783  1.00  0.00     0.087 A 
ATOM     26  C   UNL A   1      33.052  24.112  26.017  1.00  0.00     0.003 A 
ATOM     27  N   UNL A   1      31.602  22.309  26.689  1.00  0.00    -0.361 N 
ATOM     28  C   UNL A   1      32.741  22.396  25.935  1.00  0.00     0.046 A 
ATOM     29  C   UNL A   1      34.531  24.813  25.252  1.00  0.00     0.010 A 
ATOM     30  H   UNL A   1      31.262  21.484  27.105  1.00  0.00     0.166 HD
ATOM     31  C   UNL A   1      33.894  21.315  25.077  1.00  0.00     0.026 A 
ATOM     32  C   UNL A   1      35.701  23.733  24.392  1.00  0.00     0.001 A 
ATOM     33  C   UNL A   1      35.409  21.995  24.378  1.00  0.00     0.002 A 
ENDBRANCH  23  24
ENDBRANCH  11  23
ENDBRANCH   8  11
ENDBRANCH   6   7
BRANCH   6  34
ATOM     34  C   UNL A   1      32.659  25.605  20.216  1.00  0.00     0.193 C 
BRANCH  34  35
ATOM     35  O   UNL A   1      32.950  24.283  19.751  1.00  0.00    -0.394 OA
ATOM     36  H   UNL A   1      32.720  23.641  20.440  1.00  0.00     0.210 HD
ENDBRANCH  34  35
ENDBRANCH   6  34
ENDBRANCH   4   6
ENDBRANCH   3   4
ENDBRANCH   2   3
ENDBRANCH   1   2
BRANCH   1  37
ATOM     37  O   UNL A   1      31.511  30.926  26.014  1.00  0.00    -0.374 OA
BRANCH  37  38
ATOM     38  C   UNL A   1      32.193  31.666  27.020  1.00  0.00     0.202 C 
BRANCH  38  39
ATOM     39  C   UNL A   1      32.110  33.202  26.991  1.00  0.00     0.261 C 
BRANCH  39  40
ATOM     40  O   UNL A   1      32.355  33.801  28.282  1.00  0.00    -0.460 OA
BRANCH  40  41
ATOM     41  C   UNL A   1      33.524  34.473  28.396  1.00  0.00     0.338 C 
ATOM     42  O   UNL A   1      33.680  35.679  28.483  1.00  0.00    -0.246 OA
BRANCH  41  43
ATOM     43  C   UNL A   1      34.638  33.531  28.601  1.00  0.00     0.060 A 
ATOM     44  C   UNL A   1      34.387  32.383  29.365  1.00  0.00     0.016 A 
ATOM     45  C   UNL A   1      35.940  33.860  28.223  1.00  0.00     0.016 A 
ATOM     46  C   UNL A   1      35.438  31.584  29.796  1.00  0.00     0.010 A 
ATOM     47  C   UNL A   1      37.003  33.070  28.680  1.00  0.00     0.010 A 
ATOM     48  C   UNL A   1      36.755  31.962  29.512  1.00  0.00    -0.014 A 
BRANCH  48  49
ATOM     49  C   UNL A   1      37.841  31.337  30.303  1.00  0.00     0.031 A 
ATOM     50  C   UNL A   1      38.729  30.328  29.624  1.00  0.00     0.074 A 
ATOM     51  C   UNL A   1      38.101  31.735  31.560  1.00  0.00     0.049 A 
ATOM     52  N   UNL A   1      39.748  29.661  30.103  1.00  0.00    -0.248 NA
ATOM     53  C   UNL A   1      38.432  30.041  28.212  1.00  0.00     0.031 C 
ATOM     54  C   UNL A   1      37.363  32.763  32.290  1.00  0.00     0.029 A 
ATOM     55  N   UNL A   1      39.068  31.321  32.440  1.00  0.00    -0.354 N 
ATOM     56  C   UNL A   1      40.207  28.874  29.054  1.00  0.00     0.074 A 
ATOM     57  C   UNL A   1      39.341  29.123  27.922  1.00  0.00     0.031 C 
ATOM     58  C   UNL A   1      37.900  32.895  33.515  1.00  0.00     0.029 A 
ATOM     59  C   UNL A   1      38.994  31.937  33.664  1.00  0.00     0.049 A 
ATOM     60  H   UNL A   1      39.749  30.648  32.215  1.00  0.00     0.167 HD
ATOM     61  C   UNL A   1      41.263  28.025  29.032  1.00  0.00     0.037 A 
ATOM     62  C   UNL A   1      39.717  31.732  34.782  1.00  0.00     0.037 A 
ATOM     63  C   UNL A   1      42.122  27.783  30.160  1.00  0.00     0.049 A 
ATOM     64  C   UNL A   1      40.825  30.711  34.764  1.00  0.00     0.074 A 
ATOM     65  C   UNL A   1      43.218  26.943  30.245  1.00  0.00     0.029 A 
ATOM     66  N   UNL A   1      41.977  28.380  31.404  1.00  0.00    -0.354 N 
ATOM     67  N   UNL A   1      41.252  29.969  33.768  1.00  0.00    -0.248 NA
ATOM     68  C   UNL A   1      41.551  30.498  36.024  1.00  0.00     0.031 C 
ATOM     69  C   UNL A   1      43.700  26.988  31.557  1.00  0.00     0.029 A 
ATOM     70  C   UNL A   1      42.944  27.903  32.272  1.00  0.00     0.049 A 
ATOM     71  H   UNL A   1      41.287  29.044  31.635  1.00  0.00     0.167 HD
ATOM     72  C   UNL A   1      42.315  29.230  34.273  1.00  0.00     0.074 A 
ATOM     73  C   UNL A   1      42.475  29.620  35.658  1.00  0.00     0.031 C 
ATOM     74  C   UNL A   1      43.092  28.310  33.646  1.00  0.00     0.037 A 
BRANCH  61  75
ATOM     75  C   UNL A   1      41.516  27.268  27.762  1.00  0.00     0.057 A 
ATOM     76  C   UNL A   1      42.337  27.772  26.744  1.00  0.00     0.134 A 
ATOM     77  C   UNL A   1      40.946  26.004  27.562  1.00  0.00     0.134 A 
ATOM     78  F   UNL A   1      42.901  28.984  26.861  1.00  0.00    -0.206 F 
ATOM     79  C   UNL A   1      42.561  27.057  25.565  1.00  0.00     0.040 A 
ATOM     80  C   UNL A   1      41.185  25.268  26.401  1.00  0.00     0.040 A 
ATOM     81  F   UNL A   1      40.151  25.461  28.497  1.00  0.00    -0.206 F 
ATOM     82  C   UNL A   1      41.990  25.797  25.395  1.00  0.00     0.006 A 
ENDBRANCH  61  75
BRANCH  62  83
ATOM     83  C   UNL A   1      39.402  32.486  36.021  1.00  0.00     0.057 A 
ATOM     84  C   UNL A   1      38.452  32.021  36.938  1.00  0.00     0.134 A 
ATOM     85  C   UNL A   1      40.028  33.706  36.307  1.00  0.00     0.134 A 
ATOM     86  F   UNL A   1      37.800  30.872  36.710  1.00  0.00    -0.206 F 
ATOM     87  C   UNL A   1      38.122  32.750  38.083  1.00  0.00     0.040 A 
ATOM     88  C   UNL A   1      39.729  34.432  37.461  1.00  0.00     0.040 A 
ATOM     89  F   UNL A   1      40.948  34.208  35.470  1.00  0.00    -0.206 F 
ATOM     90  C   UNL A   1      38.766  33.956  38.349  1.00  0.00     0.006 A 
ENDBRANCH  62  83
BRANCH  74  91
ATOM     91  C   UNL A   1      44.209  27.694  34.439  1.00  0.00     0.057 A 
ATOM     92  C   UNL A   1      45.471  28.295  34.536  1.00  0.00     0.134 A 
ATOM     93  C   UNL A   1      44.004  26.505  35.151  1.00  0.00     0.134 A 
ATOM     94  F   UNL A   1      45.736  29.430  33.870  1.00  0.00    -0.206 F 
ATOM     95  C   UNL A   1      46.494  27.723  35.293  1.00  0.00     0.040 A 
ATOM     96  C   UNL A   1      45.010  25.940  35.934  1.00  0.00     0.040 A 
ATOM     97  F   UNL A   1      42.816  25.884  35.111  1.00  0.00    -0.206 F 
ATOM     98  C   UNL A   1      46.263  26.546  36.001  1.00  0.00     0.006 A 
ENDBRANCH  74  91
ENDBRANCH  48  49
ENDBRANCH  41  43
ENDBRANCH  40  41
ENDBRANCH  39  40
ENDBRANCH  38  39
ENDBRANCH  37  38
ENDBRANCH   1  37
TORSDOF 22
ENDMDL
