MODEL 1
REMARK VINA RESULT:     -11.1      0.000      0.000
REMARK SMILES Cc1ccc(NC(=O)[C@H]2CC(Cl)=CC[C@@H]2C(=O)OCCOCCOC(=O)c2ccc(-c3c4nc(c(-c5c(F)cccc5F)c5ccc([nH]5)c(-c5c(F)cccc5F)c5nc(c(-c6c(F)cccc6F)c6ccc3[nH]6)C=C5)C=C4)cc2)cc1[N+](=O)[O-]
REMARK SMILES IDX 20 1 19 2 18 3 16 4 17 5 15 6 9 7 10 8 11 9 14 10 12 11
REMARK SMILES IDX 13 12 7 13 6 14 8 16 5 17 1 18 2 19 3 20 82 21 4 22 81 23
REMARK SMILES IDX 83 24 84 25 85 26 21 27 22 28 23 29 24 30 25 31 26 32 27 33
REMARK SMILES IDX 28 34 80 35 29 36 79 37 30 38 31 39 32 40 73 41 33 42 78 43
REMARK SMILES IDX 72 44 74 45 34 46 77 47 71 48 70 49 35 51 61 52 44 53 60 54
REMARK SMILES IDX 45 55 48 56 59 57 75 58 46 59 47 60 58 62 76 63 49 64 36 65
REMARK SMILES IDX 37 66 42 67 38 68 39 69 41 70 43 71 40 72 62 73 63 74 68 75
REMARK SMILES IDX 64 76 65 77 67 78 69 79 66 80 50 81 51 82 56 83 52 84 53 85
REMARK SMILES IDX 55 86 57 87 54 88
REMARK H PARENT 6 15 74 50 48 61
REMARK Flexibility Score: inf
ROOT
ATOM      1  C   UNL A   1      32.566  30.715  27.416  1.00  0.00     0.202 C 
ENDROOT
BRANCH   1   2
ATOM      2  C   UNL A   1      31.963  29.321  27.054  1.00  0.00     0.261 C 
BRANCH   2   3
ATOM      3  O   UNL A   1      31.781  29.104  25.671  1.00  0.00    -0.463 OA
BRANCH   3   4
ATOM      4  C   UNL A   1      32.179  27.869  25.353  1.00  0.00     0.310 C 
ATOM      5  O   UNL A   1      33.293  27.430  25.586  1.00  0.00    -0.252 OA
BRANCH   4   6
ATOM      6  C   UNL A   1      30.962  27.117  24.869  1.00  0.00     0.116 C 
ATOM      7  C   UNL A   1      31.392  25.594  24.616  1.00  0.00     0.098 C 
ATOM      8  C   UNL A   1      31.040  25.148  23.182  1.00  0.00     0.062 C 
ATOM      9  C   UNL A   1      31.450  26.196  22.170  1.00  0.00     0.015 C 
ATOM     10  C   UNL A   1      30.536  27.943  23.624  1.00  0.00     0.044 C 
ATOM     11  Cl  UNL A   1      32.244  25.670  20.736  1.00  0.00    -0.089 Cl
ATOM     12  C   UNL A   1      31.234  27.499  22.378  1.00  0.00    -0.010 C 
BRANCH   7  13
ATOM     13  C   UNL A   1      31.031  24.576  25.756  1.00  0.00     0.228 C 
ATOM     14  N   UNL A   1      31.677  23.376  26.096  1.00  0.00    -0.326 N 
ATOM     15  H   UNL A   1      31.338  23.029  26.954  1.00  0.00     0.169 HD
ATOM     16  O   UNL A   1      30.103  24.900  26.511  1.00  0.00    -0.274 OA
BRANCH  14  17
ATOM     17  C   UNL A   1      32.679  22.514  25.561  1.00  0.00     0.048 A 
ATOM     18  C   UNL A   1      37.357  20.100  24.977  1.00  0.00     0.052 C 
ATOM     19  C   UNL A   1      35.341  20.884  24.996  1.00  0.00     0.027 A 
ATOM     20  C   UNL A   1      34.787  22.083  24.414  1.00  0.00     0.012 A 
ATOM     21  C   UNL A   1      33.934  20.291  25.334  1.00  0.00     0.274 A 
ATOM     22  C   UNL A   1      33.570  22.867  24.628  1.00  0.00     0.027 A 
ATOM     23  C   UNL A   1      32.712  21.134  25.650  1.00  0.00     0.112 A 
BRANCH  21  24
ATOM     24  N   UNL A   1      33.383  18.904  24.835  1.00  0.00     0.063 N 
ATOM     25  O   UNL A   1      34.197  18.162  24.261  1.00  0.00    -0.258 OA
ATOM     26  O   UNL A   1      32.173  18.636  24.874  1.00  0.00    -0.258 OA
ENDBRANCH  21  24
ENDBRANCH  14  17
ENDBRANCH   7  13
ENDBRANCH   4   6
ENDBRANCH   3   4
ENDBRANCH   2   3
ENDBRANCH   1   2
BRANCH   1  27
ATOM     27  O   UNL A   1      33.721  31.427  26.996  1.00  0.00    -0.374 OA
BRANCH  27  28
ATOM     28  C   UNL A   1      34.426  32.077  28.126  1.00  0.00     0.202 C 
BRANCH  28  29
ATOM     29  C   UNL A   1      36.059  32.266  28.357  1.00  0.00     0.261 C 
BRANCH  29  30
ATOM     30  O   UNL A   1      36.938  31.074  28.622  1.00  0.00    -0.460 OA
BRANCH  30  31
ATOM     31  C   UNL A   1      36.929  29.873  27.866  1.00  0.00     0.338 C 
ATOM     32  O   UNL A   1      36.075  29.558  27.058  1.00  0.00    -0.246 OA
BRANCH  31  33
ATOM     33  C   UNL A   1      37.878  28.862  28.547  1.00  0.00     0.060 A 
ATOM     34  C   UNL A   1      38.418  28.642  30.310  1.00  0.00     0.016 A 
ATOM     35  C   UNL A   1      39.061  28.448  27.244  1.00  0.00     0.016 A 
ATOM     36  C   UNL A   1      40.219  28.094  30.652  1.00  0.00     0.010 A 
ATOM     37  C   UNL A   1      40.722  28.069  27.599  1.00  0.00     0.010 A 
ATOM     38  C   UNL A   1      41.390  27.920  29.252  1.00  0.00    -0.014 A 
BRANCH  38  39
ATOM     39  C   UNL A   1      42.855  27.531  29.011  1.00  0.00     0.031 A 
ATOM     40  C   UNL A   1      43.975  28.560  29.343  1.00  0.00     0.074 A 
ATOM     41  C   UNL A   1      43.258  26.227  29.164  1.00  0.00     0.049 A 
ATOM     42  N   UNL A   1      45.255  28.320  29.335  1.00  0.00    -0.248 NA
ATOM     43  C   UNL A   1      43.734  29.940  29.772  1.00  0.00     0.031 C 
ATOM     44  C   UNL A   1      44.504  25.774  29.825  1.00  0.00     0.029 A 
ATOM     45  N   UNL A   1      42.624  25.000  28.903  1.00  0.00    -0.354 N 
ATOM     46  C   UNL A   1      45.932  29.321  30.028  1.00  0.00     0.074 A 
ATOM     47  C   UNL A   1      44.935  30.340  30.201  1.00  0.00     0.031 C 
ATOM     48  C   UNL A   1      44.639  24.445  29.744  1.00  0.00     0.029 A 
ATOM     49  C   UNL A   1      43.627  23.976  28.842  1.00  0.00     0.049 A 
ATOM     50  H   UNL A   1      41.656  24.865  28.784  1.00  0.00     0.167 HD
ATOM     51  C   UNL A   1      47.229  29.140  30.450  1.00  0.00     0.037 A 
ATOM     52  C   UNL A   1      43.904  23.239  27.718  1.00  0.00     0.037 A 
ATOM     53  C   UNL A   1      47.711  27.803  30.069  1.00  0.00     0.049 A 
ATOM     54  C   UNL A   1      45.243  23.565  27.116  1.00  0.00     0.074 A 
ATOM     55  C   UNL A   1      47.996  26.631  30.747  1.00  0.00     0.029 A 
ATOM     56  N   UNL A   1      47.756  27.476  28.727  1.00  0.00    -0.354 N 
ATOM     57  N   UNL A   1      46.239  24.105  27.756  1.00  0.00    -0.248 NA
ATOM     58  C   UNL A   1      45.431  23.526  25.667  1.00  0.00     0.031 C 
ATOM     59  C   UNL A   1      48.155  25.589  29.779  1.00  0.00     0.029 A 
ATOM     60  C   UNL A   1      48.029  26.137  28.514  1.00  0.00     0.049 A 
ATOM     61  H   UNL A   1      47.609  28.125  28.002  1.00  0.00     0.167 HD
ATOM     62  C   UNL A   1      47.018  24.745  26.831  1.00  0.00     0.074 A 
ATOM     63  C   UNL A   1      46.461  24.363  25.541  1.00  0.00     0.031 C 
ATOM     64  C   UNL A   1      47.997  25.642  27.142  1.00  0.00     0.037 A 
BRANCH  51  65
ATOM     65  C   UNL A   1      48.108  30.078  31.311  1.00  0.00     0.057 A 
ATOM     66  C   UNL A   1      49.292  30.647  30.775  1.00  0.00     0.134 A 
ATOM     67  C   UNL A   1      47.877  30.478  32.643  1.00  0.00     0.134 A 
ATOM     68  F   UNL A   1      49.652  30.451  29.500  1.00  0.00    -0.206 F 
ATOM     69  C   UNL A   1      50.176  31.468  31.506  1.00  0.00     0.040 A 
ATOM     70  C   UNL A   1      48.752  31.298  33.387  1.00  0.00     0.040 A 
ATOM     71  F   UNL A   1      46.781  30.135  33.318  1.00  0.00    -0.206 F 
ATOM     72  C   UNL A   1      49.914  31.790  32.825  1.00  0.00     0.006 A 
ENDBRANCH  51  65
BRANCH  52  73
ATOM     73  C   UNL A   1      42.701  23.011  26.881  1.00  0.00     0.057 A 
ATOM     74  C   UNL A   1      41.879  21.980  27.350  1.00  0.00     0.134 A 
ATOM     75  C   UNL A   1      42.121  24.171  26.338  1.00  0.00     0.134 A 
ATOM     76  F   UNL A   1      42.404  20.830  27.802  1.00  0.00    -0.206 F 
ATOM     77  C   UNL A   1      40.557  22.255  27.627  1.00  0.00     0.040 A 
ATOM     78  C   UNL A   1      40.810  24.465  26.634  1.00  0.00     0.040 A 
ATOM     79  F   UNL A   1      42.872  25.151  25.818  1.00  0.00    -0.206 F 
ATOM     80  C   UNL A   1      40.054  23.516  27.308  1.00  0.00     0.006 A 
ENDBRANCH  52  73
BRANCH  64  81
ATOM     81  C   UNL A   1      48.917  26.159  26.065  1.00  0.00     0.057 A 
ATOM     82  C   UNL A   1      50.278  25.798  26.024  1.00  0.00     0.134 A 
ATOM     83  C   UNL A   1      48.527  27.086  25.083  1.00  0.00     0.134 A 
ATOM     84  F   UNL A   1      50.843  25.088  27.012  1.00  0.00    -0.206 F 
ATOM     85  C   UNL A   1      51.129  26.164  24.982  1.00  0.00     0.040 A 
ATOM     86  C   UNL A   1      49.393  27.530  24.081  1.00  0.00     0.040 A 
ATOM     87  F   UNL A   1      47.297  27.612  25.037  1.00  0.00    -0.206 F 
ATOM     88  C   UNL A   1      50.686  27.035  24.001  1.00  0.00     0.006 A 
ENDBRANCH  64  81
ENDBRANCH  38  39
ENDBRANCH  31  33
ENDBRANCH  30  31
ENDBRANCH  29  30
ENDBRANCH  28  29
ENDBRANCH  27  28
ENDBRANCH   1  27
TORSDOF 17
ENDMDL
MODEL 2
REMARK VINA RESULT:     -11.1      5.626     12.249
REMARK SMILES Cc1ccc(NC(=O)[C@H]2CC(Cl)=CC[C@@H]2C(=O)OCCOCCOC(=O)c2ccc(-c3c4nc(c(-c5c(F)cccc5F)c5ccc([nH]5)c(-c5c(F)cccc5F)c5nc(c(-c6c(F)cccc6F)c6ccc3[nH]6)C=C5)C=C4)cc2)cc1[N+](=O)[O-]
REMARK SMILES IDX 20 1 19 2 18 3 16 4 17 5 15 6 9 7 10 8 11 9 14 10 12 11
REMARK SMILES IDX 13 12 7 13 6 14 8 16 5 17 1 18 2 19 3 20 82 21 4 22 81 23
REMARK SMILES IDX 83 24 84 25 85 26 21 27 22 28 23 29 24 30 25 31 26 32 27 33
REMARK SMILES IDX 28 34 80 35 29 36 79 37 30 38 31 39 32 40 73 41 33 42 78 43
REMARK SMILES IDX 72 44 74 45 34 46 77 47 71 48 70 49 35 51 61 52 44 53 60 54
REMARK SMILES IDX 45 55 48 56 59 57 75 58 46 59 47 60 58 62 76 63 49 64 36 65
REMARK SMILES IDX 37 66 42 67 38 68 39 69 41 70 43 71 40 72 62 73 63 74 68 75
REMARK SMILES IDX 64 76 65 77 67 78 69 79 66 80 50 81 51 82 56 83 52 84 53 85
REMARK SMILES IDX 55 86 57 87 54 88
REMARK H PARENT 6 15 74 50 48 61
REMARK Flexibility Score: inf
ROOT
ATOM      1  C   UNL A   1      44.092  22.454  25.183  1.00  0.00     0.202 C 
ENDROOT
BRANCH   1   2
ATOM      2  C   UNL A   1      44.236  23.997  24.993  1.00  0.00     0.261 C 
BRANCH   2   3
ATOM      3  O   UNL A   1      45.331  24.571  25.674  1.00  0.00    -0.463 OA
BRANCH   3   4
ATOM      4  C   UNL A   1      45.082  24.597  26.987  1.00  0.00     0.310 C 
ATOM      5  O   UNL A   1      45.232  23.641  27.729  1.00  0.00    -0.252 OA
BRANCH   4   6
ATOM      6  C   UNL A   1      44.800  26.033  27.360  1.00  0.00     0.116 C 
ATOM      7  C   UNL A   1      46.145  26.657  27.969  1.00  0.00     0.098 C 
ATOM      8  C   UNL A   1      45.895  27.258  29.367  1.00  0.00     0.062 C 
ATOM      9  C   UNL A   1      45.077  26.320  30.226  1.00  0.00     0.015 C 
ATOM     10  C   UNL A   1      43.591  25.892  28.326  1.00  0.00     0.044 C 
ATOM     11  Cl  UNL A   1      45.570  26.077  31.858  1.00  0.00    -0.089 Cl
ATOM     12  C   UNL A   1      44.015  25.668  29.743  1.00  0.00    -0.010 C 
BRANCH   7  13
ATOM     13  C   UNL A   1      47.003  27.535  26.991  1.00  0.00     0.228 C 
ATOM     14  N   UNL A   1      46.843  28.891  26.661  1.00  0.00    -0.326 N 
ATOM     15  H   UNL A   1      47.621  29.220  26.154  1.00  0.00     0.169 HD
ATOM     16  O   UNL A   1      48.003  26.994  26.497  1.00  0.00    -0.274 OA
BRANCH  14  17
ATOM     17  C   UNL A   1      45.882  29.929  26.845  1.00  0.00     0.048 A 
ATOM     18  C   UNL A   1      42.985  33.642  29.268  1.00  0.00     0.052 C 
ATOM     19  C   UNL A   1      44.041  32.235  28.010  1.00  0.00     0.027 A 
ATOM     20  C   UNL A   1      43.809  30.833  27.757  1.00  0.00     0.012 A 
ATOM     21  C   UNL A   1      45.082  32.363  26.848  1.00  0.00     0.274 A 
ATOM     22  C   UNL A   1      44.612  29.735  27.218  1.00  0.00     0.027 A 
ATOM     23  C   UNL A   1      45.972  31.228  26.378  1.00  0.00     0.112 A 
BRANCH  21  24
ATOM     24  N   UNL A   1      44.978  33.360  25.635  1.00  0.00     0.063 N 
ATOM     25  O   UNL A   1      44.361  32.952  24.638  1.00  0.00    -0.258 OA
ATOM     26  O   UNL A   1      45.608  34.428  25.619  1.00  0.00    -0.258 OA
ENDBRANCH  21  24
ENDBRANCH  14  17
ENDBRANCH   7  13
ENDBRANCH   4   6
ENDBRANCH   3   4
ENDBRANCH   2   3
ENDBRANCH   1   2
BRANCH   1  27
ATOM     27  O   UNL A   1      42.983  21.569  25.241  1.00  0.00    -0.374 OA
BRANCH  27  28
ATOM     28  C   UNL A   1      42.588  21.249  26.633  1.00  0.00     0.202 C 
BRANCH  28  29
ATOM     29  C   UNL A   1      42.044  22.276  27.818  1.00  0.00     0.261 C 
BRANCH  29  30
ATOM     30  O   UNL A   1      41.484  23.627  27.463  1.00  0.00    -0.460 OA
BRANCH  30  31
ATOM     31  C   UNL A   1      40.136  23.878  27.099  1.00  0.00     0.338 C 
ATOM     32  O   UNL A   1      39.394  23.080  26.557  1.00  0.00    -0.246 OA
BRANCH  31  33
ATOM     33  C   UNL A   1      39.916  25.407  27.071  1.00  0.00     0.060 A 
ATOM     34  C   UNL A   1      40.845  26.791  26.253  1.00  0.00     0.016 A 
ATOM     35  C   UNL A   1      39.115  25.749  28.656  1.00  0.00     0.016 A 
ATOM     36  C   UNL A   1      40.992  28.462  27.173  1.00  0.00     0.010 A 
ATOM     37  C   UNL A   1      39.374  27.241  29.512  1.00  0.00     0.010 A 
ATOM     38  C   UNL A   1      40.325  28.616  28.875  1.00  0.00    -0.014 A 
BRANCH  38  39
ATOM     39  C   UNL A   1      40.201  29.677  29.976  1.00  0.00     0.031 A 
ATOM     40  C   UNL A   1      41.386  29.887  30.963  1.00  0.00     0.074 A 
ATOM     41  C   UNL A   1      39.476  30.822  29.753  1.00  0.00     0.049 A 
ATOM     42  N   UNL A   1      41.484  30.842  31.842  1.00  0.00    -0.248 NA
ATOM     43  C   UNL A   1      42.595  29.058  30.997  1.00  0.00     0.031 C 
ATOM     44  C   UNL A   1      39.873  32.194  30.149  1.00  0.00     0.029 A 
ATOM     45  N   UNL A   1      38.303  31.077  29.021  1.00  0.00    -0.354 N 
ATOM     46  C   UNL A   1      42.802  30.952  32.281  1.00  0.00     0.074 A 
ATOM     47  C   UNL A   1      43.422  29.759  31.778  1.00  0.00     0.031 C 
ATOM     48  C   UNL A   1      38.915  33.080  29.853  1.00  0.00     0.029 A 
ATOM     49  C   UNL A   1      37.757  32.329  29.462  1.00  0.00     0.049 A 
ATOM     50  H   UNL A   1      37.922  30.497  28.323  1.00  0.00     0.167 HD
ATOM     51  C   UNL A   1      43.238  32.076  32.944  1.00  0.00     0.037 A 
ATOM     52  C   UNL A   1      36.535  32.460  30.071  1.00  0.00     0.037 A 
ATOM     53  C   UNL A   1      42.145  33.051  33.077  1.00  0.00     0.049 A 
ATOM     54  C   UNL A   1      36.638  32.829  31.526  1.00  0.00     0.074 A 
ATOM     55  C   UNL A   1      41.845  34.276  32.507  1.00  0.00     0.029 A 
ATOM     56  N   UNL A   1      41.011  32.679  33.776  1.00  0.00    -0.354 N 
ATOM     57  N   UNL A   1      37.664  33.406  32.079  1.00  0.00    -0.248 NA
ATOM     58  C   UNL A   1      35.664  32.317  32.488  1.00  0.00     0.031 C 
ATOM     59  C   UNL A   1      40.489  34.595  32.836  1.00  0.00     0.029 A 
ATOM     60  C   UNL A   1      39.985  33.599  33.656  1.00  0.00     0.049 A 
ATOM     61  H   UNL A   1      40.942  31.850  34.301  1.00  0.00     0.167 HD
ATOM     62  C   UNL A   1      37.648  33.078  33.408  1.00  0.00     0.074 A 
ATOM     63  C   UNL A   1      36.385  32.384  33.609  1.00  0.00     0.031 C 
ATOM     64  C   UNL A   1      38.698  33.272  34.257  1.00  0.00     0.037 A 
BRANCH  51  65
ATOM     65  C   UNL A   1      44.669  32.429  33.416  1.00  0.00     0.057 A 
ATOM     66  C   UNL A   1      45.715  32.604  32.474  1.00  0.00     0.134 A 
ATOM     67  C   UNL A   1      45.106  32.620  34.744  1.00  0.00     0.134 A 
ATOM     68  F   UNL A   1      45.492  32.537  31.155  1.00  0.00    -0.206 F 
ATOM     69  C   UNL A   1      47.055  32.874  32.822  1.00  0.00     0.040 A 
ATOM     70  C   UNL A   1      46.442  32.891  35.107  1.00  0.00     0.040 A 
ATOM     71  F   UNL A   1      44.276  32.590  35.786  1.00  0.00    -0.206 F 
ATOM     72  C   UNL A   1      47.428  33.009  34.147  1.00  0.00     0.006 A 
ENDBRANCH  51  65
BRANCH  52  73
ATOM     73  C   UNL A   1      35.548  31.465  29.581  1.00  0.00     0.057 A 
ATOM     74  C   UNL A   1      34.870  31.872  28.427  1.00  0.00     0.134 A 
ATOM     75  C   UNL A   1      35.933  30.121  29.726  1.00  0.00     0.134 A 
ATOM     76  F   UNL A   1      34.424  33.131  28.294  1.00  0.00    -0.206 F 
ATOM     77  C   UNL A   1      34.921  31.070  27.307  1.00  0.00     0.040 A 
ATOM     78  C   UNL A   1      36.013  29.324  28.608  1.00  0.00     0.040 A 
ATOM     79  F   UNL A   1      36.525  29.679  30.844  1.00  0.00    -0.206 F 
ATOM     80  C   UNL A   1      35.539  29.823  27.403  1.00  0.00     0.006 A 
ENDBRANCH  52  73
BRANCH  64  81
ATOM     81  C   UNL A   1      38.522  33.039  35.737  1.00  0.00     0.057 A 
ATOM     82  C   UNL A   1      38.646  34.091  36.666  1.00  0.00     0.134 A 
ATOM     83  C   UNL A   1      38.310  31.774  36.310  1.00  0.00     0.134 A 
ATOM     84  F   UNL A   1      39.052  35.313  36.289  1.00  0.00    -0.206 F 
ATOM     85  C   UNL A   1      38.379  33.938  38.025  1.00  0.00     0.040 A 
ATOM     86  C   UNL A   1      38.126  31.591  37.683  1.00  0.00     0.040 A 
ATOM     87  F   UNL A   1      38.268  30.652  35.582  1.00  0.00    -0.206 F 
ATOM     88  C   UNL A   1      38.116  32.681  38.540  1.00  0.00     0.006 A 
ENDBRANCH  64  81
ENDBRANCH  38  39
ENDBRANCH  31  33
ENDBRANCH  30  31
ENDBRANCH  29  30
ENDBRANCH  28  29
ENDBRANCH  27  28
ENDBRANCH   1  27
TORSDOF 17
ENDMDL
MODEL 3
REMARK VINA RESULT:     -11.1      3.295      7.370
REMARK SMILES Cc1ccc(NC(=O)[C@H]2CC(Cl)=CC[C@@H]2C(=O)OCCOCCOC(=O)c2ccc(-c3c4nc(c(-c5c(F)cccc5F)c5ccc([nH]5)c(-c5c(F)cccc5F)c5nc(c(-c6c(F)cccc6F)c6ccc3[nH]6)C=C5)C=C4)cc2)cc1[N+](=O)[O-]
REMARK SMILES IDX 20 1 19 2 18 3 16 4 17 5 15 6 9 7 10 8 11 9 14 10 12 11
REMARK SMILES IDX 13 12 7 13 6 14 8 16 5 17 1 18 2 19 3 20 82 21 4 22 81 23
REMARK SMILES IDX 83 24 84 25 85 26 21 27 22 28 23 29 24 30 25 31 26 32 27 33
REMARK SMILES IDX 28 34 80 35 29 36 79 37 30 38 31 39 32 40 73 41 33 42 78 43
REMARK SMILES IDX 72 44 74 45 34 46 77 47 71 48 70 49 35 51 61 52 44 53 60 54
REMARK SMILES IDX 45 55 48 56 59 57 75 58 46 59 47 60 58 62 76 63 49 64 36 65
REMARK SMILES IDX 37 66 42 67 38 68 39 69 41 70 43 71 40 72 62 73 63 74 68 75
REMARK SMILES IDX 64 76 65 77 67 78 69 79 66 80 50 81 51 82 56 83 52 84 53 85
REMARK SMILES IDX 55 86 57 87 54 88
REMARK H PARENT 6 15 74 50 48 61
REMARK Flexibility Score: inf
ROOT
ATOM      1  C   UNL A   1      33.192  30.484  27.275  1.00  0.00     0.202 C 
ENDROOT
BRANCH   1   2
ATOM      2  C   UNL A   1      32.199  29.298  27.067  1.00  0.00     0.261 C 
BRANCH   2   3
ATOM      3  O   UNL A   1      31.574  29.272  25.801  1.00  0.00    -0.463 OA
BRANCH   3   4
ATOM      4  C   UNL A   1      32.101  28.293  25.059  1.00  0.00     0.310 C 
ATOM      5  O   UNL A   1      33.297  28.157  24.859  1.00  0.00    -0.252 OA
BRANCH   4   6
ATOM      6  C   UNL A   1      30.983  27.334  24.726  1.00  0.00     0.116 C 
ATOM      7  C   UNL A   1      31.606  25.859  24.648  1.00  0.00     0.098 C 
ATOM      8  C   UNL A   1      31.282  25.189  23.298  1.00  0.00     0.062 C 
ATOM      9  C   UNL A   1      31.522  26.140  22.146  1.00  0.00     0.015 C 
ATOM     10  C   UNL A   1      30.420  27.930  23.405  1.00  0.00     0.044 C 
ATOM     11  Cl  UNL A   1      32.344  25.539  20.758  1.00  0.00    -0.089 Cl
ATOM     12  C   UNL A   1      31.140  27.420  22.197  1.00  0.00    -0.010 C 
BRANCH   7  13
ATOM     13  C   UNL A   1      31.412  24.961  25.921  1.00  0.00     0.228 C 
ATOM     14  N   UNL A   1      32.096  23.787  26.277  1.00  0.00    -0.326 N 
ATOM     15  H   UNL A   1      31.885  23.528  27.204  1.00  0.00     0.169 HD
ATOM     16  O   UNL A   1      30.607  25.372  26.769  1.00  0.00    -0.274 OA
BRANCH  14  17
ATOM     17  C   UNL A   1      33.005  22.859  25.687  1.00  0.00     0.048 A 
ATOM     18  C   UNL A   1      37.478  20.162  24.813  1.00  0.00     0.052 C 
ATOM     19  C   UNL A   1      35.519  21.066  24.962  1.00  0.00     0.027 A 
ATOM     20  C   UNL A   1      34.996  22.288  24.401  1.00  0.00     0.012 A 
ATOM     21  C   UNL A   1      34.107  20.562  25.408  1.00  0.00     0.274 A 
ATOM     22  C   UNL A   1      33.846  23.146  24.687  1.00  0.00     0.027 A 
ATOM     23  C   UNL A   1      32.962  21.481  25.796  1.00  0.00     0.112 A 
BRANCH  21  24
ATOM     24  N   UNL A   1      33.441  19.205  24.972  1.00  0.00     0.063 N 
ATOM     25  O   UNL A   1      34.119  18.470  24.235  1.00  0.00    -0.258 OA
ATOM     26  O   UNL A   1      32.252  18.957  25.222  1.00  0.00    -0.258 OA
ENDBRANCH  21  24
ENDBRANCH  14  17
ENDBRANCH   7  13
ENDBRANCH   4   6
ENDBRANCH   3   4
ENDBRANCH   2   3
ENDBRANCH   1   2
BRANCH   1  27
ATOM     27  O   UNL A   1      34.599  30.571  27.443  1.00  0.00    -0.374 OA
BRANCH  27  28
ATOM     28  C   UNL A   1      35.023  31.879  27.996  1.00  0.00     0.202 C 
BRANCH  28  29
ATOM     29  C   UNL A   1      34.280  32.803  29.157  1.00  0.00     0.261 C 
BRANCH  29  30
ATOM     30  O   UNL A   1      34.416  32.456  30.615  1.00  0.00    -0.460 OA
BRANCH  30  31
ATOM     31  C   UNL A   1      34.911  33.331  31.616  1.00  0.00     0.338 C 
ATOM     32  O   UNL A   1      34.253  34.166  32.207  1.00  0.00    -0.246 OA
BRANCH  31  33
ATOM     33  C   UNL A   1      36.451  33.379  31.502  1.00  0.00     0.060 A 
ATOM     34  C   UNL A   1      37.591  33.818  30.103  1.00  0.00     0.016 A 
ATOM     35  C   UNL A   1      37.002  32.118  32.675  1.00  0.00     0.016 A 
ATOM     36  C   UNL A   1      39.229  32.846  29.919  1.00  0.00     0.010 A 
ATOM     37  C   UNL A   1      38.440  31.177  32.403  1.00  0.00     0.010 A 
ATOM     38  C   UNL A   1      39.572  31.438  31.042  1.00  0.00    -0.014 A 
BRANCH  38  39
ATOM     39  C   UNL A   1      40.673  30.399  31.291  1.00  0.00     0.031 A 
ATOM     40  C   UNL A   1      40.676  29.084  30.457  1.00  0.00     0.074 A 
ATOM     41  C   UNL A   1      41.932  30.802  31.665  1.00  0.00     0.049 A 
ATOM     42  N   UNL A   1      41.623  28.190  30.450  1.00  0.00    -0.248 NA
ATOM     43  C   UNL A   1      39.625  28.699  29.511  1.00  0.00     0.031 C 
ATOM     44  C   UNL A   1      43.210  30.260  31.146  1.00  0.00     0.029 A 
ATOM     45  N   UNL A   1      42.391  31.857  32.474  1.00  0.00    -0.354 N 
ATOM     46  C   UNL A   1      41.483  27.357  29.342  1.00  0.00     0.074 A 
ATOM     47  C   UNL A   1      40.173  27.676  28.847  1.00  0.00     0.031 C 
ATOM     48  C   UNL A   1      44.258  30.814  31.766  1.00  0.00     0.029 A 
ATOM     49  C   UNL A   1      43.740  31.571  32.868  1.00  0.00     0.049 A 
ATOM     50  H   UNL A   1      41.875  32.657  32.725  1.00  0.00     0.167 HD
ATOM     51  C   UNL A   1      42.519  26.557  28.920  1.00  0.00     0.037 A 
ATOM     52  C   UNL A   1      44.133  31.372  34.168  1.00  0.00     0.037 A 
ATOM     53  C   UNL A   1      43.696  26.743  29.782  1.00  0.00     0.049 A 
ATOM     54  C   UNL A   1      44.524  29.948  34.454  1.00  0.00     0.074 A 
ATOM     55  C   UNL A   1      44.936  27.341  29.637  1.00  0.00     0.029 A 
ATOM     56  N   UNL A   1      43.582  26.447  31.127  1.00  0.00    -0.354 N 
ATOM     57  N   UNL A   1      44.904  29.083  33.558  1.00  0.00    -0.248 NA
ATOM     58  C   UNL A   1      44.249  29.355  35.761  1.00  0.00     0.031 C 
ATOM     59  C   UNL A   1      45.531  27.443  30.935  1.00  0.00     0.029 A 
ATOM     60  C   UNL A   1      44.683  26.854  31.858  1.00  0.00     0.049 A 
ATOM     61  H   UNL A   1      42.802  25.995  31.522  1.00  0.00     0.167 HD
ATOM     62  C   UNL A   1      44.630  27.837  34.055  1.00  0.00     0.074 A 
ATOM     63  C   UNL A   1      44.209  28.063  35.429  1.00  0.00     0.031 C 
ATOM     64  C   UNL A   1      44.640  26.696  33.307  1.00  0.00     0.037 A 
BRANCH  51  65
ATOM     65  C   UNL A   1      42.596  25.649  27.668  1.00  0.00     0.057 A 
ATOM     66  C   UNL A   1      42.250  24.276  27.753  1.00  0.00     0.134 A 
ATOM     67  C   UNL A   1      42.984  26.025  26.365  1.00  0.00     0.134 A 
ATOM     68  F   UNL A   1      41.785  23.736  28.887  1.00  0.00    -0.206 F 
ATOM     69  C   UNL A   1      42.342  23.370  26.676  1.00  0.00     0.040 A 
ATOM     70  C   UNL A   1      43.081  25.130  25.279  1.00  0.00     0.040 A 
ATOM     71  F   UNL A   1      43.268  27.283  26.034  1.00  0.00    -0.206 F 
ATOM     72  C   UNL A   1      42.770  23.793  25.431  1.00  0.00     0.006 A 
ENDBRANCH  51  65
BRANCH  52  73
ATOM     73  C   UNL A   1      43.339  32.177  35.129  1.00  0.00     0.057 A 
ATOM     74  C   UNL A   1      42.260  31.480  35.686  1.00  0.00     0.134 A 
ATOM     75  C   UNL A   1      44.085  33.060  35.928  1.00  0.00     0.134 A 
ATOM     76  F   UNL A   1      41.485  30.689  34.929  1.00  0.00    -0.206 F 
ATOM     77  C   UNL A   1      42.176  31.369  37.057  1.00  0.00     0.040 A 
ATOM     78  C   UNL A   1      44.025  32.936  37.297  1.00  0.00     0.040 A 
ATOM     79  F   UNL A   1      45.082  33.795  35.417  1.00  0.00    -0.206 F 
ATOM     80  C   UNL A   1      43.095  32.063  37.844  1.00  0.00     0.006 A 
ENDBRANCH  52  73
BRANCH  64  81
ATOM     81  C   UNL A   1      44.498  25.354  33.980  1.00  0.00     0.057 A 
ATOM     82  C   UNL A   1      45.556  24.423  33.994  1.00  0.00     0.134 A 
ATOM     83  C   UNL A   1      43.305  24.893  34.561  1.00  0.00     0.134 A 
ATOM     84  F   UNL A   1      46.685  24.637  33.300  1.00  0.00    -0.206 F 
ATOM     85  C   UNL A   1      45.501  23.223  34.701  1.00  0.00     0.040 A 
ATOM     86  C   UNL A   1      43.208  23.653  35.199  1.00  0.00     0.040 A 
ATOM     87  F   UNL A   1      42.173  25.607  34.546  1.00  0.00    -0.206 F 
ATOM     88  C   UNL A   1      44.321  22.834  35.310  1.00  0.00     0.006 A 
ENDBRANCH  64  81
ENDBRANCH  38  39
ENDBRANCH  31  33
ENDBRANCH  30  31
ENDBRANCH  29  30
ENDBRANCH  28  29
ENDBRANCH  27  28
ENDBRANCH   1  27
TORSDOF 17
ENDMDL
