MODEL 1
REMARK VINA RESULT:      -9.9      0.000      0.000
REMARK SMILES CN(C)S(=O)(=O)c1c[nH]c(C(=O)OCCOCCOC(=O)c2ccc(-c3c4nc(c(-c5c(F)cccc5F)c5ccc([nH]5)c(-c5c(F)cccc5F)c5nc(c(-c6c(F)cccc6F)c6ccc3[nH]6)C=C5)C=C4)cc2)c1
REMARK SMILES IDX 16 1 15 2 14 3 13 4 11 5 12 6 10 7 7 8 8 9 76 10 9 11 4 13
REMARK SMILES IDX 5 14 6 15 2 16 1 17 3 18 17 19 18 20 19 21 20 22 21 23 22 24
REMARK SMILES IDX 23 25 75 26 24 27 74 28 25 29 26 30 27 31 68 32 28 33 73 34
REMARK SMILES IDX 67 35 69 36 29 37 72 38 66 39 65 40 30 42 56 43 39 44 55 45
REMARK SMILES IDX 40 46 43 47 54 48 70 49 41 50 42 51 53 53 71 54 44 55 31 56
REMARK SMILES IDX 32 57 37 58 33 59 34 60 36 61 38 62 35 63 57 64 58 65 63 66
REMARK SMILES IDX 59 67 60 68 62 69 64 70 61 71 45 72 46 73 51 74 47 75 48 76
REMARK SMILES IDX 50 77 52 78 49 79
REMARK H PARENT 9 12 69 41 43 52
REMARK Flexibility Score: inf
ROOT
ATOM      1  O   UNL A   1      42.299  20.537  26.758  1.00  0.00    -0.374 OA
ENDROOT
BRANCH   1   2
ATOM      2  C   UNL A   1      41.343  21.390  26.126  1.00  0.00     0.202 C 
BRANCH   2   3
ATOM      3  C   UNL A   1      39.892  21.295  26.608  1.00  0.00     0.261 C 
BRANCH   3   4
ATOM      4  O   UNL A   1      39.022  22.178  25.884  1.00  0.00    -0.459 OA
BRANCH   4   5
ATOM      5  C   UNL A   1      38.007  21.548  25.220  1.00  0.00     0.354 C 
ATOM      6  O   UNL A   1      37.911  20.359  25.030  1.00  0.00    -0.244 OA
BRANCH   5   7
ATOM      7  C   UNL A   1      36.944  22.492  24.947  1.00  0.00     0.126 A 
ATOM      8  C   UNL A   1      35.182  23.692  24.208  1.00  0.00     0.100 A 
ATOM      9  C   UNL A   1      35.611  24.252  25.395  1.00  0.00     0.105 A 
ATOM     10  C   UNL A   1      36.082  22.644  23.877  1.00  0.00     0.057 A 
ATOM     11  N   UNL A   1      36.649  23.490  25.852  1.00  0.00    -0.354 N 
ATOM     12  H   UNL A   1      37.119  23.634  26.705  1.00  0.00     0.166 HD
BRANCH   8  13
ATOM     13  S   UNL A   1      33.763  24.132  23.326  1.00  0.00     0.244 S 
ATOM     14  O   UNL A   1      34.069  23.784  21.955  1.00  0.00    -0.207 OA
ATOM     15  O   UNL A   1      33.496  25.494  23.731  1.00  0.00    -0.207 OA
BRANCH  13  16
ATOM     16  N   UNL A   1      32.469  23.137  23.847  1.00  0.00    -0.204 NA
ATOM     17  C   UNL A   1      32.348  21.902  23.037  1.00  0.00     0.124 C 
ATOM     18  C   UNL A   1      32.464  22.826  25.294  1.00  0.00     0.124 C 
ENDBRANCH  13  16
ENDBRANCH   8  13
ENDBRANCH   5   7
ENDBRANCH   4   5
ENDBRANCH   3   4
ENDBRANCH   2   3
ENDBRANCH   1   2
BRANCH   1  19
ATOM     19  C   UNL A   1      42.389  19.175  26.360  1.00  0.00     0.202 C 
BRANCH  19  20
ATOM     20  C   UNL A   1      43.490  18.730  25.403  1.00  0.00     0.261 C 
BRANCH  20  21
ATOM     21  O   UNL A   1      43.671  19.559  24.265  1.00  0.00    -0.460 OA
BRANCH  21  22
ATOM     22  C   UNL A   1      44.979  19.825  24.059  1.00  0.00     0.338 C 
ATOM     23  O   UNL A   1      45.849  19.044  23.706  1.00  0.00    -0.246 OA
BRANCH  22  24
ATOM     24  C   UNL A   1      45.302  21.175  24.504  1.00  0.00     0.060 A 
ATOM     25  C   UNL A   1      45.678  21.304  25.843  1.00  0.00     0.016 A 
ATOM     26  C   UNL A   1      44.929  22.271  23.716  1.00  0.00     0.016 A 
ATOM     27  C   UNL A   1      45.559  22.535  26.443  1.00  0.00     0.010 A 
ATOM     28  C   UNL A   1      44.779  23.501  24.325  1.00  0.00     0.010 A 
ATOM     29  C   UNL A   1      45.073  23.611  25.690  1.00  0.00    -0.014 A 
BRANCH  29  30
ATOM     30  C   UNL A   1      45.111  24.929  26.330  1.00  0.00     0.031 A 
ATOM     31  C   UNL A   1      43.657  25.460  26.454  1.00  0.00     0.074 A 
ATOM     32  C   UNL A   1      46.364  25.420  26.602  1.00  0.00     0.049 A 
ATOM     33  N   UNL A   1      43.217  26.677  26.496  1.00  0.00    -0.248 NA
ATOM     34  C   UNL A   1      42.507  24.499  26.462  1.00  0.00     0.031 C 
ATOM     35  C   UNL A   1      47.642  24.682  26.416  1.00  0.00     0.029 A 
ATOM     36  N   UNL A   1      46.838  26.627  27.075  1.00  0.00    -0.354 N 
ATOM     37  C   UNL A   1      41.832  26.628  26.780  1.00  0.00     0.074 A 
ATOM     38  C   UNL A   1      41.430  25.270  26.616  1.00  0.00     0.031 C 
ATOM     39  C   UNL A   1      48.712  25.472  26.672  1.00  0.00     0.029 A 
ATOM     40  C   UNL A   1      48.258  26.791  27.071  1.00  0.00     0.049 A 
ATOM     41  H   UNL A   1      46.234  27.333  27.398  1.00  0.00     0.167 HD
ATOM     42  C   UNL A   1      41.151  27.696  27.293  1.00  0.00     0.037 A 
ATOM     43  C   UNL A   1      48.990  27.928  27.329  1.00  0.00     0.037 A 
ATOM     44  C   UNL A   1      42.029  28.812  27.372  1.00  0.00     0.049 A 
ATOM     45  C   UNL A   1      47.990  28.882  27.817  1.00  0.00     0.074 A 
ATOM     46  C   UNL A   1      42.599  29.584  26.395  1.00  0.00     0.029 A 
ATOM     47  N   UNL A   1      42.743  28.937  28.538  1.00  0.00    -0.354 N 
ATOM     48  N   UNL A   1      47.428  28.827  28.986  1.00  0.00    -0.248 NA
ATOM     49  C   UNL A   1      47.496  29.904  26.889  1.00  0.00     0.031 C 
ATOM     50  C   UNL A   1      43.926  29.709  26.848  1.00  0.00     0.029 A 
ATOM     51  C   UNL A   1      44.013  29.308  28.189  1.00  0.00     0.049 A 
ATOM     52  H   UNL A   1      42.406  28.788  29.451  1.00  0.00     0.167 HD
ATOM     53  C   UNL A   1      46.293  29.568  28.782  1.00  0.00     0.074 A 
ATOM     54  C   UNL A   1      46.562  30.447  27.662  1.00  0.00     0.031 C 
ATOM     55  C   UNL A   1      45.084  29.047  29.116  1.00  0.00     0.037 A 
BRANCH  42  56
ATOM     56  C   UNL A   1      39.839  27.823  28.013  1.00  0.00     0.057 A 
ATOM     57  C   UNL A   1      39.022  28.937  27.698  1.00  0.00     0.134 A 
ATOM     58  C   UNL A   1      39.550  27.179  29.219  1.00  0.00     0.134 A 
ATOM     59  F   UNL A   1      39.169  29.597  26.537  1.00  0.00    -0.206 F 
ATOM     60  C   UNL A   1      38.102  29.475  28.598  1.00  0.00     0.040 A 
ATOM     61  C   UNL A   1      38.590  27.682  30.108  1.00  0.00     0.040 A 
ATOM     62  F   UNL A   1      40.247  26.110  29.626  1.00  0.00    -0.206 F 
ATOM     63  C   UNL A   1      37.902  28.859  29.823  1.00  0.00     0.006 A 
ENDBRANCH  42  56
BRANCH  43  64
ATOM     64  C   UNL A   1      50.399  28.485  27.198  1.00  0.00     0.057 A 
ATOM     65  C   UNL A   1      51.226  28.924  28.233  1.00  0.00     0.134 A 
ATOM     66  C   UNL A   1      51.036  28.520  25.918  1.00  0.00     0.134 A 
ATOM     67  F   UNL A   1      50.754  29.080  29.475  1.00  0.00    -0.206 F 
ATOM     68  C   UNL A   1      52.591  29.245  28.027  1.00  0.00     0.040 A 
ATOM     69  C   UNL A   1      52.395  28.774  25.708  1.00  0.00     0.040 A 
ATOM     70  F   UNL A   1      50.363  28.307  24.780  1.00  0.00    -0.206 F 
ATOM     71  C   UNL A   1      53.191  29.122  26.775  1.00  0.00     0.006 A 
ENDBRANCH  43  64
BRANCH  55  72
ATOM     72  C   UNL A   1      45.109  27.981  30.198  1.00  0.00     0.057 A 
ATOM     73  C   UNL A   1      45.581  28.296  31.478  1.00  0.00     0.134 A 
ATOM     74  C   UNL A   1      44.766  26.633  30.006  1.00  0.00     0.134 A 
ATOM     75  F   UNL A   1      45.912  29.561  31.777  1.00  0.00    -0.206 F 
ATOM     76  C   UNL A   1      45.719  27.333  32.489  1.00  0.00     0.040 A 
ATOM     77  C   UNL A   1      44.901  25.653  31.003  1.00  0.00     0.040 A 
ATOM     78  F   UNL A   1      44.283  26.211  28.843  1.00  0.00    -0.206 F 
ATOM     79  C   UNL A   1      45.386  26.004  32.253  1.00  0.00     0.006 A 
ENDBRANCH  55  72
ENDBRANCH  29  30
ENDBRANCH  22  24
ENDBRANCH  21  22
ENDBRANCH  20  21
ENDBRANCH  19  20
ENDBRANCH   1  19
TORSDOF 16
ENDMDL
MODEL 2
REMARK VINA RESULT:      -9.8      4.386      9.685
REMARK SMILES CN(C)S(=O)(=O)c1c[nH]c(C(=O)OCCOCCOC(=O)c2ccc(-c3c4nc(c(-c5c(F)cccc5F)c5ccc([nH]5)c(-c5c(F)cccc5F)c5nc(c(-c6c(F)cccc6F)c6ccc3[nH]6)C=C5)C=C4)cc2)c1
REMARK SMILES IDX 16 1 15 2 14 3 13 4 11 5 12 6 10 7 7 8 8 9 76 10 9 11 4 13
REMARK SMILES IDX 5 14 6 15 2 16 1 17 3 18 17 19 18 20 19 21 20 22 21 23 22 24
REMARK SMILES IDX 23 25 75 26 24 27 74 28 25 29 26 30 27 31 68 32 28 33 73 34
REMARK SMILES IDX 67 35 69 36 29 37 72 38 66 39 65 40 30 42 56 43 39 44 55 45
REMARK SMILES IDX 40 46 43 47 54 48 70 49 41 50 42 51 53 53 71 54 44 55 31 56
REMARK SMILES IDX 32 57 37 58 33 59 34 60 36 61 38 62 35 63 57 64 58 65 63 66
REMARK SMILES IDX 59 67 60 68 62 69 64 70 61 71 45 72 46 73 51 74 47 75 48 76
REMARK SMILES IDX 50 77 52 78 49 79
REMARK H PARENT 9 12 69 41 43 52
REMARK Flexibility Score: inf
ROOT
ATOM      1  O   UNL A   1      42.270  18.714  25.751  1.00  0.00    -0.374 OA
ENDROOT
BRANCH   1   2
ATOM      2  C   UNL A   1      43.674  18.894  25.560  1.00  0.00     0.202 C 
BRANCH   2   3
ATOM      3  C   UNL A   1      44.151  19.246  24.147  1.00  0.00     0.261 C 
BRANCH   3   4
ATOM      4  O   UNL A   1      44.693  20.573  24.073  1.00  0.00    -0.459 OA
BRANCH   4   5
ATOM      5  C   UNL A   1      45.933  20.706  24.631  1.00  0.00     0.354 C 
ATOM      6  O   UNL A   1      46.868  19.957  24.476  1.00  0.00    -0.244 OA
BRANCH   5   7
ATOM      7  C   UNL A   1      46.038  21.994  25.283  1.00  0.00     0.126 A 
ATOM      8  C   UNL A   1      46.284  24.149  25.907  1.00  0.00     0.100 A 
ATOM      9  C   UNL A   1      45.791  23.446  26.988  1.00  0.00     0.105 A 
ATOM     10  C   UNL A   1      46.531  23.216  24.864  1.00  0.00     0.057 A 
ATOM     11  N   UNL A   1      45.606  22.155  26.584  1.00  0.00    -0.354 N 
ATOM     12  H   UNL A   1      45.220  21.441  27.141  1.00  0.00     0.166 HD
BRANCH   8  13
ATOM     13  S   UNL A   1      46.489  25.862  25.810  1.00  0.00     0.244 S 
ATOM     14  O   UNL A   1      46.164  26.339  27.137  1.00  0.00    -0.207 OA
ATOM     15  O   UNL A   1      45.722  26.250  24.647  1.00  0.00    -0.207 OA
BRANCH  13  16
ATOM     16  N   UNL A   1      48.144  26.196  25.518  1.00  0.00    -0.204 NA
ATOM     17  C   UNL A   1      49.038  25.442  26.426  1.00  0.00     0.124 C 
ATOM     18  C   UNL A   1      48.571  26.048  24.108  1.00  0.00     0.124 C 
ENDBRANCH  13  16
ENDBRANCH   8  13
ENDBRANCH   5   7
ENDBRANCH   4   5
ENDBRANCH   3   4
ENDBRANCH   2   3
ENDBRANCH   1   2
BRANCH   1  19
ATOM     19  C   UNL A   1      41.469  19.825  26.130  1.00  0.00     0.202 C 
BRANCH  19  20
ATOM     20  C   UNL A   1      42.127  21.108  26.627  1.00  0.00     0.261 C 
BRANCH  20  21
ATOM     21  O   UNL A   1      41.371  22.292  26.421  1.00  0.00    -0.460 OA
BRANCH  21  22
ATOM     22  C   UNL A   1      42.158  23.305  25.998  1.00  0.00     0.338 C 
ATOM     23  O   UNL A   1      42.888  23.320  25.019  1.00  0.00    -0.246 OA
BRANCH  22  24
ATOM     24  C   UNL A   1      42.189  24.375  26.987  1.00  0.00     0.060 A 
ATOM     25  C   UNL A   1      41.235  24.296  28.004  1.00  0.00     0.016 A 
ATOM     26  C   UNL A   1      42.910  25.546  26.719  1.00  0.00     0.016 A 
ATOM     27  C   UNL A   1      40.903  25.443  28.684  1.00  0.00     0.010 A 
ATOM     28  C   UNL A   1      42.555  26.705  27.380  1.00  0.00     0.010 A 
ATOM     29  C   UNL A   1      41.536  26.643  28.339  1.00  0.00    -0.014 A 
BRANCH  29  30
ATOM     30  C   UNL A   1      41.260  27.800  29.193  1.00  0.00     0.031 A 
ATOM     31  C   UNL A   1      42.134  27.691  30.472  1.00  0.00     0.074 A 
ATOM     32  C   UNL A   1      40.285  28.654  28.739  1.00  0.00     0.049 A 
ATOM     33  N   UNL A   1      41.929  28.157  31.662  1.00  0.00    -0.248 NA
ATOM     34  C   UNL A   1      43.395  26.881  30.450  1.00  0.00     0.031 C 
ATOM     35  C   UNL A   1      39.597  28.560  27.424  1.00  0.00     0.029 A 
ATOM     36  N   UNL A   1      39.656  29.761  29.272  1.00  0.00    -0.354 N 
ATOM     37  C   UNL A   1      43.098  27.928  32.426  1.00  0.00     0.074 A 
ATOM     38  C   UNL A   1      43.906  27.028  31.673  1.00  0.00     0.031 C 
ATOM     39  C   UNL A   1      38.611  29.482  27.314  1.00  0.00     0.029 A 
ATOM     40  C   UNL A   1      38.560  30.286  28.520  1.00  0.00     0.049 A 
ATOM     41  H   UNL A   1      39.947  30.167  30.120  1.00  0.00     0.167 HD
ATOM     42  C   UNL A   1      43.383  28.636  33.559  1.00  0.00     0.037 A 
ATOM     43  C   UNL A   1      37.663  31.265  28.882  1.00  0.00     0.037 A 
ATOM     44  C   UNL A   1      42.294  29.504  33.851  1.00  0.00     0.049 A 
ATOM     45  C   UNL A   1      38.215  31.797  30.131  1.00  0.00     0.074 A 
ATOM     46  C   UNL A   1      41.019  29.243  34.277  1.00  0.00     0.029 A 
ATOM     47  N   UNL A   1      42.346  30.750  33.276  1.00  0.00    -0.354 N 
ATOM     48  N   UNL A   1      39.266  32.556  30.208  1.00  0.00    -0.248 NA
ATOM     49  C   UNL A   1      37.619  31.356  31.397  1.00  0.00     0.031 C 
ATOM     50  C   UNL A   1      40.251  30.097  33.463  1.00  0.00     0.029 A 
ATOM     51  C   UNL A   1      41.081  31.040  32.842  1.00  0.00     0.049 A 
ATOM     52  H   UNL A   1      43.141  31.325  33.193  1.00  0.00     0.167 HD
ATOM     53  C   UNL A   1      39.642  32.375  31.514  1.00  0.00     0.074 A 
ATOM     54  C   UNL A   1      38.459  31.951  32.236  1.00  0.00     0.031 C 
ATOM     55  C   UNL A   1      40.922  32.021  31.799  1.00  0.00     0.037 A 
BRANCH  42  56
ATOM     56  C   UNL A   1      44.652  28.872  34.327  1.00  0.00     0.057 A 
ATOM     57  C   UNL A   1      45.723  29.504  33.649  1.00  0.00     0.134 A 
ATOM     58  C   UNL A   1      44.994  28.177  35.490  1.00  0.00     0.134 A 
ATOM     59  F   UNL A   1      45.504  30.248  32.552  1.00  0.00    -0.206 F 
ATOM     60  C   UNL A   1      47.058  29.312  34.006  1.00  0.00     0.040 A 
ATOM     61  C   UNL A   1      46.330  28.023  35.888  1.00  0.00     0.040 A 
ATOM     62  F   UNL A   1      44.070  27.543  36.224  1.00  0.00    -0.206 F 
ATOM     63  C   UNL A   1      47.367  28.545  35.119  1.00  0.00     0.006 A 
ENDBRANCH  42  56
BRANCH  43  64
ATOM     64  C   UNL A   1      36.331  31.867  28.461  1.00  0.00     0.057 A 
ATOM     65  C   UNL A   1      35.181  31.175  28.081  1.00  0.00     0.134 A 
ATOM     66  C   UNL A   1      36.141  33.284  28.512  1.00  0.00     0.134 A 
ATOM     67  F   UNL A   1      35.212  29.856  27.857  1.00  0.00    -0.206 F 
ATOM     68  C   UNL A   1      33.934  31.822  27.893  1.00  0.00     0.040 A 
ATOM     69  C   UNL A   1      34.907  33.930  28.390  1.00  0.00     0.040 A 
ATOM     70  F   UNL A   1      37.162  34.135  28.684  1.00  0.00    -0.206 F 
ATOM     71  C   UNL A   1      33.784  33.193  28.096  1.00  0.00     0.006 A 
ENDBRANCH  43  64
BRANCH  55  72
ATOM     72  C   UNL A   1      41.956  32.420  30.761  1.00  0.00     0.057 A 
ATOM     73  C   UNL A   1      42.151  33.771  30.453  1.00  0.00     0.134 A 
ATOM     74  C   UNL A   1      42.709  31.520  29.990  1.00  0.00     0.134 A 
ATOM     75  F   UNL A   1      41.502  34.718  31.147  1.00  0.00    -0.206 F 
ATOM     76  C   UNL A   1      43.020  34.195  29.436  1.00  0.00     0.040 A 
ATOM     77  C   UNL A   1      43.580  31.922  28.965  1.00  0.00     0.040 A 
ATOM     78  F   UNL A   1      42.632  30.210  30.201  1.00  0.00    -0.206 F 
ATOM     79  C   UNL A   1      43.735  33.270  28.682  1.00  0.00     0.006 A 
ENDBRANCH  55  72
ENDBRANCH  29  30
ENDBRANCH  22  24
ENDBRANCH  21  22
ENDBRANCH  20  21
ENDBRANCH  19  20
ENDBRANCH   1  19
TORSDOF 16
ENDMDL
MODEL 3
REMARK VINA RESULT:      -9.8      3.691      7.707
REMARK SMILES CN(C)S(=O)(=O)c1c[nH]c(C(=O)OCCOCCOC(=O)c2ccc(-c3c4nc(c(-c5c(F)cccc5F)c5ccc([nH]5)c(-c5c(F)cccc5F)c5nc(c(-c6c(F)cccc6F)c6ccc3[nH]6)C=C5)C=C4)cc2)c1
REMARK SMILES IDX 16 1 15 2 14 3 13 4 11 5 12 6 10 7 7 8 8 9 76 10 9 11 4 13
REMARK SMILES IDX 5 14 6 15 2 16 1 17 3 18 17 19 18 20 19 21 20 22 21 23 22 24
REMARK SMILES IDX 23 25 75 26 24 27 74 28 25 29 26 30 27 31 68 32 28 33 73 34
REMARK SMILES IDX 67 35 69 36 29 37 72 38 66 39 65 40 30 42 56 43 39 44 55 45
REMARK SMILES IDX 40 46 43 47 54 48 70 49 41 50 42 51 53 53 71 54 44 55 31 56
REMARK SMILES IDX 32 57 37 58 33 59 34 60 36 61 38 62 35 63 57 64 58 65 63 66
REMARK SMILES IDX 59 67 60 68 62 69 64 70 61 71 45 72 46 73 51 74 47 75 48 76
REMARK SMILES IDX 50 77 52 78 49 79
REMARK H PARENT 9 12 69 41 43 52
REMARK Flexibility Score: inf
ROOT
ATOM      1  O   UNL A   1      32.384  30.160  25.965  1.00  0.00    -0.374 OA
ENDROOT
BRANCH   1   2
ATOM      2  C   UNL A   1      31.639  29.135  25.306  1.00  0.00     0.202 C 
BRANCH   2   3
ATOM      3  C   UNL A   1      31.959  27.684  25.681  1.00  0.00     0.261 C 
BRANCH   3   4
ATOM      4  O   UNL A   1      30.800  26.977  26.147  1.00  0.00    -0.459 OA
BRANCH   4   5
ATOM      5  C   UNL A   1      30.137  26.283  25.175  1.00  0.00     0.354 C 
ATOM      6  O   UNL A   1      29.472  26.760  24.286  1.00  0.00    -0.244 OA
BRANCH   5   7
ATOM      7  C   UNL A   1      30.509  24.885  25.235  1.00  0.00     0.126 A 
ATOM      8  C   UNL A   1      31.344  22.802  25.001  1.00  0.00     0.100 A 
ATOM      9  C   UNL A   1      30.613  22.838  26.171  1.00  0.00     0.105 A 
ATOM     10  C   UNL A   1      31.197  24.063  24.363  1.00  0.00     0.057 A 
ATOM     11  N   UNL A   1      30.150  24.115  26.323  1.00  0.00    -0.354 N 
ATOM     12  H   UNL A   1      29.635  24.438  27.096  1.00  0.00     0.166 HD
BRANCH   8  13
ATOM     13  S   UNL A   1      32.324  21.490  24.450  1.00  0.00     0.244 S 
ATOM     14  O   UNL A   1      32.066  21.421  23.027  1.00  0.00    -0.207 OA
ATOM     15  O   UNL A   1      32.000  20.400  25.342  1.00  0.00    -0.207 OA
BRANCH  13  16
ATOM     16  N   UNL A   1      33.970  21.912  24.667  1.00  0.00    -0.204 NA
ATOM     17  C   UNL A   1      34.491  22.737  23.552  1.00  0.00     0.124 C 
ATOM     18  C   UNL A   1      34.289  22.527  25.976  1.00  0.00     0.124 C 
ENDBRANCH  13  16
ENDBRANCH   8  13
ENDBRANCH   5   7
ENDBRANCH   4   5
ENDBRANCH   3   4
ENDBRANCH   2   3
ENDBRANCH   1   2
BRANCH   1  19
ATOM     19  C   UNL A   1      33.132  29.840  27.130  1.00  0.00     0.202 C 
BRANCH  19  20
ATOM     20  C   UNL A   1      34.498  30.476  27.361  1.00  0.00     0.261 C 
BRANCH  20  21
ATOM     21  O   UNL A   1      35.563  29.560  27.566  1.00  0.00    -0.460 OA
BRANCH  21  22
ATOM     22  C   UNL A   1      36.654  30.184  28.060  1.00  0.00     0.338 C 
ATOM     23  O   UNL A   1      36.766  31.364  28.352  1.00  0.00    -0.246 OA
BRANCH  22  24
ATOM     24  C   UNL A   1      37.807  29.292  28.035  1.00  0.00     0.060 A 
ATOM     25  C   UNL A   1      38.078  28.610  29.224  1.00  0.00     0.016 A 
ATOM     26  C   UNL A   1      38.738  29.392  26.994  1.00  0.00     0.016 A 
ATOM     27  C   UNL A   1      39.349  28.127  29.428  1.00  0.00     0.010 A 
ATOM     28  C   UNL A   1      40.023  28.936  27.211  1.00  0.00     0.010 A 
ATOM     29  C   UNL A   1      40.318  28.329  28.438  1.00  0.00    -0.014 A 
BRANCH  29  30
ATOM     30  C   UNL A   1      41.608  27.663  28.637  1.00  0.00     0.031 A 
ATOM     31  C   UNL A   1      41.452  26.162  28.269  1.00  0.00     0.074 A 
ATOM     32  C   UNL A   1      42.609  28.450  29.150  1.00  0.00     0.049 A 
ATOM     33  N   UNL A   1      42.103  25.129  28.698  1.00  0.00    -0.248 NA
ATOM     34  C   UNL A   1      40.361  25.730  27.337  1.00  0.00     0.031 C 
ATOM     35  C   UNL A   1      42.519  29.915  29.393  1.00  0.00     0.029 A 
ATOM     36  N   UNL A   1      43.896  28.203  29.584  1.00  0.00    -0.354 N 
ATOM     37  C   UNL A   1      41.694  24.010  27.934  1.00  0.00     0.074 A 
ATOM     38  C   UNL A   1      40.533  24.413  27.211  1.00  0.00     0.031 C 
ATOM     39  C   UNL A   1      43.633  30.385  30.004  1.00  0.00     0.029 A 
ATOM     40  C   UNL A   1      44.573  29.299  30.204  1.00  0.00     0.049 A 
ATOM     41  H   UNL A   1      44.323  27.324  29.471  1.00  0.00     0.167 HD
ATOM     42  C   UNL A   1      42.450  22.877  27.832  1.00  0.00     0.037 A 
ATOM     43  C   UNL A   1      45.780  29.296  30.864  1.00  0.00     0.037 A 
ATOM     44  C   UNL A   1      43.589  23.000  28.675  1.00  0.00     0.049 A 
ATOM     45  C   UNL A   1      46.317  27.958  30.604  1.00  0.00     0.074 A 
ATOM     46  C   UNL A   1      43.706  23.014  30.040  1.00  0.00     0.029 A 
ATOM     47  N   UNL A   1      44.699  23.575  28.108  1.00  0.00    -0.354 N 
ATOM     48  N   UNL A   1      46.797  27.566  29.463  1.00  0.00    -0.248 NA
ATOM     49  C   UNL A   1      46.202  26.947  31.660  1.00  0.00     0.031 C 
ATOM     50  C   UNL A   1      44.611  24.071  30.252  1.00  0.00     0.029 A 
ATOM     51  C   UNL A   1      45.233  24.418  29.045  1.00  0.00     0.049 A 
ATOM     52  H   UNL A   1      45.045  23.412  27.201  1.00  0.00     0.167 HD
ATOM     53  C   UNL A   1      46.699  26.203  29.575  1.00  0.00     0.074 A 
ATOM     54  C   UNL A   1      46.675  25.900  30.993  1.00  0.00     0.031 C 
ATOM     55  C   UNL A   1      46.081  25.493  28.597  1.00  0.00     0.037 A 
BRANCH  42  56
ATOM     56  C   UNL A   1      42.463  21.740  26.851  1.00  0.00     0.057 A 
ATOM     57  C   UNL A   1      41.813  20.539  27.227  1.00  0.00     0.134 A 
ATOM     58  C   UNL A   1      43.379  21.632  25.801  1.00  0.00     0.134 A 
ATOM     59  F   UNL A   1      40.869  20.533  28.184  1.00  0.00    -0.206 F 
ATOM     60  C   UNL A   1      42.177  19.293  26.715  1.00  0.00     0.040 A 
ATOM     61  C   UNL A   1      43.713  20.390  25.243  1.00  0.00     0.040 A 
ATOM     62  F   UNL A   1      44.053  22.698  25.349  1.00  0.00    -0.206 F 
ATOM     63  C   UNL A   1      43.152  19.214  25.734  1.00  0.00     0.006 A 
ENDBRANCH  42  56
BRANCH  43  64
ATOM     64  C   UNL A   1      46.632  30.162  31.780  1.00  0.00     0.057 A 
ATOM     65  C   UNL A   1      46.390  30.452  33.123  1.00  0.00     0.134 A 
ATOM     66  C   UNL A   1      47.868  30.704  31.304  1.00  0.00     0.134 A 
ATOM     67  F   UNL A   1      45.223  30.136  33.698  1.00  0.00    -0.206 F 
ATOM     68  C   UNL A   1      47.343  31.109  33.941  1.00  0.00     0.040 A 
ATOM     69  C   UNL A   1      48.843  31.298  32.110  1.00  0.00     0.040 A 
ATOM     70  F   UNL A   1      48.201  30.687  30.007  1.00  0.00    -0.206 F 
ATOM     71  C   UNL A   1      48.591  31.488  33.449  1.00  0.00     0.006 A 
ENDBRANCH  43  64
BRANCH  55  72
ATOM     72  C   UNL A   1      46.076  26.141  27.223  1.00  0.00     0.057 A 
ATOM     73  C   UNL A   1      47.287  26.406  26.572  1.00  0.00     0.134 A 
ATOM     74  C   UNL A   1      44.929  26.596  26.553  1.00  0.00     0.134 A 
ATOM     75  F   UNL A   1      48.443  25.992  27.112  1.00  0.00    -0.206 F 
ATOM     76  C   UNL A   1      47.351  27.090  25.348  1.00  0.00     0.040 A 
ATOM     77  C   UNL A   1      44.971  27.285  25.331  1.00  0.00     0.040 A 
ATOM     78  F   UNL A   1      43.717  26.385  27.056  1.00  0.00    -0.206 F 
ATOM     79  C   UNL A   1      46.192  27.539  24.725  1.00  0.00     0.006 A 
ENDBRANCH  55  72
ENDBRANCH  29  30
ENDBRANCH  22  24
ENDBRANCH  21  22
ENDBRANCH  20  21
ENDBRANCH  19  20
ENDBRANCH   1  19
TORSDOF 16
ENDMDL
