MODEL 1
REMARK VINA RESULT:     -12.4      0.000      0.000
REMARK SMILES Cc1c(NC(=O)[C@@H]2CC=CC[C@@H]2C(=O)OCCOCCOC(=O)c2ccc(-c3c4nc(c(-c5c(F)cccc5F)c5ccc([nH]5)c(-c5c(F)cccc5F)c5nc(c(-c6c(F)cccc6F)c6ccc3[nH]6)C=C5)C=C4)cc2)cccc1C(=O)N1CCOCC1
REMARK SMILES IDX 17 1 16 2 15 3 13 4 14 5 12 6 7 7 8 8 9 9 11 10 10 11 5 12
REMARK SMILES IDX 4 13 6 15 3 16 1 17 2 18 81 19 78 20 80 21 79 22 82 23 83 24
REMARK SMILES IDX 84 25 85 26 89 27 86 28 88 29 87 30 18 31 19 32 20 33 21 34
REMARK SMILES IDX 22 35 23 36 24 37 25 38 77 39 26 40 76 41 27 42 28 43 29 44
REMARK SMILES IDX 70 45 30 46 75 47 69 48 71 49 31 50 74 51 68 52 67 53 32 55
REMARK SMILES IDX 58 56 41 57 57 58 42 59 45 60 56 61 72 62 43 63 44 64 55 66
REMARK SMILES IDX 73 67 46 68 33 69 34 70 39 71 35 72 36 73 38 74 40 75 37 76
REMARK SMILES IDX 59 77 60 78 65 79 61 80 62 81 64 82 66 83 63 84 47 85 48 86
REMARK SMILES IDX 53 87 49 88 50 89 52 90 54 91 51 92
REMARK H PARENT 4 14 71 54 45 65
REMARK Flexibility Score: inf
ROOT
ATOM      1  C   UNL A   1      37.183  23.659  25.153  1.00  0.00     0.202 C 
ENDROOT
BRANCH   1   2
ATOM      2  C   UNL A   1      35.925  24.308  25.645  1.00  0.00     0.261 C 
BRANCH   2   3
ATOM      3  O   UNL A   1      34.758  23.478  25.501  1.00  0.00    -0.463 OA
BRANCH   3   4
ATOM      4  C   UNL A   1      33.537  23.783  26.032  1.00  0.00     0.310 C 
ATOM      5  O   UNL A   1      33.269  23.866  27.206  1.00  0.00    -0.252 OA
BRANCH   4   6
ATOM      6  C   UNL A   1      32.541  24.051  24.895  1.00  0.00     0.116 C 
ATOM      7  C   UNL A   1      31.133  23.410  25.122  1.00  0.00     0.097 C 
ATOM      8  C   UNL A   1      31.238  21.866  25.185  1.00  0.00     0.041 C 
ATOM      9  C   UNL A   1      32.144  21.310  24.122  1.00  0.00    -0.030 C 
ATOM     10  C   UNL A   1      33.148  23.542  23.583  1.00  0.00     0.043 C 
ATOM     11  C   UNL A   1      32.969  22.065  23.382  1.00  0.00    -0.030 C 
BRANCH   7  12
ATOM     12  C   UNL A   1      30.497  24.085  26.333  1.00  0.00     0.228 C 
ATOM     13  N   UNL A   1      30.357  25.416  26.513  1.00  0.00    -0.326 N 
ATOM     14  H   UNL A   1      29.588  25.643  27.084  1.00  0.00     0.169 HD
ATOM     15  O   UNL A   1      30.097  23.398  27.279  1.00  0.00    -0.274 OA
BRANCH  13  16
ATOM     16  C   UNL A   1      31.059  26.551  26.071  1.00  0.00     0.044 A 
ATOM     17  C   UNL A   1      29.770  26.368  23.908  1.00  0.00     0.047 C 
ATOM     18  C   UNL A   1      30.699  27.124  24.816  1.00  0.00    -0.015 A 
ATOM     19  C   UNL A   1      31.211  28.396  24.466  1.00  0.00     0.045 A 
ATOM     20  C   UNL A   1      32.000  27.193  26.873  1.00  0.00     0.026 A 
ATOM     21  C   UNL A   1      32.189  28.979  25.296  1.00  0.00     0.014 A 
ATOM     22  C   UNL A   1      32.605  28.368  26.468  1.00  0.00     0.003 A 
BRANCH  19  23
ATOM     23  C   UNL A   1      30.935  29.179  23.211  1.00  0.00     0.254 C 
ATOM     24  O   UNL A   1      31.726  29.064  22.272  1.00  0.00    -0.269 OA
ATOM     25  N   UNL A   1      29.766  29.902  23.043  1.00  0.00    -0.334 N 
ATOM     26  C   UNL A   1      29.355  31.046  23.866  1.00  0.00     0.148 C 
ATOM     27  C   UNL A   1      29.192  29.916  21.704  1.00  0.00     0.148 C 
ATOM     28  C   UNL A   1      27.822  31.230  23.835  1.00  0.00     0.181 C 
ATOM     29  C   UNL A   1      27.673  30.011  21.805  1.00  0.00     0.181 C 
ATOM     30  O   UNL A   1      27.296  31.214  22.495  1.00  0.00    -0.378 OA
ENDBRANCH  19  23
ENDBRANCH  13  16
ENDBRANCH   7  12
ENDBRANCH   4   6
ENDBRANCH   3   4
ENDBRANCH   2   3
ENDBRANCH   1   2
BRANCH   1  31
ATOM     31  O   UNL A   1      37.516  22.666  26.102  1.00  0.00    -0.374 OA
BRANCH  31  32
ATOM     32  C   UNL A   1      38.526  21.758  25.718  1.00  0.00     0.202 C 
BRANCH  32  33
ATOM     33  C   UNL A   1      39.761  21.825  26.623  1.00  0.00     0.261 C 
BRANCH  33  34
ATOM     34  O   UNL A   1      39.799  23.088  27.322  1.00  0.00    -0.460 OA
BRANCH  34  35
ATOM     35  C   UNL A   1      40.732  23.982  26.893  1.00  0.00     0.338 C 
ATOM     36  O   UNL A   1      41.878  23.708  26.569  1.00  0.00    -0.246 OA
BRANCH  35  37
ATOM     37  C   UNL A   1      40.262  25.372  27.159  1.00  0.00     0.060 A 
ATOM     38  C   UNL A   1      40.667  26.424  26.314  1.00  0.00     0.016 A 
ATOM     39  C   UNL A   1      39.750  25.654  28.423  1.00  0.00     0.016 A 
ATOM     40  C   UNL A   1      40.721  27.733  26.805  1.00  0.00     0.010 A 
ATOM     41  C   UNL A   1      39.954  26.910  28.946  1.00  0.00     0.010 A 
ATOM     42  C   UNL A   1      40.464  27.948  28.154  1.00  0.00    -0.014 A 
BRANCH  42  43
ATOM     43  C   UNL A   1      40.688  29.193  28.882  1.00  0.00     0.031 A 
ATOM     44  C   UNL A   1      39.546  30.120  28.957  1.00  0.00     0.074 A 
ATOM     45  C   UNL A   1      41.791  29.397  29.642  1.00  0.00     0.049 A 
ATOM     46  N   UNL A   1      39.648  31.342  29.340  1.00  0.00    -0.248 NA
ATOM     47  C   UNL A   1      38.183  29.780  28.531  1.00  0.00     0.031 C 
ATOM     48  C   UNL A   1      41.999  30.338  30.743  1.00  0.00     0.029 A 
ATOM     49  N   UNL A   1      43.052  28.794  29.531  1.00  0.00    -0.354 N 
ATOM     50  C   UNL A   1      38.377  31.765  29.620  1.00  0.00     0.074 A 
ATOM     51  C   UNL A   1      37.518  30.883  28.883  1.00  0.00     0.031 C 
ATOM     52  C   UNL A   1      43.323  30.490  30.946  1.00  0.00     0.029 A 
ATOM     53  C   UNL A   1      44.008  29.752  29.893  1.00  0.00     0.049 A 
ATOM     54  H   UNL A   1      43.232  27.867  29.251  1.00  0.00     0.167 HD
ATOM     55  C   UNL A   1      38.216  32.687  30.607  1.00  0.00     0.037 A 
ATOM     56  C   UNL A   1      44.866  30.221  28.947  1.00  0.00     0.037 A 
ATOM     57  C   UNL A   1      39.521  33.253  31.011  1.00  0.00     0.049 A 
ATOM     58  C   UNL A   1      44.588  31.679  28.720  1.00  0.00     0.074 A 
ATOM     59  C   UNL A   1      40.279  33.259  32.168  1.00  0.00     0.029 A 
ATOM     60  N   UNL A   1      40.383  33.699  30.009  1.00  0.00    -0.354 N 
ATOM     61  N   UNL A   1      43.519  32.265  29.187  1.00  0.00    -0.248 NA
ATOM     62  C   UNL A   1      45.440  32.598  27.983  1.00  0.00     0.031 C 
ATOM     63  C   UNL A   1      41.615  33.667  31.823  1.00  0.00     0.029 A 
ATOM     64  C   UNL A   1      41.660  33.950  30.465  1.00  0.00     0.049 A 
ATOM     65  H   UNL A   1      40.107  33.822  29.073  1.00  0.00     0.167 HD
ATOM     66  C   UNL A   1      43.567  33.594  28.961  1.00  0.00     0.074 A 
ATOM     67  C   UNL A   1      44.739  33.743  28.101  1.00  0.00     0.031 C 
ATOM     68  C   UNL A   1      42.661  34.452  29.521  1.00  0.00     0.037 A 
BRANCH  55  69
ATOM     69  C   UNL A   1      36.897  32.952  31.310  1.00  0.00     0.057 A 
ATOM     70  C   UNL A   1      36.648  32.386  32.573  1.00  0.00     0.134 A 
ATOM     71  C   UNL A   1      35.803  33.683  30.790  1.00  0.00     0.134 A 
ATOM     72  F   UNL A   1      37.566  31.627  33.187  1.00  0.00    -0.206 F 
ATOM     73  C   UNL A   1      35.438  32.560  33.265  1.00  0.00     0.040 A 
ATOM     74  C   UNL A   1      34.614  33.916  31.497  1.00  0.00     0.040 A 
ATOM     75  F   UNL A   1      35.779  34.166  29.542  1.00  0.00    -0.206 F 
ATOM     76  C   UNL A   1      34.423  33.346  32.740  1.00  0.00     0.006 A 
ENDBRANCH  55  69
BRANCH  56  77
ATOM     77  C   UNL A   1      45.245  29.170  27.948  1.00  0.00     0.057 A 
ATOM     78  C   UNL A   1      46.212  28.213  28.319  1.00  0.00     0.134 A 
ATOM     79  C   UNL A   1      44.418  28.810  26.886  1.00  0.00     0.134 A 
ATOM     80  F   UNL A   1      47.013  28.458  29.358  1.00  0.00    -0.206 F 
ATOM     81  C   UNL A   1      46.293  26.936  27.750  1.00  0.00     0.040 A 
ATOM     82  C   UNL A   1      44.473  27.525  26.315  1.00  0.00     0.040 A 
ATOM     83  F   UNL A   1      43.454  29.640  26.466  1.00  0.00    -0.206 F 
ATOM     84  C   UNL A   1      45.380  26.570  26.775  1.00  0.00     0.006 A 
ENDBRANCH  56  77
BRANCH  68  85
ATOM     85  C   UNL A   1      42.631  35.884  29.111  1.00  0.00     0.057 A 
ATOM     86  C   UNL A   1      43.374  36.875  29.758  1.00  0.00     0.134 A 
ATOM     87  C   UNL A   1      41.868  36.301  28.005  1.00  0.00     0.134 A 
ATOM     88  F   UNL A   1      44.005  36.625  30.914  1.00  0.00    -0.206 F 
ATOM     89  C   UNL A   1      43.506  38.155  29.222  1.00  0.00     0.040 A 
ATOM     90  C   UNL A   1      41.936  37.595  27.502  1.00  0.00     0.040 A 
ATOM     91  F   UNL A   1      41.058  35.469  27.337  1.00  0.00    -0.206 F 
ATOM     92  C   UNL A   1      42.798  38.513  28.079  1.00  0.00     0.006 A 
ENDBRANCH  68  85
ENDBRANCH  42  43
ENDBRANCH  35  37
ENDBRANCH  34  35
ENDBRANCH  33  34
ENDBRANCH  32  33
ENDBRANCH  31  32
ENDBRANCH   1  31
TORSDOF 17
ENDMDL
MODEL 2
REMARK VINA RESULT:     -12.4      3.792      8.449
REMARK SMILES Cc1c(NC(=O)[C@@H]2CC=CC[C@@H]2C(=O)OCCOCCOC(=O)c2ccc(-c3c4nc(c(-c5c(F)cccc5F)c5ccc([nH]5)c(-c5c(F)cccc5F)c5nc(c(-c6c(F)cccc6F)c6ccc3[nH]6)C=C5)C=C4)cc2)cccc1C(=O)N1CCOCC1
REMARK SMILES IDX 17 1 16 2 15 3 13 4 14 5 12 6 7 7 8 8 9 9 11 10 10 11 5 12
REMARK SMILES IDX 4 13 6 15 3 16 1 17 2 18 81 19 78 20 80 21 79 22 82 23 83 24
REMARK SMILES IDX 84 25 85 26 89 27 86 28 88 29 87 30 18 31 19 32 20 33 21 34
REMARK SMILES IDX 22 35 23 36 24 37 25 38 77 39 26 40 76 41 27 42 28 43 29 44
REMARK SMILES IDX 70 45 30 46 75 47 69 48 71 49 31 50 74 51 68 52 67 53 32 55
REMARK SMILES IDX 58 56 41 57 57 58 42 59 45 60 56 61 72 62 43 63 44 64 55 66
REMARK SMILES IDX 73 67 46 68 33 69 34 70 39 71 35 72 36 73 38 74 40 75 37 76
REMARK SMILES IDX 59 77 60 78 65 79 61 80 62 81 64 82 66 83 63 84 47 85 48 86
REMARK SMILES IDX 53 87 49 88 50 89 52 90 54 91 51 92
REMARK H PARENT 4 14 71 54 45 65
REMARK Flexibility Score: inf
ROOT
ATOM      1  C   UNL A   1      33.317  28.203  27.181  1.00  0.00     0.202 C 
ENDROOT
BRANCH   1   2
ATOM      2  C   UNL A   1      33.428  27.154  26.117  1.00  0.00     0.261 C 
BRANCH   2   3
ATOM      3  O   UNL A   1      32.511  26.058  26.294  1.00  0.00    -0.463 OA
BRANCH   3   4
ATOM      4  C   UNL A   1      32.803  24.762  25.978  1.00  0.00     0.310 C 
ATOM      5  O   UNL A   1      32.332  23.777  26.493  1.00  0.00    -0.252 OA
BRANCH   4   6
ATOM      6  C   UNL A   1      33.808  24.736  24.818  1.00  0.00     0.116 C 
ATOM      7  C   UNL A   1      33.675  23.483  23.892  1.00  0.00     0.097 C 
ATOM      8  C   UNL A   1      33.968  22.184  24.685  1.00  0.00     0.041 C 
ATOM      9  C   UNL A   1      35.166  22.320  25.583  1.00  0.00    -0.030 C 
ATOM     10  C   UNL A   1      35.225  24.818  25.397  1.00  0.00     0.043 C 
ATOM     11  C   UNL A   1      35.748  23.492  25.870  1.00  0.00    -0.030 C 
BRANCH   7  12
ATOM     12  C   UNL A   1      32.318  23.549  23.200  1.00  0.00     0.228 C 
ATOM     13  N   UNL A   1      31.859  24.581  22.460  1.00  0.00    -0.326 N 
ATOM     14  H   UNL A   1      31.212  24.298  21.774  1.00  0.00     0.169 HD
ATOM     15  O   UNL A   1      31.515  22.620  23.333  1.00  0.00    -0.274 OA
BRANCH  13  16
ATOM     16  C   UNL A   1      32.093  25.968  22.446  1.00  0.00     0.044 A 
ATOM     17  C   UNL A   1      29.810  26.251  23.485  1.00  0.00     0.047 C 
ATOM     18  C   UNL A   1      31.134  26.823  23.066  1.00  0.00    -0.015 A 
ATOM     19  C   UNL A   1      31.462  28.182  23.284  1.00  0.00     0.045 A 
ATOM     20  C   UNL A   1      33.280  26.508  21.959  1.00  0.00     0.026 A 
ATOM     21  C   UNL A   1      32.658  28.682  22.733  1.00  0.00     0.014 A 
ATOM     22  C   UNL A   1      33.541  27.863  22.048  1.00  0.00     0.003 A 
BRANCH  19  23
ATOM     23  C   UNL A   1      30.607  29.234  23.938  1.00  0.00     0.254 C 
ATOM     24  O   UNL A   1      30.875  29.557  25.098  1.00  0.00    -0.269 OA
ATOM     25  N   UNL A   1      29.636  29.927  23.236  1.00  0.00    -0.334 N 
ATOM     26  C   UNL A   1      28.449  29.325  22.617  1.00  0.00     0.148 C 
ATOM     27  C   UNL A   1      29.462  31.333  23.576  1.00  0.00     0.148 C 
ATOM     28  C   UNL A   1      27.924  30.198  21.456  1.00  0.00     0.181 C 
ATOM     29  C   UNL A   1      29.030  32.105  22.332  1.00  0.00     0.181 C 
ATOM     30  O   UNL A   1      27.790  31.581  21.829  1.00  0.00    -0.378 OA
ENDBRANCH  19  23
ENDBRANCH  13  16
ENDBRANCH   7  12
ENDBRANCH   4   6
ENDBRANCH   3   4
ENDBRANCH   2   3
ENDBRANCH   1   2
BRANCH   1  31
ATOM     31  O   UNL A   1      33.990  29.343  26.689  1.00  0.00    -0.374 OA
BRANCH  31  32
ATOM     32  C   UNL A   1      33.406  30.589  27.003  1.00  0.00     0.202 C 
BRANCH  32  33
ATOM     33  C   UNL A   1      34.317  31.474  27.861  1.00  0.00     0.261 C 
BRANCH  33  34
ATOM     34  O   UNL A   1      35.702  31.133  27.633  1.00  0.00    -0.460 OA
BRANCH  34  35
ATOM     35  C   UNL A   1      36.507  31.134  28.732  1.00  0.00     0.338 C 
ATOM     36  O   UNL A   1      36.701  32.091  29.466  1.00  0.00    -0.246 OA
BRANCH  35  37
ATOM     37  C   UNL A   1      37.352  29.905  28.742  1.00  0.00     0.060 A 
ATOM     38  C   UNL A   1      37.345  29.058  29.868  1.00  0.00     0.016 A 
ATOM     39  C   UNL A   1      38.388  29.820  27.816  1.00  0.00     0.016 A 
ATOM     40  C   UNL A   1      38.460  28.260  30.149  1.00  0.00     0.010 A 
ATOM     41  C   UNL A   1      39.537  29.158  28.178  1.00  0.00     0.010 A 
ATOM     42  C   UNL A   1      39.593  28.399  29.355  1.00  0.00    -0.014 A 
BRANCH  42  43
ATOM     43  C   UNL A   1      40.906  27.824  29.628  1.00  0.00     0.031 A 
ATOM     44  C   UNL A   1      41.175  26.501  29.038  1.00  0.00     0.074 A 
ATOM     45  C   UNL A   1      41.908  28.544  30.189  1.00  0.00     0.049 A 
ATOM     46  N   UNL A   1      42.168  25.762  29.379  1.00  0.00    -0.248 NA
ATOM     47  C   UNL A   1      40.301  25.847  28.056  1.00  0.00     0.031 C 
ATOM     48  C   UNL A   1      43.352  28.312  30.151  1.00  0.00     0.029 A 
ATOM     49  N   UNL A   1      41.815  29.677  31.010  1.00  0.00    -0.354 N 
ATOM     50  C   UNL A   1      42.297  24.814  28.398  1.00  0.00     0.074 A 
ATOM     51  C   UNL A   1      41.010  24.753  27.767  1.00  0.00     0.031 C 
ATOM     52  C   UNL A   1      43.936  29.013  31.143  1.00  0.00     0.029 A 
ATOM     53  C   UNL A   1      42.867  29.612  31.933  1.00  0.00     0.049 A 
ATOM     54  H   UNL A   1      41.136  30.387  30.948  1.00  0.00     0.167 HD
ATOM     55  C   UNL A   1      43.545  24.351  28.121  1.00  0.00     0.037 A 
ATOM     56  C   UNL A   1      42.581  29.432  33.251  1.00  0.00     0.037 A 
ATOM     57  C   UNL A   1      44.508  24.794  29.151  1.00  0.00     0.049 A 
ATOM     58  C   UNL A   1      43.116  28.097  33.685  1.00  0.00     0.074 A 
ATOM     59  C   UNL A   1      45.633  25.600  29.171  1.00  0.00     0.029 A 
ATOM     60  N   UNL A   1      44.166  24.615  30.491  1.00  0.00    -0.354 N 
ATOM     61  N   UNL A   1      43.534  27.203  32.831  1.00  0.00    -0.248 NA
ATOM     62  C   UNL A   1      43.239  27.642  35.060  1.00  0.00     0.031 C 
ATOM     63  C   UNL A   1      45.918  25.933  30.541  1.00  0.00     0.029 A 
ATOM     64  C   UNL A   1      44.993  25.298  31.358  1.00  0.00     0.049 A 
ATOM     65  H   UNL A   1      43.411  24.057  30.788  1.00  0.00     0.167 HD
ATOM     66  C   UNL A   1      44.083  26.151  33.472  1.00  0.00     0.074 A 
ATOM     67  C   UNL A   1      43.773  26.419  34.875  1.00  0.00     0.031 C 
ATOM     68  C   UNL A   1      44.763  25.174  32.799  1.00  0.00     0.037 A 
BRANCH  55  69
ATOM     69  C   UNL A   1      43.914  23.636  26.834  1.00  0.00     0.057 A 
ATOM     70  C   UNL A   1      44.564  24.336  25.802  1.00  0.00     0.134 A 
ATOM     71  C   UNL A   1      43.607  22.294  26.503  1.00  0.00     0.134 A 
ATOM     72  F   UNL A   1      44.887  25.630  25.938  1.00  0.00    -0.206 F 
ATOM     73  C   UNL A   1      44.904  23.748  24.573  1.00  0.00     0.040 A 
ATOM     74  C   UNL A   1      43.996  21.678  25.305  1.00  0.00     0.040 A 
ATOM     75  F   UNL A   1      42.856  21.508  27.282  1.00  0.00    -0.206 F 
ATOM     76  C   UNL A   1      44.643  22.408  24.327  1.00  0.00     0.006 A 
ENDBRANCH  55  69
BRANCH  56  77
ATOM     77  C   UNL A   1      41.310  30.112  33.657  1.00  0.00     0.057 A 
ATOM     78  C   UNL A   1      41.340  31.503  33.887  1.00  0.00     0.134 A 
ATOM     79  C   UNL A   1      40.052  29.572  33.397  1.00  0.00     0.134 A 
ATOM     80  F   UNL A   1      42.511  32.109  34.096  1.00  0.00    -0.206 F 
ATOM     81  C   UNL A   1      40.217  32.330  33.764  1.00  0.00     0.040 A 
ATOM     82  C   UNL A   1      38.916  30.390  33.251  1.00  0.00     0.040 A 
ATOM     83  F   UNL A   1      39.915  28.262  33.148  1.00  0.00    -0.206 F 
ATOM     84  C   UNL A   1      39.004  31.776  33.391  1.00  0.00     0.006 A 
ENDBRANCH  56  77
BRANCH  68  85
ATOM     85  C   UNL A   1      45.201  23.940  33.510  1.00  0.00     0.057 A 
ATOM     86  C   UNL A   1      46.510  23.742  33.955  1.00  0.00     0.134 A 
ATOM     87  C   UNL A   1      44.284  22.914  33.803  1.00  0.00     0.134 A 
ATOM     88  F   UNL A   1      47.498  24.573  33.592  1.00  0.00    -0.206 F 
ATOM     89  C   UNL A   1      46.841  22.691  34.808  1.00  0.00     0.040 A 
ATOM     90  C   UNL A   1      44.619  21.823  34.595  1.00  0.00     0.040 A 
ATOM     91  F   UNL A   1      43.014  22.942  33.377  1.00  0.00    -0.206 F 
ATOM     92  C   UNL A   1      45.887  21.736  35.145  1.00  0.00     0.006 A 
ENDBRANCH  68  85
ENDBRANCH  42  43
ENDBRANCH  35  37
ENDBRANCH  34  35
ENDBRANCH  33  34
ENDBRANCH  32  33
ENDBRANCH  31  32
ENDBRANCH   1  31
TORSDOF 17
ENDMDL
MODEL 3
REMARK VINA RESULT:     -12.3      1.964      4.867
REMARK SMILES Cc1c(NC(=O)[C@@H]2CC=CC[C@@H]2C(=O)OCCOCCOC(=O)c2ccc(-c3c4nc(c(-c5c(F)cccc5F)c5ccc([nH]5)c(-c5c(F)cccc5F)c5nc(c(-c6c(F)cccc6F)c6ccc3[nH]6)C=C5)C=C4)cc2)cccc1C(=O)N1CCOCC1
REMARK SMILES IDX 17 1 16 2 15 3 13 4 14 5 12 6 7 7 8 8 9 9 11 10 10 11 5 12
REMARK SMILES IDX 4 13 6 15 3 16 1 17 2 18 81 19 78 20 80 21 79 22 82 23 83 24
REMARK SMILES IDX 84 25 85 26 89 27 86 28 88 29 87 30 18 31 19 32 20 33 21 34
REMARK SMILES IDX 22 35 23 36 24 37 25 38 77 39 26 40 76 41 27 42 28 43 29 44
REMARK SMILES IDX 70 45 30 46 75 47 69 48 71 49 31 50 74 51 68 52 67 53 32 55
REMARK SMILES IDX 58 56 41 57 57 58 42 59 45 60 56 61 72 62 43 63 44 64 55 66
REMARK SMILES IDX 73 67 46 68 33 69 34 70 39 71 35 72 36 73 38 74 40 75 37 76
REMARK SMILES IDX 59 77 60 78 65 79 61 80 62 81 64 82 66 83 63 84 47 85 48 86
REMARK SMILES IDX 53 87 49 88 50 89 52 90 54 91 51 92
REMARK H PARENT 4 14 71 54 45 65
REMARK Flexibility Score: inf
ROOT
ATOM      1  C   UNL A   1      36.217  23.530  23.764  1.00  0.00     0.202 C 
ENDROOT
BRANCH   1   2
ATOM      2  C   UNL A   1      34.749  23.638  23.487  1.00  0.00     0.261 C 
BRANCH   2   3
ATOM      3  O   UNL A   1      34.386  24.837  22.778  1.00  0.00    -0.463 OA
BRANCH   3   4
ATOM      4  C   UNL A   1      33.367  25.665  23.154  1.00  0.00     0.310 C 
ATOM      5  O   UNL A   1      32.737  26.398  22.431  1.00  0.00    -0.252 OA
BRANCH   4   6
ATOM      6  C   UNL A   1      33.103  25.496  24.657  1.00  0.00     0.116 C 
ATOM      7  C   UNL A   1      31.593  25.600  25.051  1.00  0.00     0.097 C 
ATOM      8  C   UNL A   1      31.038  27.008  24.719  1.00  0.00     0.041 C 
ATOM      9  C   UNL A   1      31.986  28.105  25.114  1.00  0.00    -0.030 C 
ATOM     10  C   UNL A   1      33.922  26.544  25.418  1.00  0.00     0.043 C 
ATOM     11  C   UNL A   1      33.263  27.892  25.462  1.00  0.00    -0.030 C 
BRANCH   7  12
ATOM     12  C   UNL A   1      30.857  24.426  24.415  1.00  0.00     0.228 C 
ATOM     13  N   UNL A   1      30.890  23.147  24.845  1.00  0.00    -0.326 N 
ATOM     14  H   UNL A   1      30.073  22.647  24.615  1.00  0.00     0.169 HD
ATOM     15  O   UNL A   1      30.192  24.602  23.388  1.00  0.00    -0.274 OA
BRANCH  13  16
ATOM     16  C   UNL A   1      31.825  22.364  25.546  1.00  0.00     0.044 A 
ATOM     17  C   UNL A   1      32.220  21.107  23.394  1.00  0.00     0.047 C 
ATOM     18  C   UNL A   1      32.597  21.413  24.815  1.00  0.00    -0.015 A 
ATOM     19  C   UNL A   1      33.706  20.797  25.442  1.00  0.00     0.045 A 
ATOM     20  C   UNL A   1      32.099  22.578  26.895  1.00  0.00     0.026 A 
ATOM     21  C   UNL A   1      33.910  21.021  26.818  1.00  0.00     0.014 A 
ATOM     22  C   UNL A   1      33.096  21.874  27.545  1.00  0.00     0.003 A 
BRANCH  19  23
ATOM     23  C   UNL A   1      34.654  19.795  24.842  1.00  0.00     0.254 C 
ATOM     24  O   UNL A   1      35.825  20.139  24.667  1.00  0.00    -0.269 OA
ATOM     25  N   UNL A   1      34.279  18.481  24.613  1.00  0.00    -0.334 N 
ATOM     26  C   UNL A   1      33.219  18.052  23.694  1.00  0.00     0.148 C 
ATOM     27  C   UNL A   1      35.297  17.463  24.838  1.00  0.00     0.148 C 
ATOM     28  C   UNL A   1      32.656  16.673  24.100  1.00  0.00     0.181 C 
ATOM     29  C   UNL A   1      34.630  16.178  25.319  1.00  0.00     0.181 C 
ATOM     30  O   UNL A   1      33.696  15.706  24.335  1.00  0.00    -0.378 OA
ENDBRANCH  19  23
ENDBRANCH  13  16
ENDBRANCH   7  12
ENDBRANCH   4   6
ENDBRANCH   3   4
ENDBRANCH   2   3
ENDBRANCH   1   2
BRANCH   1  31
ATOM     31  O   UNL A   1      36.342  23.220  25.137  1.00  0.00    -0.374 OA
BRANCH  31  32
ATOM     32  C   UNL A   1      37.467  23.764  25.794  1.00  0.00     0.202 C 
BRANCH  32  33
ATOM     33  C   UNL A   1      38.562  22.724  26.056  1.00  0.00     0.261 C 
BRANCH  33  34
ATOM     34  O   UNL A   1      39.325  23.089  27.227  1.00  0.00    -0.460 OA
BRANCH  34  35
ATOM     35  C   UNL A   1      40.378  23.926  27.019  1.00  0.00     0.338 C 
ATOM     36  O   UNL A   1      41.543  23.580  26.894  1.00  0.00    -0.246 OA
BRANCH  35  37
ATOM     37  C   UNL A   1      39.961  25.337  27.265  1.00  0.00     0.060 A 
ATOM     38  C   UNL A   1      40.420  26.363  26.417  1.00  0.00     0.016 A 
ATOM     39  C   UNL A   1      39.443  25.652  28.520  1.00  0.00     0.016 A 
ATOM     40  C   UNL A   1      40.520  27.674  26.897  1.00  0.00     0.010 A 
ATOM     41  C   UNL A   1      39.690  26.903  29.033  1.00  0.00     0.010 A 
ATOM     42  C   UNL A   1      40.253  27.912  28.240  1.00  0.00    -0.014 A 
BRANCH  42  43
ATOM     43  C   UNL A   1      40.517  29.154  28.959  1.00  0.00     0.031 A 
ATOM     44  C   UNL A   1      39.394  30.103  29.056  1.00  0.00     0.074 A 
ATOM     45  C   UNL A   1      41.640  29.338  29.695  1.00  0.00     0.049 A 
ATOM     46  N   UNL A   1      39.529  31.323  29.434  1.00  0.00    -0.248 NA
ATOM     47  C   UNL A   1      38.016  29.789  28.661  1.00  0.00     0.031 C 
ATOM     48  C   UNL A   1      41.889  30.277  30.789  1.00  0.00     0.029 A 
ATOM     49  N   UNL A   1      42.886  28.710  29.559  1.00  0.00    -0.354 N 
ATOM     50  C   UNL A   1      38.272  31.772  29.741  1.00  0.00     0.074 A 
ATOM     51  C   UNL A   1      37.381  30.905  29.024  1.00  0.00     0.031 C 
ATOM     52  C   UNL A   1      43.220  30.404  30.964  1.00  0.00     0.029 A 
ATOM     53  C   UNL A   1      43.868  29.650  29.898  1.00  0.00     0.049 A 
ATOM     54  H   UNL A   1      43.041  27.779  29.278  1.00  0.00     0.167 HD
ATOM     55  C   UNL A   1      38.151  32.699  30.728  1.00  0.00     0.037 A 
ATOM     56  C   UNL A   1      44.714  30.100  28.932  1.00  0.00     0.037 A 
ATOM     57  C   UNL A   1      39.474  33.240  31.103  1.00  0.00     0.049 A 
ATOM     58  C   UNL A   1      44.460  31.563  28.708  1.00  0.00     0.074 A 
ATOM     59  C   UNL A   1      40.258  33.234  32.243  1.00  0.00     0.029 A 
ATOM     60  N   UNL A   1      40.323  33.668  30.082  1.00  0.00    -0.354 N 
ATOM     61  N   UNL A   1      43.413  32.171  29.196  1.00  0.00    -0.248 NA
ATOM     62  C   UNL A   1      45.314  32.463  27.951  1.00  0.00     0.031 C 
ATOM     63  C   UNL A   1      41.594  33.615  31.868  1.00  0.00     0.029 A 
ATOM     64  C   UNL A   1      41.614  33.894  30.509  1.00  0.00     0.049 A 
ATOM     65  H   UNL A   1      40.030  33.794  29.151  1.00  0.00     0.167 HD
ATOM     66  C   UNL A   1      43.482  33.498  28.965  1.00  0.00     0.074 A 
ATOM     67  C   UNL A   1      44.638  33.622  28.080  1.00  0.00     0.031 C 
ATOM     68  C   UNL A   1      42.605  34.375  29.542  1.00  0.00     0.037 A 
BRANCH  55  69
ATOM     69  C   UNL A   1      36.852  32.991  31.458  1.00  0.00     0.057 A 
ATOM     70  C   UNL A   1      35.856  33.764  30.836  1.00  0.00     0.134 A 
ATOM     71  C   UNL A   1      36.534  32.616  32.785  1.00  0.00     0.134 A 
ATOM     72  F   UNL A   1      36.019  34.237  29.593  1.00  0.00    -0.206 F 
ATOM     73  C   UNL A   1      34.646  34.103  31.464  1.00  0.00     0.040 A 
ATOM     74  C   UNL A   1      35.305  32.894  33.401  1.00  0.00     0.040 A 
ATOM     75  F   UNL A   1      37.408  32.015  33.600  1.00  0.00    -0.206 F 
ATOM     76  C   UNL A   1      34.354  33.649  32.742  1.00  0.00     0.006 A 
ENDBRANCH  55  69
BRANCH  56  77
ATOM     77  C   UNL A   1      45.051  29.040  27.929  1.00  0.00     0.057 A 
ATOM     78  C   UNL A   1      45.987  28.050  28.291  1.00  0.00     0.134 A 
ATOM     79  C   UNL A   1      44.206  28.711  26.870  1.00  0.00     0.134 A 
ATOM     80  F   UNL A   1      46.803  28.264  29.326  1.00  0.00    -0.206 F 
ATOM     81  C   UNL A   1      46.021  26.773  27.718  1.00  0.00     0.040 A 
ATOM     82  C   UNL A   1      44.213  27.426  26.296  1.00  0.00     0.040 A 
ATOM     83  F   UNL A   1      43.268  29.575  26.459  1.00  0.00    -0.206 F 
ATOM     84  C   UNL A   1      45.091  26.440  26.748  1.00  0.00     0.006 A 
ENDBRANCH  56  77
BRANCH  68  85
ATOM     85  C   UNL A   1      42.594  35.806  29.129  1.00  0.00     0.057 A 
ATOM     86  C   UNL A   1      43.336  36.792  29.785  1.00  0.00     0.134 A 
ATOM     87  C   UNL A   1      41.851  36.228  28.012  1.00  0.00     0.134 A 
ATOM     88  F   UNL A   1      43.948  36.538  30.951  1.00  0.00    -0.206 F 
ATOM     89  C   UNL A   1      43.487  38.070  29.250  1.00  0.00     0.040 A 
ATOM     90  C   UNL A   1      41.938  37.520  27.507  1.00  0.00     0.040 A 
ATOM     91  F   UNL A   1      41.044  35.402  27.333  1.00  0.00    -0.206 F 
ATOM     92  C   UNL A   1      42.800  38.431  28.095  1.00  0.00     0.006 A 
ENDBRANCH  68  85
ENDBRANCH  42  43
ENDBRANCH  35  37
ENDBRANCH  34  35
ENDBRANCH  33  34
ENDBRANCH  32  33
ENDBRANCH  31  32
ENDBRANCH   1  31
TORSDOF 17
ENDMDL
