MODEL 1
REMARK VINA RESULT:     -10.7      0.000      0.000
REMARK SMILES O=C(CN(Cc1ccccc1Cl)S(=O)(=O)c1ccc(Cl)cc1)OCCOCCOC(=O)c1ccc(-c2c3nc(c(-c4c(F)cccc4F)c4ccc([nH]4)c(-c4c(F)cccc4F)c4nc(c(-c5c(F)cccc5F)c5ccc2[nH]5)C=C4)C=C3)cc1
REMARK SMILES IDX 25 1 24 2 23 3 2 4 1 5 3 6 4 7 5 8 6 9 7 10 11 11 8 12 10 13
REMARK SMILES IDX 12 14 9 15 13 16 14 17 15 18 16 19 17 20 22 21 18 22 21 23
REMARK SMILES IDX 19 24 20 25 26 26 27 27 28 28 29 29 30 30 31 31 32 32 33 33
REMARK SMILES IDX 85 34 34 35 84 36 35 37 36 38 37 39 78 40 38 41 83 42 77 43
REMARK SMILES IDX 79 44 39 45 82 46 76 47 75 48 40 50 66 51 49 52 65 53 50 54
REMARK SMILES IDX 53 55 64 56 80 57 51 58 52 59 63 61 81 62 54 63 41 64 42 65
REMARK SMILES IDX 47 66 43 67 44 68 46 69 48 70 45 71 67 72 68 73 73 74 69 75
REMARK SMILES IDX 70 76 72 77 74 78 71 79 55 80 56 81 61 82 57 83 58 84 60 85
REMARK SMILES IDX 62 86 59 87
REMARK H PARENT 79 49 53 60
REMARK Flexibility Score: inf
ROOT
ATOM      1  C   UNL A   1      37.124  23.156  24.912  1.00  0.00     0.202 C 
ENDROOT
BRANCH   1   2
ATOM      2  C   UNL A   1      36.315  22.689  23.704  1.00  0.00     0.261 C 
BRANCH   2   3
ATOM      3  O   UNL A   1      34.920  22.530  24.038  1.00  0.00    -0.462 OA
BRANCH   3   4
ATOM      4  C   UNL A   1      33.898  23.132  23.390  1.00  0.00     0.321 C 
ATOM      5  O   UNL A   1      34.102  23.683  22.309  1.00  0.00    -0.251 OA
BRANCH   4   6
ATOM      6  C   UNL A   1      32.554  23.231  24.065  1.00  0.00     0.225 C 
BRANCH   6   7
ATOM      7  N   UNL A   1      32.024  24.581  24.352  1.00  0.00    -0.182 NA
BRANCH   7   8
ATOM      8  C   UNL A   1      31.008  25.069  23.377  1.00  0.00     0.140 C 
BRANCH   8   9
ATOM      9  C   UNL A   1      30.744  26.556  23.267  1.00  0.00    -0.014 A 
ATOM     10  C   UNL A   1      29.458  27.080  23.503  1.00  0.00     0.006 A 
ATOM     11  C   UNL A   1      31.734  27.461  22.844  1.00  0.00     0.045 A 
ATOM     12  C   UNL A   1      29.191  28.448  23.416  1.00  0.00     0.000 A 
ATOM     13  C   UNL A   1      31.464  28.833  22.746  1.00  0.00     0.021 A 
ATOM     14  Cl  UNL A   1      33.322  26.951  22.383  1.00  0.00    -0.084 Cl
ATOM     15  C   UNL A   1      30.198  29.327  23.050  1.00  0.00     0.002 A 
ENDBRANCH   8   9
ENDBRANCH   7   8
BRANCH   7  16
ATOM     16  S   UNL A   1      31.803  24.859  26.004  1.00  0.00     0.243 S 
ATOM     17  O   UNL A   1      30.402  24.735  26.301  1.00  0.00    -0.207 OA
ATOM     18  O   UNL A   1      32.784  24.046  26.703  1.00  0.00    -0.207 OA
BRANCH  16  19
ATOM     19  C   UNL A   1      32.295  26.546  26.242  1.00  0.00     0.082 A 
ATOM     20  C   UNL A   1      31.386  27.451  26.798  1.00  0.00     0.023 A 
ATOM     21  C   UNL A   1      33.624  26.916  26.011  1.00  0.00     0.023 A 
ATOM     22  C   UNL A   1      31.813  28.738  27.125  1.00  0.00     0.022 A 
ATOM     23  C   UNL A   1      34.047  28.205  26.344  1.00  0.00     0.022 A 
ATOM     24  C   UNL A   1      33.141  29.107  26.905  1.00  0.00     0.041 A 
ATOM     25  Cl  UNL A   1      33.675  30.678  27.361  1.00  0.00    -0.084 Cl
ENDBRANCH  16  19
ENDBRANCH   7  16
ENDBRANCH   6   7
ENDBRANCH   4   6
ENDBRANCH   3   4
ENDBRANCH   2   3
ENDBRANCH   1   2
BRANCH   1  26
ATOM     26  O   UNL A   1      37.821  22.109  25.589  1.00  0.00    -0.374 OA
BRANCH  26  27
ATOM     27  C   UNL A   1      37.640  20.788  25.060  1.00  0.00     0.202 C 
BRANCH  27  28
ATOM     28  C   UNL A   1      38.749  19.777  25.363  1.00  0.00     0.261 C 
BRANCH  28  29
ATOM     29  O   UNL A   1      39.685  20.330  26.298  1.00  0.00    -0.460 OA
BRANCH  29  30
ATOM     30  C   UNL A   1      40.953  19.877  26.176  1.00  0.00     0.338 C 
ATOM     31  O   UNL A   1      41.313  18.793  25.751  1.00  0.00    -0.246 OA
BRANCH  30  32
ATOM     32  C   UNL A   1      41.879  21.000  26.421  1.00  0.00     0.060 A 
ATOM     33  C   UNL A   1      42.221  21.275  27.753  1.00  0.00     0.016 A 
ATOM     34  C   UNL A   1      42.404  21.764  25.377  1.00  0.00     0.016 A 
ATOM     35  C   UNL A   1      43.027  22.368  28.054  1.00  0.00     0.010 A 
ATOM     36  C   UNL A   1      43.204  22.865  25.678  1.00  0.00     0.010 A 
ATOM     37  C   UNL A   1      43.469  23.197  27.018  1.00  0.00    -0.014 A 
BRANCH  37  38
ATOM     38  C   UNL A   1      43.980  24.547  27.331  1.00  0.00     0.031 A 
ATOM     39  C   UNL A   1      42.981  25.589  27.742  1.00  0.00     0.074 A 
ATOM     40  C   UNL A   1      45.287  24.837  27.236  1.00  0.00     0.049 A 
ATOM     41  N   UNL A   1      43.143  26.871  27.936  1.00  0.00    -0.248 NA
ATOM     42  C   UNL A   1      41.599  25.119  27.947  1.00  0.00     0.031 C 
ATOM     43  C   UNL A   1      46.342  23.888  26.892  1.00  0.00     0.029 A 
ATOM     44  N   UNL A   1      45.939  26.031  27.401  1.00  0.00    -0.354 N 
ATOM     45  C   UNL A   1      41.885  27.362  28.259  1.00  0.00     0.074 A 
ATOM     46  C   UNL A   1      40.964  26.249  28.212  1.00  0.00     0.031 C 
ATOM     47  C   UNL A   1      47.515  24.544  26.844  1.00  0.00     0.029 A 
ATOM     48  C   UNL A   1      47.280  25.961  27.116  1.00  0.00     0.049 A 
ATOM     49  H   UNL A   1      45.491  26.856  27.695  1.00  0.00     0.167 HD
ATOM     50  C   UNL A   1      41.533  28.630  28.571  1.00  0.00     0.037 A 
ATOM     51  C   UNL A   1      48.198  26.944  27.049  1.00  0.00     0.037 A 
ATOM     52  C   UNL A   1      42.462  29.726  28.612  1.00  0.00     0.049 A 
ATOM     53  C   UNL A   1      47.774  28.360  27.339  1.00  0.00     0.074 A 
ATOM     54  C   UNL A   1      42.224  31.050  28.930  1.00  0.00     0.029 A 
ATOM     55  N   UNL A   1      43.814  29.618  28.316  1.00  0.00    -0.354 N 
ATOM     56  N   UNL A   1      46.587  28.820  27.658  1.00  0.00    -0.248 NA
ATOM     57  C   UNL A   1      48.816  29.392  27.262  1.00  0.00     0.031 C 
ATOM     58  C   UNL A   1      43.422  31.754  28.778  1.00  0.00     0.029 A 
ATOM     59  C   UNL A   1      44.420  30.857  28.424  1.00  0.00     0.049 A 
ATOM     60  H   UNL A   1      44.274  28.784  28.068  1.00  0.00     0.167 HD
ATOM     61  C   UNL A   1      46.746  30.187  27.853  1.00  0.00     0.074 A 
ATOM     62  C   UNL A   1      48.145  30.479  27.619  1.00  0.00     0.031 C 
ATOM     63  C   UNL A   1      45.820  31.116  28.200  1.00  0.00     0.037 A 
BRANCH  50  64
ATOM     64  C   UNL A   1      40.081  28.892  28.848  1.00  0.00     0.057 A 
ATOM     65  C   UNL A   1      39.541  28.808  30.138  1.00  0.00     0.134 A 
ATOM     66  C   UNL A   1      39.209  29.230  27.805  1.00  0.00     0.134 A 
ATOM     67  F   UNL A   1      40.316  28.468  31.179  1.00  0.00    -0.206 F 
ATOM     68  C   UNL A   1      38.181  29.019  30.377  1.00  0.00     0.040 A 
ATOM     69  C   UNL A   1      37.853  29.473  28.035  1.00  0.00     0.040 A 
ATOM     70  F   UNL A   1      39.658  29.327  26.545  1.00  0.00    -0.206 F 
ATOM     71  C   UNL A   1      37.335  29.358  29.323  1.00  0.00     0.006 A 
ENDBRANCH  50  64
BRANCH  51  72
ATOM     72  C   UNL A   1      49.599  26.622  26.683  1.00  0.00     0.057 A 
ATOM     73  C   UNL A   1      50.018  26.629  25.349  1.00  0.00     0.134 A 
ATOM     74  C   UNL A   1      50.554  26.307  27.657  1.00  0.00     0.134 A 
ATOM     75  F   UNL A   1      49.145  26.904  24.368  1.00  0.00    -0.206 F 
ATOM     76  C   UNL A   1      51.334  26.326  24.994  1.00  0.00     0.040 A 
ATOM     77  C   UNL A   1      51.879  26.026  27.319  1.00  0.00     0.040 A 
ATOM     78  F   UNL A   1      50.217  26.286  28.955  1.00  0.00    -0.206 F 
ATOM     79  C   UNL A   1      52.270  26.030  25.982  1.00  0.00     0.006 A 
ENDBRANCH  51  72
BRANCH  63  80
ATOM     80  C   UNL A   1      46.300  32.523  28.403  1.00  0.00     0.057 A 
ATOM     81  C   UNL A   1      46.302  33.465  27.368  1.00  0.00     0.134 A 
ATOM     82  C   UNL A   1      46.706  32.953  29.674  1.00  0.00     0.134 A 
ATOM     83  F   UNL A   1      45.933  33.114  26.127  1.00  0.00    -0.206 F 
ATOM     84  C   UNL A   1      46.709  34.783  27.585  1.00  0.00     0.040 A 
ATOM     85  C   UNL A   1      47.088  34.274  29.909  1.00  0.00     0.040 A 
ATOM     86  F   UNL A   1      46.716  32.102  30.711  1.00  0.00    -0.206 F 
ATOM     87  C   UNL A   1      47.095  35.192  28.861  1.00  0.00     0.006 A 
ENDBRANCH  63  80
ENDBRANCH  37  38
ENDBRANCH  30  32
ENDBRANCH  29  30
ENDBRANCH  28  29
ENDBRANCH  27  28
ENDBRANCH  26  27
ENDBRANCH   1  26
TORSDOF 19
ENDMDL
MODEL 2
REMARK VINA RESULT:     -10.7      4.804      9.978
REMARK SMILES O=C(CN(Cc1ccccc1Cl)S(=O)(=O)c1ccc(Cl)cc1)OCCOCCOC(=O)c1ccc(-c2c3nc(c(-c4c(F)cccc4F)c4ccc([nH]4)c(-c4c(F)cccc4F)c4nc(c(-c5c(F)cccc5F)c5ccc2[nH]5)C=C4)C=C3)cc1
REMARK SMILES IDX 25 1 24 2 23 3 2 4 1 5 3 6 4 7 5 8 6 9 7 10 11 11 8 12 10 13
REMARK SMILES IDX 12 14 9 15 13 16 14 17 15 18 16 19 17 20 22 21 18 22 21 23
REMARK SMILES IDX 19 24 20 25 26 26 27 27 28 28 29 29 30 30 31 31 32 32 33 33
REMARK SMILES IDX 85 34 34 35 84 36 35 37 36 38 37 39 78 40 38 41 83 42 77 43
REMARK SMILES IDX 79 44 39 45 82 46 76 47 75 48 40 50 66 51 49 52 65 53 50 54
REMARK SMILES IDX 53 55 64 56 80 57 51 58 52 59 63 61 81 62 54 63 41 64 42 65
REMARK SMILES IDX 47 66 43 67 44 68 46 69 48 70 45 71 67 72 68 73 73 74 69 75
REMARK SMILES IDX 70 76 72 77 74 78 71 79 55 80 56 81 61 82 57 83 58 84 60 85
REMARK SMILES IDX 62 86 59 87
REMARK H PARENT 79 49 53 60
REMARK Flexibility Score: inf
ROOT
ATOM      1  C   UNL A   1      31.017  29.527  24.478  1.00  0.00     0.202 C 
ENDROOT
BRANCH   1   2
ATOM      2  C   UNL A   1      32.431  28.951  24.471  1.00  0.00     0.261 C 
BRANCH   2   3
ATOM      3  O   UNL A   1      32.649  28.081  25.601  1.00  0.00    -0.462 OA
BRANCH   3   4
ATOM      4  C   UNL A   1      31.823  27.078  25.972  1.00  0.00     0.321 C 
ATOM      5  O   UNL A   1      31.301  27.100  27.086  1.00  0.00    -0.251 OA
BRANCH   4   6
ATOM      6  C   UNL A   1      31.659  25.884  25.066  1.00  0.00     0.225 C 
BRANCH   6   7
ATOM      7  N   UNL A   1      32.457  24.676  25.365  1.00  0.00    -0.182 NA
BRANCH   7   8
ATOM      8  C   UNL A   1      33.876  24.945  25.730  1.00  0.00     0.140 C 
BRANCH   8   9
ATOM      9  C   UNL A   1      34.968  24.074  25.145  1.00  0.00    -0.014 A 
ATOM     10  C   UNL A   1      36.107  23.737  25.903  1.00  0.00     0.006 A 
ATOM     11  C   UNL A   1      34.940  23.640  23.807  1.00  0.00     0.045 A 
ATOM     12  C   UNL A   1      37.123  22.929  25.387  1.00  0.00     0.000 A 
ATOM     13  C   UNL A   1      35.965  22.838  23.287  1.00  0.00     0.021 A 
ATOM     14  Cl  UNL A   1      33.677  24.089  22.712  1.00  0.00    -0.084 Cl
ATOM     15  C   UNL A   1      37.046  22.468  24.083  1.00  0.00     0.002 A 
ENDBRANCH   8   9
ENDBRANCH   7   8
BRANCH   7  16
ATOM     16  S   UNL A   1      31.579  23.505  26.209  1.00  0.00     0.243 S 
ATOM     17  O   UNL A   1      31.789  23.710  27.617  1.00  0.00    -0.207 OA
ATOM     18  O   UNL A   1      30.236  23.502  25.653  1.00  0.00    -0.207 OA
BRANCH  16  19
ATOM     19  C   UNL A   1      32.318  21.965  25.735  1.00  0.00     0.082 A 
ATOM     20  C   UNL A   1      31.993  21.403  24.496  1.00  0.00     0.023 A 
ATOM     21  C   UNL A   1      33.321  21.405  26.534  1.00  0.00     0.023 A 
ATOM     22  C   UNL A   1      32.680  20.272  24.055  1.00  0.00     0.022 A 
ATOM     23  C   UNL A   1      34.007  20.276  26.085  1.00  0.00     0.022 A 
ATOM     24  C   UNL A   1      33.688  19.718  24.845  1.00  0.00     0.041 A 
ATOM     25  Cl  UNL A   1      34.569  18.357  24.271  1.00  0.00    -0.084 Cl
ENDBRANCH  16  19
ENDBRANCH   7  16
ENDBRANCH   6   7
ENDBRANCH   4   6
ENDBRANCH   3   4
ENDBRANCH   2   3
ENDBRANCH   1   2
BRANCH   1  26
ATOM     26  O   UNL A   1      30.918  30.830  25.056  1.00  0.00    -0.374 OA
BRANCH  26  27
ATOM     27  C   UNL A   1      31.578  31.010  26.317  1.00  0.00     0.202 C 
BRANCH  27  28
ATOM     28  C   UNL A   1      31.491  32.408  26.935  1.00  0.00     0.261 C 
BRANCH  28  29
ATOM     29  O   UNL A   1      32.742  33.094  26.793  1.00  0.00    -0.460 OA
BRANCH  29  30
ATOM     30  C   UNL A   1      33.202  33.687  27.918  1.00  0.00     0.338 C 
ATOM     31  O   UNL A   1      32.608  34.472  28.636  1.00  0.00    -0.246 OA
BRANCH  30  32
ATOM     32  C   UNL A   1      34.482  33.054  28.293  1.00  0.00     0.060 A 
ATOM     33  C   UNL A   1      34.438  31.725  28.739  1.00  0.00     0.016 A 
ATOM     34  C   UNL A   1      35.696  33.739  28.210  1.00  0.00     0.016 A 
ATOM     35  C   UNL A   1      35.599  31.099  29.180  1.00  0.00     0.010 A 
ATOM     36  C   UNL A   1      36.858  33.116  28.660  1.00  0.00     0.010 A 
ATOM     37  C   UNL A   1      36.799  31.818  29.196  1.00  0.00    -0.014 A 
BRANCH  37  38
ATOM     38  C   UNL A   1      37.934  31.326  30.003  1.00  0.00     0.031 A 
ATOM     39  C   UNL A   1      38.859  30.330  29.366  1.00  0.00     0.074 A 
ATOM     40  C   UNL A   1      38.123  31.741  31.266  1.00  0.00     0.049 A 
ATOM     41  N   UNL A   1      39.839  29.645  29.893  1.00  0.00    -0.248 NA
ATOM     42  C   UNL A   1      38.635  30.058  27.935  1.00  0.00     0.031 C 
ATOM     43  C   UNL A   1      37.311  32.737  31.960  1.00  0.00     0.029 A 
ATOM     44  N   UNL A   1      39.052  31.349  32.193  1.00  0.00    -0.354 N 
ATOM     45  C   UNL A   1      40.329  28.846  28.868  1.00  0.00     0.074 A 
ATOM     46  C   UNL A   1      39.526  29.109  27.696  1.00  0.00     0.031 C 
ATOM     47  C   UNL A   1      37.763  32.860  33.220  1.00  0.00     0.029 A 
ATOM     48  C   UNL A   1      38.867  31.924  33.425  1.00  0.00     0.049 A 
ATOM     49  H   UNL A   1      39.780  30.717  31.994  1.00  0.00     0.167 HD
ATOM     50  C   UNL A   1      41.360  27.972  28.905  1.00  0.00     0.037 A 
ATOM     51  C   UNL A   1      39.499  31.686  34.590  1.00  0.00     0.037 A 
ATOM     52  C   UNL A   1      42.148  27.721  30.080  1.00  0.00     0.049 A 
ATOM     53  C   UNL A   1      40.604  30.664  34.625  1.00  0.00     0.074 A 
ATOM     54  C   UNL A   1      43.226  26.869  30.232  1.00  0.00     0.029 A 
ATOM     55  N   UNL A   1      41.930  28.322  31.312  1.00  0.00    -0.354 N 
ATOM     56  N   UNL A   1      41.075  29.919  33.652  1.00  0.00    -0.248 NA
ATOM     57  C   UNL A   1      41.268  30.451  35.918  1.00  0.00     0.031 C 
ATOM     58  C   UNL A   1      43.631  26.918  31.570  1.00  0.00     0.029 A 
ATOM     59  C   UNL A   1      42.842  27.845  32.236  1.00  0.00     0.049 A 
ATOM     60  H   UNL A   1      41.232  28.989  31.500  1.00  0.00     0.167 HD
ATOM     61  C   UNL A   1      42.111  29.175  34.206  1.00  0.00     0.074 A 
ATOM     62  C   UNL A   1      42.200  29.562  35.599  1.00  0.00     0.031 C 
ATOM     63  C   UNL A   1      42.918  28.259  33.615  1.00  0.00     0.037 A 
BRANCH  50  64
ATOM     64  C   UNL A   1      41.657  27.205  27.648  1.00  0.00     0.057 A 
ATOM     65  C   UNL A   1      42.440  27.739  26.617  1.00  0.00     0.134 A 
ATOM     66  C   UNL A   1      41.145  25.913  27.468  1.00  0.00     0.134 A 
ATOM     67  F   UNL A   1      42.943  28.979  26.716  1.00  0.00    -0.206 F 
ATOM     68  C   UNL A   1      42.678  27.029  25.437  1.00  0.00     0.040 A 
ATOM     69  C   UNL A   1      41.401  25.182  26.306  1.00  0.00     0.040 A 
ATOM     70  F   UNL A   1      40.386  25.342  28.414  1.00  0.00    -0.206 F 
ATOM     71  C   UNL A   1      42.161  25.744  25.283  1.00  0.00     0.006 A 
ENDBRANCH  50  64
BRANCH  51  72
ATOM     72  C   UNL A   1      39.093  32.421  35.813  1.00  0.00     0.057 A 
ATOM     73  C   UNL A   1      39.546  33.721  36.059  1.00  0.00     0.134 A 
ATOM     74  C   UNL A   1      38.238  31.845  36.761  1.00  0.00     0.134 A 
ATOM     75  F   UNL A   1      40.383  34.319  35.198  1.00  0.00    -0.206 F 
ATOM     76  C   UNL A   1      39.171  34.420  37.208  1.00  0.00     0.040 A 
ATOM     77  C   UNL A   1      37.835  32.542  37.901  1.00  0.00     0.040 A 
ATOM     78  F   UNL A   1      37.767  30.602  36.581  1.00  0.00    -0.206 F 
ATOM     79  C   UNL A   1      38.307  33.832  38.130  1.00  0.00     0.006 A 
ENDBRANCH  51  72
BRANCH  63  80
ATOM     80  C   UNL A   1      44.004  27.655  34.456  1.00  0.00     0.057 A 
ATOM     81  C   UNL A   1      43.834  26.439  35.129  1.00  0.00     0.134 A 
ATOM     82  C   UNL A   1      45.259  28.273  34.539  1.00  0.00     0.134 A 
ATOM     83  F   UNL A   1      42.654  25.803  35.097  1.00  0.00    -0.206 F 
ATOM     84  C   UNL A   1      44.870  25.869  35.871  1.00  0.00     0.040 A 
ATOM     85  C   UNL A   1      46.310  27.698  35.253  1.00  0.00     0.040 A 
ATOM     86  F   UNL A   1      45.490  29.434  33.906  1.00  0.00    -0.206 F 
ATOM     87  C   UNL A   1      46.115  26.494  35.927  1.00  0.00     0.006 A 
ENDBRANCH  63  80
ENDBRANCH  37  38
ENDBRANCH  30  32
ENDBRANCH  29  30
ENDBRANCH  28  29
ENDBRANCH  27  28
ENDBRANCH  26  27
ENDBRANCH   1  26
TORSDOF 19
ENDMDL
MODEL 3
REMARK VINA RESULT:     -10.6      4.960      8.927
REMARK SMILES O=C(CN(Cc1ccccc1Cl)S(=O)(=O)c1ccc(Cl)cc1)OCCOCCOC(=O)c1ccc(-c2c3nc(c(-c4c(F)cccc4F)c4ccc([nH]4)c(-c4c(F)cccc4F)c4nc(c(-c5c(F)cccc5F)c5ccc2[nH]5)C=C4)C=C3)cc1
REMARK SMILES IDX 25 1 24 2 23 3 2 4 1 5 3 6 4 7 5 8 6 9 7 10 11 11 8 12 10 13
REMARK SMILES IDX 12 14 9 15 13 16 14 17 15 18 16 19 17 20 22 21 18 22 21 23
REMARK SMILES IDX 19 24 20 25 26 26 27 27 28 28 29 29 30 30 31 31 32 32 33 33
REMARK SMILES IDX 85 34 34 35 84 36 35 37 36 38 37 39 78 40 38 41 83 42 77 43
REMARK SMILES IDX 79 44 39 45 82 46 76 47 75 48 40 50 66 51 49 52 65 53 50 54
REMARK SMILES IDX 53 55 64 56 80 57 51 58 52 59 63 61 81 62 54 63 41 64 42 65
REMARK SMILES IDX 47 66 43 67 44 68 46 69 48 70 45 71 67 72 68 73 73 74 69 75
REMARK SMILES IDX 70 76 72 77 74 78 71 79 55 80 56 81 61 82 57 83 58 84 60 85
REMARK SMILES IDX 62 86 59 87
REMARK H PARENT 79 49 53 60
REMARK Flexibility Score: inf
ROOT
ATOM      1  C   UNL A   1      32.387  30.491  26.721  1.00  0.00     0.202 C 
ENDROOT
BRANCH   1   2
ATOM      2  C   UNL A   1      32.253  29.181  25.948  1.00  0.00     0.261 C 
BRANCH   2   3
ATOM      3  O   UNL A   1      32.221  29.413  24.525  1.00  0.00    -0.462 OA
BRANCH   3   4
ATOM      4  C   UNL A   1      31.152  29.186  23.729  1.00  0.00     0.321 C 
ATOM      5  O   UNL A   1      30.081  29.739  23.976  1.00  0.00    -0.251 OA
BRANCH   4   6
ATOM      6  C   UNL A   1      31.256  28.159  22.630  1.00  0.00     0.225 C 
BRANCH   6   7
ATOM      7  N   UNL A   1      31.778  26.822  22.982  1.00  0.00    -0.182 NA
BRANCH   7   8
ATOM      8  C   UNL A   1      30.751  25.742  23.008  1.00  0.00     0.140 C 
BRANCH   8   9
ATOM      9  C   UNL A   1      30.927  24.576  23.959  1.00  0.00    -0.014 A 
ATOM     10  C   UNL A   1      31.211  23.285  23.472  1.00  0.00     0.006 A 
ATOM     11  C   UNL A   1      30.732  24.708  25.345  1.00  0.00     0.045 A 
ATOM     12  C   UNL A   1      31.386  22.197  24.330  1.00  0.00     0.000 A 
ATOM     13  C   UNL A   1      30.897  23.613  26.204  1.00  0.00     0.021 A 
ATOM     14  Cl  UNL A   1      30.243  26.198  26.076  1.00  0.00    -0.084 Cl
ATOM     15  C   UNL A   1      31.241  22.363  25.698  1.00  0.00     0.002 A 
ENDBRANCH   8   9
ENDBRANCH   7   8
BRANCH   7  16
ATOM     16  S   UNL A   1      33.300  26.518  22.316  1.00  0.00     0.243 S 
ATOM     17  O   UNL A   1      33.117  25.864  21.048  1.00  0.00    -0.207 OA
ATOM     18  O   UNL A   1      34.057  27.755  22.410  1.00  0.00    -0.207 OA
BRANCH  16  19
ATOM     19  C   UNL A   1      34.063  25.382  23.444  1.00  0.00     0.082 A 
ATOM     20  C   UNL A   1      34.095  25.689  24.807  1.00  0.00     0.023 A 
ATOM     21  C   UNL A   1      34.490  24.132  22.981  1.00  0.00     0.023 A 
ATOM     22  C   UNL A   1      34.559  24.737  25.715  1.00  0.00     0.022 A 
ATOM     23  C   UNL A   1      34.949  23.181  23.894  1.00  0.00     0.022 A 
ATOM     24  C   UNL A   1      34.975  23.485  25.257  1.00  0.00     0.041 A 
ATOM     25  Cl  UNL A   1      35.494  22.296  26.386  1.00  0.00    -0.084 Cl
ENDBRANCH  16  19
ENDBRANCH   7  16
ENDBRANCH   6   7
ENDBRANCH   4   6
ENDBRANCH   3   4
ENDBRANCH   2   3
ENDBRANCH   1   2
BRANCH   1  26
ATOM     26  O   UNL A   1      31.251  31.351  26.616  1.00  0.00    -0.374 OA
BRANCH  26  27
ATOM     27  C   UNL A   1      31.531  32.757  26.561  1.00  0.00     0.202 C 
BRANCH  27  28
ATOM     28  C   UNL A   1      32.805  33.224  27.268  1.00  0.00     0.261 C 
BRANCH  28  29
ATOM     29  O   UNL A   1      32.491  34.206  28.265  1.00  0.00    -0.460 OA
BRANCH  29  30
ATOM     30  C   UNL A   1      33.557  34.857  28.784  1.00  0.00     0.338 C 
ATOM     31  O   UNL A   1      33.590  35.998  29.211  1.00  0.00    -0.246 OA
BRANCH  30  32
ATOM     32  C   UNL A   1      34.650  33.885  28.982  1.00  0.00     0.060 A 
ATOM     33  C   UNL A   1      34.307  32.620  29.481  1.00  0.00     0.016 A 
ATOM     34  C   UNL A   1      35.979  34.199  28.685  1.00  0.00     0.016 A 
ATOM     35  C   UNL A   1      35.301  31.689  29.761  1.00  0.00     0.010 A 
ATOM     36  C   UNL A   1      36.975  33.270  28.974  1.00  0.00     0.010 A 
ATOM     37  C   UNL A   1      36.641  32.037  29.563  1.00  0.00    -0.014 A 
BRANCH  37  38
ATOM     38  C   UNL A   1      37.706  31.240  30.204  1.00  0.00     0.031 A 
ATOM     39  C   UNL A   1      38.000  31.512  31.651  1.00  0.00     0.074 A 
ATOM     40  C   UNL A   1      38.397  30.319  29.516  1.00  0.00     0.049 A 
ATOM     41  N   UNL A   1      38.963  31.056  32.406  1.00  0.00    -0.248 NA
ATOM     42  C   UNL A   1      37.085  32.442  32.337  1.00  0.00     0.031 C 
ATOM     43  C   UNL A   1      38.160  29.947  28.123  1.00  0.00     0.029 A 
ATOM     44  N   UNL A   1      39.460  29.545  29.900  1.00  0.00    -0.354 N 
ATOM     45  C   UNL A   1      38.786  31.662  33.644  1.00  0.00     0.074 A 
ATOM     46  C   UNL A   1      37.640  32.536  33.534  1.00  0.00     0.031 C 
ATOM     47  C   UNL A   1      39.073  29.030  27.759  1.00  0.00     0.029 A 
ATOM     48  C   UNL A   1      39.978  28.786  28.881  1.00  0.00     0.049 A 
ATOM     49  H   UNL A   1      39.818  29.535  30.817  1.00  0.00     0.167 HD
ATOM     50  C   UNL A   1      39.515  31.499  34.771  1.00  0.00     0.037 A 
ATOM     51  C   UNL A   1      41.079  28.012  28.857  1.00  0.00     0.037 A 
ATOM     52  C   UNL A   1      40.653  30.626  34.862  1.00  0.00     0.049 A 
ATOM     53  C   UNL A   1      41.914  27.891  30.104  1.00  0.00     0.074 A 
ATOM     54  C   UNL A   1      41.459  30.368  35.955  1.00  0.00     0.029 A 
ATOM     55  N   UNL A   1      41.149  29.872  33.807  1.00  0.00    -0.354 N 
ATOM     56  N   UNL A   1      41.737  28.454  31.277  1.00  0.00    -0.248 NA
ATOM     57  C   UNL A   1      43.099  27.027  30.027  1.00  0.00     0.031 C 
ATOM     58  C   UNL A   1      42.473  29.495  35.549  1.00  0.00     0.029 A 
ATOM     59  C   UNL A   1      42.263  29.163  34.218  1.00  0.00     0.049 A 
ATOM     60  H   UNL A   1      40.764  29.845  32.902  1.00  0.00     0.167 HD
ATOM     61  C   UNL A   1      42.766  27.986  32.086  1.00  0.00     0.074 A 
ATOM     62  C   UNL A   1      43.561  27.092  31.269  1.00  0.00     0.031 C 
ATOM     63  C   UNL A   1      43.027  28.267  33.387  1.00  0.00     0.037 A 
BRANCH  50  64
ATOM     64  C   UNL A   1      39.120  32.312  35.969  1.00  0.00     0.057 A 
ATOM     65  C   UNL A   1      38.241  31.823  36.945  1.00  0.00     0.134 A 
ATOM     66  C   UNL A   1      39.623  33.607  36.145  1.00  0.00     0.134 A 
ATOM     67  F   UNL A   1      37.706  30.599  36.826  1.00  0.00    -0.206 F 
ATOM     68  C   UNL A   1      37.853  32.604  38.037  1.00  0.00     0.040 A 
ATOM     69  C   UNL A   1      39.266  34.386  37.248  1.00  0.00     0.040 A 
ATOM     70  F   UNL A   1      40.467  34.139  35.249  1.00  0.00    -0.206 F 
ATOM     71  C   UNL A   1      38.371  33.888  38.192  1.00  0.00     0.006 A 
ENDBRANCH  50  64
BRANCH  51  72
ATOM     72  C   UNL A   1      41.458  27.305  27.609  1.00  0.00     0.057 A 
ATOM     73  C   UNL A   1      42.212  27.942  26.617  1.00  0.00     0.134 A 
ATOM     74  C   UNL A   1      41.083  25.976  27.380  1.00  0.00     0.134 A 
ATOM     75  F   UNL A   1      42.584  29.221  26.769  1.00  0.00    -0.206 F 
ATOM     76  C   UNL A   1      42.571  27.286  25.438  1.00  0.00     0.040 A 
ATOM     77  C   UNL A   1      41.457  25.299  26.218  1.00  0.00     0.040 A 
ATOM     78  F   UNL A   1      40.363  25.308  28.294  1.00  0.00    -0.206 F 
ATOM     79  C   UNL A   1      42.200  25.958  25.240  1.00  0.00     0.006 A 
ENDBRANCH  51  72
BRANCH  63  80
ATOM     80  C   UNL A   1      44.185  27.557  34.025  1.00  0.00     0.057 A 
ATOM     81  C   UNL A   1      44.048  26.301  34.627  1.00  0.00     0.134 A 
ATOM     82  C   UNL A   1      45.469  28.117  33.978  1.00  0.00     0.134 A 
ATOM     83  F   UNL A   1      42.844  25.716  34.713  1.00  0.00    -0.206 F 
ATOM     84  C   UNL A   1      45.145  25.634  35.176  1.00  0.00     0.040 A 
ATOM     85  C   UNL A   1      46.577  27.447  34.498  1.00  0.00     0.040 A 
ATOM     86  F   UNL A   1      45.670  29.314  33.404  1.00  0.00    -0.206 F 
ATOM     87  C   UNL A   1      46.415  26.204  35.104  1.00  0.00     0.006 A 
ENDBRANCH  63  80
ENDBRANCH  37  38
ENDBRANCH  30  32
ENDBRANCH  29  30
ENDBRANCH  28  29
ENDBRANCH  27  28
ENDBRANCH  26  27
ENDBRANCH   1  26
TORSDOF 19
ENDMDL
