MODEL 1
REMARK VINA RESULT:     -10.8      0.000      0.000
REMARK SMILES COc1cc2c[nH]nc2cc1C(=O)OCCOCCOC(=O)c1ccc(-c2c3nc(c(-c4c(F)cccc4F)c4ccc([nH]4)c(-c4c(F)cccc4F)c4nc(c(-c5c(F)cccc5F)c5ccc2[nH]5)C=C4)C=C3)cc1
REMARK SMILES IDX 18 1 17 2 16 3 15 4 14 5 12 6 13 7 11 8 3 9 4 10 5 11 10 12
REMARK SMILES IDX 6 13 9 14 7 15 8 16 2 18 1 19 19 20 20 21 21 22 22 23 23 24
REMARK SMILES IDX 24 25 76 26 25 27 75 28 26 29 27 30 28 31 69 32 29 33 74 34
REMARK SMILES IDX 68 35 70 36 30 37 73 38 67 39 66 40 31 42 57 43 40 44 56 45
REMARK SMILES IDX 41 46 44 47 55 48 71 49 42 50 43 51 54 53 72 54 45 55 32 56
REMARK SMILES IDX 33 57 38 58 34 59 35 60 37 61 39 62 36 63 58 64 59 65 64 66
REMARK SMILES IDX 60 67 61 68 63 69 65 70 62 71 46 72 47 73 52 74 48 75 49 76
REMARK SMILES IDX 51 77 53 78 50 79
REMARK H PARENT 7 17 70 41 44 52
REMARK Flexibility Score: inf
ROOT
ATOM      1  C   UNL A   1      42.415  20.715  26.484  1.00  0.00     0.202 C 
ENDROOT
BRANCH   1   2
ATOM      2  O   UNL A   1      41.192  20.334  25.854  1.00  0.00    -0.374 OA
BRANCH   2   3
ATOM      3  C   UNL A   1      39.972  20.769  26.448  1.00  0.00     0.202 C 
BRANCH   3   4
ATOM      4  C   UNL A   1      39.290  21.984  25.813  1.00  0.00     0.261 C 
BRANCH   4   5
ATOM      5  O   UNL A   1      37.870  21.803  25.709  1.00  0.00    -0.460 OA
BRANCH   5   6
ATOM      6  C   UNL A   1      37.146  22.946  25.696  1.00  0.00     0.342 C 
ATOM      7  O   UNL A   1      37.522  24.052  26.057  1.00  0.00    -0.246 OA
BRANCH   6   8
ATOM      8  C   UNL A   1      35.829  22.743  25.056  1.00  0.00     0.104 A 
ATOM      9  C   UNL A   1      34.712  22.155  25.744  1.00  0.00     0.134 A 
ATOM     10  C   UNL A   1      33.434  21.986  25.160  1.00  0.00     0.059 A 
ATOM     11  C   UNL A   1      33.407  22.472  23.859  1.00  0.00     0.023 A 
ATOM     12  C   UNL A   1      35.758  23.212  23.716  1.00  0.00     0.050 A 
ATOM     13  C   UNL A   1      32.317  22.490  23.033  1.00  0.00     0.114 A 
ATOM     14  C   UNL A   1      34.497  23.059  23.126  1.00  0.00     0.093 A 
ATOM     15  N   UNL A   1      32.774  23.046  21.871  1.00  0.00    -0.285 N 
ATOM     16  N   UNL A   1      34.076  23.388  21.895  1.00  0.00    -0.176 NA
ATOM     17  H   UNL A   1      32.199  23.185  21.084  1.00  0.00     0.189 HD
BRANCH   9  18
ATOM     18  O   UNL A   1      34.831  21.642  27.018  1.00  0.00    -0.496 OA
ATOM     19  C   UNL A   1      33.641  21.834  27.780  1.00  0.00     0.278 C 
ENDBRANCH   9  18
ENDBRANCH   6   8
ENDBRANCH   5   6
ENDBRANCH   4   5
ENDBRANCH   3   4
ENDBRANCH   2   3
ENDBRANCH   1   2
BRANCH   1  20
ATOM     20  C   UNL A   1      43.417  21.518  25.643  1.00  0.00     0.261 C 
BRANCH  20  21
ATOM     21  O   UNL A   1      42.819  22.624  24.941  1.00  0.00    -0.460 OA
BRANCH  21  22
ATOM     22  C   UNL A   1      43.538  23.770  24.962  1.00  0.00     0.338 C 
ATOM     23  O   UNL A   1      44.527  24.041  24.290  1.00  0.00    -0.246 OA
BRANCH  22  24
ATOM     24  C   UNL A   1      42.896  24.769  25.831  1.00  0.00     0.060 A 
ATOM     25  C   UNL A   1      43.510  26.022  25.959  1.00  0.00     0.016 A 
ATOM     26  C   UNL A   1      41.785  24.440  26.608  1.00  0.00     0.016 A 
ATOM     27  C   UNL A   1      43.040  26.938  26.898  1.00  0.00     0.010 A 
ATOM     28  C   UNL A   1      41.321  25.358  27.558  1.00  0.00     0.010 A 
ATOM     29  C   UNL A   1      41.965  26.596  27.730  1.00  0.00    -0.014 A 
BRANCH  29  30
ATOM     30  C   UNL A   1      41.596  27.481  28.861  1.00  0.00     0.031 A 
ATOM     31  C   UNL A   1      42.359  27.381  30.153  1.00  0.00     0.074 A 
ATOM     32  C   UNL A   1      40.592  28.367  28.739  1.00  0.00     0.049 A 
ATOM     33  N   UNL A   1      42.167  28.017  31.281  1.00  0.00    -0.248 NA
ATOM     34  C   UNL A   1      43.488  26.437  30.179  1.00  0.00     0.031 C 
ATOM     35  C   UNL A   1      39.795  28.578  27.532  1.00  0.00     0.029 A 
ATOM     36  N   UNL A   1      40.063  29.246  29.651  1.00  0.00    -0.354 N 
ATOM     37  C   UNL A   1      43.138  27.540  32.154  1.00  0.00     0.074 A 
ATOM     38  C   UNL A   1      43.909  26.551  31.431  1.00  0.00     0.031 C 
ATOM     39  C   UNL A   1      38.861  29.511  27.785  1.00  0.00     0.029 A 
ATOM     40  C   UNL A   1      38.979  29.941  29.177  1.00  0.00     0.049 A 
ATOM     41  H   UNL A   1      40.428  29.367  30.558  1.00  0.00     0.167 HD
ATOM     42  C   UNL A   1      43.369  27.899  33.439  1.00  0.00     0.037 A 
ATOM     43  C   UNL A   1      38.158  30.806  29.805  1.00  0.00     0.037 A 
ATOM     44  C   UNL A   1      42.614  28.893  34.154  1.00  0.00     0.049 A 
ATOM     45  C   UNL A   1      38.408  31.154  31.248  1.00  0.00     0.074 A 
ATOM     46  C   UNL A   1      42.806  29.359  35.443  1.00  0.00     0.029 A 
ATOM     47  N   UNL A   1      41.517  29.569  33.642  1.00  0.00    -0.354 N 
ATOM     48  N   UNL A   1      39.356  30.731  32.048  1.00  0.00    -0.248 NA
ATOM     49  C   UNL A   1      37.474  32.100  31.876  1.00  0.00     0.031 C 
ATOM     50  C   UNL A   1      41.796  30.285  35.728  1.00  0.00     0.029 A 
ATOM     51  C   UNL A   1      41.004  30.427  34.600  1.00  0.00     0.049 A 
ATOM     52  H   UNL A   1      41.157  29.457  32.733  1.00  0.00     0.167 HD
ATOM     53  C   UNL A   1      39.149  31.378  33.261  1.00  0.00     0.074 A 
ATOM     54  C   UNL A   1      37.992  32.230  33.089  1.00  0.00     0.031 C 
ATOM     55  C   UNL A   1      39.856  31.276  34.413  1.00  0.00     0.037 A 
BRANCH  42  56
ATOM     56  C   UNL A   1      44.472  27.194  34.171  1.00  0.00     0.057 A 
ATOM     57  C   UNL A   1      45.773  27.707  34.222  1.00  0.00     0.134 A 
ATOM     58  C   UNL A   1      44.213  26.013  34.878  1.00  0.00     0.134 A 
ATOM     59  F   UNL A   1      46.089  28.829  33.557  1.00  0.00    -0.206 F 
ATOM     60  C   UNL A   1      46.782  27.063  34.941  1.00  0.00     0.040 A 
ATOM     61  C   UNL A   1      45.207  25.371  35.617  1.00  0.00     0.040 A 
ATOM     62  F   UNL A   1      42.984  25.472  34.873  1.00  0.00    -0.206 F 
ATOM     63  C   UNL A   1      46.499  25.895  35.647  1.00  0.00     0.006 A 
ENDBRANCH  42  56
BRANCH  43  64
ATOM     64  C   UNL A   1      37.000  31.389  29.081  1.00  0.00     0.057 A 
ATOM     65  C   UNL A   1      37.026  32.705  28.607  1.00  0.00     0.134 A 
ATOM     66  C   UNL A   1      35.828  30.650  28.876  1.00  0.00     0.134 A 
ATOM     67  F   UNL A   1      38.110  33.469  28.795  1.00  0.00    -0.206 F 
ATOM     68  C   UNL A   1      35.921  33.273  27.970  1.00  0.00     0.040 A 
ATOM     69  C   UNL A   1      34.725  31.197  28.220  1.00  0.00     0.040 A 
ATOM     70  F   UNL A   1      35.741  29.383  29.308  1.00  0.00    -0.206 F 
ATOM     71  C   UNL A   1      34.766  32.516  27.772  1.00  0.00     0.006 A 
ENDBRANCH  43  64
BRANCH  55  72
ATOM     72  C   UNL A   1      39.420  32.129  35.567  1.00  0.00     0.057 A 
ATOM     73  C   UNL A   1      39.880  33.441  35.730  1.00  0.00     0.134 A 
ATOM     74  C   UNL A   1      38.492  31.647  36.500  1.00  0.00     0.134 A 
ATOM     75  F   UNL A   1      40.778  33.957  34.878  1.00  0.00    -0.206 F 
ATOM     76  C   UNL A   1      39.447  34.238  36.791  1.00  0.00     0.040 A 
ATOM     77  C   UNL A   1      38.035  32.442  37.551  1.00  0.00     0.040 A 
ATOM     78  F   UNL A   1      38.006  30.402  36.395  1.00  0.00    -0.206 F 
ATOM     79  C   UNL A   1      38.517  33.741  37.701  1.00  0.00     0.006 A 
ENDBRANCH  55  72
ENDBRANCH  29  30
ENDBRANCH  22  24
ENDBRANCH  21  22
ENDBRANCH  20  21
ENDBRANCH   1  20
TORSDOF 15
ENDMDL
MODEL 2
REMARK VINA RESULT:     -10.6      2.278      3.432
REMARK SMILES COc1cc2c[nH]nc2cc1C(=O)OCCOCCOC(=O)c1ccc(-c2c3nc(c(-c4c(F)cccc4F)c4ccc([nH]4)c(-c4c(F)cccc4F)c4nc(c(-c5c(F)cccc5F)c5ccc2[nH]5)C=C4)C=C3)cc1
REMARK SMILES IDX 18 1 17 2 16 3 15 4 14 5 12 6 13 7 11 8 3 9 4 10 5 11 10 12
REMARK SMILES IDX 6 13 9 14 7 15 8 16 2 18 1 19 19 20 20 21 21 22 22 23 23 24
REMARK SMILES IDX 24 25 76 26 25 27 75 28 26 29 27 30 28 31 69 32 29 33 74 34
REMARK SMILES IDX 68 35 70 36 30 37 73 38 67 39 66 40 31 42 57 43 40 44 56 45
REMARK SMILES IDX 41 46 44 47 55 48 71 49 42 50 43 51 54 53 72 54 45 55 32 56
REMARK SMILES IDX 33 57 38 58 34 59 35 60 37 61 39 62 36 63 58 64 59 65 64 66
REMARK SMILES IDX 60 67 61 68 63 69 65 70 62 71 46 72 47 73 52 74 48 75 49 76
REMARK SMILES IDX 51 77 53 78 50 79
REMARK H PARENT 7 17 70 41 44 52
REMARK Flexibility Score: inf
ROOT
ATOM      1  C   UNL A   1      46.300  21.895  24.610  1.00  0.00     0.202 C 
ENDROOT
BRANCH   1   2
ATOM      2  O   UNL A   1      46.219  20.478  24.468  1.00  0.00    -0.374 OA
BRANCH   2   3
ATOM      3  C   UNL A   1      44.925  19.893  24.345  1.00  0.00     0.202 C 
BRANCH   3   4
ATOM      4  C   UNL A   1      44.604  18.726  25.283  1.00  0.00     0.261 C 
BRANCH   4   5
ATOM      5  O   UNL A   1      43.206  18.402  25.269  1.00  0.00    -0.460 OA
BRANCH   5   6
ATOM      6  C   UNL A   1      42.575  18.532  26.459  1.00  0.00     0.342 C 
ATOM      7  O   UNL A   1      42.882  17.989  27.511  1.00  0.00    -0.246 OA
BRANCH   6   8
ATOM      8  C   UNL A   1      41.497  19.541  26.390  1.00  0.00     0.104 A 
ATOM      9  C   UNL A   1      41.637  20.866  26.928  1.00  0.00     0.134 A 
ATOM     10  C   UNL A   1      40.630  21.858  26.839  1.00  0.00     0.059 A 
ATOM     11  C   UNL A   1      39.516  21.384  26.158  1.00  0.00     0.023 A 
ATOM     12  C   UNL A   1      40.329  19.095  25.714  1.00  0.00     0.050 A 
ATOM     13  C   UNL A   1      38.387  22.100  25.873  1.00  0.00     0.114 A 
ATOM     14  C   UNL A   1      39.326  20.067  25.610  1.00  0.00     0.093 A 
ATOM     15  N   UNL A   1      37.579  21.221  25.207  1.00  0.00    -0.285 N 
ATOM     16  N   UNL A   1      38.112  19.995  25.043  1.00  0.00    -0.176 NA
ATOM     17  H   UNL A   1      36.685  21.464  24.875  1.00  0.00     0.189 HD
BRANCH   9  18
ATOM     18  O   UNL A   1      42.752  21.247  27.643  1.00  0.00    -0.496 OA
ATOM     19  C   UNL A   1      42.458  22.295  28.566  1.00  0.00     0.278 C 
ENDBRANCH   9  18
ENDBRANCH   6   8
ENDBRANCH   5   6
ENDBRANCH   4   5
ENDBRANCH   3   4
ENDBRANCH   2   3
ENDBRANCH   1   2
BRANCH   1  20
ATOM     20  C   UNL A   1      45.439  22.541  25.704  1.00  0.00     0.261 C 
BRANCH  20  21
ATOM     21  O   UNL A   1      44.985  23.866  25.368  1.00  0.00    -0.460 OA
BRANCH  21  22
ATOM     22  C   UNL A   1      43.665  23.962  25.087  1.00  0.00     0.338 C 
ATOM     23  O   UNL A   1      43.010  23.254  24.331  1.00  0.00    -0.246 OA
BRANCH  22  24
ATOM     24  C   UNL A   1      43.028  24.983  25.934  1.00  0.00     0.060 A 
ATOM     25  C   UNL A   1      43.765  26.134  26.244  1.00  0.00     0.016 A 
ATOM     26  C   UNL A   1      41.783  24.758  26.522  1.00  0.00     0.016 A 
ATOM     27  C   UNL A   1      43.277  27.047  27.178  1.00  0.00     0.010 A 
ATOM     28  C   UNL A   1      41.299  25.670  27.468  1.00  0.00     0.010 A 
ATOM     29  C   UNL A   1      42.058  26.800  27.824  1.00  0.00    -0.014 A 
BRANCH  29  30
ATOM     30  C   UNL A   1      41.637  27.657  28.959  1.00  0.00     0.031 A 
ATOM     31  C   UNL A   1      42.364  27.549  30.271  1.00  0.00     0.074 A 
ATOM     32  C   UNL A   1      40.618  28.524  28.823  1.00  0.00     0.049 A 
ATOM     33  N   UNL A   1      42.126  28.160  31.404  1.00  0.00    -0.248 NA
ATOM     34  C   UNL A   1      43.512  26.628  30.313  1.00  0.00     0.031 C 
ATOM     35  C   UNL A   1      39.852  28.739  27.596  1.00  0.00     0.029 A 
ATOM     36  N   UNL A   1      40.045  29.375  29.734  1.00  0.00    -0.354 N 
ATOM     37  C   UNL A   1      43.081  27.687  32.297  1.00  0.00     0.074 A 
ATOM     38  C   UNL A   1      43.893  26.727  31.579  1.00  0.00     0.031 C 
ATOM     39  C   UNL A   1      38.892  29.648  27.838  1.00  0.00     0.029 A 
ATOM     40  C   UNL A   1      38.960  30.056  29.240  1.00  0.00     0.049 A 
ATOM     41  H   UNL A   1      40.380  29.487  30.653  1.00  0.00     0.167 HD
ATOM     42  C   UNL A   1      43.266  28.027  33.594  1.00  0.00     0.037 A 
ATOM     43  C   UNL A   1      38.102  30.891  29.859  1.00  0.00     0.037 A 
ATOM     44  C   UNL A   1      42.469  28.993  34.303  1.00  0.00     0.049 A 
ATOM     45  C   UNL A   1      38.303  31.218  31.314  1.00  0.00     0.074 A 
ATOM     46  C   UNL A   1      42.614  29.439  35.606  1.00  0.00     0.029 A 
ATOM     47  N   UNL A   1      41.374  29.655  33.772  1.00  0.00    -0.354 N 
ATOM     48  N   UNL A   1      39.236  30.800  32.134  1.00  0.00    -0.248 NA
ATOM     49  C   UNL A   1      37.331  32.133  31.931  1.00  0.00     0.031 C 
ATOM     50  C   UNL A   1      41.576  30.338  35.877  1.00  0.00     0.029 A 
ATOM     51  C   UNL A   1      40.814  30.484  34.729  1.00  0.00     0.049 A 
ATOM     52  H   UNL A   1      41.043  29.552  32.850  1.00  0.00     0.167 HD
ATOM     53  C   UNL A   1      38.980  31.420  33.352  1.00  0.00     0.074 A 
ATOM     54  C   UNL A   1      37.811  32.251  33.161  1.00  0.00     0.031 C 
ATOM     55  C   UNL A   1      39.655  31.312  34.523  1.00  0.00     0.037 A 
BRANCH  42  56
ATOM     56  C   UNL A   1      44.362  27.332  34.345  1.00  0.00     0.057 A 
ATOM     57  C   UNL A   1      44.156  26.106  34.990  1.00  0.00     0.134 A 
ATOM     58  C   UNL A   1      45.654  27.871  34.376  1.00  0.00     0.134 A 
ATOM     59  F   UNL A   1      42.939  25.542  35.005  1.00  0.00    -0.206 F 
ATOM     60  C   UNL A   1      45.195  25.448  35.652  1.00  0.00     0.040 A 
ATOM     61  C   UNL A   1      46.705  27.213  35.016  1.00  0.00     0.040 A 
ATOM     62  F   UNL A   1      45.919  29.041  33.773  1.00  0.00    -0.206 F 
ATOM     63  C   UNL A   1      46.475  25.998  35.660  1.00  0.00     0.006 A 
ENDBRANCH  42  56
BRANCH  43  64
ATOM     64  C   UNL A   1      36.955  31.463  29.112  1.00  0.00     0.057 A 
ATOM     65  C   UNL A   1      36.973  32.782  28.645  1.00  0.00     0.134 A 
ATOM     66  C   UNL A   1      35.797  30.710  28.875  1.00  0.00     0.134 A 
ATOM     67  F   UNL A   1      38.043  33.559  28.864  1.00  0.00    -0.206 F 
ATOM     68  C   UNL A   1      35.876  33.339  27.987  1.00  0.00     0.040 A 
ATOM     69  C   UNL A   1      34.703  31.246  28.196  1.00  0.00     0.040 A 
ATOM     70  F   UNL A   1      35.717  29.440  29.297  1.00  0.00    -0.206 F 
ATOM     71  C   UNL A   1      34.737  32.568  27.757  1.00  0.00     0.006 A 
ENDBRANCH  43  64
BRANCH  55  72
ATOM     72  C   UNL A   1      39.167  32.135  35.678  1.00  0.00     0.057 A 
ATOM     73  C   UNL A   1      39.537  33.475  35.838  1.00  0.00     0.134 A 
ATOM     74  C   UNL A   1      38.280  31.591  36.617  1.00  0.00     0.134 A 
ATOM     75  F   UNL A   1      40.392  34.051  34.979  1.00  0.00    -0.206 F 
ATOM     76  C   UNL A   1      39.055  34.242  36.900  1.00  0.00     0.040 A 
ATOM     77  C   UNL A   1      37.774  32.355  37.669  1.00  0.00     0.040 A 
ATOM     78  F   UNL A   1      37.881  30.315  36.516  1.00  0.00    -0.206 F 
ATOM     79  C   UNL A   1      38.166  33.684  37.816  1.00  0.00     0.006 A 
ENDBRANCH  55  72
ENDBRANCH  29  30
ENDBRANCH  22  24
ENDBRANCH  21  22
ENDBRANCH  20  21
ENDBRANCH   1  20
TORSDOF 15
ENDMDL
MODEL 3
REMARK VINA RESULT:     -10.4      3.619      8.365
REMARK SMILES COc1cc2c[nH]nc2cc1C(=O)OCCOCCOC(=O)c1ccc(-c2c3nc(c(-c4c(F)cccc4F)c4ccc([nH]4)c(-c4c(F)cccc4F)c4nc(c(-c5c(F)cccc5F)c5ccc2[nH]5)C=C4)C=C3)cc1
REMARK SMILES IDX 18 1 17 2 16 3 15 4 14 5 12 6 13 7 11 8 3 9 4 10 5 11 10 12
REMARK SMILES IDX 6 13 9 14 7 15 8 16 2 18 1 19 19 20 20 21 21 22 22 23 23 24
REMARK SMILES IDX 24 25 76 26 25 27 75 28 26 29 27 30 28 31 69 32 29 33 74 34
REMARK SMILES IDX 68 35 70 36 30 37 73 38 67 39 66 40 31 42 57 43 40 44 56 45
REMARK SMILES IDX 41 46 44 47 55 48 71 49 42 50 43 51 54 53 72 54 45 55 32 56
REMARK SMILES IDX 33 57 38 58 34 59 35 60 37 61 39 62 36 63 58 64 59 65 64 66
REMARK SMILES IDX 60 67 61 68 63 69 65 70 62 71 46 72 47 73 52 74 48 75 49 76
REMARK SMILES IDX 51 77 53 78 50 79
REMARK H PARENT 7 17 70 41 44 52
REMARK Flexibility Score: inf
ROOT
ATOM      1  C   UNL A   1      31.496  31.915  26.798  1.00  0.00     0.202 C 
ENDROOT
BRANCH   1   2
ATOM      2  O   UNL A   1      32.409  30.822  26.891  1.00  0.00    -0.374 OA
BRANCH   2   3
ATOM      3  C   UNL A   1      32.044  29.594  26.268  1.00  0.00     0.202 C 
BRANCH   3   4
ATOM      4  C   UNL A   1      32.377  29.450  24.780  1.00  0.00     0.261 C 
BRANCH   4   5
ATOM      5  O   UNL A   1      32.284  28.086  24.344  1.00  0.00    -0.460 OA
BRANCH   5   6
ATOM      6  C   UNL A   1      31.024  27.611  24.209  1.00  0.00     0.342 C 
ATOM      7  O   UNL A   1      30.045  28.238  23.829  1.00  0.00    -0.246 OA
BRANCH   6   8
ATOM      8  C   UNL A   1      30.966  26.156  24.462  1.00  0.00     0.104 A 
ATOM      9  C   UNL A   1      31.255  25.179  23.448  1.00  0.00     0.134 A 
ATOM     10  C   UNL A   1      31.241  23.782  23.680  1.00  0.00     0.059 A 
ATOM     11  C   UNL A   1      30.931  23.495  25.004  1.00  0.00     0.023 A 
ATOM     12  C   UNL A   1      30.636  25.813  25.801  1.00  0.00     0.050 A 
ATOM     13  C   UNL A   1      30.869  22.247  25.559  1.00  0.00     0.114 A 
ATOM     14  C   UNL A   1      30.626  24.436  26.050  1.00  0.00     0.093 A 
ATOM     15  N   UNL A   1      30.524  22.467  26.863  1.00  0.00    -0.285 N 
ATOM     16  N   UNL A   1      30.364  23.765  27.183  1.00  0.00    -0.176 NA
ATOM     17  H   UNL A   1      30.404  21.739  27.514  1.00  0.00     0.189 HD
BRANCH   9  18
ATOM     18  O   UNL A   1      31.500  25.538  22.140  1.00  0.00    -0.496 OA
ATOM     19  C   UNL A   1      32.891  25.490  21.828  1.00  0.00     0.278 C 
ENDBRANCH   9  18
ENDBRANCH   6   8
ENDBRANCH   5   6
ENDBRANCH   4   5
ENDBRANCH   3   4
ENDBRANCH   2   3
ENDBRANCH   1   2
BRANCH   1  20
ATOM     20  C   UNL A   1      32.087  33.330  26.864  1.00  0.00     0.261 C 
BRANCH  20  21
ATOM     21  O   UNL A   1      32.281  33.808  28.209  1.00  0.00    -0.460 OA
BRANCH  21  22
ATOM     22  C   UNL A   1      33.408  34.533  28.400  1.00  0.00     0.338 C 
ATOM     23  O   UNL A   1      33.506  35.753  28.462  1.00  0.00    -0.246 OA
BRANCH  22  24
ATOM     24  C   UNL A   1      34.552  33.650  28.675  1.00  0.00     0.060 A 
ATOM     25  C   UNL A   1      34.292  32.392  29.236  1.00  0.00     0.016 A 
ATOM     26  C   UNL A   1      35.864  34.096  28.509  1.00  0.00     0.016 A 
ATOM     27  C   UNL A   1      35.346  31.591  29.673  1.00  0.00     0.010 A 
ATOM     28  C   UNL A   1      36.920  33.295  28.958  1.00  0.00     0.010 A 
ATOM     29  C   UNL A   1      36.665  32.054  29.571  1.00  0.00    -0.014 A 
BRANCH  29  30
ATOM     30  C   UNL A   1      37.765  31.299  30.218  1.00  0.00     0.031 A 
ATOM     31  C   UNL A   1      38.084  31.557  31.665  1.00  0.00     0.074 A 
ATOM     32  C   UNL A   1      38.473  30.391  29.524  1.00  0.00     0.049 A 
ATOM     33  N   UNL A   1      39.036  31.052  32.407  1.00  0.00    -0.248 NA
ATOM     34  C   UNL A   1      37.215  32.515  32.369  1.00  0.00     0.031 C 
ATOM     35  C   UNL A   1      38.245  30.032  28.125  1.00  0.00     0.029 A 
ATOM     36  N   UNL A   1      39.540  29.614  29.902  1.00  0.00    -0.354 N 
ATOM     37  C   UNL A   1      38.892  31.639  33.659  1.00  0.00     0.074 A 
ATOM     38  C   UNL A   1      37.771  32.551  33.572  1.00  0.00     0.031 C 
ATOM     39  C   UNL A   1      39.161  29.120  27.756  1.00  0.00     0.029 A 
ATOM     40  C   UNL A   1      40.053  28.854  28.881  1.00  0.00     0.049 A 
ATOM     41  H   UNL A   1      39.901  29.603  30.818  1.00  0.00     0.167 HD
ATOM     42  C   UNL A   1      39.625  31.433  34.778  1.00  0.00     0.037 A 
ATOM     43  C   UNL A   1      41.138  28.055  28.853  1.00  0.00     0.037 A 
ATOM     44  C   UNL A   1      40.730  30.516  34.870  1.00  0.00     0.049 A 
ATOM     45  C   UNL A   1      41.963  27.878  30.099  1.00  0.00     0.074 A 
ATOM     46  C   UNL A   1      41.501  30.204  35.976  1.00  0.00     0.029 A 
ATOM     47  N   UNL A   1      41.225  29.770  33.812  1.00  0.00    -0.354 N 
ATOM     48  N   UNL A   1      41.790  28.403  31.287  1.00  0.00    -0.248 NA
ATOM     49  C   UNL A   1      43.137  26.996  30.001  1.00  0.00     0.031 C 
ATOM     50  C   UNL A   1      42.494  29.302  35.576  1.00  0.00     0.029 A 
ATOM     51  C   UNL A   1      42.311  29.020  34.232  1.00  0.00     0.049 A 
ATOM     52  H   UNL A   1      40.860  29.773  32.898  1.00  0.00     0.167 HD
ATOM     53  C   UNL A   1      42.812  27.896  32.082  1.00  0.00     0.074 A 
ATOM     54  C   UNL A   1      43.595  27.013  31.244  1.00  0.00     0.031 C 
ATOM     55  C   UNL A   1      43.076  28.139  33.389  1.00  0.00     0.037 A 
BRANCH  42  56
ATOM     56  C   UNL A   1      39.273  32.233  35.997  1.00  0.00     0.057 A 
ATOM     57  C   UNL A   1      39.827  33.495  36.240  1.00  0.00     0.134 A 
ATOM     58  C   UNL A   1      38.324  31.756  36.910  1.00  0.00     0.134 A 
ATOM     59  F   UNL A   1      40.749  34.005  35.409  1.00  0.00    -0.206 F 
ATOM     60  C   UNL A   1      39.461  34.249  37.357  1.00  0.00     0.040 A 
ATOM     61  C   UNL A   1      37.934  32.508  38.018  1.00  0.00     0.040 A 
ATOM     62  F   UNL A   1      37.751  30.555  36.731  1.00  0.00    -0.206 F 
ATOM     63  C   UNL A   1      38.506  33.758  38.246  1.00  0.00     0.006 A 
ENDBRANCH  42  56
BRANCH  43  64
ATOM     64  C   UNL A   1      41.527  27.376  27.591  1.00  0.00     0.057 A 
ATOM     65  C   UNL A   1      41.158  26.052  27.333  1.00  0.00     0.134 A 
ATOM     66  C   UNL A   1      42.306  28.030  26.628  1.00  0.00     0.134 A 
ATOM     67  F   UNL A   1      40.434  25.367  28.229  1.00  0.00    -0.206 F 
ATOM     68  C   UNL A   1      41.564  25.394  26.171  1.00  0.00     0.040 A 
ATOM     69  C   UNL A   1      42.699  27.393  25.451  1.00  0.00     0.040 A 
ATOM     70  F   UNL A   1      42.692  29.300  26.817  1.00  0.00    -0.206 F 
ATOM     71  C   UNL A   1      42.335  26.067  25.223  1.00  0.00     0.006 A 
ENDBRANCH  43  64
BRANCH  55  72
ATOM     72  C   UNL A   1      44.239  27.417  34.003  1.00  0.00     0.057 A 
ATOM     73  C   UNL A   1      45.517  27.985  34.053  1.00  0.00     0.134 A 
ATOM     74  C   UNL A   1      44.065  26.158  34.593  1.00  0.00     0.134 A 
ATOM     75  F   UNL A   1      45.751  29.183  33.496  1.00  0.00    -0.206 F 
ATOM     76  C   UNL A   1      46.588  27.319  34.652  1.00  0.00     0.040 A 
ATOM     77  C   UNL A   1      45.122  25.493  35.214  1.00  0.00     0.040 A 
ATOM     78  F   UNL A   1      42.864  25.563  34.585  1.00  0.00    -0.206 F 
ATOM     79  C   UNL A   1      46.389  26.071  35.241  1.00  0.00     0.006 A 
ENDBRANCH  55  72
ENDBRANCH  29  30
ENDBRANCH  22  24
ENDBRANCH  21  22
ENDBRANCH  20  21
ENDBRANCH   1  20
TORSDOF 15
ENDMDL
