MODEL 1
REMARK VINA RESULT:     -11.7      0.000      0.000
REMARK SMILES C/C(=N\Nc1ccccc1C(=O)OCCOCCOC(=O)c1ccc(-c2c3nc(c(-c4c(F)cccc4F)c4ccc([nH]4)c(-c4c(F)cccc4F)c4nc(c(-c5c(F)cccc5F)c5ccc2[nH]5)C=C4)C=C3)cc1)c1ccc(S(C)(=O)=O)cc1
REMARK SMILES IDX 15 1 14 2 13 3 11 4 12 5 10 6 5 7 6 8 7 9 9 10 8 11 4 12
REMARK SMILES IDX 3 14 1 15 2 16 76 17 77 18 85 19 78 20 84 21 79 22 80 23
REMARK SMILES IDX 81 24 82 25 83 26 16 27 17 28 18 29 19 30 20 31 21 32 22 33
REMARK SMILES IDX 23 34 75 35 24 36 74 37 25 38 26 39 27 40 68 41 28 42 73 43
REMARK SMILES IDX 67 44 69 45 29 46 72 47 66 48 65 49 30 51 56 52 39 53 55 54
REMARK SMILES IDX 40 55 43 56 54 57 70 58 41 59 42 60 53 62 71 63 44 64 31 65
REMARK SMILES IDX 32 66 37 67 33 68 34 69 36 70 38 71 35 72 57 73 58 74 63 75
REMARK SMILES IDX 59 76 60 77 62 78 64 79 61 80 45 81 46 82 51 83 47 84 48 85
REMARK SMILES IDX 50 86 52 87 49 88
REMARK H PARENT 4 13 69 50 43 61
REMARK Flexibility Score: inf
ROOT
ATOM      1  C   UNL A   1      31.860  29.411  27.264  1.00  0.00     0.202 C 
ENDROOT
BRANCH   1   2
ATOM      2  C   UNL A   1      32.096  27.913  27.051  1.00  0.00     0.261 C 
BRANCH   2   3
ATOM      3  O   UNL A   1      30.892  27.145  26.915  1.00  0.00    -0.460 OA
BRANCH   3   4
ATOM      4  C   UNL A   1      31.035  25.960  26.272  1.00  0.00     0.340 C 
ATOM      5  O   UNL A   1      30.824  24.847  26.733  1.00  0.00    -0.246 OA
BRANCH   4   6
ATOM      6  C   UNL A   1      31.341  26.151  24.840  1.00  0.00     0.085 A 
ATOM      7  C   UNL A   1      32.439  25.582  24.172  1.00  0.00     0.071 A 
ATOM      8  C   UNL A   1      32.537  25.813  22.780  1.00  0.00     0.028 A 
ATOM      9  C   UNL A   1      31.586  26.560  22.079  1.00  0.00     0.002 A 
ATOM     10  C   UNL A   1      30.382  26.903  24.128  1.00  0.00     0.018 A 
ATOM     11  C   UNL A   1      30.503  27.104  22.755  1.00  0.00     0.001 A 
BRANCH   7  12
ATOM     12  N   UNL A   1      33.370  24.653  24.697  1.00  0.00    -0.277 N 
ATOM     13  H   UNL A   1      34.118  25.008  25.228  1.00  0.00     0.190 HD
BRANCH  12  14
ATOM     14  N   UNL A   1      33.304  23.321  24.521  1.00  0.00    -0.180 NA
ATOM     15  C   UNL A   1      35.625  23.114  25.429  1.00  0.00     0.069 C 
ATOM     16  C   UNL A   1      34.323  22.579  24.860  1.00  0.00     0.065 C 
BRANCH  16  17
ATOM     17  C   UNL A   1      34.212  21.098  24.631  1.00  0.00    -0.002 A 
ATOM     18  C   UNL A   1      35.327  20.281  24.893  1.00  0.00     0.011 A 
ATOM     19  C   UNL A   1      33.013  20.502  24.222  1.00  0.00     0.011 A 
ATOM     20  C   UNL A   1      35.236  18.891  24.788  1.00  0.00     0.021 A 
ATOM     21  C   UNL A   1      32.922  19.113  24.095  1.00  0.00     0.021 A 
ATOM     22  C   UNL A   1      34.028  18.314  24.390  1.00  0.00     0.067 A 
BRANCH  22  23
ATOM     23  S   UNL A   1      33.876  16.545  24.324  1.00  0.00     0.175 S 
ATOM     24  C   UNL A   1      35.230  15.931  25.287  1.00  0.00     0.163 C 
ATOM     25  O   UNL A   1      32.640  16.214  25.004  1.00  0.00    -0.224 OA
ATOM     26  O   UNL A   1      34.110  16.141  22.950  1.00  0.00    -0.224 OA
ENDBRANCH  22  23
ENDBRANCH  16  17
ENDBRANCH  12  14
ENDBRANCH   7  12
ENDBRANCH   4   6
ENDBRANCH   3   4
ENDBRANCH   2   3
ENDBRANCH   1   2
BRANCH   1  27
ATOM     27  O   UNL A   1      32.081  30.286  26.167  1.00  0.00    -0.374 OA
BRANCH  27  28
ATOM     28  C   UNL A   1      31.297  31.474  26.088  1.00  0.00     0.202 C 
BRANCH  28  29
ATOM     29  C   UNL A   1      31.471  32.540  27.180  1.00  0.00     0.261 C 
BRANCH  29  30
ATOM     30  O   UNL A   1      32.538  33.481  26.948  1.00  0.00    -0.460 OA
BRANCH  30  31
ATOM     31  C   UNL A   1      33.208  33.864  28.062  1.00  0.00     0.338 C 
ATOM     32  O   UNL A   1      32.853  34.681  28.896  1.00  0.00    -0.246 OA
BRANCH  31  33
ATOM     33  C   UNL A   1      34.454  33.096  28.233  1.00  0.00     0.060 A 
ATOM     34  C   UNL A   1      34.359  31.727  28.510  1.00  0.00     0.016 A 
ATOM     35  C   UNL A   1      35.677  33.761  28.344  1.00  0.00     0.016 A 
ATOM     36  C   UNL A   1      35.482  31.027  28.959  1.00  0.00     0.010 A 
ATOM     37  C   UNL A   1      36.800  33.057  28.796  1.00  0.00     0.010 A 
ATOM     38  C   UNL A   1      36.699  31.699  29.147  1.00  0.00    -0.014 A 
BRANCH  38  39
ATOM     39  C   UNL A   1      37.820  31.022  29.848  1.00  0.00     0.031 A 
ATOM     40  C   UNL A   1      38.086  31.336  31.296  1.00  0.00     0.074 A 
ATOM     41  C   UNL A   1      38.591  30.126  29.205  1.00  0.00     0.049 A 
ATOM     42  N   UNL A   1      39.041  30.900  32.079  1.00  0.00    -0.248 NA
ATOM     43  C   UNL A   1      37.152  32.267  31.949  1.00  0.00     0.031 C 
ATOM     44  C   UNL A   1      38.425  29.713  27.813  1.00  0.00     0.029 A 
ATOM     45  N   UNL A   1      39.679  29.413  29.643  1.00  0.00    -0.354 N 
ATOM     46  C   UNL A   1      38.828  31.507  33.311  1.00  0.00     0.074 A 
ATOM     47  C   UNL A   1      37.669  32.362  33.166  1.00  0.00     0.031 C 
ATOM     48  C   UNL A   1      39.387  28.826  27.507  1.00  0.00     0.029 A 
ATOM     49  C   UNL A   1      40.253  28.634  28.670  1.00  0.00     0.049 A 
ATOM     50  H   UNL A   1      40.015  29.457  30.567  1.00  0.00     0.167 HD
ATOM     51  C   UNL A   1      39.528  31.361  34.462  1.00  0.00     0.037 A 
ATOM     52  C   UNL A   1      41.364  27.874  28.706  1.00  0.00     0.037 A 
ATOM     53  C   UNL A   1      40.678  30.510  34.615  1.00  0.00     0.049 A 
ATOM     54  C   UNL A   1      42.164  27.779  29.977  1.00  0.00     0.074 A 
ATOM     55  C   UNL A   1      41.435  30.276  35.751  1.00  0.00     0.029 A 
ATOM     56  N   UNL A   1      41.243  29.756  33.598  1.00  0.00    -0.354 N 
ATOM     57  N   UNL A   1      41.937  28.336  31.142  1.00  0.00    -0.248 NA
ATOM     58  C   UNL A   1      43.378  26.949  29.938  1.00  0.00     0.031 C 
ATOM     59  C   UNL A   1      42.484  29.415  35.410  1.00  0.00     0.029 A 
ATOM     60  C   UNL A   1      42.354  29.078  34.072  1.00  0.00     0.049 A 
ATOM     61  H   UNL A   1      40.905  29.710  32.674  1.00  0.00     0.167 HD
ATOM     62  C   UNL A   1      42.962  27.905  31.977  1.00  0.00     0.074 A 
ATOM     63  C   UNL A   1      43.805  27.032  31.189  1.00  0.00     0.031 C 
ATOM     64  C   UNL A   1      43.183  28.206  33.280  1.00  0.00     0.037 A 
BRANCH  51  65
ATOM     65  C   UNL A   1      39.077  32.158  35.651  1.00  0.00     0.057 A 
ATOM     66  C   UNL A   1      39.454  33.494  35.832  1.00  0.00     0.134 A 
ATOM     67  C   UNL A   1      38.222  31.593  36.606  1.00  0.00     0.134 A 
ATOM     68  F   UNL A   1      40.280  34.091  34.958  1.00  0.00    -0.206 F 
ATOM     69  C   UNL A   1      39.014  34.235  36.930  1.00  0.00     0.040 A 
ATOM     70  C   UNL A   1      37.756  32.330  37.696  1.00  0.00     0.040 A 
ATOM     71  F   UNL A   1      37.816  30.319  36.489  1.00  0.00    -0.206 F 
ATOM     72  C   UNL A   1      38.156  33.654  37.863  1.00  0.00     0.006 A 
ENDBRANCH  51  65
BRANCH  52  73
ATOM     73  C   UNL A   1      41.803  27.148  27.489  1.00  0.00     0.057 A 
ATOM     74  C   UNL A   1      41.475  25.801  27.291  1.00  0.00     0.134 A 
ATOM     75  C   UNL A   1      42.579  27.775  26.507  1.00  0.00     0.134 A 
ATOM     76  F   UNL A   1      40.752  25.142  28.209  1.00  0.00    -0.206 F 
ATOM     77  C   UNL A   1      41.916  25.100  26.168  1.00  0.00     0.040 A 
ATOM     78  C   UNL A   1      43.007  27.093  25.368  1.00  0.00     0.040 A 
ATOM     79  F   UNL A   1      42.925  29.064  26.639  1.00  0.00    -0.206 F 
ATOM     80  C   UNL A   1      42.680  25.748  25.200  1.00  0.00     0.006 A 
ENDBRANCH  52  73
BRANCH  64  81
ATOM     81  C   UNL A   1      44.365  27.564  33.946  1.00  0.00     0.057 A 
ATOM     82  C   UNL A   1      44.280  26.302  34.546  1.00  0.00     0.134 A 
ATOM     83  C   UNL A   1      45.614  28.200  33.951  1.00  0.00     0.134 A 
ATOM     84  F   UNL A   1      43.110  25.646  34.586  1.00  0.00    -0.206 F 
ATOM     85  C   UNL A   1      45.389  25.703  35.145  1.00  0.00     0.040 A 
ATOM     86  C   UNL A   1      46.736  27.601  34.527  1.00  0.00     0.040 A 
ATOM     87  F   UNL A   1      45.766  29.407  33.387  1.00  0.00    -0.206 F 
ATOM     88  C   UNL A   1      46.623  26.350  35.131  1.00  0.00     0.006 A 
ENDBRANCH  64  81
ENDBRANCH  38  39
ENDBRANCH  31  33
ENDBRANCH  30  31
ENDBRANCH  29  30
ENDBRANCH  28  29
ENDBRANCH  27  28
ENDBRANCH   1  27
TORSDOF 18
ENDMDL
MODEL 2
REMARK VINA RESULT:     -11.6      4.105      7.757
REMARK SMILES C/C(=N\Nc1ccccc1C(=O)OCCOCCOC(=O)c1ccc(-c2c3nc(c(-c4c(F)cccc4F)c4ccc([nH]4)c(-c4c(F)cccc4F)c4nc(c(-c5c(F)cccc5F)c5ccc2[nH]5)C=C4)C=C3)cc1)c1ccc(S(C)(=O)=O)cc1
REMARK SMILES IDX 15 1 14 2 13 3 11 4 12 5 10 6 5 7 6 8 7 9 9 10 8 11 4 12
REMARK SMILES IDX 3 14 1 15 2 16 76 17 77 18 85 19 78 20 84 21 79 22 80 23
REMARK SMILES IDX 81 24 82 25 83 26 16 27 17 28 18 29 19 30 20 31 21 32 22 33
REMARK SMILES IDX 23 34 75 35 24 36 74 37 25 38 26 39 27 40 68 41 28 42 73 43
REMARK SMILES IDX 67 44 69 45 29 46 72 47 66 48 65 49 30 51 56 52 39 53 55 54
REMARK SMILES IDX 40 55 43 56 54 57 70 58 41 59 42 60 53 62 71 63 44 64 31 65
REMARK SMILES IDX 32 66 37 67 33 68 34 69 36 70 38 71 35 72 57 73 58 74 63 75
REMARK SMILES IDX 59 76 60 77 62 78 64 79 61 80 45 81 46 82 51 83 47 84 48 85
REMARK SMILES IDX 50 86 52 87 49 88
REMARK H PARENT 4 13 69 50 43 61
REMARK Flexibility Score: inf
ROOT
ATOM      1  C   UNL A   1      36.889  23.454  25.007  1.00  0.00     0.202 C 
ENDROOT
BRANCH   1   2
ATOM      2  C   UNL A   1      35.423  23.791  24.724  1.00  0.00     0.261 C 
BRANCH   2   3
ATOM      3  O   UNL A   1      34.938  24.938  25.437  1.00  0.00    -0.460 OA
BRANCH   3   4
ATOM      4  C   UNL A   1      34.068  25.718  24.748  1.00  0.00     0.340 C 
ATOM      5  O   UNL A   1      33.855  25.689  23.544  1.00  0.00    -0.246 OA
BRANCH   4   6
ATOM      6  C   UNL A   1      33.248  26.549  25.651  1.00  0.00     0.085 A 
ATOM      7  C   UNL A   1      31.909  26.284  25.989  1.00  0.00     0.071 A 
ATOM      8  C   UNL A   1      31.299  27.147  26.929  1.00  0.00     0.028 A 
ATOM      9  C   UNL A   1      31.984  28.214  27.516  1.00  0.00     0.002 A 
ATOM     10  C   UNL A   1      33.936  27.626  26.249  1.00  0.00     0.018 A 
ATOM     11  C   UNL A   1      33.309  28.452  27.178  1.00  0.00     0.001 A 
BRANCH   7  12
ATOM     12  N   UNL A   1      31.148  25.145  25.632  1.00  0.00    -0.277 N 
ATOM     13  H   UNL A   1      30.197  25.280  25.416  1.00  0.00     0.190 HD
BRANCH  12  14
ATOM     14  N   UNL A   1      31.631  23.891  25.568  1.00  0.00    -0.180 NA
ATOM     15  C   UNL A   1      30.870  23.748  23.190  1.00  0.00     0.069 C 
ATOM     16  C   UNL A   1      31.531  23.222  24.452  1.00  0.00     0.065 C 
BRANCH  16  17
ATOM     17  C   UNL A   1      32.069  21.819  24.430  1.00  0.00    -0.002 A 
ATOM     18  C   UNL A   1      31.915  21.046  23.264  1.00  0.00     0.011 A 
ATOM     19  C   UNL A   1      32.771  21.282  25.515  1.00  0.00     0.011 A 
ATOM     20  C   UNL A   1      32.486  19.775  23.169  1.00  0.00     0.021 A 
ATOM     21  C   UNL A   1      33.327  20.001  25.432  1.00  0.00     0.021 A 
ATOM     22  C   UNL A   1      33.193  19.260  24.257  1.00  0.00     0.067 A 
BRANCH  22  23
ATOM     23  S   UNL A   1      33.989  17.677  24.122  1.00  0.00     0.175 S 
ATOM     24  C   UNL A   1      33.224  16.671  25.363  1.00  0.00     0.163 C 
ATOM     25  O   UNL A   1      33.636  17.149  22.819  1.00  0.00    -0.224 OA
ATOM     26  O   UNL A   1      35.376  17.856  24.510  1.00  0.00    -0.224 OA
ENDBRANCH  22  23
ENDBRANCH  16  17
ENDBRANCH  12  14
ENDBRANCH   7  12
ENDBRANCH   4   6
ENDBRANCH   3   4
ENDBRANCH   2   3
ENDBRANCH   1   2
BRANCH   1  27
ATOM     27  O   UNL A   1      37.188  22.179  25.560  1.00  0.00    -0.374 OA
BRANCH  27  28
ATOM     28  C   UNL A   1      37.406  21.094  24.661  1.00  0.00     0.202 C 
BRANCH  28  29
ATOM     29  C   UNL A   1      38.509  20.078  24.995  1.00  0.00     0.261 C 
BRANCH  29  30
ATOM     30  O   UNL A   1      39.258  20.363  26.192  1.00  0.00    -0.460 OA
BRANCH  30  31
ATOM     31  C   UNL A   1      40.563  19.999  26.145  1.00  0.00     0.338 C 
ATOM     32  O   UNL A   1      41.028  18.961  25.701  1.00  0.00    -0.246 OA
BRANCH  31  33
ATOM     33  C   UNL A   1      41.441  21.075  26.638  1.00  0.00     0.060 A 
ATOM     34  C   UNL A   1      41.508  21.299  28.019  1.00  0.00     0.016 A 
ATOM     35  C   UNL A   1      42.003  21.986  25.743  1.00  0.00     0.016 A 
ATOM     36  C   UNL A   1      42.090  22.471  28.508  1.00  0.00     0.010 A 
ATOM     37  C   UNL A   1      42.585  23.161  26.236  1.00  0.00     0.010 A 
ATOM     38  C   UNL A   1      42.591  23.430  27.617  1.00  0.00    -0.014 A 
BRANCH  38  39
ATOM     39  C   UNL A   1      42.987  24.772  28.114  1.00  0.00     0.031 A 
ATOM     40  C   UNL A   1      41.927  25.813  28.359  1.00  0.00     0.074 A 
ATOM     41  C   UNL A   1      44.277  25.062  28.358  1.00  0.00     0.049 A 
ATOM     42  N   UNL A   1      42.058  27.059  28.741  1.00  0.00    -0.248 NA
ATOM     43  C   UNL A   1      40.533  25.395  28.142  1.00  0.00     0.031 C 
ATOM     44  C   UNL A   1      45.397  24.139  28.188  1.00  0.00     0.029 A 
ATOM     45  N   UNL A   1      44.861  26.227  28.790  1.00  0.00    -0.354 N 
ATOM     46  C   UNL A   1      40.769  27.575  28.804  1.00  0.00     0.074 A 
ATOM     47  C   UNL A   1      39.871  26.515  28.396  1.00  0.00     0.031 C 
ATOM     48  C   UNL A   1      46.537  24.778  28.501  1.00  0.00     0.029 A 
ATOM     49  C   UNL A   1      46.230  26.161  28.861  1.00  0.00     0.049 A 
ATOM     50  H   UNL A   1      44.347  27.033  29.024  1.00  0.00     0.167 HD
ATOM     51  C   UNL A   1      40.367  28.815  29.174  1.00  0.00     0.037 A 
ATOM     52  C   UNL A   1      47.133  27.115  29.159  1.00  0.00     0.037 A 
ATOM     53  C   UNL A   1      41.254  29.871  29.585  1.00  0.00     0.049 A 
ATOM     54  C   UNL A   1      46.667  28.505  29.504  1.00  0.00     0.074 A 
ATOM     55  C   UNL A   1      40.936  31.152  30.005  1.00  0.00     0.029 A 
ATOM     56  N   UNL A   1      42.636  29.772  29.620  1.00  0.00    -0.354 N 
ATOM     57  N   UNL A   1      45.444  28.971  29.586  1.00  0.00    -0.248 NA
ATOM     58  C   UNL A   1      47.709  29.502  29.796  1.00  0.00     0.031 C 
ATOM     59  C   UNL A   1      42.128  31.840  30.254  1.00  0.00     0.029 A 
ATOM     60  C   UNL A   1      43.187  30.975  30.030  1.00  0.00     0.049 A 
ATOM     61  H   UNL A   1      43.151  28.965  29.388  1.00  0.00     0.167 HD
ATOM     62  C   UNL A   1      45.570  30.304  29.962  1.00  0.00     0.074 A 
ATOM     63  C   UNL A   1      46.986  30.568  30.103  1.00  0.00     0.031 C 
ATOM     64  C   UNL A   1      44.598  31.226  30.172  1.00  0.00     0.037 A 
BRANCH  51  65
ATOM     65  C   UNL A   1      38.895  29.105  29.136  1.00  0.00     0.057 A 
ATOM     66  C   UNL A   1      38.092  29.008  30.279  1.00  0.00     0.134 A 
ATOM     67  C   UNL A   1      38.281  29.525  27.949  1.00  0.00     0.134 A 
ATOM     68  F   UNL A   1      38.617  28.602  31.445  1.00  0.00    -0.206 F 
ATOM     69  C   UNL A   1      36.728  29.299  30.239  1.00  0.00     0.040 A 
ATOM     70  C   UNL A   1      36.923  29.840  27.901  1.00  0.00     0.040 A 
ATOM     71  F   UNL A   1      38.995  29.646  26.819  1.00  0.00    -0.206 F 
ATOM     72  C   UNL A   1      36.141  29.723  29.048  1.00  0.00     0.006 A 
ENDBRANCH  51  65
BRANCH  52  73
ATOM     73  C   UNL A   1      48.582  26.797  29.131  1.00  0.00     0.057 A 
ATOM     74  C   UNL A   1      49.325  26.911  27.950  1.00  0.00     0.134 A 
ATOM     75  C   UNL A   1      49.251  26.351  30.276  1.00  0.00     0.134 A 
ATOM     76  F   UNL A   1      48.732  27.314  26.816  1.00  0.00    -0.206 F 
ATOM     77  C   UNL A   1      50.679  26.578  27.905  1.00  0.00     0.040 A 
ATOM     78  C   UNL A   1      50.610  26.036  30.252  1.00  0.00     0.040 A 
ATOM     79  F   UNL A   1      48.594  26.221  31.438  1.00  0.00    -0.206 F 
ATOM     80  C   UNL A   1      51.326  26.143  29.061  1.00  0.00     0.006 A 
ENDBRANCH  52  73
BRANCH  64  81
ATOM     81  C   UNL A   1      45.029  32.596  30.607  1.00  0.00     0.057 A 
ATOM     82  C   UNL A   1      45.259  33.625  29.686  1.00  0.00     0.134 A 
ATOM     83  C   UNL A   1      45.176  32.899  31.967  1.00  0.00     0.134 A 
ATOM     84  F   UNL A   1      45.147  33.396  28.369  1.00  0.00    -0.206 F 
ATOM     85  C   UNL A   1      45.639  34.903  30.101  1.00  0.00     0.040 A 
ATOM     86  C   UNL A   1      45.534  34.179  32.395  1.00  0.00     0.040 A 
ATOM     87  F   UNL A   1      44.964  31.961  32.902  1.00  0.00    -0.206 F 
ATOM     88  C   UNL A   1      45.772  35.183  31.459  1.00  0.00     0.006 A 
ENDBRANCH  64  81
ENDBRANCH  38  39
ENDBRANCH  31  33
ENDBRANCH  30  31
ENDBRANCH  29  30
ENDBRANCH  28  29
ENDBRANCH  27  28
ENDBRANCH   1  27
TORSDOF 18
ENDMDL
MODEL 3
REMARK VINA RESULT:     -11.6      2.995      7.490
REMARK SMILES C/C(=N\Nc1ccccc1C(=O)OCCOCCOC(=O)c1ccc(-c2c3nc(c(-c4c(F)cccc4F)c4ccc([nH]4)c(-c4c(F)cccc4F)c4nc(c(-c5c(F)cccc5F)c5ccc2[nH]5)C=C4)C=C3)cc1)c1ccc(S(C)(=O)=O)cc1
REMARK SMILES IDX 15 1 14 2 13 3 11 4 12 5 10 6 5 7 6 8 7 9 9 10 8 11 4 12
REMARK SMILES IDX 3 14 1 15 2 16 76 17 77 18 85 19 78 20 84 21 79 22 80 23
REMARK SMILES IDX 81 24 82 25 83 26 16 27 17 28 18 29 19 30 20 31 21 32 22 33
REMARK SMILES IDX 23 34 75 35 24 36 74 37 25 38 26 39 27 40 68 41 28 42 73 43
REMARK SMILES IDX 67 44 69 45 29 46 72 47 66 48 65 49 30 51 56 52 39 53 55 54
REMARK SMILES IDX 40 55 43 56 54 57 70 58 41 59 42 60 53 62 71 63 44 64 31 65
REMARK SMILES IDX 32 66 37 67 33 68 34 69 36 70 38 71 35 72 57 73 58 74 63 75
REMARK SMILES IDX 59 76 60 77 62 78 64 79 61 80 45 81 46 82 51 83 47 84 48 85
REMARK SMILES IDX 50 86 52 87 49 88
REMARK H PARENT 4 13 69 50 43 61
REMARK Flexibility Score: inf
ROOT
ATOM      1  C   UNL A   1      33.109  28.696  25.659  1.00  0.00     0.202 C 
ENDROOT
BRANCH   1   2
ATOM      2  C   UNL A   1      32.880  27.213  25.960  1.00  0.00     0.261 C 
BRANCH   2   3
ATOM      3  O   UNL A   1      34.023  26.382  25.713  1.00  0.00    -0.460 OA
BRANCH   3   4
ATOM      4  C   UNL A   1      33.799  25.048  25.815  1.00  0.00     0.340 C 
ATOM      5  O   UNL A   1      32.839  24.507  26.345  1.00  0.00    -0.246 OA
BRANCH   4   6
ATOM      6  C   UNL A   1      34.795  24.268  25.054  1.00  0.00     0.085 A 
ATOM      7  C   UNL A   1      34.582  23.725  23.775  1.00  0.00     0.071 A 
ATOM      8  C   UNL A   1      35.675  23.068  23.164  1.00  0.00     0.028 A 
ATOM      9  C   UNL A   1      36.924  22.963  23.783  1.00  0.00     0.002 A 
ATOM     10  C   UNL A   1      36.059  24.162  25.674  1.00  0.00     0.018 A 
ATOM     11  C   UNL A   1      37.117  23.516  25.041  1.00  0.00     0.001 A 
BRANCH   7  12
ATOM     12  N   UNL A   1      33.450  23.912  22.946  1.00  0.00    -0.277 N 
ATOM     13  H   UNL A   1      33.202  23.178  22.339  1.00  0.00     0.190 HD
BRANCH  12  14
ATOM     14  N   UNL A   1      32.689  25.022  22.929  1.00  0.00    -0.180 NA
ATOM     15  C   UNL A   1      30.713  23.645  23.605  1.00  0.00     0.069 C 
ATOM     16  C   UNL A   1      31.424  24.936  23.239  1.00  0.00     0.065 C 
BRANCH  16  17
ATOM     17  C   UNL A   1      30.608  26.197  23.190  1.00  0.00    -0.002 A 
ATOM     18  C   UNL A   1      31.168  27.352  22.614  1.00  0.00     0.011 A 
ATOM     19  C   UNL A   1      29.285  26.236  23.646  1.00  0.00     0.011 A 
ATOM     20  C   UNL A   1      30.408  28.514  22.461  1.00  0.00     0.021 A 
ATOM     21  C   UNL A   1      28.527  27.404  23.514  1.00  0.00     0.021 A 
ATOM     22  C   UNL A   1      29.087  28.531  22.911  1.00  0.00     0.067 A 
BRANCH  22  23
ATOM     23  S   UNL A   1      28.087  29.977  22.654  1.00  0.00     0.175 S 
ATOM     24  C   UNL A   1      29.032  31.316  23.326  1.00  0.00     0.163 C 
ATOM     25  O   UNL A   1      27.987  30.159  21.219  1.00  0.00    -0.224 OA
ATOM     26  O   UNL A   1      26.900  29.835  23.478  1.00  0.00    -0.224 OA
ENDBRANCH  22  23
ENDBRANCH  16  17
ENDBRANCH  12  14
ENDBRANCH   7  12
ENDBRANCH   4   6
ENDBRANCH   3   4
ENDBRANCH   2   3
ENDBRANCH   1   2
BRANCH   1  27
ATOM     27  O   UNL A   1      31.996  29.575  25.740  1.00  0.00    -0.374 OA
BRANCH  27  28
ATOM     28  C   UNL A   1      31.765  30.253  26.973  1.00  0.00     0.202 C 
BRANCH  28  29
ATOM     29  C   UNL A   1      31.724  31.788  26.967  1.00  0.00     0.261 C 
BRANCH  29  30
ATOM     30  O   UNL A   1      33.013  32.433  26.976  1.00  0.00    -0.460 OA
BRANCH  30  31
ATOM     31  C   UNL A   1      33.115  33.486  27.822  1.00  0.00     0.338 C 
ATOM     32  O   UNL A   1      32.296  34.374  28.002  1.00  0.00    -0.246 OA
BRANCH  31  33
ATOM     33  C   UNL A   1      34.351  33.420  28.621  1.00  0.00     0.060 A 
ATOM     34  C   UNL A   1      35.555  33.807  28.018  1.00  0.00     0.016 A 
ATOM     35  C   UNL A   1      34.352  32.774  29.858  1.00  0.00     0.016 A 
ATOM     36  C   UNL A   1      36.772  33.494  28.628  1.00  0.00     0.010 A 
ATOM     37  C   UNL A   1      35.574  32.460  30.466  1.00  0.00     0.010 A 
ATOM     38  C   UNL A   1      36.790  32.778  29.833  1.00  0.00    -0.014 A 
BRANCH  38  39
ATOM     39  C   UNL A   1      38.069  32.236  30.357  1.00  0.00     0.031 A 
ATOM     40  C   UNL A   1      38.624  30.960  29.780  1.00  0.00     0.074 A 
ATOM     41  C   UNL A   1      38.740  32.877  31.331  1.00  0.00     0.049 A 
ATOM     42  N   UNL A   1      39.694  30.288  30.127  1.00  0.00    -0.248 NA
ATOM     43  C   UNL A   1      37.872  30.360  28.667  1.00  0.00     0.031 C 
ATOM     44  C   UNL A   1      38.327  34.132  31.956  1.00  0.00     0.029 A 
ATOM     45  N   UNL A   1      39.909  32.547  31.971  1.00  0.00    -0.354 N 
ATOM     46  C   UNL A   1      39.740  29.186  29.281  1.00  0.00     0.074 A 
ATOM     47  C   UNL A   1      38.577  29.265  28.422  1.00  0.00     0.031 C 
ATOM     48  C   UNL A   1      39.224  34.460  32.902  1.00  0.00     0.029 A 
ATOM     49  C   UNL A   1      40.254  33.425  32.969  1.00  0.00     0.049 A 
ATOM     50  H   UNL A   1      40.447  31.757  31.738  1.00  0.00     0.167 HD
ATOM     51  C   UNL A   1      40.669  28.202  29.218  1.00  0.00     0.037 A 
ATOM     52  C   UNL A   1      41.271  33.383  33.850  1.00  0.00     0.037 A 
ATOM     53  C   UNL A   1      41.829  28.120  30.065  1.00  0.00     0.049 A 
ATOM     54  C   UNL A   1      42.254  32.243  33.805  1.00  0.00     0.074 A 
ATOM     55  C   UNL A   1      42.840  27.174  30.056  1.00  0.00     0.029 A 
ATOM     56  N   UNL A   1      42.130  29.015  31.080  1.00  0.00    -0.354 N 
ATOM     57  N   UNL A   1      42.302  31.223  32.984  1.00  0.00    -0.248 NA
ATOM     58  C   UNL A   1      43.326  32.250  34.813  1.00  0.00     0.031 C 
ATOM     59  C   UNL A   1      43.730  27.473  31.094  1.00  0.00     0.029 A 
ATOM     60  C   UNL A   1      43.296  28.630  31.720  1.00  0.00     0.049 A 
ATOM     61  H   UNL A   1      41.594  29.808  31.312  1.00  0.00     0.167 HD
ATOM     62  C   UNL A   1      43.417  30.483  33.359  1.00  0.00     0.074 A 
ATOM     63  C   UNL A   1      44.025  31.178  34.474  1.00  0.00     0.031 C 
ATOM     64  C   UNL A   1      43.895  29.332  32.826  1.00  0.00     0.037 A 
BRANCH  51  65
ATOM     65  C   UNL A   1      40.457  27.116  28.204  1.00  0.00     0.057 A 
ATOM     66  C   UNL A   1      41.056  27.159  26.939  1.00  0.00     0.134 A 
ATOM     67  C   UNL A   1      39.679  25.993  28.512  1.00  0.00     0.134 A 
ATOM     68  F   UNL A   1      41.806  28.212  26.578  1.00  0.00    -0.206 F 
ATOM     69  C   UNL A   1      40.871  26.136  26.008  1.00  0.00     0.040 A 
ATOM     70  C   UNL A   1      39.504  24.952  27.599  1.00  0.00     0.040 A 
ATOM     71  F   UNL A   1      39.083  25.885  29.710  1.00  0.00    -0.206 F 
ATOM     72  C   UNL A   1      40.098  25.024  26.340  1.00  0.00     0.006 A 
ENDBRANCH  51  65
BRANCH  52  73
ATOM     73  C   UNL A   1      41.408  34.450  34.872  1.00  0.00     0.057 A 
ATOM     74  C   UNL A   1      40.792  34.337  36.124  1.00  0.00     0.134 A 
ATOM     75  C   UNL A   1      42.139  35.615  34.613  1.00  0.00     0.134 A 
ATOM     76  F   UNL A   1      40.061  33.253  36.421  1.00  0.00    -0.206 F 
ATOM     77  C   UNL A   1      40.884  35.353  37.077  1.00  0.00     0.040 A 
ATOM     78  C   UNL A   1      42.259  36.629  35.564  1.00  0.00     0.040 A 
ATOM     79  F   UNL A   1      42.753  35.782  33.432  1.00  0.00    -0.206 F 
ATOM     80  C   UNL A   1      41.624  36.501  36.799  1.00  0.00     0.006 A 
ENDBRANCH  52  73
BRANCH  64  81
ATOM     81  C   UNL A   1      45.153  28.766  33.420  1.00  0.00     0.057 A 
ATOM     82  C   UNL A   1      46.421  29.172  32.990  1.00  0.00     0.134 A 
ATOM     83  C   UNL A   1      45.091  27.832  34.463  1.00  0.00     0.134 A 
ATOM     84  F   UNL A   1      46.548  30.055  31.987  1.00  0.00    -0.206 F 
ATOM     85  C   UNL A   1      47.585  28.656  33.562  1.00  0.00     0.040 A 
ATOM     86  C   UNL A   1      46.248  27.325  35.058  1.00  0.00     0.040 A 
ATOM     87  F   UNL A   1      43.907  27.405  34.927  1.00  0.00    -0.206 F 
ATOM     88  C   UNL A   1      47.499  27.734  34.603  1.00  0.00     0.006 A 
ENDBRANCH  64  81
ENDBRANCH  38  39
ENDBRANCH  31  33
ENDBRANCH  30  31
ENDBRANCH  29  30
ENDBRANCH  28  29
ENDBRANCH  27  28
ENDBRANCH   1  27
TORSDOF 18
ENDMDL
