MODEL 1
REMARK VINA RESULT:      -9.7      0.000      0.000
REMARK SMILES NS(=O)(=O)c1ccc(-n2nc(NC(=O)NCCCC(=O)OCCOCCOC(=O)c3ccc(-c4c5nc(c(-c6c(F)cccc6F)c6ccc([nH]6)c(-c6c(F)cccc6F)c6nc(c(-c7c(F)cccc7F)c7ccc4[nH]7)C=C6)C=C5)cc3)cc2-c2ccccc2)cc1
REMARK SMILES IDX 22 1 21 2 19 3 20 4 18 5 17 6 16 7 15 8 12 9 13 10 14 12
REMARK SMILES IDX 11 14 9 15 10 16 85 17 84 18 8 19 5 20 6 21 93 22 7 23 92 24
REMARK SMILES IDX 2 25 3 26 4 27 1 28 86 31 87 32 91 33 88 34 90 35 89 36
REMARK SMILES IDX 23 37 24 38 25 39 26 40 27 41 28 42 29 43 30 44 31 45 83 46
REMARK SMILES IDX 32 47 82 48 33 49 34 50 35 51 76 52 36 53 81 54 75 55 77 56
REMARK SMILES IDX 37 57 80 58 74 59 73 60 38 62 64 63 47 64 63 65 48 66 51 67
REMARK SMILES IDX 62 68 78 69 49 70 50 71 61 73 79 74 52 75 39 76 40 77 45 78
REMARK SMILES IDX 41 79 42 80 44 81 46 82 43 83 65 84 66 85 71 86 67 87 68 88
REMARK SMILES IDX 70 89 72 90 69 91 53 92 54 93 59 94 55 95 56 96 58 97 60 98
REMARK SMILES IDX 57 99
REMARK H PARENT 12 11 15 13 1 29 1 30 77 61 51 72
REMARK Flexibility Score: inf
ROOT
ATOM      1  C   UNL A   1      45.023  20.327  24.529  1.00  0.00     0.261 C 
ENDROOT
BRANCH   1   2
ATOM      2  O   UNL A   1      45.064  21.422  25.462  1.00  0.00    -0.463 OA
BRANCH   2   3
ATOM      3  C   UNL A   1      44.335  22.507  25.093  1.00  0.00     0.305 C 
ATOM      4  O   UNL A   1      43.229  22.460  24.563  1.00  0.00    -0.252 OA
BRANCH   3   5
ATOM      5  C   UNL A   1      45.045  23.822  25.307  1.00  0.00     0.124 C 
BRANCH   5   6
ATOM      6  C   UNL A   1      46.355  24.097  24.593  1.00  0.00     0.033 C 
BRANCH   6   7
ATOM      7  C   UNL A   1      47.213  25.275  25.029  1.00  0.00     0.118 C 
BRANCH   7   8
ATOM      8  N   UNL A   1      47.119  26.499  24.271  1.00  0.00    -0.338 N 
ATOM      9  N   UNL A   1      46.250  28.088  25.850  1.00  0.00    -0.291 N 
ATOM     10  C   UNL A   1      46.744  27.742  24.641  1.00  0.00     0.320 C 
ATOM     11  H   UNL A   1      45.862  28.993  25.860  1.00  0.00     0.173 HD
ATOM     12  O   UNL A   1      46.771  28.618  23.769  1.00  0.00    -0.248 OA
ATOM     13  H   UNL A   1      47.375  26.415  23.324  1.00  0.00     0.165 HD
BRANCH   9  14
ATOM     14  C   UNL A   1      46.170  27.459  27.073  1.00  0.00     0.157 A 
ATOM     15  N   UNL A   1      46.796  26.436  28.823  1.00  0.00    -0.231 N 
ATOM     16  N   UNL A   1      47.098  27.485  28.028  1.00  0.00    -0.149 NA
ATOM     17  C   UNL A   1      45.440  26.121  28.707  1.00  0.00     0.076 A 
ATOM     18  C   UNL A   1      45.033  26.743  27.540  1.00  0.00     0.078 A 
BRANCH  15  19
ATOM     19  C   UNL A   1      47.712  26.019  29.838  1.00  0.00     0.065 A 
ATOM     20  C   UNL A   1      49.748  25.266  31.618  1.00  0.00     0.082 A 
ATOM     21  C   UNL A   1      48.569  25.864  32.096  1.00  0.00     0.024 A 
ATOM     22  C   UNL A   1      49.946  25.123  30.259  1.00  0.00     0.024 A 
ATOM     23  C   UNL A   1      47.560  26.284  31.198  1.00  0.00     0.030 A 
ATOM     24  C   UNL A   1      48.909  25.465  29.408  1.00  0.00     0.030 A 
BRANCH  20  25
ATOM     25  S   UNL A   1      50.914  24.479  32.690  1.00  0.00     0.238 S 
ATOM     26  O   UNL A   1      52.129  25.265  32.723  1.00  0.00    -0.207 OA
ATOM     27  O   UNL A   1      50.918  23.069  32.395  1.00  0.00    -0.207 OA
BRANCH  25  28
ATOM     28  N   UNL A   1      50.243  24.663  34.213  1.00  0.00    -0.225 NA
ATOM     29  H   UNL A   1      50.848  25.255  34.781  1.00  0.00     0.137 HD
ATOM     30  H   UNL A   1      50.149  23.748  34.655  1.00  0.00     0.137 HD
ENDBRANCH  25  28
ENDBRANCH  20  25
ENDBRANCH  15  19
BRANCH  17  31
ATOM     31  C   UNL A   1      44.774  25.297  29.707  1.00  0.00     0.000 A 
ATOM     32  C   UNL A   1      44.343  25.944  30.861  1.00  0.00     0.010 A 
ATOM     33  C   UNL A   1      44.776  23.909  29.684  1.00  0.00     0.010 A 
ATOM     34  C   UNL A   1      44.240  25.261  32.059  1.00  0.00     0.001 A 
ATOM     35  C   UNL A   1      44.494  23.205  30.863  1.00  0.00     0.001 A 
ATOM     36  C   UNL A   1      44.281  23.883  32.064  1.00  0.00     0.000 A 
ENDBRANCH  17  31
ENDBRANCH   9  14
ENDBRANCH   7   8
ENDBRANCH   6   7
ENDBRANCH   5   6
ENDBRANCH   3   5
ENDBRANCH   2   3
ENDBRANCH   1   2
BRANCH   1  37
ATOM     37  C   UNL A   1      44.226  19.096  24.976  1.00  0.00     0.202 C 
BRANCH  37  38
ATOM     38  O   UNL A   1      42.813  19.189  25.055  1.00  0.00    -0.374 OA
BRANCH  38  39
ATOM     39  C   UNL A   1      42.234  19.367  26.336  1.00  0.00     0.202 C 
BRANCH  39  40
ATOM     40  C   UNL A   1      41.017  20.273  26.476  1.00  0.00     0.261 C 
BRANCH  40  41
ATOM     41  O   UNL A   1      41.214  21.571  27.068  1.00  0.00    -0.460 OA
BRANCH  41  42
ATOM     42  C   UNL A   1      40.173  22.437  26.887  1.00  0.00     0.338 C 
ATOM     43  O   UNL A   1      39.071  22.144  26.452  1.00  0.00    -0.246 OA
BRANCH  42  44
ATOM     44  C   UNL A   1      40.642  23.844  26.973  1.00  0.00     0.060 A 
ATOM     45  C   UNL A   1      41.542  24.128  28.014  1.00  0.00     0.016 A 
ATOM     46  C   UNL A   1      39.952  24.876  26.350  1.00  0.00     0.016 A 
ATOM     47  C   UNL A   1      41.526  25.377  28.635  1.00  0.00     0.010 A 
ATOM     48  C   UNL A   1      39.922  26.111  26.994  1.00  0.00     0.010 A 
ATOM     49  C   UNL A   1      40.612  26.331  28.207  1.00  0.00    -0.014 A 
BRANCH  49  50
ATOM     50  C   UNL A   1      40.493  27.656  28.837  1.00  0.00     0.031 A 
ATOM     51  C   UNL A   1      41.455  28.579  28.220  1.00  0.00     0.074 A 
ATOM     52  C   UNL A   1      39.730  28.104  29.861  1.00  0.00     0.049 A 
ATOM     53  N   UNL A   1      42.657  28.728  28.670  1.00  0.00    -0.248 NA
ATOM     54  C   UNL A   1      41.221  29.145  26.890  1.00  0.00     0.031 C 
ATOM     55  C   UNL A   1      38.845  27.355  30.754  1.00  0.00     0.029 A 
ATOM     56  N   UNL A   1      39.567  29.403  30.305  1.00  0.00    -0.354 N 
ATOM     57  C   UNL A   1      43.251  29.604  27.788  1.00  0.00     0.074 A 
ATOM     58  C   UNL A   1      42.460  29.544  26.591  1.00  0.00     0.031 C 
ATOM     59  C   UNL A   1      38.143  28.223  31.528  1.00  0.00     0.029 A 
ATOM     60  C   UNL A   1      38.494  29.593  31.175  1.00  0.00     0.049 A 
ATOM     61  H   UNL A   1      40.162  30.136  30.030  1.00  0.00     0.167 HD
ATOM     62  C   UNL A   1      44.081  30.570  28.260  1.00  0.00     0.037 A 
ATOM     63  C   UNL A   1      38.133  30.684  31.907  1.00  0.00     0.037 A 
ATOM     64  C   UNL A   1      44.432  30.315  29.644  1.00  0.00     0.049 A 
ATOM     65  C   UNL A   1      39.379  31.398  32.214  1.00  0.00     0.074 A 
ATOM     66  C   UNL A   1      45.177  29.387  30.345  1.00  0.00     0.029 A 
ATOM     67  N   UNL A   1      43.607  30.928  30.552  1.00  0.00    -0.354 N 
ATOM     68  N   UNL A   1      40.232  30.955  33.089  1.00  0.00    -0.248 NA
ATOM     69  C   UNL A   1      39.874  32.425  31.306  1.00  0.00     0.031 C 
ATOM     70  C   UNL A   1      44.628  29.340  31.663  1.00  0.00     0.029 A 
ATOM     71  C   UNL A   1      43.581  30.250  31.739  1.00  0.00     0.049 A 
ATOM     72  H   UNL A   1      43.099  31.752  30.372  1.00  0.00     0.167 HD
ATOM     73  C   UNL A   1      41.453  31.262  32.528  1.00  0.00     0.074 A 
ATOM     74  C   UNL A   1      41.181  32.317  31.559  1.00  0.00     0.031 C 
ATOM     75  C   UNL A   1      42.498  30.404  32.678  1.00  0.00     0.037 A 
BRANCH  62  76
ATOM     76  C   UNL A   1      44.149  31.970  27.684  1.00  0.00     0.057 A 
ATOM     77  C   UNL A   1      45.130  32.237  26.714  1.00  0.00     0.134 A 
ATOM     78  C   UNL A   1      43.514  33.116  28.212  1.00  0.00     0.134 A 
ATOM     79  F   UNL A   1      45.815  31.240  26.133  1.00  0.00    -0.206 F 
ATOM     80  C   UNL A   1      45.506  33.539  26.363  1.00  0.00     0.040 A 
ATOM     81  C   UNL A   1      43.846  34.416  27.830  1.00  0.00     0.040 A 
ATOM     82  F   UNL A   1      42.611  33.075  29.195  1.00  0.00    -0.206 F 
ATOM     83  C   UNL A   1      44.868  34.635  26.927  1.00  0.00     0.006 A 
ENDBRANCH  62  76
BRANCH  63  84
ATOM     84  C   UNL A   1      36.860  31.454  31.836  1.00  0.00     0.057 A 
ATOM     85  C   UNL A   1      36.298  32.027  32.990  1.00  0.00     0.134 A 
ATOM     86  C   UNL A   1      36.288  31.853  30.621  1.00  0.00     0.134 A 
ATOM     87  F   UNL A   1      36.830  31.777  34.196  1.00  0.00    -0.206 F 
ATOM     88  C   UNL A   1      35.215  32.919  32.940  1.00  0.00     0.040 A 
ATOM     89  C   UNL A   1      35.188  32.724  30.555  1.00  0.00     0.040 A 
ATOM     90  F   UNL A   1      36.850  31.491  29.460  1.00  0.00    -0.206 F 
ATOM     91  C   UNL A   1      34.648  33.264  31.718  1.00  0.00     0.006 A 
ENDBRANCH  63  84
BRANCH  75  92
ATOM     92  C   UNL A   1      42.389  29.439  33.816  1.00  0.00     0.057 A 
ATOM     93  C   UNL A   1      42.646  29.769  35.153  1.00  0.00     0.134 A 
ATOM     94  C   UNL A   1      41.980  28.132  33.548  1.00  0.00     0.134 A 
ATOM     95  F   UNL A   1      42.970  31.017  35.502  1.00  0.00    -0.206 F 
ATOM     96  C   UNL A   1      42.541  28.824  36.178  1.00  0.00     0.040 A 
ATOM     97  C   UNL A   1      41.839  27.186  34.565  1.00  0.00     0.040 A 
ATOM     98  F   UNL A   1      41.688  27.763  32.292  1.00  0.00    -0.206 F 
ATOM     99  C   UNL A   1      42.131  27.527  35.884  1.00  0.00     0.006 A 
ENDBRANCH  75  92
ENDBRANCH  49  50
ENDBRANCH  42  44
ENDBRANCH  41  42
ENDBRANCH  40  41
ENDBRANCH  39  40
ENDBRANCH  38  39
ENDBRANCH  37  38
ENDBRANCH   1  37
TORSDOF 22
ENDMDL
MODEL 2
REMARK VINA RESULT:      -9.0      2.114      3.956
REMARK SMILES NS(=O)(=O)c1ccc(-n2nc(NC(=O)NCCCC(=O)OCCOCCOC(=O)c3ccc(-c4c5nc(c(-c6c(F)cccc6F)c6ccc([nH]6)c(-c6c(F)cccc6F)c6nc(c(-c7c(F)cccc7F)c7ccc4[nH]7)C=C6)C=C5)cc3)cc2-c2ccccc2)cc1
REMARK SMILES IDX 22 1 21 2 19 3 20 4 18 5 17 6 16 7 15 8 12 9 13 10 14 12
REMARK SMILES IDX 11 14 9 15 10 16 85 17 84 18 8 19 5 20 6 21 93 22 7 23 92 24
REMARK SMILES IDX 2 25 3 26 4 27 1 28 86 31 87 32 91 33 88 34 90 35 89 36
REMARK SMILES IDX 23 37 24 38 25 39 26 40 27 41 28 42 29 43 30 44 31 45 83 46
REMARK SMILES IDX 32 47 82 48 33 49 34 50 35 51 76 52 36 53 81 54 75 55 77 56
REMARK SMILES IDX 37 57 80 58 74 59 73 60 38 62 64 63 47 64 63 65 48 66 51 67
REMARK SMILES IDX 62 68 78 69 49 70 50 71 61 73 79 74 52 75 39 76 40 77 45 78
REMARK SMILES IDX 41 79 42 80 44 81 46 82 43 83 65 84 66 85 71 86 67 87 68 88
REMARK SMILES IDX 70 89 72 90 69 91 53 92 54 93 59 94 55 95 56 96 58 97 60 98
REMARK SMILES IDX 57 99
REMARK H PARENT 12 11 15 13 1 29 1 30 77 61 51 72
REMARK Flexibility Score: inf
ROOT
ATOM      1  C   UNL A   1      45.040  19.380  24.625  1.00  0.00     0.261 C 
ENDROOT
BRANCH   1   2
ATOM      2  O   UNL A   1      45.204  20.700  25.173  1.00  0.00    -0.463 OA
BRANCH   2   3
ATOM      3  C   UNL A   1      44.575  21.683  24.478  1.00  0.00     0.305 C 
ATOM      4  O   UNL A   1      44.591  21.797  23.256  1.00  0.00    -0.252 OA
BRANCH   3   5
ATOM      5  C   UNL A   1      43.903  22.716  25.351  1.00  0.00     0.124 C 
BRANCH   5   6
ATOM      6  C   UNL A   1      44.742  23.747  26.081  1.00  0.00     0.033 C 
BRANCH   6   7
ATOM      7  C   UNL A   1      45.546  23.330  27.303  1.00  0.00     0.118 C 
BRANCH   7   8
ATOM      8  N   UNL A   1      44.825  22.990  28.505  1.00  0.00    -0.338 N 
ATOM      9  N   UNL A   1      45.375  24.764  30.029  1.00  0.00    -0.291 N 
ATOM     10  C   UNL A   1      44.710  23.640  29.682  1.00  0.00     0.320 C 
ATOM     11  H   UNL A   1      45.299  24.972  30.988  1.00  0.00     0.173 HD
ATOM     12  O   UNL A   1      44.005  23.110  30.549  1.00  0.00    -0.248 OA
ATOM     13  H   UNL A   1      44.330  22.140  28.459  1.00  0.00     0.165 HD
BRANCH   9  14
ATOM     14  C   UNL A   1      46.134  25.684  29.340  1.00  0.00     0.157 A 
ATOM     15  N   UNL A   1      47.090  26.643  27.707  1.00  0.00    -0.231 N 
ATOM     16  N   UNL A   1      45.915  26.103  28.094  1.00  0.00    -0.149 NA
ATOM     17  C   UNL A   1      47.819  27.059  28.824  1.00  0.00     0.076 A 
ATOM     18  C   UNL A   1      47.233  26.398  29.891  1.00  0.00     0.078 A 
BRANCH  15  19
ATOM     19  C   UNL A   1      47.298  27.002  26.339  1.00  0.00     0.065 A 
ATOM     20  C   UNL A   1      47.738  27.387  23.594  1.00  0.00     0.082 A 
ATOM     21  C   UNL A   1      46.873  28.239  24.303  1.00  0.00     0.024 A 
ATOM     22  C   UNL A   1      48.312  26.303  24.228  1.00  0.00     0.024 A 
ATOM     23  C   UNL A   1      46.616  28.021  25.677  1.00  0.00     0.030 A 
ATOM     24  C   UNL A   1      48.109  26.161  25.590  1.00  0.00     0.030 A 
BRANCH  20  25
ATOM     25  S   UNL A   1      48.310  27.762  21.963  1.00  0.00     0.238 S 
ATOM     26  O   UNL A   1      49.539  28.522  22.057  1.00  0.00    -0.207 OA
ATOM     27  O   UNL A   1      47.186  28.213  21.183  1.00  0.00    -0.207 OA
BRANCH  25  28
ATOM     28  N   UNL A   1      48.771  26.275  21.349  1.00  0.00    -0.225 NA
ATOM     29  H   UNL A   1      49.064  25.667  22.114  1.00  0.00     0.137 HD
ATOM     30  H   UNL A   1      49.548  26.401  20.700  1.00  0.00     0.137 HD
ENDBRANCH  25  28
ENDBRANCH  20  25
ENDBRANCH  15  19
BRANCH  17  31
ATOM     31  C   UNL A   1      48.927  27.994  28.691  1.00  0.00     0.000 A 
ATOM     32  C   UNL A   1      48.661  29.324  29.003  1.00  0.00     0.010 A 
ATOM     33  C   UNL A   1      50.119  27.688  28.047  1.00  0.00     0.010 A 
ATOM     34  C   UNL A   1      49.375  30.348  28.406  1.00  0.00     0.001 A 
ATOM     35  C   UNL A   1      50.941  28.731  27.597  1.00  0.00     0.001 A 
ATOM     36  C   UNL A   1      50.540  30.060  27.728  1.00  0.00     0.000 A 
ENDBRANCH  17  31
ENDBRANCH   9  14
ENDBRANCH   7   8
ENDBRANCH   6   7
ENDBRANCH   5   6
ENDBRANCH   3   5
ENDBRANCH   2   3
ENDBRANCH   1   2
BRANCH   1  37
ATOM     37  C   UNL A   1      43.774  18.629  25.054  1.00  0.00     0.202 C 
BRANCH  37  38
ATOM     38  O   UNL A   1      42.588  19.370  25.290  1.00  0.00    -0.374 OA
BRANCH  38  39
ATOM     39  C   UNL A   1      41.997  19.278  26.574  1.00  0.00     0.202 C 
BRANCH  39  40
ATOM     40  C   UNL A   1      40.889  20.254  26.949  1.00  0.00     0.261 C 
BRANCH  40  41
ATOM     41  O   UNL A   1      41.230  21.651  27.035  1.00  0.00    -0.460 OA
BRANCH  41  42
ATOM     42  C   UNL A   1      40.171  22.500  26.873  1.00  0.00     0.338 C 
ATOM     43  O   UNL A   1      39.058  22.184  26.485  1.00  0.00    -0.246 OA
BRANCH  42  44
ATOM     44  C   UNL A   1      40.625  23.914  26.912  1.00  0.00     0.060 A 
ATOM     45  C   UNL A   1      41.630  24.210  27.848  1.00  0.00     0.016 A 
ATOM     46  C   UNL A   1      39.854  24.936  26.373  1.00  0.00     0.016 A 
ATOM     47  C   UNL A   1      41.663  25.457  28.472  1.00  0.00     0.010 A 
ATOM     48  C   UNL A   1      39.877  26.169  27.021  1.00  0.00     0.010 A 
ATOM     49  C   UNL A   1      40.693  26.398  28.151  1.00  0.00    -0.014 A 
BRANCH  49  50
ATOM     50  C   UNL A   1      40.623  27.720  28.795  1.00  0.00     0.031 A 
ATOM     51  C   UNL A   1      41.672  28.588  28.244  1.00  0.00     0.074 A 
ATOM     52  C   UNL A   1      39.837  28.201  29.785  1.00  0.00     0.049 A 
ATOM     53  N   UNL A   1      42.855  28.655  28.759  1.00  0.00    -0.248 NA
ATOM     54  C   UNL A   1      41.545  29.184  26.913  1.00  0.00     0.031 C 
ATOM     55  C   UNL A   1      38.861  27.498  30.619  1.00  0.00     0.029 A 
ATOM     56  N   UNL A   1      39.732  29.502  30.241  1.00  0.00    -0.354 N 
ATOM     57  C   UNL A   1      43.549  29.502  27.923  1.00  0.00     0.074 A 
ATOM     58  C   UNL A   1      42.820  29.509  26.686  1.00  0.00     0.031 C 
ATOM     59  C   UNL A   1      38.174  28.398  31.369  1.00  0.00     0.029 A 
ATOM     60  C   UNL A   1      38.628  29.748  31.057  1.00  0.00     0.049 A 
ATOM     61  H   UNL A   1      40.385  30.200  30.009  1.00  0.00     0.167 HD
ATOM     62  C   UNL A   1      44.412  30.408  28.453  1.00  0.00     0.037 A 
ATOM     63  C   UNL A   1      38.298  30.850  31.787  1.00  0.00     0.037 A 
ATOM     64  C   UNL A   1      44.672  30.114  29.849  1.00  0.00     0.049 A 
ATOM     65  C   UNL A   1      39.568  31.480  32.170  1.00  0.00     0.074 A 
ATOM     66  C   UNL A   1      45.319  29.133  30.572  1.00  0.00     0.029 A 
ATOM     67  N   UNL A   1      43.840  30.766  30.723  1.00  0.00    -0.354 N 
ATOM     68  N   UNL A   1      40.344  30.973  33.081  1.00  0.00    -0.248 NA
ATOM     69  C   UNL A   1      40.173  32.485  31.305  1.00  0.00     0.031 C 
ATOM     70  C   UNL A   1      44.700  29.102  31.859  1.00  0.00     0.029 A 
ATOM     71  C   UNL A   1      43.709  30.076  31.896  1.00  0.00     0.049 A 
ATOM     72  H   UNL A   1      43.395  31.623  30.529  1.00  0.00     0.167 HD
ATOM     73  C   UNL A   1      41.609  31.210  32.589  1.00  0.00     0.074 A 
ATOM     74  C   UNL A   1      41.455  32.292  31.624  1.00  0.00     0.031 C 
ATOM     75  C   UNL A   1      42.589  30.286  32.779  1.00  0.00     0.037 A 
BRANCH  62  76
ATOM     76  C   UNL A   1      44.596  31.808  27.903  1.00  0.00     0.057 A 
ATOM     77  C   UNL A   1      45.777  32.088  27.194  1.00  0.00     0.134 A 
ATOM     78  C   UNL A   1      43.840  32.946  28.261  1.00  0.00     0.134 A 
ATOM     79  F   UNL A   1      46.593  31.100  26.797  1.00  0.00    -0.206 F 
ATOM     80  C   UNL A   1      46.209  33.394  26.938  1.00  0.00     0.040 A 
ATOM     81  C   UNL A   1      44.236  34.250  27.963  1.00  0.00     0.040 A 
ATOM     82  F   UNL A   1      42.729  32.894  29.000  1.00  0.00    -0.206 F 
ATOM     83  C   UNL A   1      45.441  34.482  27.329  1.00  0.00     0.006 A 
ENDBRANCH  62  76
BRANCH  63  84
ATOM     84  C   UNL A   1      37.080  31.700  31.663  1.00  0.00     0.057 A 
ATOM     85  C   UNL A   1      36.383  32.133  32.804  1.00  0.00     0.134 A 
ATOM     86  C   UNL A   1      36.705  32.306  30.456  1.00  0.00     0.134 A 
ATOM     87  F   UNL A   1      36.726  31.678  34.017  1.00  0.00    -0.206 F 
ATOM     88  C   UNL A   1      35.356  33.089  32.744  1.00  0.00     0.040 A 
ATOM     89  C   UNL A   1      35.663  33.244  30.376  1.00  0.00     0.040 A 
ATOM     90  F   UNL A   1      37.412  32.082  29.341  1.00  0.00    -0.206 F 
ATOM     91  C   UNL A   1      34.984  33.642  31.523  1.00  0.00     0.006 A 
ENDBRANCH  63  84
BRANCH  75  92
ATOM     92  C   UNL A   1      42.360  29.315  33.895  1.00  0.00     0.057 A 
ATOM     93  C   UNL A   1      42.587  29.604  35.247  1.00  0.00     0.134 A 
ATOM     94  C   UNL A   1      41.864  28.048  33.587  1.00  0.00     0.134 A 
ATOM     95  F   UNL A   1      42.993  30.817  35.630  1.00  0.00    -0.206 F 
ATOM     96  C   UNL A   1      42.369  28.654  36.249  1.00  0.00     0.040 A 
ATOM     97  C   UNL A   1      41.609  27.100  34.580  1.00  0.00     0.040 A 
ATOM     98  F   UNL A   1      41.595  27.721  32.313  1.00  0.00    -0.206 F 
ATOM     99  C   UNL A   1      41.872  27.398  35.915  1.00  0.00     0.006 A 
ENDBRANCH  75  92
ENDBRANCH  49  50
ENDBRANCH  42  44
ENDBRANCH  41  42
ENDBRANCH  40  41
ENDBRANCH  39  40
ENDBRANCH  38  39
ENDBRANCH  37  38
ENDBRANCH   1  37
TORSDOF 22
ENDMDL
MODEL 3
REMARK VINA RESULT:      -8.2      5.417      9.591
REMARK SMILES NS(=O)(=O)c1ccc(-n2nc(NC(=O)NCCCC(=O)OCCOCCOC(=O)c3ccc(-c4c5nc(c(-c6c(F)cccc6F)c6ccc([nH]6)c(-c6c(F)cccc6F)c6nc(c(-c7c(F)cccc7F)c7ccc4[nH]7)C=C6)C=C5)cc3)cc2-c2ccccc2)cc1
REMARK SMILES IDX 22 1 21 2 19 3 20 4 18 5 17 6 16 7 15 8 12 9 13 10 14 12
REMARK SMILES IDX 11 14 9 15 10 16 85 17 84 18 8 19 5 20 6 21 93 22 7 23 92 24
REMARK SMILES IDX 2 25 3 26 4 27 1 28 86 31 87 32 91 33 88 34 90 35 89 36
REMARK SMILES IDX 23 37 24 38 25 39 26 40 27 41 28 42 29 43 30 44 31 45 83 46
REMARK SMILES IDX 32 47 82 48 33 49 34 50 35 51 76 52 36 53 81 54 75 55 77 56
REMARK SMILES IDX 37 57 80 58 74 59 73 60 38 62 64 63 47 64 63 65 48 66 51 67
REMARK SMILES IDX 62 68 78 69 49 70 50 71 61 73 79 74 52 75 39 76 40 77 45 78
REMARK SMILES IDX 41 79 42 80 44 81 46 82 43 83 65 84 66 85 71 86 67 87 68 88
REMARK SMILES IDX 70 89 72 90 69 91 53 92 54 93 59 94 55 95 56 96 58 97 60 98
REMARK SMILES IDX 57 99
REMARK H PARENT 12 11 15 13 1 29 1 30 77 61 51 72
REMARK Flexibility Score: inf
ROOT
ATOM      1  C   UNL A   1      40.181  28.900  28.772  1.00  0.00     0.261 C 
ENDROOT
BRANCH   1   2
ATOM      2  O   UNL A   1      40.992  27.891  29.398  1.00  0.00    -0.463 OA
BRANCH   2   3
ATOM      3  C   UNL A   1      40.997  26.693  28.759  1.00  0.00     0.305 C 
ATOM      4  O   UNL A   1      41.990  26.168  28.264  1.00  0.00    -0.252 OA
BRANCH   3   5
ATOM      5  C   UNL A   1      39.630  26.069  28.618  1.00  0.00     0.124 C 
BRANCH   5   6
ATOM      6  C   UNL A   1      39.141  25.624  27.253  1.00  0.00     0.033 C 
BRANCH   6   7
ATOM      7  C   UNL A   1      38.683  24.188  27.052  1.00  0.00     0.118 C 
BRANCH   7   8
ATOM      8  N   UNL A   1      39.683  23.193  26.749  1.00  0.00    -0.338 N 
ATOM      9  N   UNL A   1      38.453  21.465  25.620  1.00  0.00    -0.291 N 
ATOM     10  C   UNL A   1      39.594  22.024  26.081  1.00  0.00     0.320 C 
ATOM     11  H   UNL A   1      38.575  20.532  25.332  1.00  0.00     0.173 HD
ATOM     12  O   UNL A   1      40.635  21.367  25.960  1.00  0.00    -0.248 OA
ATOM     13  H   UNL A   1      40.585  23.404  27.084  1.00  0.00     0.165 HD
BRANCH   9  14
ATOM     14  C   UNL A   1      37.159  21.910  25.463  1.00  0.00     0.157 A 
ATOM     15  N   UNL A   1      35.546  23.254  25.161  1.00  0.00    -0.231 N 
ATOM     16  N   UNL A   1      36.770  22.926  24.694  1.00  0.00    -0.149 NA
ATOM     17  C   UNL A   1      34.963  22.154  25.794  1.00  0.00     0.076 A 
ATOM     18  C   UNL A   1      36.017  21.291  26.041  1.00  0.00     0.078 A 
BRANCH  15  19
ATOM     19  C   UNL A   1      34.908  24.453  24.717  1.00  0.00     0.065 A 
ATOM     20  C   UNL A   1      33.487  26.621  23.638  1.00  0.00     0.082 A 
ATOM     21  C   UNL A   1      33.859  26.616  24.994  1.00  0.00     0.024 A 
ATOM     22  C   UNL A   1      33.746  25.518  22.848  1.00  0.00     0.024 A 
ATOM     23  C   UNL A   1      34.537  25.507  25.550  1.00  0.00     0.030 A 
ATOM     24  C   UNL A   1      34.484  24.482  23.396  1.00  0.00     0.030 A 
BRANCH  20  25
ATOM     25  S   UNL A   1      32.889  28.072  22.824  1.00  0.00     0.238 S 
ATOM     26  O   UNL A   1      33.305  29.238  23.573  1.00  0.00    -0.207 OA
ATOM     27  O   UNL A   1      31.515  27.848  22.452  1.00  0.00    -0.207 OA
BRANCH  25  28
ATOM     28  N   UNL A   1      33.779  28.132  21.408  1.00  0.00    -0.225 NA
ATOM     29  H   UNL A   1      34.754  28.335  21.628  1.00  0.00     0.137 HD
ATOM     30  H   UNL A   1      33.407  28.865  20.803  1.00  0.00     0.137 HD
ENDBRANCH  25  28
ENDBRANCH  20  25
ENDBRANCH  15  19
BRANCH  17  31
ATOM     31  C   UNL A   1      33.530  22.110  26.053  1.00  0.00     0.000 A 
ATOM     32  C   UNL A   1      32.718  21.720  24.993  1.00  0.00     0.010 A 
ATOM     33  C   UNL A   1      32.935  22.665  27.178  1.00  0.00     0.010 A 
ATOM     34  C   UNL A   1      31.411  22.165  24.902  1.00  0.00     0.001 A 
ATOM     35  C   UNL A   1      31.563  22.953  27.154  1.00  0.00     0.001 A 
ATOM     36  C   UNL A   1      30.814  22.754  25.995  1.00  0.00     0.000 A 
ENDBRANCH  17  31
ENDBRANCH   9  14
ENDBRANCH   7   8
ENDBRANCH   6   7
ENDBRANCH   5   6
ENDBRANCH   3   5
ENDBRANCH   2   3
ENDBRANCH   1   2
BRANCH   1  37
ATOM     37  C   UNL A   1      39.167  29.604  29.682  1.00  0.00     0.202 C 
BRANCH  37  38
ATOM     38  O   UNL A   1      37.804  29.634  29.290  1.00  0.00    -0.374 OA
BRANCH  38  39
ATOM     39  C   UNL A   1      37.495  29.288  27.952  1.00  0.00     0.202 C 
BRANCH  39  40
ATOM     40  C   UNL A   1      36.060  29.443  27.462  1.00  0.00     0.261 C 
BRANCH  40  41
ATOM     41  O   UNL A   1      35.066  29.848  28.422  1.00  0.00    -0.460 OA
BRANCH  41  42
ATOM     42  C   UNL A   1      34.555  31.098  28.211  1.00  0.00     0.338 C 
ATOM     43  O   UNL A   1      33.835  31.425  27.281  1.00  0.00    -0.246 OA
BRANCH  42  44
ATOM     44  C   UNL A   1      35.245  32.095  29.068  1.00  0.00     0.060 A 
ATOM     45  C   UNL A   1      36.328  32.768  28.477  1.00  0.00     0.016 A 
ATOM     46  C   UNL A   1      35.107  32.080  30.450  1.00  0.00     0.016 A 
ATOM     47  C   UNL A   1      37.423  33.152  29.251  1.00  0.00     0.010 A 
ATOM     48  C   UNL A   1      36.217  32.442  31.211  1.00  0.00     0.010 A 
ATOM     49  C   UNL A   1      37.423  32.864  30.609  1.00  0.00    -0.014 A 
BRANCH  49  50
ATOM     50  C   UNL A   1      38.556  33.190  31.491  1.00  0.00     0.031 A 
ATOM     51  C   UNL A   1      39.618  33.831  30.706  1.00  0.00     0.074 A 
ATOM     52  C   UNL A   1      38.774  32.952  32.805  1.00  0.00     0.049 A 
ATOM     53  N   UNL A   1      40.558  33.155  30.132  1.00  0.00    -0.248 NA
ATOM     54  C   UNL A   1      39.506  35.223  30.268  1.00  0.00     0.031 C 
ATOM     55  C   UNL A   1      37.972  32.177  33.753  1.00  0.00     0.029 A 
ATOM     56  N   UNL A   1      39.804  33.416  33.601  1.00  0.00    -0.354 N 
ATOM     57  C   UNL A   1      41.293  34.097  29.446  1.00  0.00     0.074 A 
ATOM     58  C   UNL A   1      40.427  35.234  29.301  1.00  0.00     0.031 C 
ATOM     59  C   UNL A   1      38.468  32.342  35.007  1.00  0.00     0.029 A 
ATOM     60  C   UNL A   1      39.602  33.258  34.972  1.00  0.00     0.049 A 
ATOM     61  H   UNL A   1      40.618  33.827  33.230  1.00  0.00     0.167 HD
ATOM     62  C   UNL A   1      42.648  34.001  29.419  1.00  0.00     0.037 A 
ATOM     63  C   UNL A   1      40.449  33.460  36.019  1.00  0.00     0.037 A 
ATOM     64  C   UNL A   1      43.080  32.703  29.901  1.00  0.00     0.049 A 
ATOM     65  C   UNL A   1      41.800  33.195  35.506  1.00  0.00     0.074 A 
ATOM     66  C   UNL A   1      43.017  31.392  29.472  1.00  0.00     0.029 A 
ATOM     67  N   UNL A   1      43.352  32.668  31.244  1.00  0.00    -0.354 N 
ATOM     68  N   UNL A   1      42.220  31.992  35.255  1.00  0.00    -0.248 NA
ATOM     69  C   UNL A   1      42.584  34.278  34.926  1.00  0.00     0.031 C 
ATOM     70  C   UNL A   1      43.071  30.579  30.645  1.00  0.00     0.029 A 
ATOM     71  C   UNL A   1      43.187  31.410  31.754  1.00  0.00     0.049 A 
ATOM     72  H   UNL A   1      43.632  33.449  31.774  1.00  0.00     0.167 HD
ATOM     73  C   UNL A   1      42.981  32.151  34.117  1.00  0.00     0.074 A 
ATOM     74  C   UNL A   1      43.329  33.566  34.076  1.00  0.00     0.031 C 
ATOM     75  C   UNL A   1      42.972  31.183  33.161  1.00  0.00     0.037 A 
BRANCH  62  76
ATOM     76  C   UNL A   1      43.573  35.200  29.470  1.00  0.00     0.057 A 
ATOM     77  C   UNL A   1      44.496  35.366  28.423  1.00  0.00     0.134 A 
ATOM     78  C   UNL A   1      43.803  36.022  30.595  1.00  0.00     0.134 A 
ATOM     79  F   UNL A   1      44.398  34.644  27.297  1.00  0.00    -0.206 F 
ATOM     80  C   UNL A   1      45.602  36.217  28.523  1.00  0.00     0.040 A 
ATOM     81  C   UNL A   1      44.873  36.913  30.683  1.00  0.00     0.040 A 
ATOM     82  F   UNL A   1      43.083  35.958  31.718  1.00  0.00    -0.206 F 
ATOM     83  C   UNL A   1      45.798  36.989  29.660  1.00  0.00     0.006 A 
ENDBRANCH  62  76
BRANCH  63  84
ATOM     84  C   UNL A   1      40.283  34.400  37.163  1.00  0.00     0.057 A 
ATOM     85  C   UNL A   1      40.035  35.766  36.944  1.00  0.00     0.134 A 
ATOM     86  C   UNL A   1      40.122  33.959  38.483  1.00  0.00     0.134 A 
ATOM     87  F   UNL A   1      40.077  36.269  35.702  1.00  0.00    -0.206 F 
ATOM     88  C   UNL A   1      39.679  36.644  37.980  1.00  0.00     0.040 A 
ATOM     89  C   UNL A   1      39.792  34.829  39.535  1.00  0.00     0.040 A 
ATOM     90  F   UNL A   1      40.179  32.650  38.768  1.00  0.00    -0.206 F 
ATOM     91  C   UNL A   1      39.566  36.178  39.286  1.00  0.00     0.006 A 
ENDBRANCH  63  84
BRANCH  75  92
ATOM     92  C   UNL A   1      42.526  29.828  33.612  1.00  0.00     0.057 A 
ATOM     93  C   UNL A   1      43.337  28.926  34.314  1.00  0.00     0.134 A 
ATOM     94  C   UNL A   1      41.214  29.433  33.348  1.00  0.00     0.134 A 
ATOM     95  F   UNL A   1      44.582  29.258  34.669  1.00  0.00    -0.206 F 
ATOM     96  C   UNL A   1      42.874  27.665  34.701  1.00  0.00     0.040 A 
ATOM     97  C   UNL A   1      40.726  28.191  33.757  1.00  0.00     0.040 A 
ATOM     98  F   UNL A   1      40.378  30.264  32.707  1.00  0.00    -0.206 F 
ATOM     99  C   UNL A   1      41.561  27.297  34.426  1.00  0.00     0.006 A 
ENDBRANCH  75  92
ENDBRANCH  49  50
ENDBRANCH  42  44
ENDBRANCH  41  42
ENDBRANCH  40  41
ENDBRANCH  39  40
ENDBRANCH  38  39
ENDBRANCH  37  38
ENDBRANCH   1  37
TORSDOF 22
ENDMDL
