MODEL 1
REMARK VINA RESULT:      -9.8      0.000      0.000
REMARK SMILES C[C@H](CO)CSc1cc(Cl)ccc1C(=O)OCCOCCOC(=O)c1ccc(-c2c3nc(c(-c4c(F)cccc4F)c4ccc([nH]4)c(-c4c(F)cccc4F)c4nc(c(-c5c(F)cccc5F)c5ccc2[nH]5)C=C4)C=C3)cc1
REMARK SMILES IDX 17 1 16 2 14 3 15 4 13 5 7 6 8 7 9 8 12 9 10 10 11 11 6 12
REMARK SMILES IDX 5 13 2 14 1 15 3 16 4 17 18 19 19 20 20 21 21 22 22 23 23 24
REMARK SMILES IDX 24 25 25 26 26 27 78 28 27 29 77 30 28 31 29 32 30 33 71 34
REMARK SMILES IDX 31 35 76 36 70 37 72 38 32 39 75 40 69 41 68 42 33 44 59 45
REMARK SMILES IDX 42 46 58 47 43 48 46 49 57 50 73 51 44 52 45 53 56 55 74 56
REMARK SMILES IDX 47 57 34 58 35 59 40 60 36 61 37 62 39 63 41 64 38 65 60 66
REMARK SMILES IDX 61 67 66 68 62 69 63 70 65 71 67 72 64 73 48 74 49 75 54 76
REMARK SMILES IDX 50 77 51 78 53 79 55 80 52 81
REMARK H PARENT 4 18 72 43 46 54
REMARK Flexibility Score: inf
ROOT
ATOM      1  C   UNL A   1      33.395  29.278  26.086  1.00  0.00     0.261 C 
ENDROOT
BRANCH   1   2
ATOM      2  O   UNL A   1      33.665  27.932  25.658  1.00  0.00    -0.460 OA
BRANCH   2   3
ATOM      3  C   UNL A   1      33.448  27.708  24.343  1.00  0.00     0.339 C 
ATOM      4  O   UNL A   1      33.697  28.478  23.427  1.00  0.00    -0.246 OA
BRANCH   3   5
ATOM      5  C   UNL A   1      33.046  26.310  24.066  1.00  0.00     0.073 A 
ATOM      6  C   UNL A   1      31.730  25.858  23.886  1.00  0.00     0.023 A 
ATOM      7  C   UNL A   1      31.542  24.585  23.323  1.00  0.00     0.036 A 
ATOM      8  C   UNL A   1      32.618  23.721  23.113  1.00  0.00     0.042 A 
ATOM      9  C   UNL A   1      34.125  25.426  23.864  1.00  0.00     0.018 A 
ATOM     10  Cl  UNL A   1      32.338  22.143  22.493  1.00  0.00    -0.084 Cl
ATOM     11  C   UNL A   1      33.910  24.123  23.419  1.00  0.00     0.021 A 
BRANCH   6  12
ATOM     12  S   UNL A   1      30.247  26.773  24.280  1.00  0.00    -0.125 SA
BRANCH  12  13
ATOM     13  C   UNL A   1      30.121  27.893  22.813  1.00  0.00     0.080 C 
BRANCH  13  14
ATOM     14  C   UNL A   1      29.203  29.125  23.000  1.00  0.00     0.022 C 
ATOM     15  C   UNL A   1      27.728  28.687  22.985  1.00  0.00     0.011 C 
BRANCH  14  16
ATOM     16  C   UNL A   1      29.405  30.181  21.905  1.00  0.00     0.160 C 
BRANCH  16  17
ATOM     17  O   UNL A   1      30.683  30.045  21.294  1.00  0.00    -0.396 OA
ATOM     18  H   UNL A   1      31.246  30.791  21.553  1.00  0.00     0.210 HD
ENDBRANCH  16  17
ENDBRANCH  14  16
ENDBRANCH  13  14
ENDBRANCH  12  13
ENDBRANCH   6  12
ENDBRANCH   3   5
ENDBRANCH   2   3
ENDBRANCH   1   2
BRANCH   1  19
ATOM     19  C   UNL A   1      32.250  29.302  27.100  1.00  0.00     0.202 C 
BRANCH  19  20
ATOM     20  O   UNL A   1      31.635  30.572  27.313  1.00  0.00    -0.374 OA
BRANCH  20  21
ATOM     21  C   UNL A   1      31.575  31.466  26.202  1.00  0.00     0.202 C 
BRANCH  21  22
ATOM     22  C   UNL A   1      31.788  32.952  26.516  1.00  0.00     0.261 C 
BRANCH  22  23
ATOM     23  O   UNL A   1      32.156  33.167  27.892  1.00  0.00    -0.460 OA
BRANCH  23  24
ATOM     24  C   UNL A   1      33.192  34.021  28.076  1.00  0.00     0.338 C 
ATOM     25  O   UNL A   1      33.148  35.244  28.117  1.00  0.00    -0.246 OA
BRANCH  24  26
ATOM     26  C   UNL A   1      34.413  33.268  28.412  1.00  0.00     0.060 A 
ATOM     27  C   UNL A   1      34.258  31.962  28.895  1.00  0.00     0.016 A 
ATOM     28  C   UNL A   1      35.681  33.846  28.322  1.00  0.00     0.016 A 
ATOM     29  C   UNL A   1      35.368  31.243  29.332  1.00  0.00     0.010 A 
ATOM     30  C   UNL A   1      36.794  33.125  28.770  1.00  0.00     0.010 A 
ATOM     31  C   UNL A   1      36.637  31.834  29.307  1.00  0.00    -0.014 A 
BRANCH  31  32
ATOM     32  C   UNL A   1      37.774  31.153  29.972  1.00  0.00     0.031 A 
ATOM     33  C   UNL A   1      38.050  31.438  31.423  1.00  0.00     0.074 A 
ATOM     34  C   UNL A   1      38.533  30.269  29.302  1.00  0.00     0.049 A 
ATOM     35  N   UNL A   1      39.005  30.982  32.192  1.00  0.00    -0.248 NA
ATOM     36  C   UNL A   1      37.125  32.364  32.095  1.00  0.00     0.031 C 
ATOM     37  C   UNL A   1      38.344  29.879  27.907  1.00  0.00     0.029 A 
ATOM     38  N   UNL A   1      39.624  29.544  29.711  1.00  0.00    -0.354 N 
ATOM     39  C   UNL A   1      38.799  31.566  33.435  1.00  0.00     0.074 A 
ATOM     40  C   UNL A   1      37.648  32.434  33.311  1.00  0.00     0.031 C 
ATOM     41  C   UNL A   1      39.294  28.991  27.571  1.00  0.00     0.029 A 
ATOM     42  C   UNL A   1      40.175  28.773  28.717  1.00  0.00     0.049 A 
ATOM     43  H   UNL A   1      39.978  29.573  30.630  1.00  0.00     0.167 HD
ATOM     44  C   UNL A   1      39.501  31.389  34.579  1.00  0.00     0.037 A 
ATOM     45  C   UNL A   1      41.277  27.998  28.728  1.00  0.00     0.037 A 
ATOM     46  C   UNL A   1      40.644  30.524  34.704  1.00  0.00     0.049 A 
ATOM     47  C   UNL A   1      42.083  27.875  29.993  1.00  0.00     0.074 A 
ATOM     48  C   UNL A   1      41.407  30.257  35.828  1.00  0.00     0.029 A 
ATOM     49  N   UNL A   1      41.195  29.789  33.665  1.00  0.00    -0.354 N 
ATOM     50  N   UNL A   1      41.865  28.410  31.169  1.00  0.00    -0.248 NA
ATOM     51  C   UNL A   1      43.291  27.038  29.930  1.00  0.00     0.031 C 
ATOM     52  C   UNL A   1      42.447  29.399  35.458  1.00  0.00     0.029 A 
ATOM     53  C   UNL A   1      42.305  29.093  34.115  1.00  0.00     0.049 A 
ATOM     54  H   UNL A   1      40.848  29.765  32.744  1.00  0.00     0.167 HD
ATOM     55  C   UNL A   1      42.892  27.959  31.990  1.00  0.00     0.074 A 
ATOM     56  C   UNL A   1      43.725  27.094  31.181  1.00  0.00     0.031 C 
ATOM     57  C   UNL A   1      43.124  28.235  33.297  1.00  0.00     0.037 A 
BRANCH  44  58
ATOM     58  C   UNL A   1      39.064  32.166  35.785  1.00  0.00     0.057 A 
ATOM     59  C   UNL A   1      39.470  33.490  35.999  1.00  0.00     0.134 A 
ATOM     60  C   UNL A   1      38.203  31.592  36.729  1.00  0.00     0.134 A 
ATOM     61  F   UNL A   1      40.306  34.092  35.141  1.00  0.00    -0.206 F 
ATOM     62  C   UNL A   1      39.050  34.208  37.120  1.00  0.00     0.040 A 
ATOM     63  C   UNL A   1      37.757  32.309  37.841  1.00  0.00     0.040 A 
ATOM     64  F   UNL A   1      37.775  30.329  36.582  1.00  0.00    -0.206 F 
ATOM     65  C   UNL A   1      38.185  33.620  38.041  1.00  0.00     0.006 A 
ENDBRANCH  44  58
BRANCH  45  66
ATOM     66  C   UNL A   1      41.697  27.288  27.494  1.00  0.00     0.057 A 
ATOM     67  C   UNL A   1      41.356  25.950  27.275  1.00  0.00     0.134 A 
ATOM     68  C   UNL A   1      42.467  27.927  26.515  1.00  0.00     0.134 A 
ATOM     69  F   UNL A   1      40.640  25.277  28.190  1.00  0.00    -0.206 F 
ATOM     70  C   UNL A   1      41.778  25.265  26.135  1.00  0.00     0.040 A 
ATOM     71  C   UNL A   1      42.876  27.262  25.357  1.00  0.00     0.040 A 
ATOM     72  F   UNL A   1      42.827  29.210  26.667  1.00  0.00    -0.206 F 
ATOM     73  C   UNL A   1      42.537  25.925  25.169  1.00  0.00     0.006 A 
ENDBRANCH  45  66
BRANCH  57  74
ATOM     74  C   UNL A   1      44.310  27.577  33.940  1.00  0.00     0.057 A 
ATOM     75  C   UNL A   1      45.557  28.210  34.010  1.00  0.00     0.134 A 
ATOM     76  C   UNL A   1      44.191  26.314  34.535  1.00  0.00     0.134 A 
ATOM     77  F   UNL A   1      45.740  29.415  33.448  1.00  0.00    -0.206 F 
ATOM     78  C   UNL A   1      46.649  27.602  34.630  1.00  0.00     0.040 A 
ATOM     79  C   UNL A   1      45.269  25.707  35.180  1.00  0.00     0.040 A 
ATOM     80  F   UNL A   1      43.022  25.657  34.512  1.00  0.00    -0.206 F 
ATOM     81  C   UNL A   1      46.505  26.349  35.225  1.00  0.00     0.006 A 
ENDBRANCH  57  74
ENDBRANCH  31  32
ENDBRANCH  24  26
ENDBRANCH  23  24
ENDBRANCH  22  23
ENDBRANCH  21  22
ENDBRANCH  20  21
ENDBRANCH  19  20
ENDBRANCH   1  19
TORSDOF 19
ENDMDL
MODEL 2
REMARK VINA RESULT:      -9.6      2.508      3.939
REMARK SMILES C[C@H](CO)CSc1cc(Cl)ccc1C(=O)OCCOCCOC(=O)c1ccc(-c2c3nc(c(-c4c(F)cccc4F)c4ccc([nH]4)c(-c4c(F)cccc4F)c4nc(c(-c5c(F)cccc5F)c5ccc2[nH]5)C=C4)C=C3)cc1
REMARK SMILES IDX 17 1 16 2 14 3 15 4 13 5 7 6 8 7 9 8 12 9 10 10 11 11 6 12
REMARK SMILES IDX 5 13 2 14 1 15 3 16 4 17 18 19 19 20 20 21 21 22 22 23 23 24
REMARK SMILES IDX 24 25 25 26 26 27 78 28 27 29 77 30 28 31 29 32 30 33 71 34
REMARK SMILES IDX 31 35 76 36 70 37 72 38 32 39 75 40 69 41 68 42 33 44 59 45
REMARK SMILES IDX 42 46 58 47 43 48 46 49 57 50 73 51 44 52 45 53 56 55 74 56
REMARK SMILES IDX 47 57 34 58 35 59 40 60 36 61 37 62 39 63 41 64 38 65 60 66
REMARK SMILES IDX 61 67 66 68 62 69 63 70 65 71 67 72 64 73 48 74 49 75 54 76
REMARK SMILES IDX 50 77 51 78 53 79 55 80 52 81
REMARK H PARENT 4 18 72 43 46 54
REMARK Flexibility Score: inf
ROOT
ATOM      1  C   UNL A   1      32.169  26.108  23.733  1.00  0.00     0.261 C 
ENDROOT
BRANCH   1   2
ATOM      2  O   UNL A   1      32.503  24.894  24.428  1.00  0.00    -0.460 OA
BRANCH   2   3
ATOM      3  C   UNL A   1      32.861  23.868  23.624  1.00  0.00     0.339 C 
ATOM      4  O   UNL A   1      32.436  23.648  22.499  1.00  0.00    -0.246 OA
BRANCH   3   5
ATOM      5  C   UNL A   1      34.009  23.103  24.160  1.00  0.00     0.073 A 
ATOM      6  C   UNL A   1      33.979  21.759  24.564  1.00  0.00     0.023 A 
ATOM      7  C   UNL A   1      35.205  21.099  24.746  1.00  0.00     0.036 A 
ATOM      8  C   UNL A   1      36.415  21.794  24.702  1.00  0.00     0.042 A 
ATOM      9  C   UNL A   1      35.234  23.800  24.131  1.00  0.00     0.018 A 
ATOM     10  Cl  UNL A   1      37.889  20.964  25.004  1.00  0.00    -0.084 Cl
ATOM     11  C   UNL A   1      36.432  23.155  24.433  1.00  0.00     0.021 A 
BRANCH   6  12
ATOM     12  S   UNL A   1      32.509  20.784  24.845  1.00  0.00    -0.125 SA
BRANCH  12  13
ATOM     13  C   UNL A   1      33.236  19.095  25.039  1.00  0.00     0.080 C 
BRANCH  13  14
ATOM     14  C   UNL A   1      32.758  18.047  24.005  1.00  0.00     0.022 C 
ATOM     15  C   UNL A   1      33.919  17.105  23.638  1.00  0.00     0.011 C 
BRANCH  14  16
ATOM     16  C   UNL A   1      32.233  18.692  22.714  1.00  0.00     0.160 C 
BRANCH  16  17
ATOM     17  O   UNL A   1      31.783  17.702  21.796  1.00  0.00    -0.396 OA
ATOM     18  H   UNL A   1      31.850  16.826  22.206  1.00  0.00     0.210 HD
ENDBRANCH  16  17
ENDBRANCH  14  16
ENDBRANCH  13  14
ENDBRANCH  12  13
ENDBRANCH   6  12
ENDBRANCH   3   5
ENDBRANCH   2   3
ENDBRANCH   1   2
BRANCH   1  19
ATOM     19  C   UNL A   1      31.399  27.059  24.650  1.00  0.00     0.202 C 
BRANCH  19  20
ATOM     20  O   UNL A   1      32.195  27.955  25.425  1.00  0.00    -0.374 OA
BRANCH  20  21
ATOM     21  C   UNL A   1      32.387  29.273  24.911  1.00  0.00     0.202 C 
BRANCH  21  22
ATOM     22  C   UNL A   1      31.808  30.418  25.751  1.00  0.00     0.261 C 
BRANCH  22  23
ATOM     23  O   UNL A   1      32.401  30.482  27.062  1.00  0.00    -0.460 OA
BRANCH  23  24
ATOM     24  C   UNL A   1      33.171  31.575  27.284  1.00  0.00     0.338 C 
ATOM     25  O   UNL A   1      32.819  32.748  27.262  1.00  0.00    -0.246 OA
BRANCH  24  26
ATOM     26  C   UNL A   1      34.507  31.165  27.750  1.00  0.00     0.060 A 
ATOM     27  C   UNL A   1      34.719  29.802  27.997  1.00  0.00     0.016 A 
ATOM     28  C   UNL A   1      35.514  32.098  28.006  1.00  0.00     0.016 A 
ATOM     29  C   UNL A   1      35.926  29.371  28.543  1.00  0.00     0.010 A 
ATOM     30  C   UNL A   1      36.722  31.663  28.562  1.00  0.00     0.010 A 
ATOM     31  C   UNL A   1      36.920  30.303  28.863  1.00  0.00    -0.014 A 
BRANCH  31  32
ATOM     32  C   UNL A   1      38.105  29.869  29.641  1.00  0.00     0.031 A 
ATOM     33  C   UNL A   1      38.303  30.404  31.032  1.00  0.00     0.074 A 
ATOM     34  C   UNL A   1      38.979  28.986  29.127  1.00  0.00     0.049 A 
ATOM     35  N   UNL A   1      39.280  30.185  31.875  1.00  0.00    -0.248 NA
ATOM     36  C   UNL A   1      37.260  31.309  31.540  1.00  0.00     0.031 C 
ATOM     37  C   UNL A   1      38.877  28.367  27.807  1.00  0.00     0.029 A 
ATOM     38  N   UNL A   1      40.131  28.464  29.658  1.00  0.00    -0.354 N 
ATOM     39  C   UNL A   1      38.972  30.926  33.008  1.00  0.00     0.074 A 
ATOM     40  C   UNL A   1      37.735  31.625  32.736  1.00  0.00     0.031 C 
ATOM     41  C   UNL A   1      39.931  27.554  27.626  1.00  0.00     0.029 A 
ATOM     42  C   UNL A   1      40.796  27.619  28.803  1.00  0.00     0.049 A 
ATOM     43  H   UNL A   1      40.452  28.675  30.564  1.00  0.00     0.167 HD
ATOM     44  C   UNL A   1      39.655  31.010  34.175  1.00  0.00     0.037 A 
ATOM     45  C   UNL A   1      41.977  26.988  28.948  1.00  0.00     0.037 A 
ATOM     46  C   UNL A   1      40.884  30.313  34.448  1.00  0.00     0.049 A 
ATOM     47  C   UNL A   1      42.753  27.155  30.227  1.00  0.00     0.074 A 
ATOM     48  C   UNL A   1      41.637  30.313  35.609  1.00  0.00     0.029 A 
ATOM     49  N   UNL A   1      41.545  29.495  33.544  1.00  0.00    -0.354 N 
ATOM     50  N   UNL A   1      42.441  27.836  31.303  1.00  0.00    -0.248 NA
ATOM     51  C   UNL A   1      44.049  26.464  30.311  1.00  0.00     0.031 C 
ATOM     52  C   UNL A   1      42.778  29.534  35.391  1.00  0.00     0.029 A 
ATOM     53  C   UNL A   1      42.712  29.010  34.110  1.00  0.00     0.049 A 
ATOM     54  H   UNL A   1      41.230  29.290  32.633  1.00  0.00     0.167 HD
ATOM     55  C   UNL A   1      43.487  27.639  32.197  1.00  0.00     0.074 A 
ATOM     56  C   UNL A   1      44.436  26.762  31.543  1.00  0.00     0.031 C 
ATOM     57  C   UNL A   1      43.646  28.137  33.447  1.00  0.00     0.037 A 
BRANCH  44  58
ATOM     58  C   UNL A   1      39.097  31.908  35.239  1.00  0.00     0.057 A 
ATOM     59  C   UNL A   1      38.288  31.418  36.271  1.00  0.00     0.134 A 
ATOM     60  C   UNL A   1      39.396  33.276  35.246  1.00  0.00     0.134 A 
ATOM     61  F   UNL A   1      37.951  30.120  36.314  1.00  0.00    -0.206 F 
ATOM     62  C   UNL A   1      37.780  32.260  37.263  1.00  0.00     0.040 A 
ATOM     63  C   UNL A   1      38.915  34.123  36.245  1.00  0.00     0.040 A 
ATOM     64  F   UNL A   1      40.168  33.809  34.286  1.00  0.00    -0.206 F 
ATOM     65  C   UNL A   1      38.100  33.616  37.255  1.00  0.00     0.006 A 
ENDBRANCH  44  58
BRANCH  45  66
ATOM     66  C   UNL A   1      42.511  26.149  27.846  1.00  0.00     0.057 A 
ATOM     67  C   UNL A   1      43.269  26.708  26.812  1.00  0.00     0.134 A 
ATOM     68  C   UNL A   1      42.257  24.774  27.791  1.00  0.00     0.134 A 
ATOM     69  F   UNL A   1      43.524  28.025  26.797  1.00  0.00    -0.206 F 
ATOM     70  C   UNL A   1      43.744  25.932  25.753  1.00  0.00     0.040 A 
ATOM     71  C   UNL A   1      42.746  23.981  26.751  1.00  0.00     0.040 A 
ATOM     72  F   UNL A   1      41.535  24.180  28.753  1.00  0.00    -0.206 F 
ATOM     73  C   UNL A   1      43.486  24.562  25.725  1.00  0.00     0.006 A 
ENDBRANCH  45  66
BRANCH  57  74
ATOM     74  C   UNL A   1      44.879  27.729  34.200  1.00  0.00     0.057 A 
ATOM     75  C   UNL A   1      46.052  28.492  34.165  1.00  0.00     0.134 A 
ATOM     76  C   UNL A   1      44.878  26.581  35.003  1.00  0.00     0.134 A 
ATOM     77  F   UNL A   1      46.122  29.595  33.405  1.00  0.00    -0.206 F 
ATOM     78  C   UNL A   1      47.187  28.118  34.887  1.00  0.00     0.040 A 
ATOM     79  C   UNL A   1      45.998  26.210  35.749  1.00  0.00     0.040 A 
ATOM     80  F   UNL A   1      43.783  25.810  35.088  1.00  0.00    -0.206 F 
ATOM     81  C   UNL A   1      47.159  26.977  35.687  1.00  0.00     0.006 A 
ENDBRANCH  57  74
ENDBRANCH  31  32
ENDBRANCH  24  26
ENDBRANCH  23  24
ENDBRANCH  22  23
ENDBRANCH  21  22
ENDBRANCH  20  21
ENDBRANCH  19  20
ENDBRANCH   1  19
TORSDOF 19
ENDMDL
MODEL 3
REMARK VINA RESULT:      -9.5      3.807      5.996
REMARK SMILES C[C@H](CO)CSc1cc(Cl)ccc1C(=O)OCCOCCOC(=O)c1ccc(-c2c3nc(c(-c4c(F)cccc4F)c4ccc([nH]4)c(-c4c(F)cccc4F)c4nc(c(-c5c(F)cccc5F)c5ccc2[nH]5)C=C4)C=C3)cc1
REMARK SMILES IDX 17 1 16 2 14 3 15 4 13 5 7 6 8 7 9 8 12 9 10 10 11 11 6 12
REMARK SMILES IDX 5 13 2 14 1 15 3 16 4 17 18 19 19 20 20 21 21 22 22 23 23 24
REMARK SMILES IDX 24 25 25 26 26 27 78 28 27 29 77 30 28 31 29 32 30 33 71 34
REMARK SMILES IDX 31 35 76 36 70 37 72 38 32 39 75 40 69 41 68 42 33 44 59 45
REMARK SMILES IDX 42 46 58 47 43 48 46 49 57 50 73 51 44 52 45 53 56 55 74 56
REMARK SMILES IDX 47 57 34 58 35 59 40 60 36 61 37 62 39 63 41 64 38 65 60 66
REMARK SMILES IDX 61 67 66 68 62 69 63 70 65 71 67 72 64 73 48 74 49 75 54 76
REMARK SMILES IDX 50 77 51 78 53 79 55 80 52 81
REMARK H PARENT 4 18 72 43 46 54
REMARK Flexibility Score: inf
ROOT
ATOM      1  C   UNL A   1      33.647  30.518  27.782  1.00  0.00     0.261 C 
ENDROOT
BRANCH   1   2
ATOM      2  O   UNL A   1      32.675  29.769  27.031  1.00  0.00    -0.460 OA
BRANCH   2   3
ATOM      3  C   UNL A   1      33.177  29.120  25.956  1.00  0.00     0.339 C 
ATOM      4  O   UNL A   1      34.286  29.280  25.467  1.00  0.00    -0.246 OA
BRANCH   3   5
ATOM      5  C   UNL A   1      32.309  28.006  25.513  1.00  0.00     0.073 A 
ATOM      6  C   UNL A   1      31.301  28.092  24.540  1.00  0.00     0.023 A 
ATOM      7  C   UNL A   1      30.792  26.894  24.012  1.00  0.00     0.036 A 
ATOM      8  C   UNL A   1      31.142  25.657  24.556  1.00  0.00     0.042 A 
ATOM      9  C   UNL A   1      32.646  26.754  26.066  1.00  0.00     0.018 A 
ATOM     10  Cl  UNL A   1      30.439  24.218  23.931  1.00  0.00    -0.084 Cl
ATOM     11  C   UNL A   1      32.040  25.584  25.611  1.00  0.00     0.021 A 
BRANCH   6  12
ATOM     12  S   UNL A   1      30.615  29.601  23.875  1.00  0.00    -0.125 SA
BRANCH  12  13
ATOM     13  C   UNL A   1      29.737  28.961  22.378  1.00  0.00     0.080 C 
BRANCH  13  14
ATOM     14  C   UNL A   1      28.428  29.704  22.012  1.00  0.00     0.022 C 
ATOM     15  C   UNL A   1      28.741  31.164  21.639  1.00  0.00     0.011 C 
BRANCH  14  16
ATOM     16  C   UNL A   1      27.412  29.706  23.163  1.00  0.00     0.160 C 
BRANCH  16  17
ATOM     17  O   UNL A   1      26.510  28.611  23.049  1.00  0.00    -0.396 OA
ATOM     18  H   UNL A   1      25.643  28.868  23.401  1.00  0.00     0.210 HD
ENDBRANCH  16  17
ENDBRANCH  14  16
ENDBRANCH  13  14
ENDBRANCH  12  13
ENDBRANCH   6  12
ENDBRANCH   3   5
ENDBRANCH   2   3
ENDBRANCH   1   2
BRANCH   1  19
ATOM     19  C   UNL A   1      33.417  32.020  27.612  1.00  0.00     0.202 C 
BRANCH  19  20
ATOM     20  O   UNL A   1      34.427  32.869  28.155  1.00  0.00    -0.374 OA
BRANCH  20  21
ATOM     21  C   UNL A   1      34.005  33.914  29.032  1.00  0.00     0.202 C 
BRANCH  21  22
ATOM     22  C   UNL A   1      34.409  33.768  30.504  1.00  0.00     0.261 C 
BRANCH  22  23
ATOM     23  O   UNL A   1      34.539  32.389  30.896  1.00  0.00    -0.460 OA
BRANCH  23  24
ATOM     24  C   UNL A   1      35.494  32.151  31.828  1.00  0.00     0.338 C 
ATOM     25  O   UNL A   1      35.444  32.409  33.023  1.00  0.00    -0.246 OA
BRANCH  24  26
ATOM     26  C   UNL A   1      36.581  31.348  31.242  1.00  0.00     0.060 A 
ATOM     27  C   UNL A   1      37.582  30.883  32.106  1.00  0.00     0.016 A 
ATOM     28  C   UNL A   1      36.661  31.109  29.869  1.00  0.00     0.016 A 
ATOM     29  C   UNL A   1      38.691  30.213  31.593  1.00  0.00     0.010 A 
ATOM     30  C   UNL A   1      37.781  30.445  29.355  1.00  0.00     0.010 A 
ATOM     31  C   UNL A   1      38.815  30.023  30.211  1.00  0.00    -0.014 A 
BRANCH  31  32
ATOM     32  C   UNL A   1      40.090  29.511  29.656  1.00  0.00     0.031 A 
ATOM     33  C   UNL A   1      41.269  30.439  29.556  1.00  0.00     0.074 A 
ATOM     34  C   UNL A   1      40.207  28.228  29.272  1.00  0.00     0.049 A 
ATOM     35  N   UNL A   1      42.465  30.213  29.075  1.00  0.00    -0.248 NA
ATOM     36  C   UNL A   1      41.072  31.805  30.065  1.00  0.00     0.031 C 
ATOM     37  C   UNL A   1      39.150  27.222  29.354  1.00  0.00     0.029 A 
ATOM     38  N   UNL A   1      41.272  27.556  28.729  1.00  0.00    -0.354 N 
ATOM     39  C   UNL A   1      43.161  31.406  29.220  1.00  0.00     0.074 A 
ATOM     40  C   UNL A   1      42.246  32.363  29.804  1.00  0.00     0.031 C 
ATOM     41  C   UNL A   1      39.617  26.060  28.868  1.00  0.00     0.029 A 
ATOM     42  C   UNL A   1      40.994  26.249  28.414  1.00  0.00     0.049 A 
ATOM     43  H   UNL A   1      42.152  27.971  28.578  1.00  0.00     0.167 HD
ATOM     44  C   UNL A   1      44.449  31.678  28.903  1.00  0.00     0.037 A 
ATOM     45  C   UNL A   1      41.758  25.318  27.809  1.00  0.00     0.037 A 
ATOM     46  C   UNL A   1      45.360  30.727  28.324  1.00  0.00     0.049 A 
ATOM     47  C   UNL A   1      43.163  25.667  27.398  1.00  0.00     0.074 A 
ATOM     48  C   UNL A   1      46.693  30.900  27.992  1.00  0.00     0.029 A 
ATOM     49  N   UNL A   1      45.030  29.423  27.986  1.00  0.00    -0.354 N 
ATOM     50  N   UNL A   1      43.820  26.789  27.564  1.00  0.00    -0.248 NA
ATOM     51  C   UNL A   1      43.935  24.617  26.716  1.00  0.00     0.031 C 
ATOM     52  C   UNL A   1      47.155  29.716  27.407  1.00  0.00     0.029 A 
ATOM     53  C   UNL A   1      46.125  28.790  27.420  1.00  0.00     0.049 A 
ATOM     54  H   UNL A   1      44.148  29.009  28.127  1.00  0.00     0.167 HD
ATOM     55  C   UNL A   1      45.085  26.575  27.029  1.00  0.00     0.074 A 
ATOM     56  C   UNL A   1      45.108  25.210  26.545  1.00  0.00     0.031 C 
ATOM     57  C   UNL A   1      46.133  27.431  26.945  1.00  0.00     0.037 A 
BRANCH  44  58
ATOM     58  C   UNL A   1      44.943  33.072  29.154  1.00  0.00     0.057 A 
ATOM     59  C   UNL A   1      45.532  33.440  30.370  1.00  0.00     0.134 A 
ATOM     60  C   UNL A   1      44.853  34.051  28.156  1.00  0.00     0.134 A 
ATOM     61  F   UNL A   1      45.633  32.554  31.372  1.00  0.00    -0.206 F 
ATOM     62  C   UNL A   1      45.997  34.738  30.592  1.00  0.00     0.040 A 
ATOM     63  C   UNL A   1      45.336  35.344  28.357  1.00  0.00     0.040 A 
ATOM     64  F   UNL A   1      44.302  33.763  26.967  1.00  0.00    -0.206 F 
ATOM     65  C   UNL A   1      45.906  35.693  29.581  1.00  0.00     0.006 A 
ENDBRANCH  44  58
BRANCH  45  66
ATOM     66  C   UNL A   1      41.206  23.967  27.536  1.00  0.00     0.057 A 
ATOM     67  C   UNL A   1      41.623  22.852  28.270  1.00  0.00     0.134 A 
ATOM     68  C   UNL A   1      40.266  23.759  26.521  1.00  0.00     0.134 A 
ATOM     69  F   UNL A   1      42.542  22.986  29.239  1.00  0.00    -0.206 F 
ATOM     70  C   UNL A   1      41.136  21.573  27.995  1.00  0.00     0.040 A 
ATOM     71  C   UNL A   1      39.751  22.489  26.251  1.00  0.00     0.040 A 
ATOM     72  F   UNL A   1      39.827  24.788  25.782  1.00  0.00    -0.206 F 
ATOM     73  C   UNL A   1      40.192  21.391  26.985  1.00  0.00     0.006 A 
ENDBRANCH  45  66
BRANCH  57  74
ATOM     74  C   UNL A   1      47.399  26.910  26.331  1.00  0.00     0.057 A 
ATOM     75  C   UNL A   1      47.658  27.028  24.960  1.00  0.00     0.134 A 
ATOM     76  C   UNL A   1      48.391  26.324  27.128  1.00  0.00     0.134 A 
ATOM     77  F   UNL A   1      46.744  27.567  24.140  1.00  0.00    -0.206 F 
ATOM     78  C   UNL A   1      48.849  26.562  24.400  1.00  0.00     0.040 A 
ATOM     79  C   UNL A   1      49.597  25.877  26.584  1.00  0.00     0.040 A 
ATOM     80  F   UNL A   1      48.211  26.189  28.451  1.00  0.00    -0.206 F 
ATOM     81  C   UNL A   1      49.826  25.991  25.215  1.00  0.00     0.006 A 
ENDBRANCH  57  74
ENDBRANCH  31  32
ENDBRANCH  24  26
ENDBRANCH  23  24
ENDBRANCH  22  23
ENDBRANCH  21  22
ENDBRANCH  20  21
ENDBRANCH  19  20
ENDBRANCH   1  19
TORSDOF 19
ENDMDL
