MODEL 1
REMARK VINA RESULT:     -11.6      0.000      0.000
REMARK SMILES Cc1sc(NC(=O)[C@@H]2[C@@H](C(=O)OCCOCCOC(=O)c3ccc(-c4c5nc(c(-c6c(F)cccc6F)c6ccc([nH]6)c(-c6c(F)cccc6F)c6nc(c(-c7c(F)cccc7F)c7ccc4[nH]7)C=C6)C=C5)cc3)[C@@H]3C=C[C@H]2C3)c(C#N)c1C
REMARK SMILES IDX 14 1 13 2 12 3 10 4 11 5 9 6 8 7 78 8 75 9 77 10 79 11 76 12
REMARK SMILES IDX 6 13 5 14 7 16 4 17 1 18 2 19 3 20 83 21 80 22 84 23 81 24
REMARK SMILES IDX 82 25 15 26 16 27 17 28 18 29 19 30 20 31 21 32 22 33 74 34
REMARK SMILES IDX 23 35 73 36 24 37 25 38 26 39 67 40 27 41 72 42 66 43 68 44
REMARK SMILES IDX 28 45 71 46 65 47 64 48 29 50 55 51 38 52 54 53 39 54 42 55
REMARK SMILES IDX 53 56 69 57 40 58 41 59 52 61 70 62 43 63 30 64 31 65 36 66
REMARK SMILES IDX 32 67 33 68 35 69 37 70 34 71 56 72 57 73 62 74 58 75 59 76
REMARK SMILES IDX 61 77 63 78 60 79 44 80 45 81 50 82 46 83 47 84 49 85 51 86
REMARK SMILES IDX 48 87
REMARK H PARENT 5 15 68 49 42 60
REMARK Flexibility Score: inf
ROOT
ATOM      1  C   UNL A   1      34.944  33.047  27.947  1.00  0.00     0.202 C 
ENDROOT
BRANCH   1   2
ATOM      2  C   UNL A   1      34.127  31.742  28.029  1.00  0.00     0.261 C 
BRANCH   2   3
ATOM      3  O   UNL A   1      33.896  31.020  26.810  1.00  0.00    -0.463 OA
BRANCH   3   4
ATOM      4  C   UNL A   1      33.909  29.680  27.024  1.00  0.00     0.310 C 
ATOM      5  O   UNL A   1      34.829  29.111  27.604  1.00  0.00    -0.252 OA
BRANCH   4   6
ATOM      6  C   UNL A   1      32.758  28.937  26.368  1.00  0.00     0.119 C 
ATOM      7  C   UNL A   1      32.926  27.402  26.047  1.00  0.00     0.100 C 
ATOM      8  C   UNL A   1      32.856  27.399  24.474  1.00  0.00     0.025 C 
ATOM      9  C   UNL A   1      32.667  29.569  24.944  1.00  0.00     0.027 C 
ATOM     10  C   UNL A   1      31.506  27.872  23.967  1.00  0.00    -0.027 C 
ATOM     11  C   UNL A   1      33.637  28.674  24.157  1.00  0.00     0.017 C 
ATOM     12  C   UNL A   1      31.377  29.161  24.301  1.00  0.00    -0.027 C 
BRANCH   7  13
ATOM     13  C   UNL A   1      31.810  26.536  26.657  1.00  0.00     0.229 C 
ATOM     14  N   UNL A   1      31.726  25.184  26.656  1.00  0.00    -0.316 N 
ATOM     15  H   UNL A   1      31.046  24.865  27.292  1.00  0.00     0.170 HD
ATOM     16  O   UNL A   1      30.883  27.055  27.296  1.00  0.00    -0.274 OA
BRANCH  14  17
ATOM     17  C   UNL A   1      32.336  24.135  26.005  1.00  0.00     0.113 A 
ATOM     18  C   UNL A   1      35.114  21.537  25.094  1.00  0.00     0.057 C 
ATOM     19  C   UNL A   1      33.893  22.389  25.215  1.00  0.00     0.008 A 
ATOM     20  S   UNL A   1      33.710  23.366  26.609  1.00  0.00    -0.122 S 
ATOM     21  C   UNL A   1      32.843  22.556  24.326  1.00  0.00    -0.017 A 
ATOM     22  C   UNL A   1      32.003  23.647  24.753  1.00  0.00     0.090 A 
ATOM     23  C   UNL A   1      32.636  21.790  23.053  1.00  0.00     0.047 C 
BRANCH  22  24
ATOM     24  C   UNL A   1      30.941  24.193  23.950  1.00  0.00     0.103 C 
ATOM     25  N   UNL A   1      30.105  24.658  23.299  1.00  0.00    -0.192 NA
ENDBRANCH  22  24
ENDBRANCH  14  17
ENDBRANCH   7  13
ENDBRANCH   4   6
ENDBRANCH   3   4
ENDBRANCH   2   3
ENDBRANCH   1   2
BRANCH   1  26
ATOM     26  O   UNL A   1      34.340  34.272  27.548  1.00  0.00    -0.374 OA
BRANCH  26  27
ATOM     27  C   UNL A   1      34.050  35.273  28.513  1.00  0.00     0.202 C 
BRANCH  27  28
ATOM     28  C   UNL A   1      33.290  34.829  29.749  1.00  0.00     0.261 C 
BRANCH  28  29
ATOM     29  O   UNL A   1      33.811  35.496  30.889  1.00  0.00    -0.460 OA
BRANCH  29  30
ATOM     30  C   UNL A   1      33.236  35.181  32.071  1.00  0.00     0.338 C 
ATOM     31  O   UNL A   1      32.109  35.450  32.445  1.00  0.00    -0.246 OA
BRANCH  30  32
ATOM     32  C   UNL A   1      34.281  34.590  32.922  1.00  0.00     0.060 A 
ATOM     33  C   UNL A   1      35.456  35.334  32.978  1.00  0.00     0.016 A 
ATOM     34  C   UNL A   1      34.268  33.208  33.139  1.00  0.00     0.016 A 
ATOM     35  C   UNL A   1      36.639  34.654  32.818  1.00  0.00     0.010 A 
ATOM     36  C   UNL A   1      35.447  32.535  32.952  1.00  0.00     0.010 A 
ATOM     37  C   UNL A   1      36.592  33.269  32.656  1.00  0.00    -0.014 A 
BRANCH  37  38
ATOM     38  C   UNL A   1      37.816  32.569  32.339  1.00  0.00     0.031 A 
ATOM     39  C   UNL A   1      38.669  32.462  33.535  1.00  0.00     0.074 A 
ATOM     40  C   UNL A   1      38.091  32.001  31.151  1.00  0.00     0.049 A 
ATOM     41  N   UNL A   1      39.649  33.236  33.859  1.00  0.00    -0.248 NA
ATOM     42  C   UNL A   1      38.194  31.592  34.623  1.00  0.00     0.031 C 
ATOM     43  C   UNL A   1      37.219  31.802  29.991  1.00  0.00     0.029 A 
ATOM     44  N   UNL A   1      39.253  31.406  30.764  1.00  0.00    -0.354 N 
ATOM     45  C   UNL A   1      40.065  32.765  35.096  1.00  0.00     0.074 A 
ATOM     46  C   UNL A   1      38.964  32.013  35.626  1.00  0.00     0.031 C 
ATOM     47  C   UNL A   1      37.817  30.947  29.124  1.00  0.00     0.029 A 
ATOM     48  C   UNL A   1      39.159  30.652  29.599  1.00  0.00     0.049 A 
ATOM     49  H   UNL A   1      40.093  31.503  31.269  1.00  0.00     0.167 HD
ATOM     50  C   UNL A   1      41.389  32.695  35.395  1.00  0.00     0.037 A 
ATOM     51  C   UNL A   1      40.115  29.806  29.133  1.00  0.00     0.037 A 
ATOM     52  C   UNL A   1      42.157  33.546  34.513  1.00  0.00     0.049 A 
ATOM     53  C   UNL A   1      41.398  30.199  29.774  1.00  0.00     0.074 A 
ATOM     54  C   UNL A   1      42.164  34.894  34.207  1.00  0.00     0.029 A 
ATOM     55  N   UNL A   1      42.849  32.932  33.497  1.00  0.00    -0.354 N 
ATOM     56  N   UNL A   1      42.012  31.323  29.529  1.00  0.00    -0.248 NA
ATOM     57  C   UNL A   1      41.744  29.560  31.034  1.00  0.00     0.031 C 
ATOM     58  C   UNL A   1      42.457  34.960  32.812  1.00  0.00     0.029 A 
ATOM     59  C   UNL A   1      42.671  33.660  32.352  1.00  0.00     0.049 A 
ATOM     60  H   UNL A   1      43.383  32.109  33.579  1.00  0.00     0.167 HD
ATOM     61  C   UNL A   1      42.479  31.749  30.765  1.00  0.00     0.074 A 
ATOM     62  C   UNL A   1      42.348  30.586  31.641  1.00  0.00     0.031 C 
ATOM     63  C   UNL A   1      42.645  33.078  31.030  1.00  0.00     0.037 A 
BRANCH  50  64
ATOM     64  C   UNL A   1      42.010  31.518  36.126  1.00  0.00     0.057 A 
ATOM     65  C   UNL A   1      42.914  31.794  37.166  1.00  0.00     0.134 A 
ATOM     66  C   UNL A   1      42.013  30.175  35.685  1.00  0.00     0.134 A 
ATOM     67  F   UNL A   1      43.000  33.025  37.692  1.00  0.00    -0.206 F 
ATOM     68  C   UNL A   1      43.830  30.848  37.637  1.00  0.00     0.040 A 
ATOM     69  C   UNL A   1      42.891  29.210  36.183  1.00  0.00     0.040 A 
ATOM     70  F   UNL A   1      41.244  29.716  34.694  1.00  0.00    -0.206 F 
ATOM     71  C   UNL A   1      43.833  29.555  37.132  1.00  0.00     0.006 A 
ENDBRANCH  50  64
BRANCH  51  72
ATOM     72  C   UNL A   1      39.946  28.483  28.483  1.00  0.00     0.057 A 
ATOM     73  C   UNL A   1      40.466  28.226  27.203  1.00  0.00     0.134 A 
ATOM     74  C   UNL A   1      39.539  27.355  29.215  1.00  0.00     0.134 A 
ATOM     75  F   UNL A   1      40.929  29.230  26.444  1.00  0.00    -0.206 F 
ATOM     76  C   UNL A   1      40.594  26.926  26.694  1.00  0.00     0.040 A 
ATOM     77  C   UNL A   1      39.657  26.052  28.717  1.00  0.00     0.040 A 
ATOM     78  F   UNL A   1      39.102  27.471  30.478  1.00  0.00    -0.206 F 
ATOM     79  C   UNL A   1      40.199  25.832  27.457  1.00  0.00     0.006 A 
ENDBRANCH  51  72
BRANCH  63  80
ATOM     80  C   UNL A   1      42.569  34.035  29.872  1.00  0.00     0.057 A 
ATOM     81  C   UNL A   1      43.609  34.245  28.953  1.00  0.00     0.134 A 
ATOM     82  C   UNL A   1      41.345  34.650  29.592  1.00  0.00     0.134 A 
ATOM     83  F   UNL A   1      44.789  33.626  29.091  1.00  0.00    -0.206 F 
ATOM     84  C   UNL A   1      43.446  35.057  27.826  1.00  0.00     0.040 A 
ATOM     85  C   UNL A   1      41.158  35.438  28.455  1.00  0.00     0.040 A 
ATOM     86  F   UNL A   1      40.291  34.454  30.400  1.00  0.00    -0.206 F 
ATOM     87  C   UNL A   1      42.212  35.650  27.570  1.00  0.00     0.006 A 
ENDBRANCH  63  80
ENDBRANCH  37  38
ENDBRANCH  30  32
ENDBRANCH  29  30
ENDBRANCH  28  29
ENDBRANCH  27  28
ENDBRANCH  26  27
ENDBRANCH   1  26
TORSDOF 17
ENDMDL
MODEL 2
REMARK VINA RESULT:     -11.6      5.355     10.325
REMARK SMILES Cc1sc(NC(=O)[C@@H]2[C@@H](C(=O)OCCOCCOC(=O)c3ccc(-c4c5nc(c(-c6c(F)cccc6F)c6ccc([nH]6)c(-c6c(F)cccc6F)c6nc(c(-c7c(F)cccc7F)c7ccc4[nH]7)C=C6)C=C5)cc3)[C@@H]3C=C[C@H]2C3)c(C#N)c1C
REMARK SMILES IDX 14 1 13 2 12 3 10 4 11 5 9 6 8 7 78 8 75 9 77 10 79 11 76 12
REMARK SMILES IDX 6 13 5 14 7 16 4 17 1 18 2 19 3 20 83 21 80 22 84 23 81 24
REMARK SMILES IDX 82 25 15 26 16 27 17 28 18 29 19 30 20 31 21 32 22 33 74 34
REMARK SMILES IDX 23 35 73 36 24 37 25 38 26 39 67 40 27 41 72 42 66 43 68 44
REMARK SMILES IDX 28 45 71 46 65 47 64 48 29 50 55 51 38 52 54 53 39 54 42 55
REMARK SMILES IDX 53 56 69 57 40 58 41 59 52 61 70 62 43 63 30 64 31 65 36 66
REMARK SMILES IDX 32 67 33 68 35 69 37 70 34 71 56 72 57 73 62 74 58 75 59 76
REMARK SMILES IDX 61 77 63 78 60 79 44 80 45 81 50 82 46 83 47 84 49 85 51 86
REMARK SMILES IDX 48 87
REMARK H PARENT 5 15 68 49 42 60
REMARK Flexibility Score: inf
ROOT
ATOM      1  C   UNL A   1      39.228  21.854  26.289  1.00  0.00     0.202 C 
ENDROOT
BRANCH   1   2
ATOM      2  C   UNL A   1      38.114  22.319  25.330  1.00  0.00     0.261 C 
BRANCH   2   3
ATOM      3  O   UNL A   1      36.760  22.277  25.806  1.00  0.00    -0.463 OA
BRANCH   3   4
ATOM      4  C   UNL A   1      36.075  21.250  25.243  1.00  0.00     0.310 C 
ATOM      5  O   UNL A   1      36.609  20.188  24.935  1.00  0.00    -0.252 OA
BRANCH   4   6
ATOM      6  C   UNL A   1      34.631  21.580  24.905  1.00  0.00     0.119 C 
ATOM      7  C   UNL A   1      34.045  22.976  25.350  1.00  0.00     0.100 C 
ATOM      8  C   UNL A   1      32.933  22.537  26.375  1.00  0.00     0.025 C 
ATOM      9  C   UNL A   1      33.804  20.578  25.770  1.00  0.00     0.027 C 
ATOM     10  C   UNL A   1      31.839  21.724  25.709  1.00  0.00    -0.027 C 
ATOM     11  C   UNL A   1      33.637  21.375  27.073  1.00  0.00     0.017 C 
ATOM     12  C   UNL A   1      32.383  20.572  25.299  1.00  0.00    -0.027 C 
BRANCH   7  13
ATOM     13  C   UNL A   1      33.443  23.774  24.181  1.00  0.00     0.229 C 
ATOM     14  N   UNL A   1      33.200  25.106  24.134  1.00  0.00    -0.316 N 
ATOM     15  H   UNL A   1      33.024  25.408  23.214  1.00  0.00     0.170 HD
ATOM     16  O   UNL A   1      33.188  23.221  23.101  1.00  0.00    -0.274 OA
BRANCH  14  17
ATOM     17  C   UNL A   1      33.131  26.151  25.028  1.00  0.00     0.113 A 
ATOM     18  C   UNL A   1      34.363  29.102  27.279  1.00  0.00     0.057 C 
ATOM     19  C   UNL A   1      33.613  28.044  26.538  1.00  0.00     0.008 A 
ATOM     20  S   UNL A   1      34.382  27.264  25.221  1.00  0.00    -0.122 S 
ATOM     21  C   UNL A   1      32.344  27.539  26.768  1.00  0.00    -0.017 A 
ATOM     22  C   UNL A   1      32.121  26.373  25.949  1.00  0.00     0.090 A 
ATOM     23  C   UNL A   1      31.360  28.051  27.777  1.00  0.00     0.047 C 
BRANCH  22  24
ATOM     24  C   UNL A   1      30.979  25.510  26.091  1.00  0.00     0.103 C 
ATOM     25  N   UNL A   1      30.079  24.792  26.212  1.00  0.00    -0.192 NA
ENDBRANCH  22  24
ENDBRANCH  14  17
ENDBRANCH   7  13
ENDBRANCH   4   6
ENDBRANCH   3   4
ENDBRANCH   2   3
ENDBRANCH   1   2
BRANCH   1  26
ATOM     26  O   UNL A   1      40.261  20.979  25.852  1.00  0.00    -0.374 OA
BRANCH  26  27
ATOM     27  C   UNL A   1      41.409  20.770  26.661  1.00  0.00     0.202 C 
BRANCH  27  28
ATOM     28  C   UNL A   1      42.303  19.602  26.286  1.00  0.00     0.261 C 
BRANCH  28  29
ATOM     29  O   UNL A   1      42.838  19.815  24.988  1.00  0.00    -0.460 OA
BRANCH  29  30
ATOM     30  C   UNL A   1      44.185  19.742  24.887  1.00  0.00     0.338 C 
ATOM     31  O   UNL A   1      44.889  18.758  25.017  1.00  0.00    -0.246 OA
BRANCH  30  32
ATOM     32  C   UNL A   1      44.687  21.119  24.756  1.00  0.00     0.060 A 
ATOM     33  C   UNL A   1      45.670  21.457  25.683  1.00  0.00     0.016 A 
ATOM     34  C   UNL A   1      43.860  22.083  24.169  1.00  0.00     0.016 A 
ATOM     35  C   UNL A   1      45.535  22.659  26.334  1.00  0.00     0.010 A 
ATOM     36  C   UNL A   1      43.711  23.269  24.839  1.00  0.00     0.010 A 
ATOM     37  C   UNL A   1      44.457  23.478  25.996  1.00  0.00    -0.014 A 
BRANCH  37  38
ATOM     38  C   UNL A   1      44.225  24.671  26.778  1.00  0.00     0.031 A 
ATOM     39  C   UNL A   1      45.346  25.613  26.620  1.00  0.00     0.074 A 
ATOM     40  C   UNL A   1      43.098  24.932  27.466  1.00  0.00     0.049 A 
ATOM     41  N   UNL A   1      46.355  25.756  27.412  1.00  0.00    -0.248 NA
ATOM     42  C   UNL A   1      45.512  26.245  25.301  1.00  0.00     0.031 C 
ATOM     43  C   UNL A   1      41.824  24.211  27.472  1.00  0.00     0.029 A 
ATOM     44  N   UNL A   1      42.853  25.990  28.286  1.00  0.00    -0.354 N 
ATOM     45  C   UNL A   1      47.155  26.699  26.782  1.00  0.00     0.074 A 
ATOM     46  C   UNL A   1      46.761  26.697  25.402  1.00  0.00     0.031 C 
ATOM     47  C   UNL A   1      40.883  24.972  28.084  1.00  0.00     0.029 A 
ATOM     48  C   UNL A   1      41.515  26.161  28.630  1.00  0.00     0.049 A 
ATOM     49  H   UNL A   1      43.566  26.587  28.612  1.00  0.00     0.167 HD
ATOM     50  C   UNL A   1      47.778  27.665  27.507  1.00  0.00     0.037 A 
ATOM     51  C   UNL A   1      41.000  27.251  29.258  1.00  0.00     0.037 A 
ATOM     52  C   UNL A   1      47.854  27.288  28.901  1.00  0.00     0.049 A 
ATOM     53  C   UNL A   1      42.130  27.948  29.926  1.00  0.00     0.074 A 
ATOM     54  C   UNL A   1      48.393  26.228  29.606  1.00  0.00     0.029 A 
ATOM     55  N   UNL A   1      46.969  27.892  29.761  1.00  0.00    -0.354 N 
ATOM     56  N   UNL A   1      42.790  27.449  30.935  1.00  0.00    -0.248 NA
ATOM     57  C   UNL A   1      42.829  28.975  29.170  1.00  0.00     0.031 C 
ATOM     58  C   UNL A   1      47.478  25.983  30.673  1.00  0.00     0.029 A 
ATOM     59  C   UNL A   1      46.463  26.937  30.601  1.00  0.00     0.049 A 
ATOM     60  H   UNL A   1      46.738  28.849  29.772  1.00  0.00     0.167 HD
ATOM     61  C   UNL A   1      44.117  27.772  30.685  1.00  0.00     0.074 A 
ATOM     62  C   UNL A   1      44.070  28.775  29.623  1.00  0.00     0.031 C 
ATOM     63  C   UNL A   1      45.129  26.983  31.153  1.00  0.00     0.037 A 
BRANCH  50  64
ATOM     64  C   UNL A   1      47.864  29.111  27.055  1.00  0.00     0.057 A 
ATOM     65  C   UNL A   1      49.108  29.757  27.151  1.00  0.00     0.134 A 
ATOM     66  C   UNL A   1      46.769  29.977  26.828  1.00  0.00     0.134 A 
ATOM     67  F   UNL A   1      50.234  29.053  27.346  1.00  0.00    -0.206 F 
ATOM     68  C   UNL A   1      49.235  31.150  27.149  1.00  0.00     0.040 A 
ATOM     69  C   UNL A   1      46.891  31.366  26.777  1.00  0.00     0.040 A 
ATOM     70  F   UNL A   1      45.503  29.563  26.729  1.00  0.00    -0.206 F 
ATOM     71  C   UNL A   1      48.121  31.961  26.981  1.00  0.00     0.006 A 
ENDBRANCH  50  64
BRANCH  51  72
ATOM     72  C   UNL A   1      39.701  27.929  29.022  1.00  0.00     0.057 A 
ATOM     73  C   UNL A   1      38.740  28.039  30.040  1.00  0.00     0.134 A 
ATOM     74  C   UNL A   1      39.495  28.742  27.894  1.00  0.00     0.134 A 
ATOM     75  F   UNL A   1      38.872  27.344  31.178  1.00  0.00    -0.206 F 
ATOM     76  C   UNL A   1      37.654  28.922  29.950  1.00  0.00     0.040 A 
ATOM     77  C   UNL A   1      38.413  29.624  27.791  1.00  0.00     0.040 A 
ATOM     78  F   UNL A   1      40.390  28.780  26.896  1.00  0.00    -0.206 F 
ATOM     79  C   UNL A   1      37.494  29.727  28.827  1.00  0.00     0.006 A 
ENDBRANCH  51  72
BRANCH  63  80
ATOM     80  C   UNL A   1      44.776  25.921  32.159  1.00  0.00     0.057 A 
ATOM     81  C   UNL A   1      44.491  24.587  31.830  1.00  0.00     0.134 A 
ATOM     82  C   UNL A   1      44.879  26.229  33.519  1.00  0.00     0.134 A 
ATOM     83  F   UNL A   1      44.460  24.181  30.554  1.00  0.00    -0.206 F 
ATOM     84  C   UNL A   1      44.285  23.613  32.812  1.00  0.00     0.040 A 
ATOM     85  C   UNL A   1      44.707  25.261  34.509  1.00  0.00     0.040 A 
ATOM     86  F   UNL A   1      45.199  27.474  33.907  1.00  0.00    -0.206 F 
ATOM     87  C   UNL A   1      44.402  23.948  34.158  1.00  0.00     0.006 A 
ENDBRANCH  63  80
ENDBRANCH  37  38
ENDBRANCH  30  32
ENDBRANCH  29  30
ENDBRANCH  28  29
ENDBRANCH  27  28
ENDBRANCH  26  27
ENDBRANCH   1  26
TORSDOF 17
ENDMDL
MODEL 3
REMARK VINA RESULT:     -11.1      4.935      9.770
REMARK SMILES Cc1sc(NC(=O)[C@@H]2[C@@H](C(=O)OCCOCCOC(=O)c3ccc(-c4c5nc(c(-c6c(F)cccc6F)c6ccc([nH]6)c(-c6c(F)cccc6F)c6nc(c(-c7c(F)cccc7F)c7ccc4[nH]7)C=C6)C=C5)cc3)[C@@H]3C=C[C@H]2C3)c(C#N)c1C
REMARK SMILES IDX 14 1 13 2 12 3 10 4 11 5 9 6 8 7 78 8 75 9 77 10 79 11 76 12
REMARK SMILES IDX 6 13 5 14 7 16 4 17 1 18 2 19 3 20 83 21 80 22 84 23 81 24
REMARK SMILES IDX 82 25 15 26 16 27 17 28 18 29 19 30 20 31 21 32 22 33 74 34
REMARK SMILES IDX 23 35 73 36 24 37 25 38 26 39 67 40 27 41 72 42 66 43 68 44
REMARK SMILES IDX 28 45 71 46 65 47 64 48 29 50 55 51 38 52 54 53 39 54 42 55
REMARK SMILES IDX 53 56 69 57 40 58 41 59 52 61 70 62 43 63 30 64 31 65 36 66
REMARK SMILES IDX 32 67 33 68 35 69 37 70 34 71 56 72 57 73 62 74 58 75 59 76
REMARK SMILES IDX 61 77 63 78 60 79 44 80 45 81 50 82 46 83 47 84 49 85 51 86
REMARK SMILES IDX 48 87
REMARK H PARENT 5 15 68 49 42 60
REMARK Flexibility Score: inf
ROOT
ATOM      1  C   UNL A   1      38.921  21.504  25.755  1.00  0.00     0.202 C 
ENDROOT
BRANCH   1   2
ATOM      2  C   UNL A   1      38.021  20.587  24.903  1.00  0.00     0.261 C 
BRANCH   2   3
ATOM      3  O   UNL A   1      36.625  20.528  25.231  1.00  0.00    -0.463 OA
BRANCH   3   4
ATOM      4  C   UNL A   1      35.924  21.475  24.557  1.00  0.00     0.310 C 
ATOM      5  O   UNL A   1      36.402  22.115  23.625  1.00  0.00    -0.252 OA
BRANCH   4   6
ATOM      6  C   UNL A   1      34.553  21.765  25.144  1.00  0.00     0.119 C 
ATOM      7  C   UNL A   1      33.951  23.216  24.995  1.00  0.00     0.100 C 
ATOM      8  C   UNL A   1      33.880  23.682  26.498  1.00  0.00     0.025 C 
ATOM      9  C   UNL A   1      34.772  21.649  26.684  1.00  0.00     0.027 C 
ATOM     10  C   UNL A   1      32.927  22.826  27.311  1.00  0.00    -0.027 C 
ATOM     11  C   UNL A   1      35.180  23.088  27.038  1.00  0.00     0.017 C 
ATOM     12  C   UNL A   1      33.443  21.593  27.372  1.00  0.00    -0.027 C 
BRANCH   7  13
ATOM     13  C   UNL A   1      32.560  23.224  24.342  1.00  0.00     0.229 C 
ATOM     14  N   UNL A   1      31.886  24.294  23.855  1.00  0.00    -0.316 N 
ATOM     15  H   UNL A   1      31.126  24.017  23.294  1.00  0.00     0.170 HD
ATOM     16  O   UNL A   1      31.948  22.165  24.139  1.00  0.00    -0.274 OA
BRANCH  14  17
ATOM     17  C   UNL A   1      31.979  25.666  23.934  1.00  0.00     0.113 A 
ATOM     18  C   UNL A   1      31.300  29.291  25.235  1.00  0.00     0.057 C 
ATOM     19  C   UNL A   1      31.745  28.050  24.533  1.00  0.00     0.008 A 
ATOM     20  S   UNL A   1      31.446  26.536  25.276  1.00  0.00    -0.122 S 
ATOM     21  C   UNL A   1      32.363  27.908  23.301  1.00  0.00    -0.017 A 
ATOM     22  C   UNL A   1      32.398  26.516  22.924  1.00  0.00     0.090 A 
ATOM     23  C   UNL A   1      32.851  29.022  22.425  1.00  0.00     0.047 C 
BRANCH  22  24
ATOM     24  C   UNL A   1      32.803  26.056  21.622  1.00  0.00     0.103 C 
ATOM     25  N   UNL A   1      33.100  25.695  20.564  1.00  0.00    -0.192 NA
ENDBRANCH  22  24
ENDBRANCH  14  17
ENDBRANCH   7  13
ENDBRANCH   4   6
ENDBRANCH   3   4
ENDBRANCH   2   3
ENDBRANCH   1   2
BRANCH   1  26
ATOM     26  O   UNL A   1      40.041  20.988  26.464  1.00  0.00    -0.374 OA
BRANCH  26  27
ATOM     27  C   UNL A   1      40.578  19.718  26.123  1.00  0.00     0.202 C 
BRANCH  27  28
ATOM     28  C   UNL A   1      42.090  19.590  26.141  1.00  0.00     0.261 C 
BRANCH  28  29
ATOM     29  O   UNL A   1      42.672  20.807  25.698  1.00  0.00    -0.460 OA
BRANCH  29  30
ATOM     30  C   UNL A   1      43.945  20.724  25.250  1.00  0.00     0.338 C 
ATOM     31  O   UNL A   1      44.600  19.717  25.056  1.00  0.00    -0.246 OA
BRANCH  30  32
ATOM     32  C   UNL A   1      44.480  22.094  25.195  1.00  0.00     0.060 A 
ATOM     33  C   UNL A   1      45.275  22.438  26.284  1.00  0.00     0.016 A 
ATOM     34  C   UNL A   1      43.789  23.055  24.449  1.00  0.00     0.016 A 
ATOM     35  C   UNL A   1      45.035  23.652  26.880  1.00  0.00     0.010 A 
ATOM     36  C   UNL A   1      43.531  24.253  25.061  1.00  0.00     0.010 A 
ATOM     37  C   UNL A   1      44.049  24.476  26.334  1.00  0.00    -0.014 A 
BRANCH  37  38
ATOM     38  C   UNL A   1      43.690  25.684  27.040  1.00  0.00     0.031 A 
ATOM     39  C   UNL A   1      44.672  26.747  26.770  1.00  0.00     0.074 A 
ATOM     40  C   UNL A   1      42.562  25.849  27.755  1.00  0.00     0.049 A 
ATOM     41  N   UNL A   1      45.680  27.075  27.507  1.00  0.00    -0.248 NA
ATOM     42  C   UNL A   1      44.711  27.295  25.405  1.00  0.00     0.031 C 
ATOM     43  C   UNL A   1      41.393  24.973  27.864  1.00  0.00     0.029 A 
ATOM     44  N   UNL A   1      42.208  26.925  28.510  1.00  0.00    -0.354 N 
ATOM     45  C   UNL A   1      46.329  28.064  26.781  1.00  0.00     0.074 A 
ATOM     46  C   UNL A   1      45.893  27.910  25.422  1.00  0.00     0.031 C 
ATOM     47  C   UNL A   1      40.381  25.651  28.462  1.00  0.00     0.029 A 
ATOM     48  C   UNL A   1      40.871  26.948  28.897  1.00  0.00     0.049 A 
ATOM     49  H   UNL A   1      42.846  27.630  28.763  1.00  0.00     0.167 HD
ATOM     50  C   UNL A   1      46.844  29.153  27.410  1.00  0.00     0.037 A 
ATOM     51  C   UNL A   1      40.238  28.007  29.469  1.00  0.00     0.037 A 
ATOM     52  C   UNL A   1      47.013  28.893  28.823  1.00  0.00     0.049 A 
ATOM     53  C   UNL A   1      41.289  28.890  30.039  1.00  0.00     0.074 A 
ATOM     54  C   UNL A   1      47.709  27.965  29.576  1.00  0.00     0.029 A 
ATOM     55  N   UNL A   1      46.086  29.441  29.676  1.00  0.00    -0.354 N 
ATOM     56  N   UNL A   1      42.041  28.556  31.051  1.00  0.00    -0.248 NA
ATOM     57  C   UNL A   1      41.823  29.940  29.185  1.00  0.00     0.031 C 
ATOM     58  C   UNL A   1      46.870  27.685  30.695  1.00  0.00     0.029 A 
ATOM     59  C   UNL A   1      45.737  28.494  30.600  1.00  0.00     0.049 A 
ATOM     60  H   UNL A   1      45.733  30.358  29.630  1.00  0.00     0.167 HD
ATOM     61  C   UNL A   1      43.306  29.026  30.725  1.00  0.00     0.074 A 
ATOM     62  C   UNL A   1      43.094  29.933  29.598  1.00  0.00     0.031 C 
ATOM     63  C   UNL A   1      44.426  28.409  31.202  1.00  0.00     0.037 A 
BRANCH  50  64
ATOM     64  C   UNL A   1      46.726  30.561  26.856  1.00  0.00     0.057 A 
ATOM     65  C   UNL A   1      47.876  31.368  26.862  1.00  0.00     0.134 A 
ATOM     66  C   UNL A   1      45.520  31.257  26.609  1.00  0.00     0.134 A 
ATOM     67  F   UNL A   1      49.089  30.833  27.066  1.00  0.00    -0.206 F 
ATOM     68  C   UNL A   1      47.816  32.762  26.760  1.00  0.00     0.040 A 
ATOM     69  C   UNL A   1      45.456  32.642  26.457  1.00  0.00     0.040 A 
ATOM     70  F   UNL A   1      44.318  30.675  26.584  1.00  0.00    -0.206 F 
ATOM     71  C   UNL A   1      46.600  33.406  26.575  1.00  0.00     0.006 A 
ENDBRANCH  50  64
BRANCH  51  72
ATOM     72  C   UNL A   1      38.855  28.494  29.241  1.00  0.00     0.057 A 
ATOM     73  C   UNL A   1      37.936  28.603  30.298  1.00  0.00     0.134 A 
ATOM     74  C   UNL A   1      38.496  29.145  28.048  1.00  0.00     0.134 A 
ATOM     75  F   UNL A   1      38.208  28.060  31.493  1.00  0.00    -0.206 F 
ATOM     76  C   UNL A   1      36.745  29.333  30.181  1.00  0.00     0.040 A 
ATOM     77  C   UNL A   1      37.309  29.874  27.918  1.00  0.00     0.040 A 
ATOM     78  F   UNL A   1      39.332  29.177  26.999  1.00  0.00    -0.206 F 
ATOM     79  C   UNL A   1      36.433  29.982  28.990  1.00  0.00     0.006 A 
ENDBRANCH  51  72
BRANCH  63  80
ATOM     80  C   UNL A   1      44.249  27.389  32.294  1.00  0.00     0.057 A 
ATOM     81  C   UNL A   1      44.149  26.007  32.072  1.00  0.00     0.134 A 
ATOM     82  C   UNL A   1      44.334  27.812  33.624  1.00  0.00     0.134 A 
ATOM     83  F   UNL A   1      44.152  25.504  30.830  1.00  0.00    -0.206 F 
ATOM     84  C   UNL A   1      44.104  25.091  33.128  1.00  0.00     0.040 A 
ATOM     85  C   UNL A   1      44.321  26.907  34.687  1.00  0.00     0.040 A 
ATOM     86  F   UNL A   1      44.481  29.115  33.910  1.00  0.00    -0.206 F 
ATOM     87  C   UNL A   1      44.198  25.542  34.442  1.00  0.00     0.006 A 
ENDBRANCH  63  80
ENDBRANCH  37  38
ENDBRANCH  30  32
ENDBRANCH  29  30
ENDBRANCH  28  29
ENDBRANCH  27  28
ENDBRANCH  26  27
ENDBRANCH   1  26
TORSDOF 17
ENDMDL
