MODEL 1
REMARK VINA RESULT:      -9.9      0.000      0.000
REMARK SMILES Cc1noc(C)c1[C@H](C)[NH2+][C@@H](C)CC(=O)OCCOCCOC(=O)c1ccc(-c2c3nc(c(-c4c(F)cccc4F)c4ccc([nH]4)c(-c4c(F)cccc4F)c4nc(c(-c5c(F)cccc5F)c5ccc2[nH]5)C=C4)C=C3)cc1
REMARK SMILES IDX 18 1 17 2 16 3 14 4 15 5 13 6 11 7 12 8 10 9 8 12 9 13 7 14
REMARK SMILES IDX 1 15 2 16 3 17 4 18 5 19 6 20 19 21 20 22 21 23 22 24 23 25
REMARK SMILES IDX 24 26 25 27 26 28 78 29 27 30 77 31 28 32 29 33 30 34 71 35
REMARK SMILES IDX 31 36 76 37 70 38 72 39 32 40 75 41 69 42 68 43 33 45 59 46
REMARK SMILES IDX 42 47 58 48 43 49 46 50 57 51 73 52 44 53 45 54 56 56 74 57
REMARK SMILES IDX 47 58 34 59 35 60 40 61 36 62 37 63 39 64 41 65 38 66 60 67
REMARK SMILES IDX 61 68 66 69 62 70 63 71 65 72 67 73 64 74 48 75 49 76 54 77
REMARK SMILES IDX 50 78 51 79 53 80 55 81 52 82
REMARK H PARENT 10 10 10 11 72 44 46 55
REMARK Flexibility Score: inf
ROOT
ATOM      1  C   UNL A   1      41.064  21.064  26.916  1.00  0.00     0.202 C 
ENDROOT
BRANCH   1   2
ATOM      2  C   UNL A   1      40.094  22.238  27.049  1.00  0.00     0.261 C 
BRANCH   2   3
ATOM      3  O   UNL A   1      38.946  22.122  26.190  1.00  0.00    -0.463 OA
BRANCH   3   4
ATOM      4  C   UNL A   1      38.218  23.260  26.056  1.00  0.00     0.311 C 
ATOM      5  O   UNL A   1      38.432  24.303  26.665  1.00  0.00    -0.252 OA
BRANCH   4   6
ATOM      6  C   UNL A   1      37.027  23.102  25.145  1.00  0.00     0.187 C 
BRANCH   6   7
ATOM      7  C   UNL A   1      35.606  23.312  25.715  1.00  0.00     0.190 C 
ATOM      8  C   UNL A   1      35.226  21.971  26.363  1.00  0.00     0.076 C 
BRANCH   7   9
ATOM      9  N   UNL A   1      34.645  23.678  24.664  1.00  0.00    -0.337 N 
ATOM     10  H   UNL A   1      35.074  23.464  23.765  1.00  0.00     0.347 HD
ATOM     11  H   UNL A   1      33.803  23.143  24.875  1.00  0.00     0.347 HD
BRANCH   9  12
ATOM     12  C   UNL A   1      34.206  25.086  24.624  1.00  0.00     0.216 C 
ATOM     13  C   UNL A   1      33.899  25.435  23.164  1.00  0.00     0.081 C 
BRANCH  12  14
ATOM     14  C   UNL A   1      33.028  25.343  25.520  1.00  0.00     0.074 A 
ATOM     15  C   UNL A   1      31.737  23.053  25.348  1.00  0.00     0.071 C 
ATOM     16  C   UNL A   1      31.966  24.434  25.837  1.00  0.00     0.090 A 
ATOM     17  N   UNL A   1      31.077  24.980  26.671  1.00  0.00    -0.085 NA
ATOM     18  O   UNL A   1      31.546  26.242  26.947  1.00  0.00    -0.361 OA
ATOM     19  C   UNL A   1      32.710  26.456  26.281  1.00  0.00     0.143 A 
ATOM     20  C   UNL A   1      33.345  27.762  26.550  1.00  0.00     0.091 C 
ENDBRANCH  12  14
ENDBRANCH   9  12
ENDBRANCH   7   9
ENDBRANCH   6   7
ENDBRANCH   4   6
ENDBRANCH   3   4
ENDBRANCH   2   3
ENDBRANCH   1   2
BRANCH   1  21
ATOM     21  O   UNL A   1      41.842  20.994  25.725  1.00  0.00    -0.374 OA
BRANCH  21  22
ATOM     22  C   UNL A   1      43.251  21.180  25.857  1.00  0.00     0.202 C 
BRANCH  22  23
ATOM     23  C   UNL A   1      43.929  22.050  24.792  1.00  0.00     0.261 C 
BRANCH  23  24
ATOM     24  O   UNL A   1      43.365  23.374  24.730  1.00  0.00    -0.460 OA
BRANCH  24  25
ATOM     25  C   UNL A   1      44.186  24.374  25.130  1.00  0.00     0.338 C 
ATOM     26  O   UNL A   1      45.299  24.640  24.696  1.00  0.00    -0.246 OA
BRANCH  25  27
ATOM     27  C   UNL A   1      43.468  25.259  26.065  1.00  0.00     0.060 A 
ATOM     28  C   UNL A   1      43.843  26.609  26.120  1.00  0.00     0.016 A 
ATOM     29  C   UNL A   1      42.471  24.767  26.906  1.00  0.00     0.016 A 
ATOM     30  C   UNL A   1      43.238  27.466  27.038  1.00  0.00     0.010 A 
ATOM     31  C   UNL A   1      41.855  25.630  27.817  1.00  0.00     0.010 A 
ATOM     32  C   UNL A   1      42.260  26.974  27.913  1.00  0.00    -0.014 A 
BRANCH  32  33
ATOM     33  C   UNL A   1      41.776  27.813  29.038  1.00  0.00     0.031 A 
ATOM     34  C   UNL A   1      42.511  27.756  30.350  1.00  0.00     0.074 A 
ATOM     35  C   UNL A   1      40.706  28.617  28.900  1.00  0.00     0.049 A 
ATOM     36  N   UNL A   1      42.223  28.328  31.490  1.00  0.00    -0.248 NA
ATOM     37  C   UNL A   1      43.729  26.931  30.379  1.00  0.00     0.031 C 
ATOM     38  C   UNL A   1      39.929  28.791  27.674  1.00  0.00     0.029 A 
ATOM     39  N   UNL A   1      40.082  29.431  29.813  1.00  0.00    -0.354 N 
ATOM     40  C   UNL A   1      43.213  27.918  32.376  1.00  0.00     0.074 A 
ATOM     41  C   UNL A   1      44.087  27.023  31.650  1.00  0.00     0.031 C 
ATOM     42  C   UNL A   1      38.924  29.652  27.914  1.00  0.00     0.029 A 
ATOM     43  C   UNL A   1      38.966  30.059  29.317  1.00  0.00     0.049 A 
ATOM     44  H   UNL A   1      40.404  29.553  30.736  1.00  0.00     0.167 HD
ATOM     45  C   UNL A   1      43.387  28.268  33.673  1.00  0.00     0.037 A 
ATOM     46  C   UNL A   1      38.066  30.851  29.934  1.00  0.00     0.037 A 
ATOM     47  C   UNL A   1      42.524  29.169  34.390  1.00  0.00     0.049 A 
ATOM     48  C   UNL A   1      38.242  31.172  31.396  1.00  0.00     0.074 A 
ATOM     49  C   UNL A   1      42.631  29.607  35.698  1.00  0.00     0.029 A 
ATOM     50  N   UNL A   1      41.391  29.767  33.859  1.00  0.00    -0.354 N 
ATOM     51  N   UNL A   1      39.194  30.799  32.218  1.00  0.00    -0.248 NA
ATOM     52  C   UNL A   1      37.217  32.024  32.017  1.00  0.00     0.031 C 
ATOM     53  C   UNL A   1      41.532  30.427  35.975  1.00  0.00     0.029 A 
ATOM     54  C   UNL A   1      40.774  30.548  34.822  1.00  0.00     0.049 A 
ATOM     55  H   UNL A   1      41.073  29.654  32.934  1.00  0.00     0.167 HD
ATOM     56  C   UNL A   1      38.899  31.395  33.439  1.00  0.00     0.074 A 
ATOM     57  C   UNL A   1      37.688  32.165  33.247  1.00  0.00     0.031 C 
ATOM     58  C   UNL A   1      39.572  31.315  34.614  1.00  0.00     0.037 A 
BRANCH  45  59
ATOM     59  C   UNL A   1      44.543  27.651  34.406  1.00  0.00     0.057 A 
ATOM     60  C   UNL A   1      44.427  26.430  35.083  1.00  0.00     0.134 A 
ATOM     61  C   UNL A   1      45.796  28.277  34.412  1.00  0.00     0.134 A 
ATOM     62  F   UNL A   1      43.251  25.786  35.130  1.00  0.00    -0.206 F 
ATOM     63  C   UNL A   1      45.510  25.868  35.763  1.00  0.00     0.040 A 
ATOM     64  C   UNL A   1      46.893  27.710  35.062  1.00  0.00     0.040 A 
ATOM     65  F   UNL A   1      45.976  29.447  33.780  1.00  0.00    -0.206 F 
ATOM     66  C   UNL A   1      46.750  26.505  35.746  1.00  0.00     0.006 A 
ENDBRANCH  45  59
BRANCH  46  67
ATOM     67  C   UNL A   1      36.905  31.390  29.181  1.00  0.00     0.057 A 
ATOM     68  C   UNL A   1      35.803  30.585  28.871  1.00  0.00     0.134 A 
ATOM     69  C   UNL A   1      36.881  32.715  28.728  1.00  0.00     0.134 A 
ATOM     70  F   UNL A   1      35.777  29.300  29.256  1.00  0.00    -0.206 F 
ATOM     71  C   UNL A   1      34.729  31.069  28.122  1.00  0.00     0.040 A 
ATOM     72  C   UNL A   1      35.802  33.221  28.001  1.00  0.00     0.040 A 
ATOM     73  F   UNL A   1      37.906  33.540  28.990  1.00  0.00    -0.206 F 
ATOM     74  C   UNL A   1      34.726  32.394  27.688  1.00  0.00     0.006 A 
ENDBRANCH  46  67
BRANCH  58  75
ATOM     75  C   UNL A   1      39.039  32.109  35.773  1.00  0.00     0.057 A 
ATOM     76  C   UNL A   1      38.206  31.538  36.743  1.00  0.00     0.134 A 
ATOM     77  C   UNL A   1      39.402  33.451  35.942  1.00  0.00     0.134 A 
ATOM     78  F   UNL A   1      37.812  30.261  36.635  1.00  0.00    -0.206 F 
ATOM     79  C   UNL A   1      37.733  32.282  37.827  1.00  0.00     0.040 A 
ATOM     80  C   UNL A   1      38.959  34.196  37.035  1.00  0.00     0.040 A 
ATOM     81  F   UNL A   1      40.207  34.057  35.056  1.00  0.00    -0.206 F 
ATOM     82  C   UNL A   1      38.116  33.613  37.979  1.00  0.00     0.006 A 
ENDBRANCH  58  75
ENDBRANCH  32  33
ENDBRANCH  25  27
ENDBRANCH  24  25
ENDBRANCH  23  24
ENDBRANCH  22  23
ENDBRANCH  21  22
ENDBRANCH   1  21
TORSDOF 18
ENDMDL
MODEL 2
REMARK VINA RESULT:      -9.8      1.134      1.994
REMARK SMILES Cc1noc(C)c1[C@H](C)[NH2+][C@@H](C)CC(=O)OCCOCCOC(=O)c1ccc(-c2c3nc(c(-c4c(F)cccc4F)c4ccc([nH]4)c(-c4c(F)cccc4F)c4nc(c(-c5c(F)cccc5F)c5ccc2[nH]5)C=C4)C=C3)cc1
REMARK SMILES IDX 18 1 17 2 16 3 14 4 15 5 13 6 11 7 12 8 10 9 8 12 9 13 7 14
REMARK SMILES IDX 1 15 2 16 3 17 4 18 5 19 6 20 19 21 20 22 21 23 22 24 23 25
REMARK SMILES IDX 24 26 25 27 26 28 78 29 27 30 77 31 28 32 29 33 30 34 71 35
REMARK SMILES IDX 31 36 76 37 70 38 72 39 32 40 75 41 69 42 68 43 33 45 59 46
REMARK SMILES IDX 42 47 58 48 43 49 46 50 57 51 73 52 44 53 45 54 56 56 74 57
REMARK SMILES IDX 47 58 34 59 35 60 40 61 36 62 37 63 39 64 41 65 38 66 60 67
REMARK SMILES IDX 61 68 66 69 62 70 63 71 65 72 67 73 64 74 48 75 49 76 54 77
REMARK SMILES IDX 50 78 51 79 53 80 55 81 52 82
REMARK H PARENT 10 10 10 11 72 44 46 55
REMARK Flexibility Score: inf
ROOT
ATOM      1  C   UNL A   1      40.208  20.981  26.109  1.00  0.00     0.202 C 
ENDROOT
BRANCH   1   2
ATOM      2  C   UNL A   1      39.008  21.929  26.139  1.00  0.00     0.261 C 
BRANCH   2   3
ATOM      3  O   UNL A   1      37.805  21.335  25.622  1.00  0.00    -0.463 OA
BRANCH   3   4
ATOM      4  C   UNL A   1      36.712  22.138  25.657  1.00  0.00     0.311 C 
ATOM      5  O   UNL A   1      36.652  23.211  26.249  1.00  0.00    -0.252 OA
BRANCH   4   6
ATOM      6  C   UNL A   1      35.509  21.540  24.973  1.00  0.00     0.187 C 
BRANCH   6   7
ATOM      7  C   UNL A   1      34.676  22.411  24.007  1.00  0.00     0.190 C 
ATOM      8  C   UNL A   1      35.680  22.941  22.971  1.00  0.00     0.076 C 
BRANCH   7   9
ATOM      9  N   UNL A   1      34.011  23.520  24.708  1.00  0.00    -0.337 N 
ATOM     10  H   UNL A   1      33.642  23.155  25.584  1.00  0.00     0.347 HD
ATOM     11  H   UNL A   1      34.729  24.238  24.810  1.00  0.00     0.347 HD
BRANCH   9  12
ATOM     12  C   UNL A   1      32.902  24.185  23.998  1.00  0.00     0.216 C 
ATOM     13  C   UNL A   1      31.694  24.203  24.942  1.00  0.00     0.081 C 
BRANCH  12  14
ATOM     14  C   UNL A   1      33.266  25.565  23.531  1.00  0.00     0.074 A 
ATOM     15  C   UNL A   1      32.878  25.351  20.934  1.00  0.00     0.071 C 
ATOM     16  C   UNL A   1      33.233  26.061  22.187  1.00  0.00     0.090 A 
ATOM     17  N   UNL A   1      33.615  27.339  22.118  1.00  0.00    -0.085 NA
ATOM     18  O   UNL A   1      33.877  27.722  23.412  1.00  0.00    -0.361 OA
ATOM     19  C   UNL A   1      33.656  26.680  24.255  1.00  0.00     0.143 A 
ATOM     20  C   UNL A   1      33.843  26.992  25.686  1.00  0.00     0.091 C 
ENDBRANCH  12  14
ENDBRANCH   9  12
ENDBRANCH   7   9
ENDBRANCH   6   7
ENDBRANCH   4   6
ENDBRANCH   3   4
ENDBRANCH   2   3
ENDBRANCH   1   2
BRANCH   1  21
ATOM     21  O   UNL A   1      41.469  21.540  25.758  1.00  0.00    -0.374 OA
BRANCH  21  22
ATOM     22  C   UNL A   1      42.634  20.804  26.131  1.00  0.00     0.202 C 
BRANCH  22  23
ATOM     23  C   UNL A   1      43.980  21.366  25.657  1.00  0.00     0.261 C 
BRANCH  23  24
ATOM     24  O   UNL A   1      44.356  22.558  26.374  1.00  0.00    -0.460 OA
BRANCH  24  25
ATOM     25  C   UNL A   1      44.169  23.720  25.705  1.00  0.00     0.338 C 
ATOM     26  O   UNL A   1      44.376  23.937  24.518  1.00  0.00    -0.246 OA
BRANCH  25  27
ATOM     27  C   UNL A   1      43.476  24.687  26.577  1.00  0.00     0.060 A 
ATOM     28  C   UNL A   1      43.908  26.020  26.563  1.00  0.00     0.016 A 
ATOM     29  C   UNL A   1      42.447  24.286  27.427  1.00  0.00     0.016 A 
ATOM     30  C   UNL A   1      43.327  26.952  27.421  1.00  0.00     0.010 A 
ATOM     31  C   UNL A   1      41.855  25.224  28.278  1.00  0.00     0.010 A 
ATOM     32  C   UNL A   1      42.316  26.553  28.305  1.00  0.00    -0.014 A 
BRANCH  32  33
ATOM     33  C   UNL A   1      41.852  27.474  29.374  1.00  0.00     0.031 A 
ATOM     34  C   UNL A   1      42.563  27.458  30.699  1.00  0.00     0.074 A 
ATOM     35  C   UNL A   1      40.821  28.314  29.172  1.00  0.00     0.049 A 
ATOM     36  N   UNL A   1      42.283  28.105  31.801  1.00  0.00    -0.248 NA
ATOM     37  C   UNL A   1      43.743  26.584  30.797  1.00  0.00     0.031 C 
ATOM     38  C   UNL A   1      40.072  28.453  27.924  1.00  0.00     0.029 A 
ATOM     39  N   UNL A   1      40.219  29.204  30.027  1.00  0.00    -0.354 N 
ATOM     40  C   UNL A   1      43.240  27.703  32.726  1.00  0.00     0.074 A 
ATOM     41  C   UNL A   1      44.084  26.731  32.067  1.00  0.00     0.031 C 
ATOM     42  C   UNL A   1      39.103  29.370  28.098  1.00  0.00     0.029 A 
ATOM     43  C   UNL A   1      39.140  29.852  29.477  1.00  0.00     0.049 A 
ATOM     44  H   UNL A   1      40.532  29.364  30.947  1.00  0.00     0.167 HD
ATOM     45  C   UNL A   1      43.408  28.116  34.005  1.00  0.00     0.037 A 
ATOM     46  C   UNL A   1      38.267  30.715  30.032  1.00  0.00     0.037 A 
ATOM     47  C   UNL A   1      42.574  29.093  34.655  1.00  0.00     0.049 A 
ATOM     48  C   UNL A   1      38.434  31.110  31.478  1.00  0.00     0.074 A 
ATOM     49  C   UNL A   1      42.680  29.598  35.939  1.00  0.00     0.029 A 
ATOM     50  N   UNL A   1      41.478  29.709  34.071  1.00  0.00    -0.354 N 
ATOM     51  N   UNL A   1      39.355  30.743  32.336  1.00  0.00    -0.248 NA
ATOM     52  C   UNL A   1      37.438  32.039  32.031  1.00  0.00     0.031 C 
ATOM     53  C   UNL A   1      41.615  30.479  36.150  1.00  0.00     0.029 A 
ATOM     54  C   UNL A   1      40.881  30.568  34.978  1.00  0.00     0.049 A 
ATOM     55  H   UNL A   1      41.170  29.559  33.148  1.00  0.00     0.167 HD
ATOM     56  C   UNL A   1      39.068  31.418  33.517  1.00  0.00     0.074 A 
ATOM     57  C   UNL A   1      37.896  32.228  33.261  1.00  0.00     0.031 C 
ATOM     58  C   UNL A   1      39.719  31.375  34.707  1.00  0.00     0.037 A 
BRANCH  45  59
ATOM     59  C   UNL A   1      44.523  27.492  34.791  1.00  0.00     0.057 A 
ATOM     60  C   UNL A   1      45.808  28.051  34.832  1.00  0.00     0.134 A 
ATOM     61  C   UNL A   1      44.302  26.329  35.539  1.00  0.00     0.134 A 
ATOM     62  F   UNL A   1      46.092  29.155  34.125  1.00  0.00    -0.206 F 
ATOM     63  C   UNL A   1      46.838  27.459  35.567  1.00  0.00     0.040 A 
ATOM     64  C   UNL A   1      45.315  25.746  36.302  1.00  0.00     0.040 A 
ATOM     65  F   UNL A   1      43.094  25.744  35.548  1.00  0.00    -0.206 F 
ATOM     66  C   UNL A   1      46.590  26.307  36.311  1.00  0.00     0.006 A 
ENDBRANCH  45  59
BRANCH  46  67
ATOM     67  C   UNL A   1      37.143  31.261  29.230  1.00  0.00     0.057 A 
ATOM     68  C   UNL A   1      37.184  32.561  28.713  1.00  0.00     0.134 A 
ATOM     69  C   UNL A   1      35.987  30.508  28.986  1.00  0.00     0.134 A 
ATOM     70  F   UNL A   1      38.251  33.342  28.934  1.00  0.00    -0.206 F 
ATOM     71  C   UNL A   1      36.110  33.100  28.000  1.00  0.00     0.040 A 
ATOM     72  C   UNL A   1      34.918  31.023  28.252  1.00  0.00     0.040 A 
ATOM     73  F   UNL A   1      35.883  29.254  29.454  1.00  0.00    -0.206 F 
ATOM     74  C   UNL A   1      34.975  32.327  27.764  1.00  0.00     0.006 A 
ENDBRANCH  46  67
BRANCH  58  75
ATOM     75  C   UNL A   1      39.203  32.254  35.810  1.00  0.00     0.057 A 
ATOM     76  C   UNL A   1      38.299  31.787  36.772  1.00  0.00     0.134 A 
ATOM     77  C   UNL A   1      39.654  33.575  35.936  1.00  0.00     0.134 A 
ATOM     78  F   UNL A   1      37.820  30.536  36.703  1.00  0.00    -0.206 F 
ATOM     79  C   UNL A   1      37.842  32.609  37.804  1.00  0.00     0.040 A 
ATOM     80  C   UNL A   1      39.227  34.397  36.979  1.00  0.00     0.040 A 
ATOM     81  F   UNL A   1      40.529  34.084  35.055  1.00  0.00    -0.206 F 
ATOM     82  C   UNL A   1      38.313  33.917  37.914  1.00  0.00     0.006 A 
ENDBRANCH  58  75
ENDBRANCH  32  33
ENDBRANCH  25  27
ENDBRANCH  24  25
ENDBRANCH  23  24
ENDBRANCH  22  23
ENDBRANCH  21  22
ENDBRANCH   1  21
TORSDOF 18
ENDMDL
MODEL 3
REMARK VINA RESULT:      -9.7      2.702      8.067
REMARK SMILES Cc1noc(C)c1[C@H](C)[NH2+][C@@H](C)CC(=O)OCCOCCOC(=O)c1ccc(-c2c3nc(c(-c4c(F)cccc4F)c4ccc([nH]4)c(-c4c(F)cccc4F)c4nc(c(-c5c(F)cccc5F)c5ccc2[nH]5)C=C4)C=C3)cc1
REMARK SMILES IDX 18 1 17 2 16 3 14 4 15 5 13 6 11 7 12 8 10 9 8 12 9 13 7 14
REMARK SMILES IDX 1 15 2 16 3 17 4 18 5 19 6 20 19 21 20 22 21 23 22 24 23 25
REMARK SMILES IDX 24 26 25 27 26 28 78 29 27 30 77 31 28 32 29 33 30 34 71 35
REMARK SMILES IDX 31 36 76 37 70 38 72 39 32 40 75 41 69 42 68 43 33 45 59 46
REMARK SMILES IDX 42 47 58 48 43 49 46 50 57 51 73 52 44 53 45 54 56 56 74 57
REMARK SMILES IDX 47 58 34 59 35 60 40 61 36 62 37 63 39 64 41 65 38 66 60 67
REMARK SMILES IDX 61 68 66 69 62 70 63 71 65 72 67 73 64 74 48 75 49 76 54 77
REMARK SMILES IDX 50 78 51 79 53 80 55 81 52 82
REMARK H PARENT 10 10 10 11 72 44 46 55
REMARK Flexibility Score: inf
ROOT
ATOM      1  C   UNL A   1      32.959  29.419  26.326  1.00  0.00     0.202 C 
ENDROOT
BRANCH   1   2
ATOM      2  C   UNL A   1      32.620  28.035  25.772  1.00  0.00     0.261 C 
BRANCH   2   3
ATOM      3  O   UNL A   1      33.512  27.006  26.235  1.00  0.00    -0.463 OA
BRANCH   3   4
ATOM      4  C   UNL A   1      34.015  26.207  25.261  1.00  0.00     0.311 C 
ATOM      5  O   UNL A   1      34.696  25.206  25.460  1.00  0.00    -0.252 OA
BRANCH   4   6
ATOM      6  C   UNL A   1      33.746  26.720  23.869  1.00  0.00     0.187 C 
BRANCH   6   7
ATOM      7  C   UNL A   1      33.446  25.714  22.736  1.00  0.00     0.190 C 
ATOM      8  C   UNL A   1      32.231  26.292  21.992  1.00  0.00     0.076 C 
BRANCH   7   9
ATOM      9  N   UNL A   1      33.150  24.373  23.261  1.00  0.00    -0.337 N 
ATOM     10  H   UNL A   1      33.595  23.695  22.645  1.00  0.00     0.347 HD
ATOM     11  H   UNL A   1      33.501  24.378  24.218  1.00  0.00     0.347 HD
BRANCH   9  12
ATOM     12  C   UNL A   1      31.727  24.003  23.376  1.00  0.00     0.216 C 
ATOM     13  C   UNL A   1      31.595  22.532  22.963  1.00  0.00     0.081 C 
BRANCH  12  14
ATOM     14  C   UNL A   1      31.181  24.247  24.754  1.00  0.00     0.074 A 
ATOM     15  C   UNL A   1      32.481  22.434  26.154  1.00  0.00     0.071 C 
ATOM     16  C   UNL A   1      31.536  23.560  25.960  1.00  0.00     0.090 A 
ATOM     17  N   UNL A   1      30.866  24.029  27.016  1.00  0.00    -0.085 NA
ATOM     18  O   UNL A   1      30.080  25.051  26.537  1.00  0.00    -0.361 OA
ATOM     19  C   UNL A   1      30.276  25.195  25.201  1.00  0.00     0.143 A 
ATOM     20  C   UNL A   1      29.530  26.310  24.584  1.00  0.00     0.091 C 
ENDBRANCH  12  14
ENDBRANCH   9  12
ENDBRANCH   7   9
ENDBRANCH   6   7
ENDBRANCH   4   6
ENDBRANCH   3   4
ENDBRANCH   2   3
ENDBRANCH   1   2
BRANCH   1  21
ATOM     21  O   UNL A   1      31.896  30.161  26.915  1.00  0.00    -0.374 OA
BRANCH  21  22
ATOM     22  C   UNL A   1      31.420  31.298  26.197  1.00  0.00     0.202 C 
BRANCH  22  23
ATOM     23  C   UNL A   1      31.426  32.635  26.947  1.00  0.00     0.261 C 
BRANCH  23  24
ATOM     24  O   UNL A   1      32.692  33.315  26.838  1.00  0.00    -0.460 OA
BRANCH  24  25
ATOM     25  C   UNL A   1      33.117  33.934  27.965  1.00  0.00     0.338 C 
ATOM     26  O   UNL A   1      32.527  34.790  28.611  1.00  0.00    -0.246 OA
BRANCH  25  27
ATOM     27  C   UNL A   1      34.351  33.288  28.448  1.00  0.00     0.060 A 
ATOM     28  C   UNL A   1      34.271  31.966  28.908  1.00  0.00     0.016 A 
ATOM     29  C   UNL A   1      35.561  33.979  28.491  1.00  0.00     0.016 A 
ATOM     30  C   UNL A   1      35.398  31.340  29.437  1.00  0.00     0.010 A 
ATOM     31  C   UNL A   1      36.694  33.346  29.010  1.00  0.00     0.010 A 
ATOM     32  C   UNL A   1      36.611  32.037  29.518  1.00  0.00    -0.014 A 
BRANCH  32  33
ATOM     33  C   UNL A   1      37.750  31.467  30.282  1.00  0.00     0.031 A 
ATOM     34  C   UNL A   1      38.640  30.460  29.606  1.00  0.00     0.074 A 
ATOM     35  C   UNL A   1      37.996  31.839  31.550  1.00  0.00     0.049 A 
ATOM     36  N   UNL A   1      39.634  29.767  30.096  1.00  0.00    -0.248 NA
ATOM     37  C   UNL A   1      38.360  30.191  28.186  1.00  0.00     0.031 C 
ATOM     38  C   UNL A   1      37.233  32.831  32.307  1.00  0.00     0.029 A 
ATOM     39  N   UNL A   1      38.958  31.411  32.432  1.00  0.00    -0.354 N 
ATOM     40  C   UNL A   1      40.086  28.968  29.052  1.00  0.00     0.074 A 
ATOM     41  C   UNL A   1      39.236  29.236  27.914  1.00  0.00     0.031 C 
ATOM     42  C   UNL A   1      37.752  32.928  33.544  1.00  0.00     0.029 A 
ATOM     43  C   UNL A   1      38.856  31.981  33.677  1.00  0.00     0.049 A 
ATOM     44  H   UNL A   1      39.655  30.758  32.194  1.00  0.00     0.167 HD
ATOM     45  C   UNL A   1      41.126  28.099  29.039  1.00  0.00     0.037 A 
ATOM     46  C   UNL A   1      39.558  31.744  34.803  1.00  0.00     0.037 A 
ATOM     47  C   UNL A   1      41.979  27.843  30.169  1.00  0.00     0.049 A 
ATOM     48  C   UNL A   1      40.667  30.723  34.783  1.00  0.00     0.074 A 
ATOM     49  C   UNL A   1      43.075  27.001  30.248  1.00  0.00     0.029 A 
ATOM     50  N   UNL A   1      41.830  28.424  31.419  1.00  0.00    -0.354 N 
ATOM     51  N   UNL A   1      41.102  29.991  33.786  1.00  0.00    -0.248 NA
ATOM     52  C   UNL A   1      41.383  30.496  36.047  1.00  0.00     0.031 C 
ATOM     53  C   UNL A   1      43.555  27.032  31.561  1.00  0.00     0.029 A 
ATOM     54  C   UNL A   1      42.795  27.937  32.284  1.00  0.00     0.049 A 
ATOM     55  H   UNL A   1      41.139  29.085  31.656  1.00  0.00     0.167 HD
ATOM     56  C   UNL A   1      42.158  29.243  34.293  1.00  0.00     0.074 A 
ATOM     57  C   UNL A   1      42.307  29.619  35.683  1.00  0.00     0.031 C 
ATOM     58  C   UNL A   1      42.937  28.327  33.664  1.00  0.00     0.037 A 
BRANCH  45  59
ATOM     59  C   UNL A   1      41.379  27.345  27.767  1.00  0.00     0.057 A 
ATOM     60  C   UNL A   1      40.803  26.092  27.518  1.00  0.00     0.134 A 
ATOM     61  C   UNL A   1      42.191  27.891  26.765  1.00  0.00     0.134 A 
ATOM     62  F   UNL A   1      40.028  25.504  28.442  1.00  0.00    -0.206 F 
ATOM     63  C   UNL A   1      41.048  25.399  26.331  1.00  0.00     0.040 A 
ATOM     64  C   UNL A   1      42.419  27.222  25.562  1.00  0.00     0.040 A 
ATOM     65  F   UNL A   1      42.771  29.089  26.937  1.00  0.00    -0.206 F 
ATOM     66  C   UNL A   1      41.852  25.968  25.345  1.00  0.00     0.006 A 
ENDBRANCH  45  59
BRANCH  46  67
ATOM     67  C   UNL A   1      39.232  32.474  36.055  1.00  0.00     0.057 A 
ATOM     68  C   UNL A   1      38.343  31.941  36.995  1.00  0.00     0.134 A 
ATOM     69  C   UNL A   1      39.778  33.735  36.328  1.00  0.00     0.134 A 
ATOM     70  F   UNL A   1      37.768  30.749  36.780  1.00  0.00    -0.206 F 
ATOM     71  C   UNL A   1      37.993  32.642  38.151  1.00  0.00     0.040 A 
ATOM     72  C   UNL A   1      39.457  34.436  37.491  1.00  0.00     0.040 A 
ATOM     73  F   UNL A   1      40.636  34.303  35.467  1.00  0.00    -0.206 F 
ATOM     74  C   UNL A   1      38.555  33.892  38.403  1.00  0.00     0.006 A 
ENDBRANCH  46  67
BRANCH  58  75
ATOM     75  C   UNL A   1      44.045  27.698  34.459  1.00  0.00     0.057 A 
ATOM     76  C   UNL A   1      43.881  26.475  35.124  1.00  0.00     0.134 A 
ATOM     77  C   UNL A   1      45.307  28.303  34.524  1.00  0.00     0.134 A 
ATOM     78  F   UNL A   1      42.695  25.848  35.111  1.00  0.00    -0.206 F 
ATOM     79  C   UNL A   1      44.925  25.891  35.844  1.00  0.00     0.040 A 
ATOM     80  C   UNL A   1      46.366  27.715  35.216  1.00  0.00     0.040 A 
ATOM     81  F   UNL A   1      45.536  29.469  33.902  1.00  0.00    -0.206 F 
ATOM     82  C   UNL A   1      46.175  26.508  35.884  1.00  0.00     0.006 A 
ENDBRANCH  58  75
ENDBRANCH  32  33
ENDBRANCH  25  27
ENDBRANCH  24  25
ENDBRANCH  23  24
ENDBRANCH  22  23
ENDBRANCH  21  22
ENDBRANCH   1  21
TORSDOF 18
ENDMDL
