MODEL 1
REMARK VINA RESULT:     -11.2      0.000      0.000
REMARK SMILES O=C(Nc1ccc(C(=O)OCCOCCOC(=O)c2ccc(-c3c4nc(c(-c5c(F)cccc5F)c5ccc([nH]5)c(-c5c(F)cccc5F)c5nc(c(-c6c(F)cccc6F)c6ccc3[nH]6)C=C5)C=C4)cc2)cc1)c1cc(F)cc(Br)c1
REMARK SMILES IDX 13 1 12 2 11 3 10 4 8 5 9 6 7 7 4 8 5 9 74 10 6 11 73 12
REMARK SMILES IDX 3 13 1 14 2 15 75 17 76 18 82 19 77 20 80 21 78 22 79 23
REMARK SMILES IDX 81 24 14 25 15 26 16 27 17 28 18 29 19 30 20 31 72 32 21 33
REMARK SMILES IDX 71 34 22 35 23 36 24 37 65 38 25 39 70 40 64 41 66 42 26 43
REMARK SMILES IDX 69 44 63 45 62 46 27 48 53 49 36 50 52 51 37 52 40 53 51 54
REMARK SMILES IDX 67 55 38 56 39 57 50 59 68 60 41 61 28 62 29 63 34 64 30 65
REMARK SMILES IDX 31 66 33 67 35 68 32 69 54 70 55 71 60 72 56 73 57 74 59 75
REMARK SMILES IDX 61 76 58 77 42 78 43 79 48 80 44 81 45 82 47 83 49 84 46 85
REMARK H PARENT 3 16 66 47 40 58
REMARK Flexibility Score: inf
ROOT
ATOM      1  O   UNL A   1      41.027  21.037  25.598  1.00  0.00    -0.374 OA
ENDROOT
BRANCH   1   2
ATOM      2  C   UNL A   1      39.881  21.586  26.247  1.00  0.00     0.202 C 
BRANCH   2   3
ATOM      3  C   UNL A   1      38.533  21.320  25.572  1.00  0.00     0.261 C 
BRANCH   3   4
ATOM      4  O   UNL A   1      37.740  22.516  25.529  1.00  0.00    -0.460 OA
BRANCH   4   5
ATOM      5  C   UNL A   1      36.692  22.472  24.672  1.00  0.00     0.338 C 
ATOM      6  O   UNL A   1      36.742  22.505  23.451  1.00  0.00    -0.246 OA
BRANCH   5   7
ATOM      7  C   UNL A   1      35.430  22.243  25.410  1.00  0.00     0.060 A 
ATOM      8  C   UNL A   1      32.894  22.045  26.539  1.00  0.00     0.041 A 
ATOM      9  C   UNL A   1      33.154  21.406  25.329  1.00  0.00     0.027 A 
ATOM     10  C   UNL A   1      33.945  22.614  27.270  1.00  0.00     0.027 A 
ATOM     11  C   UNL A   1      34.415  21.533  24.751  1.00  0.00     0.018 A 
ATOM     12  C   UNL A   1      35.216  22.723  26.704  1.00  0.00     0.018 A 
BRANCH   8  13
ATOM     13  N   UNL A   1      31.550  22.206  26.913  1.00  0.00    -0.322 N 
ATOM     14  O   UNL A   1      29.642  23.395  27.250  1.00  0.00    -0.269 OA
ATOM     15  C   UNL A   1      30.761  23.330  26.750  1.00  0.00     0.255 C 
ATOM     16  H   UNL A   1      31.121  21.430  27.340  1.00  0.00     0.170 HD
BRANCH  15  17
ATOM     17  C   UNL A   1      31.226  24.445  25.883  1.00  0.00     0.044 A 
ATOM     18  C   UNL A   1      31.051  24.403  24.494  1.00  0.00     0.053 A 
ATOM     19  C   UNL A   1      31.880  25.527  26.478  1.00  0.00     0.029 A 
ATOM     20  C   UNL A   1      31.633  25.388  23.707  1.00  0.00     0.125 A 
ATOM     21  C   UNL A   1      32.435  26.517  25.667  1.00  0.00     0.021 A 
ATOM     22  F   UNL A   1      31.544  25.301  22.374  1.00  0.00    -0.207 F 
ATOM     23  C   UNL A   1      32.334  26.442  24.278  1.00  0.00     0.055 A 
ATOM     24  Br  UNL A   1      33.366  27.958  26.456  1.00  0.00    -0.051 Br
ENDBRANCH  15  17
ENDBRANCH   8  13
ENDBRANCH   5   7
ENDBRANCH   4   5
ENDBRANCH   3   4
ENDBRANCH   2   3
ENDBRANCH   1   2
BRANCH   1  25
ATOM     25  C   UNL A   1      42.177  20.781  26.407  1.00  0.00     0.202 C 
BRANCH  25  26
ATOM     26  C   UNL A   1      43.518  21.276  25.856  1.00  0.00     0.261 C 
BRANCH  26  27
ATOM     27  O   UNL A   1      43.932  22.504  26.485  1.00  0.00    -0.460 OA
BRANCH  27  28
ATOM     28  C   UNL A   1      43.676  23.621  25.766  1.00  0.00     0.338 C 
ATOM     29  O   UNL A   1      43.834  23.784  24.564  1.00  0.00    -0.246 OA
BRANCH  28  30
ATOM     30  C   UNL A   1      42.993  24.617  26.611  1.00  0.00     0.060 A 
ATOM     31  C   UNL A   1      43.521  25.915  26.635  1.00  0.00     0.016 A 
ATOM     32  C   UNL A   1      41.904  24.278  27.416  1.00  0.00     0.016 A 
ATOM     33  C   UNL A   1      42.993  26.866  27.504  1.00  0.00     0.010 A 
ATOM     34  C   UNL A   1      41.381  25.233  28.294  1.00  0.00     0.010 A 
ATOM     35  C   UNL A   1      41.945  26.520  28.367  1.00  0.00    -0.014 A 
BRANCH  35  36
ATOM     36  C   UNL A   1      41.540  27.458  29.440  1.00  0.00     0.031 A 
ATOM     37  C   UNL A   1      42.296  27.450  30.740  1.00  0.00     0.074 A 
ATOM     38  C   UNL A   1      40.530  28.324  29.249  1.00  0.00     0.049 A 
ATOM     39  N   UNL A   1      42.091  28.154  31.823  1.00  0.00    -0.248 NA
ATOM     40  C   UNL A   1      43.436  26.524  30.828  1.00  0.00     0.031 C 
ATOM     41  C   UNL A   1      39.751  28.459  28.021  1.00  0.00     0.029 A 
ATOM     42  N   UNL A   1      39.986  29.255  30.099  1.00  0.00    -0.354 N 
ATOM     43  C   UNL A   1      43.071  27.755  32.722  1.00  0.00     0.074 A 
ATOM     44  C   UNL A   1      43.852  26.726  32.069  1.00  0.00     0.031 C 
ATOM     45  C   UNL A   1      38.821  29.412  28.198  1.00  0.00     0.029 A 
ATOM     46  C   UNL A   1      38.920  29.932  29.561  1.00  0.00     0.049 A 
ATOM     47  H   UNL A   1      40.329  29.422  31.007  1.00  0.00     0.167 HD
ATOM     48  C   UNL A   1      43.307  28.212  33.975  1.00  0.00     0.037 A 
ATOM     49  C   UNL A   1      38.105  30.851  30.114  1.00  0.00     0.037 A 
ATOM     50  C   UNL A   1      42.529  29.234  34.625  1.00  0.00     0.049 A 
ATOM     51  C   UNL A   1      38.338  31.285  31.536  1.00  0.00     0.074 A 
ATOM     52  C   UNL A   1      42.695  29.772  35.889  1.00  0.00     0.029 A 
ATOM     53  N   UNL A   1      41.433  29.869  34.060  1.00  0.00    -0.354 N 
ATOM     54  N   UNL A   1      39.277  30.914  32.372  1.00  0.00    -0.248 NA
ATOM     55  C   UNL A   1      37.396  32.269  32.092  1.00  0.00     0.031 C 
ATOM     56  C   UNL A   1      41.672  30.702  36.106  1.00  0.00     0.029 A 
ATOM     57  C   UNL A   1      40.898  30.776  34.959  1.00  0.00     0.049 A 
ATOM     58  H   UNL A   1      41.086  29.699  33.154  1.00  0.00     0.167 HD
ATOM     59  C   UNL A   1      39.057  31.636  33.539  1.00  0.00     0.074 A 
ATOM     60  C   UNL A   1      37.902  32.475  33.300  1.00  0.00     0.031 C 
ATOM     61  C   UNL A   1      39.752  31.609  34.703  1.00  0.00     0.037 A 
BRANCH  48  62
ATOM     62  C   UNL A   1      44.442  27.591  34.734  1.00  0.00     0.057 A 
ATOM     63  C   UNL A   1      45.736  28.127  34.698  1.00  0.00     0.134 A 
ATOM     64  C   UNL A   1      44.232  26.460  35.533  1.00  0.00     0.134 A 
ATOM     65  F   UNL A   1      46.006  29.201  33.940  1.00  0.00    -0.206 F 
ATOM     66  C   UNL A   1      46.785  27.548  35.414  1.00  0.00     0.040 A 
ATOM     67  C   UNL A   1      45.268  25.887  36.272  1.00  0.00     0.040 A 
ATOM     68  F   UNL A   1      43.016  25.899  35.614  1.00  0.00    -0.206 F 
ATOM     69  C   UNL A   1      46.550  26.427  36.209  1.00  0.00     0.006 A 
ENDBRANCH  48  62
BRANCH  49  70
ATOM     70  C   UNL A   1      36.983  31.417  29.327  1.00  0.00     0.057 A 
ATOM     71  C   UNL A   1      35.808  30.688  29.114  1.00  0.00     0.134 A 
ATOM     72  C   UNL A   1      37.064  32.692  28.753  1.00  0.00     0.134 A 
ATOM     73  F   UNL A   1      35.680  29.452  29.618  1.00  0.00    -0.206 F 
ATOM     74  C   UNL A   1      34.759  31.198  28.346  1.00  0.00     0.040 A 
ATOM     75  C   UNL A   1      36.015  33.224  28.003  1.00  0.00     0.040 A 
ATOM     76  F   UNL A   1      38.164  33.441  28.921  1.00  0.00    -0.206 F 
ATOM     77  C   UNL A   1      34.861  32.474  27.792  1.00  0.00     0.006 A 
ENDBRANCH  49  70
BRANCH  61  78
ATOM     78  C   UNL A   1      39.304  32.539  35.794  1.00  0.00     0.057 A 
ATOM     79  C   UNL A   1      38.356  32.153  36.750  1.00  0.00     0.134 A 
ATOM     80  C   UNL A   1      39.863  33.817  35.914  1.00  0.00     0.134 A 
ATOM     81  F   UNL A   1      37.774  30.947  36.684  1.00  0.00    -0.206 F 
ATOM     82  C   UNL A   1      37.966  33.016  37.776  1.00  0.00     0.040 A 
ATOM     83  C   UNL A   1      39.499  34.679  36.950  1.00  0.00     0.040 A 
ATOM     84  F   UNL A   1      40.784  34.243  35.036  1.00  0.00    -0.206 F 
ATOM     85  C   UNL A   1      38.544  34.281  37.881  1.00  0.00     0.006 A 
ENDBRANCH  61  78
ENDBRANCH  35  36
ENDBRANCH  28  30
ENDBRANCH  27  28
ENDBRANCH  26  27
ENDBRANCH  25  26
ENDBRANCH   1  25
TORSDOF 16
ENDMDL
MODEL 2
REMARK VINA RESULT:     -11.0      0.520      6.146
REMARK SMILES O=C(Nc1ccc(C(=O)OCCOCCOC(=O)c2ccc(-c3c4nc(c(-c5c(F)cccc5F)c5ccc([nH]5)c(-c5c(F)cccc5F)c5nc(c(-c6c(F)cccc6F)c6ccc3[nH]6)C=C5)C=C4)cc2)cc1)c1cc(F)cc(Br)c1
REMARK SMILES IDX 13 1 12 2 11 3 10 4 8 5 9 6 7 7 4 8 5 9 74 10 6 11 73 12
REMARK SMILES IDX 3 13 1 14 2 15 75 17 76 18 82 19 77 20 80 21 78 22 79 23
REMARK SMILES IDX 81 24 14 25 15 26 16 27 17 28 18 29 19 30 20 31 72 32 21 33
REMARK SMILES IDX 71 34 22 35 23 36 24 37 65 38 25 39 70 40 64 41 66 42 26 43
REMARK SMILES IDX 69 44 63 45 62 46 27 48 53 49 36 50 52 51 37 52 40 53 51 54
REMARK SMILES IDX 67 55 38 56 39 57 50 59 68 60 41 61 28 62 29 63 34 64 30 65
REMARK SMILES IDX 31 66 33 67 35 68 32 69 54 70 55 71 60 72 56 73 57 74 59 75
REMARK SMILES IDX 61 76 58 77 42 78 43 79 48 80 44 81 45 82 47 83 49 84 46 85
REMARK H PARENT 3 16 66 47 40 58
REMARK Flexibility Score: inf
ROOT
ATOM      1  O   UNL A   1      41.178  21.791  26.478  1.00  0.00    -0.374 OA
ENDROOT
BRANCH   1   2
ATOM      2  C   UNL A   1      39.979  21.095  26.140  1.00  0.00     0.202 C 
BRANCH   2   3
ATOM      3  C   UNL A   1      38.763  21.967  25.813  1.00  0.00     0.261 C 
BRANCH   3   4
ATOM      4  O   UNL A   1      37.802  21.232  25.041  1.00  0.00    -0.460 OA
BRANCH   4   5
ATOM      5  C   UNL A   1      36.819  21.986  24.492  1.00  0.00     0.338 C 
ATOM      6  O   UNL A   1      36.855  22.567  23.417  1.00  0.00    -0.246 OA
BRANCH   5   7
ATOM      7  C   UNL A   1      35.596  21.924  25.322  1.00  0.00     0.060 A 
ATOM      8  C   UNL A   1      33.116  21.970  26.584  1.00  0.00     0.041 A 
ATOM      9  C   UNL A   1      33.338  21.065  25.549  1.00  0.00     0.027 A 
ATOM     10  C   UNL A   1      34.185  22.709  27.109  1.00  0.00     0.027 A 
ATOM     11  C   UNL A   1      34.570  21.067  24.899  1.00  0.00     0.018 A 
ATOM     12  C   UNL A   1      35.427  22.695  26.474  1.00  0.00     0.018 A 
BRANCH   8  13
ATOM     13  N   UNL A   1      31.787  22.200  26.972  1.00  0.00    -0.322 N 
ATOM     14  O   UNL A   1      29.919  23.467  27.251  1.00  0.00    -0.269 OA
ATOM     15  C   UNL A   1      31.024  23.328  26.734  1.00  0.00     0.255 C 
ATOM     16  H   UNL A   1      31.347  21.474  27.472  1.00  0.00     0.170 HD
BRANCH  15  17
ATOM     17  C   UNL A   1      31.497  24.354  25.768  1.00  0.00     0.044 A 
ATOM     18  C   UNL A   1      31.350  24.171  24.386  1.00  0.00     0.053 A 
ATOM     19  C   UNL A   1      32.132  25.497  26.262  1.00  0.00     0.029 A 
ATOM     20  C   UNL A   1      31.940  25.077  23.515  1.00  0.00     0.125 A 
ATOM     21  C   UNL A   1      32.695  26.405  25.365  1.00  0.00     0.021 A 
ATOM     22  F   UNL A   1      31.877  24.855  22.196  1.00  0.00    -0.207 F 
ATOM     23  C   UNL A   1      32.622  26.190  23.990  1.00  0.00     0.055 A 
ATOM     24  Br  UNL A   1      33.601  27.927  26.022  1.00  0.00    -0.051 Br
ENDBRANCH  15  17
ENDBRANCH   8  13
ENDBRANCH   5   7
ENDBRANCH   4   5
ENDBRANCH   3   4
ENDBRANCH   2   3
ENDBRANCH   1   2
BRANCH   1  25
ATOM     25  C   UNL A   1      42.415  21.191  26.089  1.00  0.00     0.202 C 
BRANCH  25  26
ATOM     26  C   UNL A   1      43.434  22.112  25.412  1.00  0.00     0.261 C 
BRANCH  26  27
ATOM     27  O   UNL A   1      42.848  23.374  25.040  1.00  0.00    -0.460 OA
BRANCH  27  28
ATOM     28  C   UNL A   1      43.627  24.453  25.279  1.00  0.00     0.338 C 
ATOM     29  O   UNL A   1      44.658  24.768  24.702  1.00  0.00    -0.246 OA
BRANCH  28  30
ATOM     30  C   UNL A   1      42.968  25.342  26.254  1.00  0.00     0.060 A 
ATOM     31  C   UNL A   1      43.579  26.575  26.519  1.00  0.00     0.016 A 
ATOM     32  C   UNL A   1      41.819  24.955  26.945  1.00  0.00     0.016 A 
ATOM     33  C   UNL A   1      43.071  27.405  27.515  1.00  0.00     0.010 A 
ATOM     34  C   UNL A   1      41.316  25.786  27.951  1.00  0.00     0.010 A 
ATOM     35  C   UNL A   1      41.960  26.998  28.264  1.00  0.00    -0.014 A 
BRANCH  35  36
ATOM     36  C   UNL A   1      41.562  27.771  29.464  1.00  0.00     0.031 A 
ATOM     37  C   UNL A   1      40.380  28.695  29.378  1.00  0.00     0.074 A 
ATOM     38  C   UNL A   1      42.229  27.630  30.623  1.00  0.00     0.049 A 
ATOM     39  N   UNL A   1      39.881  29.491  30.289  1.00  0.00    -0.248 NA
ATOM     40  C   UNL A   1      39.663  28.723  28.093  1.00  0.00     0.031 C 
ATOM     41  C   UNL A   1      43.362  26.735  30.844  1.00  0.00     0.029 A 
ATOM     42  N   UNL A   1      42.045  28.250  31.834  1.00  0.00    -0.354 N 
ATOM     43  C   UNL A   1      38.797  30.117  29.687  1.00  0.00     0.074 A 
ATOM     44  C   UNL A   1      38.727  29.632  28.326  1.00  0.00     0.031 C 
ATOM     45  C   UNL A   1      43.780  26.869  32.114  1.00  0.00     0.029 A 
ATOM     46  C   UNL A   1      42.965  27.880  32.785  1.00  0.00     0.049 A 
ATOM     47  H   UNL A   1      41.322  28.896  32.005  1.00  0.00     0.167 HD
ATOM     48  C   UNL A   1      37.930  31.008  30.224  1.00  0.00     0.037 A 
ATOM     49  C   UNL A   1      43.138  28.324  34.044  1.00  0.00     0.037 A 
ATOM     50  C   UNL A   1      37.999  31.493  31.578  1.00  0.00     0.049 A 
ATOM     51  C   UNL A   1      42.211  29.374  34.592  1.00  0.00     0.074 A 
ATOM     52  C   UNL A   1      37.162  32.389  32.218  1.00  0.00     0.029 A 
ATOM     53  N   UNL A   1      38.969  31.123  32.498  1.00  0.00    -0.354 N 
ATOM     54  N   UNL A   1      41.179  29.949  34.022  1.00  0.00    -0.248 NA
ATOM     55  C   UNL A   1      42.472  29.839  35.964  1.00  0.00     0.031 C 
ATOM     56  C   UNL A   1      37.650  32.595  33.513  1.00  0.00     0.029 A 
ATOM     57  C   UNL A   1      38.764  31.791  33.693  1.00  0.00     0.049 A 
ATOM     58  H   UNL A   1      39.695  30.481  32.327  1.00  0.00     0.167 HD
ATOM     59  C   UNL A   1      40.653  30.818  34.970  1.00  0.00     0.074 A 
ATOM     60  C   UNL A   1      41.473  30.689  36.156  1.00  0.00     0.031 C 
ATOM     61  C   UNL A   1      39.585  31.646  34.868  1.00  0.00     0.037 A 
BRANCH  48  62
ATOM     62  C   UNL A   1      36.842  31.535  29.335  1.00  0.00     0.057 A 
ATOM     63  C   UNL A   1      36.887  32.829  28.800  1.00  0.00     0.134 A 
ATOM     64  C   UNL A   1      35.751  30.729  28.989  1.00  0.00     0.134 A 
ATOM     65  F   UNL A   1      37.899  33.656  29.105  1.00  0.00    -0.206 F 
ATOM     66  C   UNL A   1      35.875  33.309  27.967  1.00  0.00     0.040 A 
ATOM     67  C   UNL A   1      34.745  31.190  28.138  1.00  0.00     0.040 A 
ATOM     68  F   UNL A   1      35.648  29.480  29.465  1.00  0.00    -0.206 F 
ATOM     69  C   UNL A   1      34.803  32.486  27.629  1.00  0.00     0.006 A 
ENDBRANCH  48  62
BRANCH  49  70
ATOM     70  C   UNL A   1      44.245  27.787  34.874  1.00  0.00     0.057 A 
ATOM     71  C   UNL A   1      45.525  28.348  34.825  1.00  0.00     0.134 A 
ATOM     72  C   UNL A   1      44.054  26.689  35.721  1.00  0.00     0.134 A 
ATOM     73  F   UNL A   1      45.776  29.387  34.014  1.00  0.00    -0.206 F 
ATOM     74  C   UNL A   1      46.581  27.829  35.576  1.00  0.00     0.040 A 
ATOM     75  C   UNL A   1      45.094  26.173  36.495  1.00  0.00     0.040 A 
ATOM     76  F   UNL A   1      42.849  26.106  35.814  1.00  0.00    -0.206 F 
ATOM     77  C   UNL A   1      46.363  26.739  36.418  1.00  0.00     0.006 A 
ENDBRANCH  49  70
BRANCH  61  78
ATOM     78  C   UNL A   1      39.219  32.451  36.081  1.00  0.00     0.057 A 
ATOM     79  C   UNL A   1      38.353  31.955  37.064  1.00  0.00     0.134 A 
ATOM     80  C   UNL A   1      39.776  33.719  36.290  1.00  0.00     0.134 A 
ATOM     81  F   UNL A   1      37.777  30.752  36.918  1.00  0.00    -0.206 F 
ATOM     82  C   UNL A   1      38.038  32.701  38.201  1.00  0.00     0.040 A 
ATOM     83  C   UNL A   1      39.489  34.464  37.434  1.00  0.00     0.040 A 
ATOM     84  F   UNL A   1      40.620  34.248  35.391  1.00  0.00    -0.206 F 
ATOM     85  C   UNL A   1      38.613  33.957  38.391  1.00  0.00     0.006 A 
ENDBRANCH  61  78
ENDBRANCH  35  36
ENDBRANCH  28  30
ENDBRANCH  27  28
ENDBRANCH  26  27
ENDBRANCH  25  26
ENDBRANCH   1  25
TORSDOF 16
ENDMDL
MODEL 3
REMARK VINA RESULT:     -10.9      4.985      9.790
REMARK SMILES O=C(Nc1ccc(C(=O)OCCOCCOC(=O)c2ccc(-c3c4nc(c(-c5c(F)cccc5F)c5ccc([nH]5)c(-c5c(F)cccc5F)c5nc(c(-c6c(F)cccc6F)c6ccc3[nH]6)C=C5)C=C4)cc2)cc1)c1cc(F)cc(Br)c1
REMARK SMILES IDX 13 1 12 2 11 3 10 4 8 5 9 6 7 7 4 8 5 9 74 10 6 11 73 12
REMARK SMILES IDX 3 13 1 14 2 15 75 17 76 18 82 19 77 20 80 21 78 22 79 23
REMARK SMILES IDX 81 24 14 25 15 26 16 27 17 28 18 29 19 30 20 31 72 32 21 33
REMARK SMILES IDX 71 34 22 35 23 36 24 37 65 38 25 39 70 40 64 41 66 42 26 43
REMARK SMILES IDX 69 44 63 45 62 46 27 48 53 49 36 50 52 51 37 52 40 53 51 54
REMARK SMILES IDX 67 55 38 56 39 57 50 59 68 60 41 61 28 62 29 63 34 64 30 65
REMARK SMILES IDX 31 66 33 67 35 68 32 69 54 70 55 71 60 72 56 73 57 74 59 75
REMARK SMILES IDX 61 76 58 77 42 78 43 79 48 80 44 81 45 82 47 83 49 84 46 85
REMARK H PARENT 3 16 66 47 40 58
REMARK Flexibility Score: inf
ROOT
ATOM      1  O   UNL A   1      34.702  34.589  29.906  1.00  0.00    -0.374 OA
ENDROOT
BRANCH   1   2
ATOM      2  C   UNL A   1      33.917  33.616  29.218  1.00  0.00     0.202 C 
BRANCH   2   3
ATOM      3  C   UNL A   1      34.631  32.831  28.115  1.00  0.00     0.261 C 
BRANCH   3   4
ATOM      4  O   UNL A   1      33.895  31.647  27.773  1.00  0.00    -0.460 OA
BRANCH   4   5
ATOM      5  C   UNL A   1      34.659  30.566  27.486  1.00  0.00     0.338 C 
ATOM      6  O   UNL A   1      35.870  30.467  27.624  1.00  0.00    -0.246 OA
BRANCH   5   7
ATOM      7  C   UNL A   1      33.809  29.423  27.084  1.00  0.00     0.060 A 
ATOM      8  C   UNL A   1      32.192  27.191  26.702  1.00  0.00     0.041 A 
ATOM      9  C   UNL A   1      31.642  28.345  27.257  1.00  0.00     0.027 A 
ATOM     10  C   UNL A   1      33.486  27.220  26.167  1.00  0.00     0.027 A 
ATOM     11  C   UNL A   1      32.463  29.450  27.475  1.00  0.00     0.018 A 
ATOM     12  C   UNL A   1      34.304  28.333  26.364  1.00  0.00     0.018 A 
BRANCH   8  13
ATOM     13  N   UNL A   1      31.460  26.000  26.825  1.00  0.00    -0.322 N 
ATOM     14  O   UNL A   1      29.992  24.410  26.125  1.00  0.00    -0.269 OA
ATOM     15  C   UNL A   1      30.703  25.373  25.852  1.00  0.00     0.255 C 
ATOM     16  H   UNL A   1      31.489  25.559  27.705  1.00  0.00     0.170 HD
BRANCH  15  17
ATOM     17  C   UNL A   1      30.814  25.804  24.433  1.00  0.00     0.044 A 
ATOM     18  C   UNL A   1      31.559  25.063  23.507  1.00  0.00     0.053 A 
ATOM     19  C   UNL A   1      30.188  26.992  24.044  1.00  0.00     0.029 A 
ATOM     20  C   UNL A   1      31.764  25.577  22.233  1.00  0.00     0.125 A 
ATOM     21  C   UNL A   1      30.390  27.475  22.751  1.00  0.00     0.021 A 
ATOM     22  F   UNL A   1      32.550  24.915  21.376  1.00  0.00    -0.207 F 
ATOM     23  C   UNL A   1      31.195  26.784  21.847  1.00  0.00     0.055 A 
ATOM     24  Br  UNL A   1      29.592  29.106  22.229  1.00  0.00    -0.051 Br
ENDBRANCH  15  17
ENDBRANCH   8  13
ENDBRANCH   5   7
ENDBRANCH   4   5
ENDBRANCH   3   4
ENDBRANCH   2   3
ENDBRANCH   1   2
BRANCH   1  25
ATOM     25  C   UNL A   1      34.181  35.101  31.134  1.00  0.00     0.202 C 
BRANCH  25  26
ATOM     26  C   UNL A   1      34.841  34.590  32.418  1.00  0.00     0.261 C 
BRANCH  26  27
ATOM     27  O   UNL A   1      36.128  33.998  32.157  1.00  0.00    -0.460 OA
BRANCH  27  28
ATOM     28  C   UNL A   1      36.341  32.814  32.774  1.00  0.00     0.338 C 
ATOM     29  O   UNL A   1      35.751  32.365  33.748  1.00  0.00    -0.246 OA
BRANCH  28  30
ATOM     30  C   UNL A   1      37.301  32.008  31.998  1.00  0.00     0.060 A 
ATOM     31  C   UNL A   1      38.265  31.286  32.714  1.00  0.00     0.016 A 
ATOM     32  C   UNL A   1      37.307  32.011  30.602  1.00  0.00     0.016 A 
ATOM     33  C   UNL A   1      39.271  30.603  32.034  1.00  0.00     0.010 A 
ATOM     34  C   UNL A   1      38.323  31.332  29.922  1.00  0.00     0.010 A 
ATOM     35  C   UNL A   1      39.329  30.655  30.636  1.00  0.00    -0.014 A 
BRANCH  35  36
ATOM     36  C   UNL A   1      40.520  30.122  29.932  1.00  0.00     0.031 A 
ATOM     37  C   UNL A   1      41.697  31.029  29.701  1.00  0.00     0.074 A 
ATOM     38  C   UNL A   1      40.564  28.841  29.530  1.00  0.00     0.049 A 
ATOM     39  N   UNL A   1      42.822  30.786  29.078  1.00  0.00    -0.248 NA
ATOM     40  C   UNL A   1      41.591  32.391  30.248  1.00  0.00     0.031 C 
ATOM     41  C   UNL A   1      39.506  27.853  29.734  1.00  0.00     0.029 A 
ATOM     42  N   UNL A   1      41.543  28.153  28.857  1.00  0.00    -0.354 N 
ATOM     43  C   UNL A   1      43.555  31.963  29.154  1.00  0.00     0.074 A 
ATOM     44  C   UNL A   1      42.737  32.929  29.856  1.00  0.00     0.031 C 
ATOM     45  C   UNL A   1      39.890  26.687  29.189  1.00  0.00     0.029 A 
ATOM     46  C   UNL A   1      41.205  26.853  28.573  1.00  0.00     0.049 A 
ATOM     47  H   UNL A   1      42.406  28.554  28.604  1.00  0.00     0.167 HD
ATOM     48  C   UNL A   1      44.802  32.214  28.689  1.00  0.00     0.037 A 
ATOM     49  C   UNL A   1      41.873  25.914  27.876  1.00  0.00     0.037 A 
ATOM     50  C   UNL A   1      45.615  31.255  27.989  1.00  0.00     0.049 A 
ATOM     51  C   UNL A   1      43.224  26.243  27.300  1.00  0.00     0.074 A 
ATOM     52  C   UNL A   1      46.895  31.411  27.487  1.00  0.00     0.029 A 
ATOM     53  N   UNL A   1      45.221  29.960  27.687  1.00  0.00    -0.354 N 
ATOM     54  N   UNL A   1      43.916  27.353  27.390  1.00  0.00    -0.248 NA
ATOM     55  C   UNL A   1      43.889  25.184  26.525  1.00  0.00     0.031 C 
ATOM     56  C   UNL A   1      47.260  30.224  26.843  1.00  0.00     0.029 A 
ATOM     57  C   UNL A   1      46.225  29.314  26.985  1.00  0.00     0.049 A 
ATOM     58  H   UNL A   1      44.356  29.560  27.935  1.00  0.00     0.167 HD
ATOM     59  C   UNL A   1      45.105  27.119  26.710  1.00  0.00     0.074 A 
ATOM     60  C   UNL A   1      45.046  25.757  26.221  1.00  0.00     0.031 C 
ATOM     61  C   UNL A   1      46.153  27.955  26.511  1.00  0.00     0.037 A 
BRANCH  48  62
ATOM     62  C   UNL A   1      45.354  33.592  28.905  1.00  0.00     0.057 A 
ATOM     63  C   UNL A   1      46.089  33.923  30.051  1.00  0.00     0.134 A 
ATOM     64  C   UNL A   1      45.173  34.593  27.942  1.00  0.00     0.134 A 
ATOM     65  F   UNL A   1      46.285  33.013  31.018  1.00  0.00    -0.206 F 
ATOM     66  C   UNL A   1      46.607  35.205  30.241  1.00  0.00     0.040 A 
ATOM     67  C   UNL A   1      45.707  35.872  28.110  1.00  0.00     0.040 A 
ATOM     68  F   UNL A   1      44.482  34.342  26.821  1.00  0.00    -0.206 F 
ATOM     69  C   UNL A   1      46.421  36.182  29.265  1.00  0.00     0.006 A 
ENDBRANCH  48  62
BRANCH  49  70
ATOM     70  C   UNL A   1      41.272  24.574  27.672  1.00  0.00     0.057 A 
ATOM     71  C   UNL A   1      41.704  23.466  28.409  1.00  0.00     0.134 A 
ATOM     72  C   UNL A   1      40.264  24.364  26.722  1.00  0.00     0.134 A 
ATOM     73  F   UNL A   1      42.682  23.600  29.316  1.00  0.00    -0.206 F 
ATOM     74  C   UNL A   1      41.168  22.194  28.200  1.00  0.00     0.040 A 
ATOM     75  C   UNL A   1      39.703  23.103  26.518  1.00  0.00     0.040 A 
ATOM     76  F   UNL A   1      39.806  25.386  25.983  1.00  0.00    -0.206 F 
ATOM     77  C   UNL A   1      40.159  22.012  27.254  1.00  0.00     0.006 A 
ENDBRANCH  49  70
BRANCH  61  78
ATOM     78  C   UNL A   1      47.336  27.412  25.763  1.00  0.00     0.057 A 
ATOM     79  C   UNL A   1      47.460  27.551  24.375  1.00  0.00     0.134 A 
ATOM     80  C   UNL A   1      48.384  26.783  26.448  1.00  0.00     0.134 A 
ATOM     81  F   UNL A   1      46.486  28.133  23.660  1.00  0.00    -0.206 F 
ATOM     82  C   UNL A   1      48.576  27.064  23.692  1.00  0.00     0.040 A 
ATOM     83  C   UNL A   1      49.516  26.315  25.779  1.00  0.00     0.040 A 
ATOM     84  F   UNL A   1      48.331  26.627  27.779  1.00  0.00    -0.206 F 
ATOM     85  C   UNL A   1      49.612  26.450  24.397  1.00  0.00     0.006 A 
ENDBRANCH  61  78
ENDBRANCH  35  36
ENDBRANCH  28  30
ENDBRANCH  27  28
ENDBRANCH  26  27
ENDBRANCH  25  26
ENDBRANCH   1  25
TORSDOF 16
ENDMDL
