MODEL 1
REMARK VINA RESULT:     -10.3      0.000      0.000
REMARK SMILES O=C(N[C@@H](Cc1ccccc1)C(=O)N[C@@H](CS)C(=O)N[C@@H](CO)C(=O)OCCOCCOC(=O)c1ccc(-c2c3nc(c(-c4c(F)cccc4F)c4ccc([nH]4)c(-c4c(F)cccc4F)c4nc(c(-c5c(F)cccc5F)c5ccc2[nH]5)C=C4)C=C3)cc1)c1ccc(F)cc1
REMARK SMILES IDX 27 1 26 2 24 3 25 4 21 5 20 6 18 7 19 8 15 10 14 11 12 12
REMARK SMILES IDX 13 13 4 15 3 16 1 17 2 18 89 20 90 21 95 22 91 23 94 24
REMARK SMILES IDX 92 25 93 26 5 27 6 28 7 29 11 30 8 31 10 32 9 33 16 34 17 35
REMARK SMILES IDX 22 37 23 38 28 40 29 41 30 42 31 43 32 44 33 45 34 46 35 47
REMARK SMILES IDX 36 48 88 49 37 50 87 51 38 52 39 53 40 54 81 55 41 56 86 57
REMARK SMILES IDX 80 58 82 59 42 60 85 61 79 62 78 63 43 65 69 66 52 67 68 68
REMARK SMILES IDX 53 69 56 70 67 71 83 72 54 73 55 74 66 76 84 77 57 78 44 79
REMARK SMILES IDX 45 80 50 81 46 82 47 83 49 84 51 85 48 86 70 87 71 88 76 89
REMARK SMILES IDX 72 90 73 91 75 92 77 93 74 94 58 95 59 96 64 97 60 98 61 99
REMARK SMILES IDX 63 100 65 101 62 102
REMARK H PARENT 20 9 14 14 3 19 17 36 23 39 82 64 56 75
REMARK Flexibility Score: inf
ROOT
ATOM      1  C   UNL A   1      37.623  19.982  24.638  1.00  0.00     0.261 C 
ENDROOT
BRANCH   1   2
ATOM      2  O   UNL A   1      36.368  20.335  25.237  1.00  0.00    -0.462 OA
BRANCH   2   3
ATOM      3  C   UNL A   1      35.329  19.499  24.955  1.00  0.00     0.331 C 
ATOM      4  O   UNL A   1      35.446  18.351  24.545  1.00  0.00    -0.250 OA
BRANCH   3   5
ATOM      5  C   UNL A   1      33.970  20.170  25.188  1.00  0.00     0.218 C 
BRANCH   5   6
ATOM      6  N   UNL A   1      33.681  21.270  24.255  1.00  0.00    -0.339 N 
ATOM      7  C   UNL A   1      32.809  22.279  24.506  1.00  0.00     0.244 C 
ATOM      8  O   UNL A   1      31.788  22.301  23.814  1.00  0.00    -0.273 OA
ATOM      9  H   UNL A   1      34.152  21.273  23.391  1.00  0.00     0.164 HD
BRANCH   7  10
ATOM     10  C   UNL A   1      33.009  23.274  25.678  1.00  0.00     0.181 C 
BRANCH  10  11
ATOM     11  N   UNL A   1      31.898  23.211  26.611  1.00  0.00    -0.342 N 
ATOM     12  C   UNL A   1      30.821  24.047  26.687  1.00  0.00     0.243 C 
ATOM     13  O   UNL A   1      29.809  23.582  27.224  1.00  0.00    -0.273 OA
ATOM     14  H   UNL A   1      31.925  22.476  27.267  1.00  0.00     0.164 HD
BRANCH  12  15
ATOM     15  C   UNL A   1      30.833  25.528  26.202  1.00  0.00     0.176 C 
BRANCH  15  16
ATOM     16  N   UNL A   1      29.749  25.801  25.256  1.00  0.00    -0.340 N 
ATOM     17  O   UNL A   1      28.718  26.784  23.516  1.00  0.00    -0.269 OA
ATOM     18  C   UNL A   1      29.771  26.550  24.104  1.00  0.00     0.251 C 
ATOM     19  H   UNL A   1      28.882  25.389  25.474  1.00  0.00     0.164 HD
BRANCH  18  20
ATOM     20  C   UNL A   1      31.039  27.105  23.580  1.00  0.00     0.040 A 
ATOM     21  C   UNL A   1      31.206  28.485  23.406  1.00  0.00     0.017 A 
ATOM     22  C   UNL A   1      32.095  26.227  23.303  1.00  0.00     0.017 A 
ATOM     23  C   UNL A   1      32.406  28.979  22.891  1.00  0.00     0.040 A 
ATOM     24  C   UNL A   1      33.297  26.728  22.798  1.00  0.00     0.040 A 
ATOM     25  C   UNL A   1      33.437  28.097  22.587  1.00  0.00     0.123 A 
ATOM     26  F   UNL A   1      34.586  28.573  22.089  1.00  0.00    -0.207 F 
ENDBRANCH  18  20
ENDBRANCH  15  16
BRANCH  15  27
ATOM     27  C   UNL A   1      31.137  26.670  27.207  1.00  0.00     0.070 C 
BRANCH  27  28
ATOM     28  C   UNL A   1      32.099  27.806  26.929  1.00  0.00    -0.045 A 
ATOM     29  C   UNL A   1      31.652  29.123  27.143  1.00  0.00     0.004 A 
ATOM     30  C   UNL A   1      33.431  27.629  26.531  1.00  0.00     0.004 A 
ATOM     31  C   UNL A   1      32.462  30.221  26.845  1.00  0.00     0.000 A 
ATOM     32  C   UNL A   1      34.228  28.728  26.186  1.00  0.00     0.000 A 
ATOM     33  C   UNL A   1      33.738  30.024  26.330  1.00  0.00     0.000 A 
ENDBRANCH  27  28
ENDBRANCH  15  27
ENDBRANCH  12  15
ENDBRANCH  10  11
BRANCH  10  34
ATOM     34  C   UNL A   1      34.400  23.480  26.289  1.00  0.00     0.101 C 
BRANCH  34  35
ATOM     35  S   UNL A   1      35.716  24.170  25.249  1.00  0.00    -0.177 SA
ATOM     36  H   UNL A   1      36.317  25.200  25.905  1.00  0.00     0.102 HD
ENDBRANCH  34  35
ENDBRANCH  10  34
ENDBRANCH   7  10
ENDBRANCH   5   6
BRANCH   5  37
ATOM     37  C   UNL A   1      32.880  19.093  25.098  1.00  0.00     0.193 C 
BRANCH  37  38
ATOM     38  O   UNL A   1      33.036  18.127  26.138  1.00  0.00    -0.394 OA
ATOM     39  H   UNL A   1      32.470  18.366  26.888  1.00  0.00     0.210 HD
ENDBRANCH  37  38
ENDBRANCH   5  37
ENDBRANCH   3   5
ENDBRANCH   2   3
ENDBRANCH   1   2
BRANCH   1  40
ATOM     40  C   UNL A   1      38.586  19.392  25.672  1.00  0.00     0.202 C 
BRANCH  40  41
ATOM     41  O   UNL A   1      39.982  19.480  25.391  1.00  0.00    -0.374 OA
BRANCH  41  42
ATOM     42  C   UNL A   1      40.834  19.997  26.407  1.00  0.00     0.202 C 
BRANCH  42  43
ATOM     43  C   UNL A   1      41.782  21.148  26.036  1.00  0.00     0.261 C 
BRANCH  43  44
ATOM     44  O   UNL A   1      41.189  22.450  26.152  1.00  0.00    -0.460 OA
BRANCH  44  45
ATOM     45  C   UNL A   1      42.061  23.476  26.000  1.00  0.00     0.338 C 
ATOM     46  O   UNL A   1      43.032  23.526  25.257  1.00  0.00    -0.246 OA
BRANCH  45  47
ATOM     47  C   UNL A   1      41.600  24.647  26.762  1.00  0.00     0.060 A 
ATOM     48  C   UNL A   1      42.219  25.877  26.506  1.00  0.00     0.016 A 
ATOM     49  C   UNL A   1      40.653  24.522  27.780  1.00  0.00     0.016 A 
ATOM     50  C   UNL A   1      41.920  26.983  27.296  1.00  0.00     0.010 A 
ATOM     51  C   UNL A   1      40.365  25.630  28.581  1.00  0.00     0.010 A 
ATOM     52  C   UNL A   1      41.022  26.855  28.364  1.00  0.00    -0.014 A 
BRANCH  52  53
ATOM     53  C   UNL A   1      40.911  27.954  29.350  1.00  0.00     0.031 A 
ATOM     54  C   UNL A   1      41.942  28.054  30.442  1.00  0.00     0.074 A 
ATOM     55  C   UNL A   1      39.937  28.876  29.249  1.00  0.00     0.049 A 
ATOM     56  N   UNL A   1      42.034  28.912  31.424  1.00  0.00    -0.248 NA
ATOM     57  C   UNL A   1      43.019  27.049  30.418  1.00  0.00     0.031 C 
ATOM     58  C   UNL A   1      38.912  28.910  28.208  1.00  0.00     0.029 A 
ATOM     59  N   UNL A   1      39.653  29.962  30.038  1.00  0.00    -0.354 N 
ATOM     60  C   UNL A   1      43.174  28.555  32.132  1.00  0.00     0.074 A 
ATOM     61  C   UNL A   1      43.723  27.381  31.490  1.00  0.00     0.031 C 
ATOM     62  C   UNL A   1      38.105  29.964  28.425  1.00  0.00     0.029 A 
ATOM     63  C   UNL A   1      38.540  30.658  29.635  1.00  0.00     0.049 A 
ATOM     64  H   UNL A   1      40.196  30.218  30.818  1.00  0.00     0.167 HD
ATOM     65  C   UNL A   1      43.722  29.160  33.212  1.00  0.00     0.037 A 
ATOM     66  C   UNL A   1      37.934  31.723  30.195  1.00  0.00     0.037 A 
ATOM     67  C   UNL A   1      43.171  30.325  33.851  1.00  0.00     0.049 A 
ATOM     68  C   UNL A   1      38.520  32.326  31.445  1.00  0.00     0.074 A 
ATOM     69  C   UNL A   1      43.640  31.005  34.960  1.00  0.00     0.029 A 
ATOM     70  N   UNL A   1      42.024  30.983  33.432  1.00  0.00    -0.354 N 
ATOM     71  N   UNL A   1      39.602  31.984  32.104  1.00  0.00    -0.248 NA
ATOM     72  C   UNL A   1      37.801  33.468  32.028  1.00  0.00     0.031 C 
ATOM     73  C   UNL A   1      42.756  32.054  35.236  1.00  0.00     0.029 A 
ATOM     74  C   UNL A   1      41.764  32.054  34.269  1.00  0.00     0.049 A 
ATOM     75  H   UNL A   1      41.477  30.726  32.655  1.00  0.00     0.167 HD
ATOM     76  C   UNL A   1      39.714  32.891  33.151  1.00  0.00     0.074 A 
ATOM     77  C   UNL A   1      38.595  33.803  33.036  1.00  0.00     0.031 C 
ATOM     78  C   UNL A   1      40.658  32.965  34.121  1.00  0.00     0.037 A 
BRANCH  65  79
ATOM     79  C   UNL A   1      44.978  28.562  33.778  1.00  0.00     0.057 A 
ATOM     80  C   UNL A   1      44.942  27.599  34.794  1.00  0.00     0.134 A 
ATOM     81  C   UNL A   1      46.233  28.927  33.276  1.00  0.00     0.134 A 
ATOM     82  F   UNL A   1      43.772  27.218  35.329  1.00  0.00    -0.206 F 
ATOM     83  C   UNL A   1      46.111  27.032  35.303  1.00  0.00     0.040 A 
ATOM     84  C   UNL A   1      47.407  28.349  33.760  1.00  0.00     0.040 A 
ATOM     85  F   UNL A   1      46.339  29.843  32.301  1.00  0.00    -0.206 F 
ATOM     86  C   UNL A   1      47.349  27.400  34.780  1.00  0.00     0.006 A 
ENDBRANCH  65  79
BRANCH  66  87
ATOM     87  C   UNL A   1      36.700  32.290  29.594  1.00  0.00     0.057 A 
ATOM     88  C   UNL A   1      35.430  31.868  30.009  1.00  0.00     0.134 A 
ATOM     89  C   UNL A   1      36.759  33.230  28.559  1.00  0.00     0.134 A 
ATOM     90  F   UNL A   1      35.308  30.951  30.980  1.00  0.00    -0.206 F 
ATOM     91  C   UNL A   1      34.267  32.338  29.397  1.00  0.00     0.040 A 
ATOM     92  C   UNL A   1      35.603  33.730  27.958  1.00  0.00     0.040 A 
ATOM     93  F   UNL A   1      37.944  33.677  28.115  1.00  0.00    -0.206 F 
ATOM     94  C   UNL A   1      34.352  33.275  28.369  1.00  0.00     0.006 A 
ENDBRANCH  66  87
BRANCH  78  95
ATOM     95  C   UNL A   1      40.556  34.102  35.095  1.00  0.00     0.057 A 
ATOM     96  C   UNL A   1      39.897  33.972  36.323  1.00  0.00     0.134 A 
ATOM     97  C   UNL A   1      41.163  35.333  34.812  1.00  0.00     0.134 A 
ATOM     98  F   UNL A   1      39.286  32.823  36.649  1.00  0.00    -0.206 F 
ATOM     99  C   UNL A   1      39.822  35.035  37.225  1.00  0.00     0.040 A 
ATOM    100  C   UNL A   1      41.119  36.393  35.717  1.00  0.00     0.040 A 
ATOM    101  F   UNL A   1      41.820  35.519  33.657  1.00  0.00    -0.206 F 
ATOM    102  C   UNL A   1      40.441  36.247  36.925  1.00  0.00     0.006 A 
ENDBRANCH  78  95
ENDBRANCH  52  53
ENDBRANCH  45  47
ENDBRANCH  44  45
ENDBRANCH  43  44
ENDBRANCH  42  43
ENDBRANCH  41  42
ENDBRANCH  40  41
ENDBRANCH   1  40
TORSDOF 26
ENDMDL
MODEL 2
REMARK VINA RESULT:     -10.2      4.706      9.734
REMARK SMILES O=C(N[C@@H](Cc1ccccc1)C(=O)N[C@@H](CS)C(=O)N[C@@H](CO)C(=O)OCCOCCOC(=O)c1ccc(-c2c3nc(c(-c4c(F)cccc4F)c4ccc([nH]4)c(-c4c(F)cccc4F)c4nc(c(-c5c(F)cccc5F)c5ccc2[nH]5)C=C4)C=C3)cc1)c1ccc(F)cc1
REMARK SMILES IDX 27 1 26 2 24 3 25 4 21 5 20 6 18 7 19 8 15 10 14 11 12 12
REMARK SMILES IDX 13 13 4 15 3 16 1 17 2 18 89 20 90 21 95 22 91 23 94 24
REMARK SMILES IDX 92 25 93 26 5 27 6 28 7 29 11 30 8 31 10 32 9 33 16 34 17 35
REMARK SMILES IDX 22 37 23 38 28 40 29 41 30 42 31 43 32 44 33 45 34 46 35 47
REMARK SMILES IDX 36 48 88 49 37 50 87 51 38 52 39 53 40 54 81 55 41 56 86 57
REMARK SMILES IDX 80 58 82 59 42 60 85 61 79 62 78 63 43 65 69 66 52 67 68 68
REMARK SMILES IDX 53 69 56 70 67 71 83 72 54 73 55 74 66 76 84 77 57 78 44 79
REMARK SMILES IDX 45 80 50 81 46 82 47 83 49 84 51 85 48 86 70 87 71 88 76 89
REMARK SMILES IDX 72 90 73 91 75 92 77 93 74 94 58 95 59 96 64 97 60 98 61 99
REMARK SMILES IDX 63 100 65 101 62 102
REMARK H PARENT 20 9 14 14 3 19 17 36 23 39 82 64 56 75
REMARK Flexibility Score: inf
ROOT
ATOM      1  C   UNL A   1      33.802  29.044  27.302  1.00  0.00     0.261 C 
ENDROOT
BRANCH   1   2
ATOM      2  O   UNL A   1      32.371  29.111  27.385  1.00  0.00    -0.462 OA
BRANCH   2   3
ATOM      3  C   UNL A   1      31.706  28.016  26.919  1.00  0.00     0.331 C 
ATOM      4  O   UNL A   1      31.025  27.266  27.608  1.00  0.00    -0.250 OA
BRANCH   3   5
ATOM      5  C   UNL A   1      31.923  27.808  25.415  1.00  0.00     0.218 C 
BRANCH   5   6
ATOM      6  N   UNL A   1      31.613  26.446  24.953  1.00  0.00    -0.339 N 
ATOM      7  C   UNL A   1      31.592  26.066  23.650  1.00  0.00     0.244 C 
ATOM      8  O   UNL A   1      30.489  25.764  23.188  1.00  0.00    -0.273 OA
ATOM      9  H   UNL A   1      31.407  25.766  25.633  1.00  0.00     0.164 HD
BRANCH   7  10
ATOM     10  C   UNL A   1      32.852  26.128  22.749  1.00  0.00     0.181 C 
BRANCH  10  11
ATOM     11  N   UNL A   1      33.009  24.902  21.987  1.00  0.00    -0.342 N 
ATOM     12  C   UNL A   1      33.363  23.667  22.453  1.00  0.00     0.243 C 
ATOM     13  O   UNL A   1      33.016  22.705  21.758  1.00  0.00    -0.273 OA
ATOM     14  H   UNL A   1      32.840  24.968  21.019  1.00  0.00     0.164 HD
BRANCH  12  15
ATOM     15  C   UNL A   1      34.209  23.432  23.740  1.00  0.00     0.176 C 
BRANCH  15  16
ATOM     16  N   UNL A   1      33.364  23.262  24.925  1.00  0.00    -0.340 N 
ATOM     17  O   UNL A   1      31.970  22.209  26.339  1.00  0.00    -0.269 OA
ATOM     18  C   UNL A   1      32.765  22.124  25.407  1.00  0.00     0.251 C 
ATOM     19  H   UNL A   1      33.205  24.078  25.451  1.00  0.00     0.164 HD
BRANCH  18  20
ATOM     20  C   UNL A   1      33.039  20.803  24.799  1.00  0.00     0.040 A 
ATOM     21  C   UNL A   1      34.094  20.002  25.256  1.00  0.00     0.017 A 
ATOM     22  C   UNL A   1      32.194  20.340  23.782  1.00  0.00     0.017 A 
ATOM     23  C   UNL A   1      34.343  18.769  24.650  1.00  0.00     0.040 A 
ATOM     24  C   UNL A   1      32.441  19.100  23.186  1.00  0.00     0.040 A 
ATOM     25  C   UNL A   1      33.518  18.332  23.619  1.00  0.00     0.123 A 
ATOM     26  F   UNL A   1      33.761  17.151  23.037  1.00  0.00    -0.207 F 
ENDBRANCH  18  20
ENDBRANCH  15  16
BRANCH  15  27
ATOM     27  C   UNL A   1      35.464  22.524  23.687  1.00  0.00     0.070 C 
BRANCH  27  28
ATOM     28  C   UNL A   1      36.655  22.672  24.611  1.00  0.00    -0.045 A 
ATOM     29  C   UNL A   1      37.523  21.575  24.759  1.00  0.00     0.004 A 
ATOM     30  C   UNL A   1      36.986  23.856  25.284  1.00  0.00     0.004 A 
ATOM     31  C   UNL A   1      38.602  21.618  25.644  1.00  0.00     0.000 A 
ATOM     32  C   UNL A   1      38.037  23.886  26.207  1.00  0.00     0.000 A 
ATOM     33  C   UNL A   1      38.837  22.762  26.398  1.00  0.00     0.000 A 
ENDBRANCH  27  28
ENDBRANCH  15  27
ENDBRANCH  12  15
ENDBRANCH  10  11
BRANCH  10  34
ATOM     34  C   UNL A   1      33.224  27.428  22.028  1.00  0.00     0.101 C 
BRANCH  34  35
ATOM     35  S   UNL A   1      34.391  28.565  22.825  1.00  0.00    -0.177 SA
ATOM     36  H   UNL A   1      34.256  29.806  22.284  1.00  0.00     0.102 HD
ENDBRANCH  34  35
ENDBRANCH  10  34
ENDBRANCH   7  10
ENDBRANCH   5   6
BRANCH   5  37
ATOM     37  C   UNL A   1      31.068  28.835  24.659  1.00  0.00     0.193 C 
BRANCH  37  38
ATOM     38  O   UNL A   1      31.666  30.131  24.717  1.00  0.00    -0.394 OA
ATOM     39  H   UNL A   1      32.406  30.174  24.092  1.00  0.00     0.210 HD
ENDBRANCH  37  38
ENDBRANCH   5  37
ENDBRANCH   3   5
ENDBRANCH   2   3
ENDBRANCH   1   2
BRANCH   1  40
ATOM     40  C   UNL A   1      34.420  30.443  27.225  1.00  0.00     0.202 C 
BRANCH  40  41
ATOM     41  O   UNL A   1      33.667  31.522  27.777  1.00  0.00    -0.374 OA
BRANCH  41  42
ATOM     42  C   UNL A   1      34.380  32.561  28.440  1.00  0.00     0.202 C 
BRANCH  42  43
ATOM     43  C   UNL A   1      34.959  32.263  29.831  1.00  0.00     0.261 C 
BRANCH  43  44
ATOM     44  O   UNL A   1      36.318  31.804  29.809  1.00  0.00    -0.460 OA
BRANCH  44  45
ATOM     45  C   UNL A   1      36.543  30.688  30.543  1.00  0.00     0.338 C 
ATOM     46  O   UNL A   1      35.827  30.212  31.414  1.00  0.00    -0.246 OA
BRANCH  45  47
ATOM     47  C   UNL A   1      37.739  29.989  30.047  1.00  0.00     0.060 A 
ATOM     48  C   UNL A   1      38.620  29.452  30.994  1.00  0.00     0.016 A 
ATOM     49  C   UNL A   1      38.044  29.953  28.685  1.00  0.00     0.016 A 
ATOM     50  C   UNL A   1      39.834  28.908  30.583  1.00  0.00     0.010 A 
ATOM     51  C   UNL A   1      39.269  29.418  28.277  1.00  0.00     0.010 A 
ATOM     52  C   UNL A   1      40.182  28.925  29.227  1.00  0.00    -0.014 A 
BRANCH  52  53
ATOM     53  C   UNL A   1      41.570  28.589  28.832  1.00  0.00     0.031 A 
ATOM     54  C   UNL A   1      41.879  27.177  28.412  1.00  0.00     0.074 A 
ATOM     55  C   UNL A   1      42.526  29.532  28.802  1.00  0.00     0.049 A 
ATOM     56  N   UNL A   1      43.019  26.648  28.049  1.00  0.00    -0.248 NA
ATOM     57  C   UNL A   1      40.747  26.235  28.395  1.00  0.00     0.031 C 
ATOM     58  C   UNL A   1      42.333  30.942  29.140  1.00  0.00     0.029 A 
ATOM     59  N   UNL A   1      43.854  29.444  28.469  1.00  0.00    -0.354 N 
ATOM     60  C   UNL A   1      42.743  25.318  27.760  1.00  0.00     0.074 A 
ATOM     61  C   UNL A   1      41.336  25.109  28.023  1.00  0.00     0.031 C 
ATOM     62  C   UNL A   1      43.505  31.587  29.002  1.00  0.00     0.029 A 
ATOM     63  C   UNL A   1      44.533  30.631  28.597  1.00  0.00     0.049 A 
ATOM     64  H   UNL A   1      44.280  28.609  28.168  1.00  0.00     0.167 HD
ATOM     65  C   UNL A   1      43.583  24.361  27.303  1.00  0.00     0.037 A 
ATOM     66  C   UNL A   1      45.840  30.905  28.422  1.00  0.00     0.037 A 
ATOM     67  C   UNL A   1      44.983  24.570  27.046  1.00  0.00     0.049 A 
ATOM     68  C   UNL A   1      46.770  29.799  27.993  1.00  0.00     0.074 A 
ATOM     69  C   UNL A   1      45.925  23.663  26.597  1.00  0.00     0.029 A 
ATOM     70  N   UNL A   1      45.641  25.780  27.217  1.00  0.00    -0.354 N 
ATOM     71  N   UNL A   1      46.497  28.546  27.716  1.00  0.00    -0.248 NA
ATOM     72  C   UNL A   1      48.191  30.149  27.846  1.00  0.00     0.031 C 
ATOM     73  C   UNL A   1      47.163  24.313  26.533  1.00  0.00     0.029 A 
ATOM     74  C   UNL A   1      46.979  25.637  26.895  1.00  0.00     0.049 A 
ATOM     75  H   UNL A   1      45.218  26.615  27.523  1.00  0.00     0.167 HD
ATOM     76  C   UNL A   1      47.701  27.971  27.326  1.00  0.00     0.074 A 
ATOM     77  C   UNL A   1      48.703  29.013  27.393  1.00  0.00     0.031 C 
ATOM     78  C   UNL A   1      47.956  26.695  26.944  1.00  0.00     0.037 A 
BRANCH  65  79
ATOM     79  C   UNL A   1      43.011  22.994  27.062  1.00  0.00     0.057 A 
ATOM     80  C   UNL A   1      42.688  22.135  28.120  1.00  0.00     0.134 A 
ATOM     81  C   UNL A   1      42.748  22.547  25.761  1.00  0.00     0.134 A 
ATOM     82  F   UNL A   1      42.931  22.496  29.389  1.00  0.00    -0.206 F 
ATOM     83  C   UNL A   1      42.137  20.872  27.892  1.00  0.00     0.040 A 
ATOM     84  C   UNL A   1      42.175  21.297  25.522  1.00  0.00     0.040 A 
ATOM     85  F   UNL A   1      43.032  23.321  24.703  1.00  0.00    -0.206 F 
ATOM     86  C   UNL A   1      41.871  20.453  26.590  1.00  0.00     0.006 A 
ENDBRANCH  65  79
BRANCH  66  87
ATOM     87  C   UNL A   1      46.362  32.275  28.660  1.00  0.00     0.057 A 
ATOM     88  C   UNL A   1      46.483  33.198  27.613  1.00  0.00     0.134 A 
ATOM     89  C   UNL A   1      46.797  32.679  29.927  1.00  0.00     0.134 A 
ATOM     90  F   UNL A   1      46.107  32.862  26.371  1.00  0.00    -0.206 F 
ATOM     91  C   UNL A   1      47.044  34.461  27.813  1.00  0.00     0.040 A 
ATOM     92  C   UNL A   1      47.333  33.948  30.147  1.00  0.00     0.040 A 
ATOM     93  F   UNL A   1      46.708  31.843  30.973  1.00  0.00    -0.206 F 
ATOM     94  C   UNL A   1      47.469  34.840  29.084  1.00  0.00     0.006 A 
ENDBRANCH  66  87
BRANCH  78  95
ATOM     95  C   UNL A   1      49.356  26.372  26.513  1.00  0.00     0.057 A 
ATOM     96  C   UNL A   1      50.272  25.750  27.368  1.00  0.00     0.134 A 
ATOM     97  C   UNL A   1      49.777  26.656  25.207  1.00  0.00     0.134 A 
ATOM     98  F   UNL A   1      49.935  25.463  28.634  1.00  0.00    -0.206 F 
ATOM     99  C   UNL A   1      51.569  25.443  26.948  1.00  0.00     0.040 A 
ATOM    100  C   UNL A   1      51.060  26.330  24.767  1.00  0.00     0.040 A 
ATOM    101  F   UNL A   1      48.944  27.242  24.334  1.00  0.00    -0.206 F 
ATOM    102  C   UNL A   1      51.962  25.727  25.642  1.00  0.00     0.006 A 
ENDBRANCH  78  95
ENDBRANCH  52  53
ENDBRANCH  45  47
ENDBRANCH  44  45
ENDBRANCH  43  44
ENDBRANCH  42  43
ENDBRANCH  41  42
ENDBRANCH  40  41
ENDBRANCH   1  40
TORSDOF 26
ENDMDL
MODEL 3
REMARK VINA RESULT:     -10.2      1.221      5.807
REMARK SMILES O=C(N[C@@H](Cc1ccccc1)C(=O)N[C@@H](CS)C(=O)N[C@@H](CO)C(=O)OCCOCCOC(=O)c1ccc(-c2c3nc(c(-c4c(F)cccc4F)c4ccc([nH]4)c(-c4c(F)cccc4F)c4nc(c(-c5c(F)cccc5F)c5ccc2[nH]5)C=C4)C=C3)cc1)c1ccc(F)cc1
REMARK SMILES IDX 27 1 26 2 24 3 25 4 21 5 20 6 18 7 19 8 15 10 14 11 12 12
REMARK SMILES IDX 13 13 4 15 3 16 1 17 2 18 89 20 90 21 95 22 91 23 94 24
REMARK SMILES IDX 92 25 93 26 5 27 6 28 7 29 11 30 8 31 10 32 9 33 16 34 17 35
REMARK SMILES IDX 22 37 23 38 28 40 29 41 30 42 31 43 32 44 33 45 34 46 35 47
REMARK SMILES IDX 36 48 88 49 37 50 87 51 38 52 39 53 40 54 81 55 41 56 86 57
REMARK SMILES IDX 80 58 82 59 42 60 85 61 79 62 78 63 43 65 69 66 52 67 68 68
REMARK SMILES IDX 53 69 56 70 67 71 83 72 54 73 55 74 66 76 84 77 57 78 44 79
REMARK SMILES IDX 45 80 50 81 46 82 47 83 49 84 51 85 48 86 70 87 71 88 76 89
REMARK SMILES IDX 72 90 73 91 75 92 77 93 74 94 58 95 59 96 64 97 60 98 61 99
REMARK SMILES IDX 63 100 65 101 62 102
REMARK H PARENT 20 9 14 14 3 19 17 36 23 39 82 64 56 75
REMARK Flexibility Score: inf
ROOT
ATOM      1  C   UNL A   1      37.438  19.874  24.513  1.00  0.00     0.261 C 
ENDROOT
BRANCH   1   2
ATOM      2  O   UNL A   1      36.206  20.153  25.192  1.00  0.00    -0.462 OA
BRANCH   2   3
ATOM      3  C   UNL A   1      35.184  19.289  24.930  1.00  0.00     0.331 C 
ATOM      4  O   UNL A   1      35.326  18.111  24.623  1.00  0.00    -0.250 OA
BRANCH   3   5
ATOM      5  C   UNL A   1      33.814  19.967  25.042  1.00  0.00     0.218 C 
BRANCH   5   6
ATOM      6  N   UNL A   1      33.571  20.992  24.016  1.00  0.00    -0.339 N 
ATOM      7  C   UNL A   1      32.779  22.079  24.191  1.00  0.00     0.244 C 
ATOM      8  O   UNL A   1      31.740  22.110  23.525  1.00  0.00    -0.273 OA
ATOM      9  H   UNL A   1      34.014  20.882  23.144  1.00  0.00     0.164 HD
BRANCH   7  10
ATOM     10  C   UNL A   1      33.082  23.163  25.257  1.00  0.00     0.181 C 
BRANCH  10  11
ATOM     11  N   UNL A   1      32.143  23.084  26.362  1.00  0.00    -0.342 N 
ATOM     12  C   UNL A   1      31.081  23.906  26.617  1.00  0.00     0.243 C 
ATOM     13  O   UNL A   1      30.180  23.426  27.315  1.00  0.00    -0.273 OA
ATOM     14  H   UNL A   1      32.289  22.351  27.003  1.00  0.00     0.164 HD
BRANCH  12  15
ATOM     15  C   UNL A   1      30.992  25.386  26.140  1.00  0.00     0.176 C 
BRANCH  15  16
ATOM     16  N   UNL A   1      29.924  25.578  25.155  1.00  0.00    -0.340 N 
ATOM     17  O   UNL A   1      28.897  26.462  23.361  1.00  0.00    -0.269 OA
ATOM     18  C   UNL A   1      29.942  26.300  23.986  1.00  0.00     0.251 C 
ATOM     19  H   UNL A   1      29.075  25.124  25.358  1.00  0.00     0.164 HD
BRANCH  18  20
ATOM     20  C   UNL A   1      31.194  26.909  23.486  1.00  0.00     0.040 A 
ATOM     21  C   UNL A   1      32.302  26.116  23.157  1.00  0.00     0.017 A 
ATOM     22  C   UNL A   1      31.242  28.297  23.301  1.00  0.00     0.017 A 
ATOM     23  C   UNL A   1      33.478  26.719  22.707  1.00  0.00     0.040 A 
ATOM     24  C   UNL A   1      32.418  28.894  22.840  1.00  0.00     0.040 A 
ATOM     25  C   UNL A   1      33.527  28.101  22.558  1.00  0.00     0.123 A 
ATOM     26  F   UNL A   1      34.658  28.678  22.129  1.00  0.00    -0.207 F 
ENDBRANCH  18  20
ENDBRANCH  15  16
BRANCH  15  27
ATOM     27  C   UNL A   1      31.166  26.541  27.159  1.00  0.00     0.070 C 
BRANCH  27  28
ATOM     28  C   UNL A   1      32.110  27.708  26.961  1.00  0.00    -0.045 A 
ATOM     29  C   UNL A   1      31.616  29.008  27.175  1.00  0.00     0.004 A 
ATOM     30  C   UNL A   1      33.468  27.576  26.638  1.00  0.00     0.004 A 
ATOM     31  C   UNL A   1      32.411  30.133  26.948  1.00  0.00     0.000 A 
ATOM     32  C   UNL A   1      34.252  28.702  26.363  1.00  0.00     0.000 A 
ATOM     33  C   UNL A   1      33.719  29.981  26.503  1.00  0.00     0.000 A 
ENDBRANCH  27  28
ENDBRANCH  15  27
ENDBRANCH  12  15
ENDBRANCH  10  11
BRANCH  10  34
ATOM     34  C   UNL A   1      34.531  23.506  25.620  1.00  0.00     0.101 C 
BRANCH  34  35
ATOM     35  S   UNL A   1      35.698  23.888  24.284  1.00  0.00    -0.177 SA
ATOM     36  H   UNL A   1      35.039  23.885  23.094  1.00  0.00     0.102 HD
ENDBRANCH  34  35
ENDBRANCH  10  34
ENDBRANCH   7  10
ENDBRANCH   5   6
BRANCH   5  37
ATOM     37  C   UNL A   1      32.732  18.879  24.974  1.00  0.00     0.193 C 
BRANCH  37  38
ATOM     38  O   UNL A   1      32.479  18.335  26.270  1.00  0.00    -0.394 OA
ATOM     39  H   UNL A   1      31.567  18.010  26.311  1.00  0.00     0.210 HD
ENDBRANCH  37  38
ENDBRANCH   5  37
ENDBRANCH   3   5
ENDBRANCH   2   3
ENDBRANCH   1   2
BRANCH   1  40
ATOM     40  C   UNL A   1      38.491  19.321  25.478  1.00  0.00     0.202 C 
BRANCH  40  41
ATOM     41  O   UNL A   1      39.571  20.183  25.831  1.00  0.00    -0.374 OA
BRANCH  41  42
ATOM     42  C   UNL A   1      39.271  21.547  26.108  1.00  0.00     0.202 C 
BRANCH  42  43
ATOM     43  C   UNL A   1      40.370  22.413  26.740  1.00  0.00     0.261 C 
BRANCH  43  44
ATOM     44  O   UNL A   1      40.248  23.813  26.449  1.00  0.00    -0.460 OA
BRANCH  44  45
ATOM     45  C   UNL A   1      41.346  24.546  26.754  1.00  0.00     0.338 C 
ATOM     46  O   UNL A   1      42.482  24.402  26.322  1.00  0.00    -0.246 OA
BRANCH  45  47
ATOM     47  C   UNL A   1      40.971  25.691  27.597  1.00  0.00     0.060 A 
ATOM     48  C   UNL A   1      41.850  26.781  27.646  1.00  0.00     0.016 A 
ATOM     49  C   UNL A   1      39.833  25.654  28.404  1.00  0.00     0.016 A 
ATOM     50  C   UNL A   1      41.613  27.825  28.535  1.00  0.00     0.010 A 
ATOM     51  C   UNL A   1      39.605  26.698  29.306  1.00  0.00     0.010 A 
ATOM     52  C   UNL A   1      40.511  27.770  29.398  1.00  0.00    -0.014 A 
BRANCH  52  53
ATOM     53  C   UNL A   1      40.413  28.744  30.509  1.00  0.00     0.031 A 
ATOM     54  C   UNL A   1      39.384  29.838  30.422  1.00  0.00     0.074 A 
ATOM     55  C   UNL A   1      41.193  28.629  31.598  1.00  0.00     0.049 A 
ATOM     56  N   UNL A   1      39.132  30.812  31.258  1.00  0.00    -0.248 NA
ATOM     57  C   UNL A   1      38.519  29.830  29.230  1.00  0.00     0.031 C 
ATOM     58  C   UNL A   1      42.191  27.583  31.816  1.00  0.00     0.029 A 
ATOM     59  N   UNL A   1      41.266  29.404  32.727  1.00  0.00    -0.354 N 
ATOM     60  C   UNL A   1      38.083  31.529  30.698  1.00  0.00     0.074 A 
ATOM     61  C   UNL A   1      37.767  30.902  29.434  1.00  0.00     0.031 C 
ATOM     62  C   UNL A   1      42.781  27.785  33.007  1.00  0.00     0.029 A 
ATOM     63  C   UNL A   1      42.225  28.990  33.619  1.00  0.00     0.049 A 
ATOM     64  H   UNL A   1      40.685  30.184  32.884  1.00  0.00     0.167 HD
ATOM     65  C   UNL A   1      37.431  32.604  31.200  1.00  0.00     0.037 A 
ATOM     66  C   UNL A   1      42.617  29.536  34.786  1.00  0.00     0.037 A 
ATOM     67  C   UNL A   1      37.751  33.228  32.455  1.00  0.00     0.049 A 
ATOM     68  C   UNL A   1      41.930  30.782  35.280  1.00  0.00     0.074 A 
ATOM     69  C   UNL A   1      37.163  34.332  33.046  1.00  0.00     0.029 A 
ATOM     70  N   UNL A   1      38.750  32.798  33.316  1.00  0.00    -0.354 N 
ATOM     71  N   UNL A   1      40.934  31.448  34.746  1.00  0.00    -0.248 NA
ATOM     72  C   UNL A   1      42.419  31.350  36.546  1.00  0.00     0.031 C 
ATOM     73  C   UNL A   1      37.831  34.593  34.247  1.00  0.00     0.029 A 
ATOM     74  C   UNL A   1      38.803  33.622  34.426  1.00  0.00     0.049 A 
ATOM     75  H   UNL A   1      39.335  32.021  33.159  1.00  0.00     0.167 HD
ATOM     76  C   UNL A   1      40.653  32.486  35.626  1.00  0.00     0.074 A 
ATOM     77  C   UNL A   1      41.577  32.357  36.733  1.00  0.00     0.031 C 
ATOM     78  C   UNL A   1      39.714  33.460  35.530  1.00  0.00     0.037 A 
BRANCH  65  79
ATOM     79  C   UNL A   1      36.314  33.181  30.380  1.00  0.00     0.057 A 
ATOM     80  C   UNL A   1      34.971  32.919  30.676  1.00  0.00     0.134 A 
ATOM     81  C   UNL A   1      36.584  34.038  29.305  1.00  0.00     0.134 A 
ATOM     82  F   UNL A   1      34.646  32.094  31.683  1.00  0.00    -0.206 F 
ATOM     83  C   UNL A   1      33.936  33.474  29.923  1.00  0.00     0.040 A 
ATOM     84  C   UNL A   1      35.557  34.618  28.560  1.00  0.00     0.040 A 
ATOM     85  F   UNL A   1      37.849  34.333  28.968  1.00  0.00    -0.206 F 
ATOM     86  C   UNL A   1      34.227  34.334  28.866  1.00  0.00     0.006 A 
ENDBRANCH  65  79
BRANCH  66  87
ATOM     87  C   UNL A   1      43.719  28.924  35.571  1.00  0.00     0.057 A 
ATOM     88  C   UNL A   1      43.463  27.958  36.552  1.00  0.00     0.134 A 
ATOM     89  C   UNL A   1      45.049  29.325  35.395  1.00  0.00     0.134 A 
ATOM     90  F   UNL A   1      42.207  27.550  36.786  1.00  0.00    -0.206 F 
ATOM     91  C   UNL A   1      44.484  27.435  37.348  1.00  0.00     0.040 A 
ATOM     92  C   UNL A   1      46.083  28.789  36.164  1.00  0.00     0.040 A 
ATOM     93  F   UNL A   1      45.363  30.246  34.471  1.00  0.00    -0.206 F 
ATOM     94  C   UNL A   1      45.800  27.849  37.153  1.00  0.00     0.006 A 
ENDBRANCH  66  87
BRANCH  78  95
ATOM     95  C   UNL A   1      39.599  34.421  36.676  1.00  0.00     0.057 A 
ATOM     96  C   UNL A   1      38.868  34.119  37.830  1.00  0.00     0.134 A 
ATOM     97  C   UNL A   1      40.266  35.653  36.635  1.00  0.00     0.134 A 
ATOM     98  F   UNL A   1      38.198  32.961  37.927  1.00  0.00    -0.206 F 
ATOM     99  C   UNL A   1      38.782  35.019  38.894  1.00  0.00     0.040 A 
ATOM    100  C   UNL A   1      40.210  36.549  37.702  1.00  0.00     0.040 A 
ATOM    101  F   UNL A   1      40.993  36.000  35.562  1.00  0.00    -0.206 F 
ATOM    102  C   UNL A   1      39.460  36.234  38.834  1.00  0.00     0.006 A 
ENDBRANCH  78  95
ENDBRANCH  52  53
ENDBRANCH  45  47
ENDBRANCH  44  45
ENDBRANCH  43  44
ENDBRANCH  42  43
ENDBRANCH  41  42
ENDBRANCH  40  41
ENDBRANCH   1  40
TORSDOF 26
ENDMDL
