MODEL 1
REMARK VINA RESULT:     -11.2      0.000      0.000
REMARK SMILES COc1ccc([C@H]2CC(c3ccc(S(C)(=O)=O)cc3)=NN2c2ccc(C(=O)OCCOCCOC(=O)c3ccc(-c4c5nc(c(-c6c(F)cccc6F)c6ccc([nH]6)c(-c6c(F)cccc6F)c6nc(c(-c7c(F)cccc7F)c7ccc4[nH]7)C=C6)C=C5)cc3)cc2)cc1OC
REMARK SMILES IDX 30 1 29 2 28 3 26 4 27 5 25 6 22 7 23 8 92 9 24 10 91 11
REMARK SMILES IDX 21 12 7 13 8 14 9 15 20 16 6 17 3 18 4 19 94 20 5 21 93 22
REMARK SMILES IDX 2 23 1 24 95 25 96 26 10 27 11 28 19 29 12 30 18 31 13 32
REMARK SMILES IDX 14 33 15 34 16 35 17 36 31 37 32 38 33 39 34 40 35 41 36 42
REMARK SMILES IDX 37 43 38 44 90 45 39 46 89 47 40 48 41 49 42 50 83 51 43 52
REMARK SMILES IDX 88 53 82 54 84 55 44 56 87 57 81 58 80 59 45 61 71 62 54 63
REMARK SMILES IDX 70 64 55 65 58 66 69 67 85 68 56 69 57 70 68 72 86 73 59 74
REMARK SMILES IDX 46 75 47 76 52 77 48 78 49 79 51 80 53 81 50 82 72 83 73 84
REMARK SMILES IDX 78 85 74 86 75 87 77 88 79 89 76 90 60 91 61 92 66 93 62 94
REMARK SMILES IDX 63 95 65 96 67 97 64 98
REMARK H PARENT 84 60 58 71
REMARK Flexibility Score: inf
ROOT
ATOM      1  C   UNL A   1      35.405  31.852  30.575  1.00  0.00     0.202 C 
ENDROOT
BRANCH   1   2
ATOM      2  C   UNL A   1      35.976  31.472  29.205  1.00  0.00     0.261 C 
BRANCH   2   3
ATOM      3  O   UNL A   1      35.328  30.317  28.650  1.00  0.00    -0.460 OA
BRANCH   3   4
ATOM      4  C   UNL A   1      34.352  30.597  27.750  1.00  0.00     0.338 C 
ATOM      5  O   UNL A   1      34.045  31.699  27.327  1.00  0.00    -0.246 OA
BRANCH   4   6
ATOM      6  C   UNL A   1      33.766  29.346  27.219  1.00  0.00     0.060 A 
ATOM      7  C   UNL A   1      32.621  26.892  26.472  1.00  0.00     0.060 A 
ATOM      8  C   UNL A   1      31.874  27.836  27.187  1.00  0.00     0.029 A 
ATOM      9  C   UNL A   1      33.917  27.238  26.057  1.00  0.00     0.029 A 
ATOM     10  C   UNL A   1      32.451  29.042  27.587  1.00  0.00     0.018 A 
ATOM     11  C   UNL A   1      34.487  28.465  26.411  1.00  0.00     0.018 A 
BRANCH   7  12
ATOM     12  N   UNL A   1      32.133  25.603  26.273  1.00  0.00    -0.257 N 
ATOM     13  C   UNL A   1      30.739  25.375  25.869  1.00  0.00     0.144 C 
ATOM     14  C   UNL A   1      30.740  23.892  25.488  1.00  0.00     0.091 C 
ATOM     15  C   UNL A   1      32.207  23.585  25.606  1.00  0.00     0.071 C 
ATOM     16  N   UNL A   1      32.964  24.555  26.019  1.00  0.00    -0.176 NA
BRANCH  13  17
ATOM     17  C   UNL A   1      30.291  26.279  24.724  1.00  0.00    -0.019 A 
ATOM     18  C   UNL A   1      29.449  27.993  22.645  1.00  0.00     0.160 A 
ATOM     19  C   UNL A   1      28.514  27.410  23.511  1.00  0.00     0.051 A 
ATOM     20  C   UNL A   1      30.815  27.759  22.830  1.00  0.00     0.161 A 
ATOM     21  C   UNL A   1      28.930  26.556  24.537  1.00  0.00     0.010 A 
ATOM     22  C   UNL A   1      31.216  26.899  23.865  1.00  0.00     0.056 A 
BRANCH  18  23
ATOM     23  O   UNL A   1      28.982  28.862  21.697  1.00  0.00    -0.493 OA
ATOM     24  C   UNL A   1      28.516  30.083  22.272  1.00  0.00     0.278 C 
ENDBRANCH  18  23
BRANCH  20  25
ATOM     25  O   UNL A   1      31.876  28.267  22.131  1.00  0.00    -0.493 OA
ATOM     26  C   UNL A   1      32.996  28.761  22.846  1.00  0.00     0.278 C 
ENDBRANCH  20  25
ENDBRANCH  13  17
BRANCH  15  27
ATOM     27  C   UNL A   1      32.703  22.227  25.344  1.00  0.00    -0.002 A 
ATOM     28  C   UNL A   1      31.774  21.227  25.036  1.00  0.00     0.011 A 
ATOM     29  C   UNL A   1      34.074  21.954  25.342  1.00  0.00     0.011 A 
ATOM     30  C   UNL A   1      32.218  19.948  24.697  1.00  0.00     0.021 A 
ATOM     31  C   UNL A   1      34.520  20.668  25.028  1.00  0.00     0.021 A 
ATOM     32  C   UNL A   1      33.590  19.673  24.703  1.00  0.00     0.067 A 
BRANCH  32  33
ATOM     33  S   UNL A   1      34.150  18.048  24.244  1.00  0.00     0.175 S 
ATOM     34  C   UNL A   1      33.485  16.984  25.497  1.00  0.00     0.163 C 
ATOM     35  O   UNL A   1      33.510  17.729  22.982  1.00  0.00    -0.224 OA
ATOM     36  O   UNL A   1      35.594  18.029  24.376  1.00  0.00    -0.224 OA
ENDBRANCH  32  33
ENDBRANCH  15  27
ENDBRANCH   7  12
ENDBRANCH   4   6
ENDBRANCH   3   4
ENDBRANCH   2   3
ENDBRANCH   1   2
BRANCH   1  37
ATOM     37  O   UNL A   1      34.978  33.202  30.746  1.00  0.00    -0.374 OA
BRANCH  37  38
ATOM     38  C   UNL A   1      34.478  33.577  32.030  1.00  0.00     0.202 C 
BRANCH  38  39
ATOM     39  C   UNL A   1      35.180  32.966  33.249  1.00  0.00     0.261 C 
BRANCH  39  40
ATOM     40  O   UNL A   1      36.524  33.458  33.409  1.00  0.00    -0.460 OA
BRANCH  40  41
ATOM     41  C   UNL A   1      37.364  32.612  34.054  1.00  0.00     0.338 C 
ATOM     42  O   UNL A   1      37.374  32.332  35.238  1.00  0.00    -0.246 OA
BRANCH  41  43
ATOM     43  C   UNL A   1      38.211  31.909  33.072  1.00  0.00     0.060 A 
ATOM     44  C   UNL A   1      38.935  30.796  33.519  1.00  0.00     0.016 A 
ATOM     45  C   UNL A   1      38.358  32.373  31.764  1.00  0.00     0.016 A 
ATOM     46  C   UNL A   1      39.846  30.169  32.673  1.00  0.00     0.010 A 
ATOM     47  C   UNL A   1      39.281  31.748  30.918  1.00  0.00     0.010 A 
ATOM     48  C   UNL A   1      40.051  30.664  31.378  1.00  0.00    -0.014 A 
BRANCH  48  49
ATOM     49  C   UNL A   1      41.163  30.132  30.554  1.00  0.00     0.031 A 
ATOM     50  C   UNL A   1      42.371  30.993  30.311  1.00  0.00     0.074 A 
ATOM     51  C   UNL A   1      41.104  28.890  30.043  1.00  0.00     0.049 A 
ATOM     52  N   UNL A   1      43.432  30.749  29.585  1.00  0.00    -0.248 NA
ATOM     53  C   UNL A   1      42.384  32.307  30.974  1.00  0.00     0.031 C 
ATOM     54  C   UNL A   1      40.005  27.946  30.240  1.00  0.00     0.029 A 
ATOM     55  N   UNL A   1      41.993  28.213  29.246  1.00  0.00    -0.354 N 
ATOM     56  C   UNL A   1      44.234  31.877  29.697  1.00  0.00     0.074 A 
ATOM     57  C   UNL A   1      43.526  32.818  30.539  1.00  0.00     0.031 C 
ATOM     58  C   UNL A   1      40.279  26.815  29.567  1.00  0.00     0.029 A 
ATOM     59  C   UNL A   1      41.554  26.967  28.870  1.00  0.00     0.049 A 
ATOM     60  H   UNL A   1      42.862  28.585  28.970  1.00  0.00     0.167 HD
ATOM     61  C   UNL A   1      45.454  32.105  29.156  1.00  0.00     0.037 A 
ATOM     62  C   UNL A   1      42.109  26.064  28.039  1.00  0.00     0.037 A 
ATOM     63  C   UNL A   1      46.159  31.167  28.322  1.00  0.00     0.049 A 
ATOM     64  C   UNL A   1      43.435  26.369  27.393  1.00  0.00     0.074 A 
ATOM     65  C   UNL A   1      47.410  31.296  27.745  1.00  0.00     0.029 A 
ATOM     66  N   UNL A   1      45.670  29.926  27.943  1.00  0.00    -0.354 N 
ATOM     67  N   UNL A   1      44.196  27.428  27.526  1.00  0.00    -0.248 NA
ATOM     68  C   UNL A   1      43.978  25.352  26.481  1.00  0.00     0.031 C 
ATOM     69  C   UNL A   1      47.657  30.154  26.976  1.00  0.00     0.029 A 
ATOM     70  C   UNL A   1      46.583  29.292  27.117  1.00  0.00     0.049 A 
ATOM     71  H   UNL A   1      44.803  29.552  28.219  1.00  0.00     0.167 HD
ATOM     72  C   UNL A   1      45.318  27.193  26.740  1.00  0.00     0.074 A 
ATOM     73  C   UNL A   1      45.143  25.885  26.143  1.00  0.00     0.031 C 
ATOM     74  C   UNL A   1      46.398  27.986  26.534  1.00  0.00     0.037 A 
BRANCH  61  75
ATOM     75  C   UNL A   1      46.097  33.432  29.429  1.00  0.00     0.057 A 
ATOM     76  C   UNL A   1      45.886  34.542  28.602  1.00  0.00     0.134 A 
ATOM     77  C   UNL A   1      46.910  33.611  30.557  1.00  0.00     0.134 A 
ATOM     78  F   UNL A   1      45.129  34.434  27.499  1.00  0.00    -0.206 F 
ATOM     79  C   UNL A   1      46.474  35.778  28.876  1.00  0.00     0.040 A 
ATOM     80  C   UNL A   1      47.483  34.848  30.855  1.00  0.00     0.040 A 
ATOM     81  F   UNL A   1      47.149  32.590  31.392  1.00  0.00    -0.206 F 
ATOM     82  C   UNL A   1      47.269  35.936  30.009  1.00  0.00     0.006 A 
ENDBRANCH  61  75
BRANCH  62  83
ATOM     83  C   UNL A   1      41.407  24.788  27.751  1.00  0.00     0.057 A 
ATOM     84  C   UNL A   1      41.756  23.603  28.408  1.00  0.00     0.134 A 
ATOM     85  C   UNL A   1      40.388  24.719  26.793  1.00  0.00     0.134 A 
ATOM     86  F   UNL A   1      42.740  23.601  29.318  1.00  0.00    -0.206 F 
ATOM     87  C   UNL A   1      41.130  22.391  28.111  1.00  0.00     0.040 A 
ATOM     88  C   UNL A   1      39.737  23.519  26.503  1.00  0.00     0.040 A 
ATOM     89  F   UNL A   1      40.007  25.819  26.128  1.00  0.00    -0.206 F 
ATOM     90  C   UNL A   1      40.113  22.349  27.158  1.00  0.00     0.006 A 
ENDBRANCH  62  83
BRANCH  74  91
ATOM     91  C   UNL A   1      47.490  27.451  25.656  1.00  0.00     0.057 A 
ATOM     92  C   UNL A   1      47.478  27.629  24.267  1.00  0.00     0.134 A 
ATOM     93  C   UNL A   1      48.590  26.785  26.213  1.00  0.00     0.134 A 
ATOM     94  F   UNL A   1      46.447  28.247  23.669  1.00  0.00    -0.206 F 
ATOM     95  C   UNL A   1      48.510  27.146  23.461  1.00  0.00     0.040 A 
ATOM     96  C   UNL A   1      49.641  26.321  25.420  1.00  0.00     0.040 A 
ATOM     97  F   UNL A   1      48.669  26.590  27.537  1.00  0.00    -0.206 F 
ATOM     98  C   UNL A   1      49.600  26.497  24.038  1.00  0.00     0.006 A 
ENDBRANCH  74  91
ENDBRANCH  48  49
ENDBRANCH  41  43
ENDBRANCH  40  41
ENDBRANCH  39  40
ENDBRANCH  38  39
ENDBRANCH  37  38
ENDBRANCH   1  37
TORSDOF 20
ENDMDL
MODEL 2
REMARK VINA RESULT:     -11.0      2.487      8.566
REMARK SMILES COc1ccc([C@H]2CC(c3ccc(S(C)(=O)=O)cc3)=NN2c2ccc(C(=O)OCCOCCOC(=O)c3ccc(-c4c5nc(c(-c6c(F)cccc6F)c6ccc([nH]6)c(-c6c(F)cccc6F)c6nc(c(-c7c(F)cccc7F)c7ccc4[nH]7)C=C6)C=C5)cc3)cc2)cc1OC
REMARK SMILES IDX 30 1 29 2 28 3 26 4 27 5 25 6 22 7 23 8 92 9 24 10 91 11
REMARK SMILES IDX 21 12 7 13 8 14 9 15 20 16 6 17 3 18 4 19 94 20 5 21 93 22
REMARK SMILES IDX 2 23 1 24 95 25 96 26 10 27 11 28 19 29 12 30 18 31 13 32
REMARK SMILES IDX 14 33 15 34 16 35 17 36 31 37 32 38 33 39 34 40 35 41 36 42
REMARK SMILES IDX 37 43 38 44 90 45 39 46 89 47 40 48 41 49 42 50 83 51 43 52
REMARK SMILES IDX 88 53 82 54 84 55 44 56 87 57 81 58 80 59 45 61 71 62 54 63
REMARK SMILES IDX 70 64 55 65 58 66 69 67 85 68 56 69 57 70 68 72 86 73 59 74
REMARK SMILES IDX 46 75 47 76 52 77 48 78 49 79 51 80 53 81 50 82 72 83 73 84
REMARK SMILES IDX 78 85 74 86 75 87 77 88 79 89 76 90 60 91 61 92 66 93 62 94
REMARK SMILES IDX 63 95 65 96 67 97 64 98
REMARK H PARENT 84 60 58 71
REMARK Flexibility Score: inf
ROOT
ATOM      1  C   UNL A   1      34.722  20.385  25.130  1.00  0.00     0.202 C 
ENDROOT
BRANCH   1   2
ATOM      2  C   UNL A   1      33.426  19.990  24.414  1.00  0.00     0.261 C 
BRANCH   2   3
ATOM      3  O   UNL A   1      32.425  21.016  24.503  1.00  0.00    -0.460 OA
BRANCH   3   4
ATOM      4  C   UNL A   1      32.262  21.744  23.369  1.00  0.00     0.338 C 
ATOM      5  O   UNL A   1      31.953  21.319  22.268  1.00  0.00    -0.246 OA
BRANCH   4   6
ATOM      6  C   UNL A   1      32.377  23.189  23.664  1.00  0.00     0.060 A 
ATOM      7  C   UNL A   1      32.864  25.910  24.167  1.00  0.00     0.060 A 
ATOM      8  C   UNL A   1      33.061  25.378  22.887  1.00  0.00     0.029 A 
ATOM      9  C   UNL A   1      32.330  25.077  25.163  1.00  0.00     0.029 A 
ATOM     10  C   UNL A   1      32.851  24.021  22.643  1.00  0.00     0.018 A 
ATOM     11  C   UNL A   1      32.068  23.726  24.915  1.00  0.00     0.018 A 
BRANCH   7  12
ATOM     12  N   UNL A   1      33.290  27.200  24.475  1.00  0.00    -0.257 N 
ATOM     13  C   UNL A   1      32.868  28.350  23.663  1.00  0.00     0.144 C 
ATOM     14  C   UNL A   1      33.309  29.541  24.517  1.00  0.00     0.091 C 
ATOM     15  C   UNL A   1      33.775  28.826  25.756  1.00  0.00     0.071 C 
ATOM     16  N   UNL A   1      33.732  27.530  25.719  1.00  0.00    -0.176 NA
BRANCH  13  17
ATOM     17  C   UNL A   1      31.372  28.358  23.366  1.00  0.00    -0.019 A 
ATOM     18  C   UNL A   1      28.594  28.403  22.866  1.00  0.00     0.160 A 
ATOM     19  C   UNL A   1      29.126  27.568  23.858  1.00  0.00     0.051 A 
ATOM     20  C   UNL A   1      29.434  29.252  22.141  1.00  0.00     0.161 A 
ATOM     21  C   UNL A   1      30.503  27.541  24.101  1.00  0.00     0.010 A 
ATOM     22  C   UNL A   1      30.814  29.213  22.398  1.00  0.00     0.056 A 
BRANCH  18  23
ATOM     23  O   UNL A   1      27.234  28.424  22.715  1.00  0.00    -0.493 OA
ATOM     24  C   UNL A   1      26.561  27.869  23.846  1.00  0.00     0.278 C 
ENDBRANCH  18  23
BRANCH  20  25
ATOM     25  O   UNL A   1      29.107  30.166  21.176  1.00  0.00    -0.493 OA
ATOM     26  C   UNL A   1      28.647  31.448  21.573  1.00  0.00     0.278 C 
ENDBRANCH  20  25
ENDBRANCH  13  17
BRANCH  15  27
ATOM     27  C   UNL A   1      34.323  29.586  26.888  1.00  0.00    -0.002 A 
ATOM     28  C   UNL A   1      35.472  29.101  27.521  1.00  0.00     0.011 A 
ATOM     29  C   UNL A   1      33.744  30.796  27.283  1.00  0.00     0.011 A 
ATOM     30  C   UNL A   1      36.067  29.844  28.542  1.00  0.00     0.021 A 
ATOM     31  C   UNL A   1      34.323  31.529  28.322  1.00  0.00     0.021 A 
ATOM     32  C   UNL A   1      35.484  31.051  28.943  1.00  0.00     0.067 A 
BRANCH  32  33
ATOM     33  S   UNL A   1      36.263  32.006  30.227  1.00  0.00     0.175 S 
ATOM     34  C   UNL A   1      34.952  32.361  31.367  1.00  0.00     0.163 C 
ATOM     35  O   UNL A   1      37.215  31.127  30.878  1.00  0.00    -0.224 OA
ATOM     36  O   UNL A   1      36.686  33.264  29.641  1.00  0.00    -0.224 OA
ENDBRANCH  32  33
ENDBRANCH  15  27
ENDBRANCH   7  12
ENDBRANCH   4   6
ENDBRANCH   3   4
ENDBRANCH   2   3
ENDBRANCH   1   2
BRANCH   1  37
ATOM     37  O   UNL A   1      34.715  21.618  25.847  1.00  0.00    -0.374 OA
BRANCH  37  38
ATOM     38  C   UNL A   1      35.817  22.504  25.645  1.00  0.00     0.202 C 
BRANCH  38  39
ATOM     39  C   UNL A   1      37.215  21.874  25.633  1.00  0.00     0.261 C 
BRANCH  39  40
ATOM     40  O   UNL A   1      38.260  22.861  25.707  1.00  0.00    -0.460 OA
BRANCH  40  41
ATOM     41  C   UNL A   1      39.227  22.597  26.619  1.00  0.00     0.338 C 
ATOM     42  O   UNL A   1      39.667  21.509  26.943  1.00  0.00    -0.246 OA
BRANCH  41  43
ATOM     43  C   UNL A   1      39.833  23.860  27.081  1.00  0.00     0.060 A 
ATOM     44  C   UNL A   1      39.740  24.972  26.233  1.00  0.00     0.016 A 
ATOM     45  C   UNL A   1      40.546  23.938  28.278  1.00  0.00     0.016 A 
ATOM     46  C   UNL A   1      40.400  26.155  26.558  1.00  0.00     0.010 A 
ATOM     47  C   UNL A   1      41.216  25.123  28.598  1.00  0.00     0.010 A 
ATOM     48  C   UNL A   1      41.172  26.226  27.725  1.00  0.00    -0.014 A 
BRANCH  48  49
ATOM     49  C   UNL A   1      42.038  27.406  27.964  1.00  0.00     0.031 A 
ATOM     50  C   UNL A   1      43.422  27.429  27.377  1.00  0.00     0.074 A 
ATOM     51  C   UNL A   1      41.589  28.452  28.680  1.00  0.00     0.049 A 
ATOM     52  N   UNL A   1      44.360  28.332  27.500  1.00  0.00    -0.248 NA
ATOM     53  C   UNL A   1      43.799  26.278  26.542  1.00  0.00     0.031 C 
ATOM     54  C   UNL A   1      40.256  28.564  29.267  1.00  0.00     0.029 A 
ATOM     55  N   UNL A   1      42.218  29.618  29.040  1.00  0.00    -0.354 N 
ATOM     56  C   UNL A   1      45.439  27.858  26.765  1.00  0.00     0.074 A 
ATOM     57  C   UNL A   1      45.050  26.573  26.222  1.00  0.00     0.031 C 
ATOM     58  C   UNL A   1      40.170  29.732  29.928  1.00  0.00     0.029 A 
ATOM     59  C   UNL A   1      41.449  30.432  29.836  1.00  0.00     0.049 A 
ATOM     60  H   UNL A   1      43.131  29.849  28.754  1.00  0.00     0.167 HD
ATOM     61  C   UNL A   1      46.642  28.443  26.555  1.00  0.00     0.037 A 
ATOM     62  C   UNL A   1      41.755  31.596  30.439  1.00  0.00     0.037 A 
ATOM     63  C   UNL A   1      47.027  29.722  27.092  1.00  0.00     0.049 A 
ATOM     64  C   UNL A   1      43.123  32.194  30.247  1.00  0.00     0.074 A 
ATOM     65  C   UNL A   1      48.215  30.410  26.916  1.00  0.00     0.029 A 
ATOM     66  N   UNL A   1      46.231  30.503  27.915  1.00  0.00    -0.354 N 
ATOM     67  N   UNL A   1      44.127  31.749  29.530  1.00  0.00    -0.248 NA
ATOM     68  C   UNL A   1      43.401  33.455  30.948  1.00  0.00     0.031 C 
ATOM     69  C   UNL A   1      48.156  31.584  27.673  1.00  0.00     0.029 A 
ATOM     70  C   UNL A   1      46.912  31.653  28.278  1.00  0.00     0.049 A 
ATOM     71  H   UNL A   1      45.317  30.274  28.200  1.00  0.00     0.167 HD
ATOM     72  C   UNL A   1      45.141  32.689  29.670  1.00  0.00     0.074 A 
ATOM     73  C   UNL A   1      44.628  33.733  30.531  1.00  0.00     0.031 C 
ATOM     74  C   UNL A   1      46.385  32.688  29.131  1.00  0.00     0.037 A 
BRANCH  61  75
ATOM     75  C   UNL A   1      47.642  27.694  25.724  1.00  0.00     0.057 A 
ATOM     76  C   UNL A   1      48.645  26.906  26.303  1.00  0.00     0.134 A 
ATOM     77  C   UNL A   1      47.576  27.732  24.325  1.00  0.00     0.134 A 
ATOM     78  F   UNL A   1      48.770  26.839  27.638  1.00  0.00    -0.206 F 
ATOM     79  C   UNL A   1      49.559  26.198  25.521  1.00  0.00     0.040 A 
ATOM     80  C   UNL A   1      48.468  27.008  23.533  1.00  0.00     0.040 A 
ATOM     81  F   UNL A   1      46.637  28.463  23.707  1.00  0.00    -0.206 F 
ATOM     82  C   UNL A   1      49.467  26.242  24.131  1.00  0.00     0.006 A 
ENDBRANCH  61  75
BRANCH  62  83
ATOM     83  C   UNL A   1      40.752  32.272  31.301  1.00  0.00     0.057 A 
ATOM     84  C   UNL A   1      40.054  33.400  30.855  1.00  0.00     0.134 A 
ATOM     85  C   UNL A   1      40.488  31.822  32.600  1.00  0.00     0.134 A 
ATOM     86  F   UNL A   1      40.281  33.893  29.630  1.00  0.00    -0.206 F 
ATOM     87  C   UNL A   1      39.142  34.067  31.676  1.00  0.00     0.040 A 
ATOM     88  C   UNL A   1      39.562  32.464  33.424  1.00  0.00     0.040 A 
ATOM     89  F   UNL A   1      41.124  30.747  33.087  1.00  0.00    -0.206 F 
ATOM     90  C   UNL A   1      38.891  33.595  32.964  1.00  0.00     0.006 A 
ENDBRANCH  62  83
BRANCH  74  91
ATOM     91  C   UNL A   1      47.266  33.867  29.427  1.00  0.00     0.057 A 
ATOM     92  C   UNL A   1      48.163  33.870  30.502  1.00  0.00     0.134 A 
ATOM     93  C   UNL A   1      47.245  34.996  28.598  1.00  0.00     0.134 A 
ATOM     94  F   UNL A   1      48.223  32.825  31.341  1.00  0.00    -0.206 F 
ATOM     95  C   UNL A   1      48.993  34.964  30.755  1.00  0.00     0.040 A 
ATOM     96  C   UNL A   1      48.089  36.084  28.825  1.00  0.00     0.040 A 
ATOM     97  F   UNL A   1      46.417  35.054  27.545  1.00  0.00    -0.206 F 
ATOM     98  C   UNL A   1      48.964  36.071  29.910  1.00  0.00     0.006 A 
ENDBRANCH  74  91
ENDBRANCH  48  49
ENDBRANCH  41  43
ENDBRANCH  40  41
ENDBRANCH  39  40
ENDBRANCH  38  39
ENDBRANCH  37  38
ENDBRANCH   1  37
TORSDOF 20
ENDMDL
MODEL 3
REMARK VINA RESULT:     -10.3      5.657     11.699
REMARK SMILES COc1ccc([C@H]2CC(c3ccc(S(C)(=O)=O)cc3)=NN2c2ccc(C(=O)OCCOCCOC(=O)c3ccc(-c4c5nc(c(-c6c(F)cccc6F)c6ccc([nH]6)c(-c6c(F)cccc6F)c6nc(c(-c7c(F)cccc7F)c7ccc4[nH]7)C=C6)C=C5)cc3)cc2)cc1OC
REMARK SMILES IDX 30 1 29 2 28 3 26 4 27 5 25 6 22 7 23 8 92 9 24 10 91 11
REMARK SMILES IDX 21 12 7 13 8 14 9 15 20 16 6 17 3 18 4 19 94 20 5 21 93 22
REMARK SMILES IDX 2 23 1 24 95 25 96 26 10 27 11 28 19 29 12 30 18 31 13 32
REMARK SMILES IDX 14 33 15 34 16 35 17 36 31 37 32 38 33 39 34 40 35 41 36 42
REMARK SMILES IDX 37 43 38 44 90 45 39 46 89 47 40 48 41 49 42 50 83 51 43 52
REMARK SMILES IDX 88 53 82 54 84 55 44 56 87 57 81 58 80 59 45 61 71 62 54 63
REMARK SMILES IDX 70 64 55 65 58 66 69 67 85 68 56 69 57 70 68 72 86 73 59 74
REMARK SMILES IDX 46 75 47 76 52 77 48 78 49 79 51 80 53 81 50 82 72 83 73 84
REMARK SMILES IDX 78 85 74 86 75 87 77 88 79 89 76 90 60 91 61 92 66 93 62 94
REMARK SMILES IDX 63 95 65 96 67 97 64 98
REMARK H PARENT 84 60 58 71
REMARK Flexibility Score: inf
ROOT
ATOM      1  C   UNL A   1      48.914  26.249  31.282  1.00  0.00     0.202 C 
ENDROOT
BRANCH   1   2
ATOM      2  C   UNL A   1      47.531  26.843  30.995  1.00  0.00     0.261 C 
BRANCH   2   3
ATOM      3  O   UNL A   1      46.515  25.832  30.910  1.00  0.00    -0.460 OA
BRANCH   3   4
ATOM      4  C   UNL A   1      45.991  25.664  29.669  1.00  0.00     0.338 C 
ATOM      5  O   UNL A   1      46.283  24.793  28.867  1.00  0.00    -0.246 OA
BRANCH   4   6
ATOM      6  C   UNL A   1      44.884  26.619  29.444  1.00  0.00     0.060 A 
ATOM      7  C   UNL A   1      42.621  28.214  28.971  1.00  0.00     0.060 A 
ATOM      8  C   UNL A   1      42.653  27.333  30.058  1.00  0.00     0.029 A 
ATOM      9  C   UNL A   1      43.775  28.350  28.184  1.00  0.00     0.029 A 
ATOM     10  C   UNL A   1      43.764  26.516  30.276  1.00  0.00     0.018 A 
ATOM     11  C   UNL A   1      44.912  27.572  28.425  1.00  0.00     0.018 A 
BRANCH   7  12
ATOM     12  N   UNL A   1      41.438  28.857  28.612  1.00  0.00    -0.257 N 
ATOM     13  C   UNL A   1      40.663  28.418  27.443  1.00  0.00     0.144 C 
ATOM     14  C   UNL A   1      39.346  29.181  27.611  1.00  0.00     0.091 C 
ATOM     15  C   UNL A   1      39.569  29.809  28.959  1.00  0.00     0.071 C 
ATOM     16  N   UNL A   1      40.726  29.595  29.506  1.00  0.00    -0.176 NA
BRANCH  13  17
ATOM     17  C   UNL A   1      40.467  26.907  27.386  1.00  0.00    -0.019 A 
ATOM     18  C   UNL A   1      40.060  24.117  27.241  1.00  0.00     0.160 A 
ATOM     19  C   UNL A   1      39.153  24.935  27.929  1.00  0.00     0.051 A 
ATOM     20  C   UNL A   1      41.156  24.684  26.586  1.00  0.00     0.161 A 
ATOM     21  C   UNL A   1      39.357  26.316  28.006  1.00  0.00     0.010 A 
ATOM     22  C   UNL A   1      41.347  26.072  26.673  1.00  0.00     0.056 A 
BRANCH  18  23
ATOM     23  O   UNL A   1      39.773  22.781  27.157  1.00  0.00    -0.493 OA
ATOM     24  C   UNL A   1      38.762  22.512  26.185  1.00  0.00     0.278 C 
ENDBRANCH  18  23
BRANCH  20  25
ATOM     25  O   UNL A   1      42.117  24.069  25.830  1.00  0.00    -0.493 OA
ATOM     26  C   UNL A   1      43.284  23.579  26.469  1.00  0.00     0.278 C 
ENDBRANCH  20  25
ENDBRANCH  13  17
BRANCH  15  27
ATOM     27  C   UNL A   1      38.543  30.680  29.549  1.00  0.00    -0.002 A 
ATOM     28  C   UNL A   1      37.785  31.489  28.695  1.00  0.00     0.011 A 
ATOM     29  C   UNL A   1      38.290  30.657  30.923  1.00  0.00     0.011 A 
ATOM     30  C   UNL A   1      36.745  32.261  29.213  1.00  0.00     0.021 A 
ATOM     31  C   UNL A   1      37.266  31.450  31.449  1.00  0.00     0.021 A 
ATOM     32  C   UNL A   1      36.497  32.244  30.590  1.00  0.00     0.067 A 
BRANCH  32  33
ATOM     33  S   UNL A   1      35.152  33.212  31.240  1.00  0.00     0.175 S 
ATOM     34  C   UNL A   1      34.294  33.794  29.802  1.00  0.00     0.163 C 
ATOM     35  O   UNL A   1      34.286  32.293  31.953  1.00  0.00    -0.224 OA
ATOM     36  O   UNL A   1      35.725  34.367  31.904  1.00  0.00    -0.224 OA
ENDBRANCH  32  33
ENDBRANCH  15  27
ENDBRANCH   7  12
ENDBRANCH   4   6
ENDBRANCH   3   4
ENDBRANCH   2   3
ENDBRANCH   1   2
BRANCH   1  37
ATOM     37  O   UNL A   1      49.368  25.216  30.410  1.00  0.00    -0.374 OA
BRANCH  37  38
ATOM     38  C   UNL A   1      50.305  25.577  29.394  1.00  0.00     0.202 C 
BRANCH  38  39
ATOM     39  C   UNL A   1      49.847  25.401  27.941  1.00  0.00     0.261 C 
BRANCH  39  40
ATOM     40  O   UNL A   1      49.709  26.660  27.255  1.00  0.00    -0.460 OA
BRANCH  40  41
ATOM     41  C   UNL A   1      48.516  26.844  26.640  1.00  0.00     0.338 C 
ATOM     42  O   UNL A   1      47.872  26.028  26.006  1.00  0.00    -0.246 OA
BRANCH  41  43
ATOM     43  C   UNL A   1      47.980  28.174  26.983  1.00  0.00     0.060 A 
ATOM     44  C   UNL A   1      47.159  28.806  26.039  1.00  0.00     0.016 A 
ATOM     45  C   UNL A   1      48.335  28.826  28.165  1.00  0.00     0.016 A 
ATOM     46  C   UNL A   1      46.727  30.113  26.253  1.00  0.00     0.010 A 
ATOM     47  C   UNL A   1      47.908  30.142  28.374  1.00  0.00     0.010 A 
ATOM     48  C   UNL A   1      47.129  30.802  27.405  1.00  0.00    -0.014 A 
BRANCH  48  49
ATOM     49  C   UNL A   1      46.846  32.251  27.533  1.00  0.00     0.031 A 
ATOM     50  C   UNL A   1      47.899  33.242  27.119  1.00  0.00     0.074 A 
ATOM     51  C   UNL A   1      45.658  32.680  27.993  1.00  0.00     0.049 A 
ATOM     52  N   UNL A   1      47.882  34.549  27.190  1.00  0.00    -0.248 NA
ATOM     53  C   UNL A   1      49.136  32.685  26.552  1.00  0.00     0.031 C 
ATOM     54  C   UNL A   1      44.545  31.819  28.389  1.00  0.00     0.029 A 
ATOM     55  N   UNL A   1      45.196  33.954  28.213  1.00  0.00    -0.354 N 
ATOM     56  C   UNL A   1      49.105  34.970  26.685  1.00  0.00     0.074 A 
ATOM     57  C   UNL A   1      49.852  33.779  26.335  1.00  0.00     0.031 C 
ATOM     58  C   UNL A   1      43.530  32.591  28.818  1.00  0.00     0.029 A 
ATOM     59  C   UNL A   1      43.935  33.994  28.756  1.00  0.00     0.049 A 
ATOM     60  H   UNL A   1      45.718  34.761  28.001  1.00  0.00     0.167 HD
ATOM     61  C   UNL A   1      49.562  36.233  26.518  1.00  0.00     0.037 A 
ATOM     62  C   UNL A   1      43.202  35.043  29.175  1.00  0.00     0.037 A 
ATOM     63  C   UNL A   1      48.817  37.417  26.862  1.00  0.00     0.049 A 
ATOM     64  C   UNL A   1      43.760  36.436  29.044  1.00  0.00     0.074 A 
ATOM     65  C   UNL A   1      49.185  38.742  26.709  1.00  0.00     0.029 A 
ATOM     66  N   UNL A   1      47.555  37.415  27.434  1.00  0.00    -0.354 N 
ATOM     67  N   UNL A   1      44.907  36.824  28.541  1.00  0.00    -0.248 NA
ATOM     68  C   UNL A   1      42.920  37.536  29.538  1.00  0.00     0.031 C 
ATOM     69  C   UNL A   1      48.165  39.542  27.234  1.00  0.00     0.029 A 
ATOM     70  C   UNL A   1      47.140  38.716  27.666  1.00  0.00     0.049 A 
ATOM     71  H   UNL A   1      47.030  36.609  27.644  1.00  0.00     0.167 HD
ATOM     72  C   UNL A   1      44.914  38.211  28.632  1.00  0.00     0.074 A 
ATOM     73  C   UNL A   1      43.652  38.596  29.227  1.00  0.00     0.031 C 
ATOM     74  C   UNL A   1      45.877  39.086  28.253  1.00  0.00     0.037 A 
BRANCH  61  75
ATOM     75  C   UNL A   1      50.943  36.404  25.957  1.00  0.00     0.057 A 
ATOM     76  C   UNL A   1      51.168  36.599  24.589  1.00  0.00     0.134 A 
ATOM     77  C   UNL A   1      52.059  36.409  26.804  1.00  0.00     0.134 A 
ATOM     78  F   UNL A   1      50.142  36.590  23.724  1.00  0.00    -0.206 F 
ATOM     79  C   UNL A   1      52.455  36.775  24.079  1.00  0.00     0.040 A 
ATOM     80  C   UNL A   1      53.349  36.610  26.309  1.00  0.00     0.040 A 
ATOM     81  F   UNL A   1      51.914  36.232  28.125  1.00  0.00    -0.206 F 
ATOM     82  C   UNL A   1      53.550  36.789  24.941  1.00  0.00     0.006 A 
ENDBRANCH  61  75
BRANCH  62  83
ATOM     83  C   UNL A   1      41.864  34.822  29.779  1.00  0.00     0.057 A 
ATOM     84  C   UNL A   1      40.692  35.018  29.039  1.00  0.00     0.134 A 
ATOM     85  C   UNL A   1      41.725  34.434  31.117  1.00  0.00     0.134 A 
ATOM     86  F   UNL A   1      40.760  35.413  27.760  1.00  0.00    -0.206 F 
ATOM     87  C   UNL A   1      39.430  34.854  29.613  1.00  0.00     0.040 A 
ATOM     88  C   UNL A   1      40.470  34.243  31.697  1.00  0.00     0.040 A 
ATOM     89  F   UNL A   1      42.808  34.230  31.880  1.00  0.00    -0.206 F 
ATOM     90  C   UNL A   1      39.317  34.461  30.945  1.00  0.00     0.006 A 
ENDBRANCH  62  83
BRANCH  74  91
ATOM     91  C   UNL A   1      45.592  40.548  28.437  1.00  0.00     0.057 A 
ATOM     92  C   UNL A   1      45.912  41.221  29.623  1.00  0.00     0.134 A 
ATOM     93  C   UNL A   1      45.029  41.300  27.398  1.00  0.00     0.134 A 
ATOM     94  F   UNL A   1      46.441  40.556  30.662  1.00  0.00    -0.206 F 
ATOM     95  C   UNL A   1      45.663  42.586  29.776  1.00  0.00     0.040 A 
ATOM     96  C   UNL A   1      44.800  42.670  27.530  1.00  0.00     0.040 A 
ATOM     97  F   UNL A   1      44.709  40.719  26.232  1.00  0.00    -0.206 F 
ATOM     98  C   UNL A   1      45.113  43.316  28.724  1.00  0.00     0.006 A 
ENDBRANCH  74  91
ENDBRANCH  48  49
ENDBRANCH  41  43
ENDBRANCH  40  41
ENDBRANCH  39  40
ENDBRANCH  38  39
ENDBRANCH  37  38
ENDBRANCH   1  37
TORSDOF 20
ENDMDL
