MODEL 1
REMARK VINA RESULT:      -9.7      0.000      0.000
REMARK SMILES O=C(OCCOCCOC(=O)c1ncc2ccccc2n1)c1ccc(-c2c3nc(c(-c4c(F)cccc4F)c4ccc([nH]4)c(-c4c(F)cccc4F)c4nc(c(-c5c(F)cccc5F)c5ccc2[nH]5)C=C4)C=C3)cc1
REMARK SMILES IDX 5 1 4 2 3 3 2 4 1 5 22 6 23 7 75 8 24 9 74 10 25 11 26 12
REMARK SMILES IDX 27 13 68 14 28 15 73 16 67 17 69 18 29 19 72 20 66 21 65 22
REMARK SMILES IDX 30 24 56 25 39 26 55 27 40 28 43 29 54 30 70 31 41 32 42 33
REMARK SMILES IDX 53 35 71 36 44 37 31 38 32 39 37 40 33 41 34 42 36 43 38 44
REMARK SMILES IDX 35 45 57 46 58 47 63 48 59 49 60 50 62 51 64 52 61 53 45 54
REMARK SMILES IDX 46 55 51 56 47 57 48 58 50 59 52 60 49 61 6 62 7 63 8 64
REMARK SMILES IDX 9 65 10 66 11 67 12 68 13 69 21 70 14 71 20 72 15 73 19 74
REMARK SMILES IDX 16 75 18 76 17 77
REMARK H PARENT 69 23 43 34
REMARK Flexibility Score: inf
ROOT
ATOM      1  C   UNL A   1      33.456  37.234  32.073  1.00  0.00     0.202 C 
ENDROOT
BRANCH   1   2
ATOM      2  C   UNL A   1      32.655  36.063  31.497  1.00  0.00     0.261 C 
BRANCH   2   3
ATOM      3  O   UNL A   1      32.887  35.933  30.083  1.00  0.00    -0.460 OA
BRANCH   3   4
ATOM      4  C   UNL A   1      33.248  34.842  29.369  1.00  0.00     0.338 C 
ATOM      5  O   UNL A   1      32.481  34.450  28.490  1.00  0.00    -0.246 OA
BRANCH   4   6
ATOM      6  C   UNL A   1      34.532  34.086  29.548  1.00  0.00     0.060 A 
ATOM      7  C   UNL A   1      34.773  33.088  30.493  1.00  0.00     0.016 A 
ATOM      8  C   UNL A   1      35.563  34.373  28.630  1.00  0.00     0.016 A 
ATOM      9  C   UNL A   1      36.005  32.451  30.583  1.00  0.00     0.010 A 
ATOM     10  C   UNL A   1      36.795  33.712  28.688  1.00  0.00     0.010 A 
ATOM     11  C   UNL A   1      37.027  32.768  29.691  1.00  0.00    -0.014 A 
BRANCH  11  12
ATOM     12  C   UNL A   1      38.356  32.181  29.935  1.00  0.00     0.031 A 
ATOM     13  C   UNL A   1      39.260  32.852  30.924  1.00  0.00     0.074 A 
ATOM     14  C   UNL A   1      38.663  30.985  29.401  1.00  0.00     0.049 A 
ATOM     15  N   UNL A   1      40.426  32.472  31.372  1.00  0.00    -0.248 NA
ATOM     16  C   UNL A   1      38.772  34.115  31.503  1.00  0.00     0.031 C 
ATOM     17  C   UNL A   1      37.796  30.215  28.507  1.00  0.00     0.029 A 
ATOM     18  N   UNL A   1      39.763  30.189  29.570  1.00  0.00    -0.354 N 
ATOM     19  C   UNL A   1      40.816  33.450  32.276  1.00  0.00     0.074 A 
ATOM     20  C   UNL A   1      39.770  34.450  32.305  1.00  0.00     0.031 C 
ATOM     21  C   UNL A   1      38.383  29.038  28.236  1.00  0.00     0.029 A 
ATOM     22  C   UNL A   1      39.681  28.991  28.902  1.00  0.00     0.049 A 
ATOM     23  H   UNL A   1      40.540  30.448  30.117  1.00  0.00     0.167 HD
ATOM     24  C   UNL A   1      41.947  33.508  33.014  1.00  0.00     0.037 A 
ATOM     25  C   UNL A   1      40.563  27.976  28.840  1.00  0.00     0.037 A 
ATOM     26  C   UNL A   1      42.978  32.507  32.966  1.00  0.00     0.049 A 
ATOM     27  C   UNL A   1      41.848  28.101  29.612  1.00  0.00     0.074 A 
ATOM     28  C   UNL A   1      44.197  32.485  33.616  1.00  0.00     0.029 A 
ATOM     29  N   UNL A   1      42.899  31.342  32.214  1.00  0.00    -0.354 N 
ATOM     30  N   UNL A   1      42.230  29.053  30.431  1.00  0.00    -0.248 NA
ATOM     31  C   UNL A   1      42.827  27.020  29.446  1.00  0.00     0.031 C 
ATOM     32  C   UNL A   1      44.872  31.322  33.228  1.00  0.00     0.029 A 
ATOM     33  C   UNL A   1      44.056  30.601  32.370  1.00  0.00     0.049 A 
ATOM     34  H   UNL A   1      42.134  31.083  31.652  1.00  0.00     0.167 HD
ATOM     35  C   UNL A   1      43.485  28.678  30.892  1.00  0.00     0.074 A 
ATOM     36  C   UNL A   1      43.790  27.402  30.274  1.00  0.00     0.031 C 
ATOM     37  C   UNL A   1      44.316  29.328  31.743  1.00  0.00     0.037 A 
BRANCH  24  38
ATOM     38  C   UNL A   1      42.136  34.724  33.869  1.00  0.00     0.057 A 
ATOM     39  C   UNL A   1      41.757  34.753  35.217  1.00  0.00     0.134 A 
ATOM     40  C   UNL A   1      42.661  35.900  33.318  1.00  0.00     0.134 A 
ATOM     41  F   UNL A   1      41.219  33.669  35.796  1.00  0.00    -0.206 F 
ATOM     42  C   UNL A   1      41.866  35.919  35.979  1.00  0.00     0.040 A 
ATOM     43  C   UNL A   1      42.794  37.064  34.075  1.00  0.00     0.040 A 
ATOM     44  F   UNL A   1      43.034  35.940  32.031  1.00  0.00    -0.206 F 
ATOM     45  C   UNL A   1      42.388  37.078  35.408  1.00  0.00     0.006 A 
ENDBRANCH  24  38
BRANCH  25  46
ATOM     46  C   UNL A   1      40.272  26.775  28.015  1.00  0.00     0.057 A 
ATOM     47  C   UNL A   1      40.784  26.638  26.719  1.00  0.00     0.134 A 
ATOM     48  C   UNL A   1      39.463  25.740  28.498  1.00  0.00     0.134 A 
ATOM     49  F   UNL A   1      41.548  27.604  26.189  1.00  0.00    -0.206 F 
ATOM     50  C   UNL A   1      40.491  25.523  25.931  1.00  0.00     0.040 A 
ATOM     51  C   UNL A   1      39.182  24.607  27.731  1.00  0.00     0.040 A 
ATOM     52  F   UNL A   1      38.939  25.808  29.730  1.00  0.00    -0.206 F 
ATOM     53  C   UNL A   1      39.692  24.501  26.439  1.00  0.00     0.006 A 
ENDBRANCH  25  46
BRANCH  37  54
ATOM     54  C   UNL A   1      45.612  28.653  32.068  1.00  0.00     0.057 A 
ATOM     55  C   UNL A   1      45.725  27.751  33.133  1.00  0.00     0.134 A 
ATOM     56  C   UNL A   1      46.748  28.879  31.282  1.00  0.00     0.134 A 
ATOM     57  F   UNL A   1      44.673  27.504  33.929  1.00  0.00    -0.206 F 
ATOM     58  C   UNL A   1      46.931  27.112  33.419  1.00  0.00     0.040 A 
ATOM     59  C   UNL A   1      47.953  28.228  31.544  1.00  0.00     0.040 A 
ATOM     60  F   UNL A   1      46.701  29.725  30.242  1.00  0.00    -0.206 F 
ATOM     61  C   UNL A   1      48.048  27.346  32.618  1.00  0.00     0.006 A 
ENDBRANCH  37  54
ENDBRANCH  11  12
ENDBRANCH   4   6
ENDBRANCH   3   4
ENDBRANCH   2   3
ENDBRANCH   1   2
BRANCH   1  62
ATOM     62  O   UNL A   1      34.534  36.816  32.912  1.00  0.00    -0.374 OA
BRANCH  62  63
ATOM     63  C   UNL A   1      34.478  35.454  33.351  1.00  0.00     0.202 C 
BRANCH  63  64
ATOM     64  C   UNL A   1      35.896  34.895  33.492  1.00  0.00     0.261 C 
BRANCH  64  65
ATOM     65  O   UNL A   1      35.814  33.530  33.926  1.00  0.00    -0.457 OA
BRANCH  65  66
ATOM     66  C   UNL A   1      36.671  33.201  34.935  1.00  0.00     0.376 C 
ATOM     67  O   UNL A   1      36.630  33.616  36.085  1.00  0.00    -0.242 OA
BRANCH  66  68
ATOM     68  C   UNL A   1      37.570  32.108  34.451  1.00  0.00     0.239 A 
ATOM     69  N   UNL A   1      38.813  32.084  34.975  1.00  0.00    -0.230 NA
ATOM     70  N   UNL A   1      37.046  31.186  33.616  1.00  0.00    -0.222 NA
ATOM     71  C   UNL A   1      39.577  31.042  34.607  1.00  0.00     0.124 A 
ATOM     72  C   UNL A   1      37.849  30.181  33.252  1.00  0.00     0.075 A 
ATOM     73  C   UNL A   1      39.158  30.049  33.735  1.00  0.00     0.019 A 
ATOM     74  C   UNL A   1      37.387  29.222  32.361  1.00  0.00     0.029 A 
ATOM     75  C   UNL A   1      39.976  28.977  33.338  1.00  0.00     0.012 A 
ATOM     76  C   UNL A   1      38.195  28.160  31.943  1.00  0.00     0.002 A 
ATOM     77  C   UNL A   1      39.490  28.036  32.434  1.00  0.00     0.001 A 
ENDBRANCH  66  68
ENDBRANCH  65  66
ENDBRANCH  64  65
ENDBRANCH  63  64
ENDBRANCH  62  63
ENDBRANCH   1  62
TORSDOF 14
ENDMDL
MODEL 2
REMARK VINA RESULT:      -8.7      5.614     10.763
REMARK SMILES O=C(OCCOCCOC(=O)c1ncc2ccccc2n1)c1ccc(-c2c3nc(c(-c4c(F)cccc4F)c4ccc([nH]4)c(-c4c(F)cccc4F)c4nc(c(-c5c(F)cccc5F)c5ccc2[nH]5)C=C4)C=C3)cc1
REMARK SMILES IDX 5 1 4 2 3 3 2 4 1 5 22 6 23 7 75 8 24 9 74 10 25 11 26 12
REMARK SMILES IDX 27 13 68 14 28 15 73 16 67 17 69 18 29 19 72 20 66 21 65 22
REMARK SMILES IDX 30 24 56 25 39 26 55 27 40 28 43 29 54 30 70 31 41 32 42 33
REMARK SMILES IDX 53 35 71 36 44 37 31 38 32 39 37 40 33 41 34 42 36 43 38 44
REMARK SMILES IDX 35 45 57 46 58 47 63 48 59 49 60 50 62 51 64 52 61 53 45 54
REMARK SMILES IDX 46 55 51 56 47 57 48 58 50 59 52 60 49 61 6 62 7 63 8 64
REMARK SMILES IDX 9 65 10 66 11 67 12 68 13 69 21 70 14 71 20 72 15 73 19 74
REMARK SMILES IDX 16 75 18 76 17 77
REMARK H PARENT 69 23 43 34
REMARK Flexibility Score: inf
ROOT
ATOM      1  C   UNL A   1      46.023  21.395  24.744  1.00  0.00     0.202 C 
ENDROOT
BRANCH   1   2
ATOM      2  C   UNL A   1      45.241  22.128  25.839  1.00  0.00     0.261 C 
BRANCH   2   3
ATOM      3  O   UNL A   1      44.458  23.196  25.279  1.00  0.00    -0.460 OA
BRANCH   3   4
ATOM      4  C   UNL A   1      44.607  24.533  25.416  1.00  0.00     0.338 C 
ATOM      5  O   UNL A   1      45.355  25.111  24.627  1.00  0.00    -0.246 OA
BRANCH   4   6
ATOM      6  C   UNL A   1      43.905  25.374  26.441  1.00  0.00     0.060 A 
ATOM      7  C   UNL A   1      44.112  26.736  26.667  1.00  0.00     0.016 A 
ATOM      8  C   UNL A   1      42.900  24.737  27.196  1.00  0.00     0.016 A 
ATOM      9  C   UNL A   1      43.412  27.426  27.651  1.00  0.00     0.010 A 
ATOM     10  C   UNL A   1      42.165  25.430  28.164  1.00  0.00     0.010 A 
ATOM     11  C   UNL A   1      42.446  26.775  28.413  1.00  0.00    -0.014 A 
BRANCH  11  12
ATOM     12  C   UNL A   1      41.855  27.512  29.545  1.00  0.00     0.031 A 
ATOM     13  C   UNL A   1      42.589  27.517  30.852  1.00  0.00     0.074 A 
ATOM     14  C   UNL A   1      40.775  28.287  29.342  1.00  0.00     0.049 A 
ATOM     15  N   UNL A   1      42.319  28.168  31.950  1.00  0.00    -0.248 NA
ATOM     16  C   UNL A   1      43.807  26.693  30.920  1.00  0.00     0.031 C 
ATOM     17  C   UNL A   1      40.059  28.417  28.071  1.00  0.00     0.029 A 
ATOM     18  N   UNL A   1      40.122  29.145  30.185  1.00  0.00    -0.354 N 
ATOM     19  C   UNL A   1      43.324  27.825  32.844  1.00  0.00     0.074 A 
ATOM     20  C   UNL A   1      44.204  26.898  32.166  1.00  0.00     0.031 C 
ATOM     21  C   UNL A   1      39.088  29.335  28.209  1.00  0.00     0.029 A 
ATOM     22  C   UNL A   1      39.088  29.822  29.585  1.00  0.00     0.049 A 
ATOM     23  H   UNL A   1      40.369  29.267  31.130  1.00  0.00     0.167 HD
ATOM     24  C   UNL A   1      43.495  28.246  34.117  1.00  0.00     0.037 A 
ATOM     25  C   UNL A   1      38.239  30.731  30.100  1.00  0.00     0.037 A 
ATOM     26  C   UNL A   1      42.604  29.163  34.776  1.00  0.00     0.049 A 
ATOM     27  C   UNL A   1      38.406  31.125  31.542  1.00  0.00     0.074 A 
ATOM     28  C   UNL A   1      42.634  29.614  36.082  1.00  0.00     0.029 A 
ATOM     29  N   UNL A   1      41.516  29.768  34.163  1.00  0.00    -0.354 N 
ATOM     30  N   UNL A   1      39.334  30.761  32.396  1.00  0.00    -0.248 NA
ATOM     31  C   UNL A   1      37.406  32.046  32.096  1.00  0.00     0.031 C 
ATOM     32  C   UNL A   1      41.540  30.467  36.269  1.00  0.00     0.029 A 
ATOM     33  C   UNL A   1      40.854  30.578  35.068  1.00  0.00     0.049 A 
ATOM     34  H   UNL A   1      41.253  29.640  33.223  1.00  0.00     0.167 HD
ATOM     35  C   UNL A   1      39.042  31.421  33.582  1.00  0.00     0.074 A 
ATOM     36  C   UNL A   1      37.859  32.221  33.330  1.00  0.00     0.031 C 
ATOM     37  C   UNL A   1      39.684  31.367  34.774  1.00  0.00     0.037 A 
BRANCH  24  38
ATOM     38  C   UNL A   1      44.645  27.658  34.876  1.00  0.00     0.057 A 
ATOM     39  C   UNL A   1      44.523  26.474  35.616  1.00  0.00     0.134 A 
ATOM     40  C   UNL A   1      45.881  28.314  34.906  1.00  0.00     0.134 A 
ATOM     41  F   UNL A   1      43.356  25.813  35.653  1.00  0.00    -0.206 F 
ATOM     42  C   UNL A   1      45.582  25.981  36.382  1.00  0.00     0.040 A 
ATOM     43  C   UNL A   1      46.953  27.821  35.651  1.00  0.00     0.040 A 
ATOM     44  F   UNL A   1      46.061  29.457  34.227  1.00  0.00    -0.206 F 
ATOM     45  C   UNL A   1      46.801  26.654  36.398  1.00  0.00     0.006 A 
ENDBRANCH  24  38
BRANCH  25  46
ATOM     46  C   UNL A   1      37.160  31.313  29.261  1.00  0.00     0.057 A 
ATOM     47  C   UNL A   1      37.244  32.619  28.765  1.00  0.00     0.134 A 
ATOM     48  C   UNL A   1      36.008  30.580  28.946  1.00  0.00     0.134 A 
ATOM     49  F   UNL A   1      38.310  33.381  29.049  1.00  0.00    -0.206 F 
ATOM     50  C   UNL A   1      36.219  33.179  27.999  1.00  0.00     0.040 A 
ATOM     51  C   UNL A   1      34.988  31.118  28.160  1.00  0.00     0.040 A 
ATOM     52  F   UNL A   1      35.862  29.324  29.391  1.00  0.00    -0.206 F 
ATOM     53  C   UNL A   1      35.089  32.426  27.690  1.00  0.00     0.006 A 
ENDBRANCH  25  46
BRANCH  37  54
ATOM     54  C   UNL A   1      39.133  32.218  35.876  1.00  0.00     0.057 A 
ATOM     55  C   UNL A   1      38.222  31.712  36.811  1.00  0.00     0.134 A 
ATOM     56  C   UNL A   1      39.549  33.547  36.024  1.00  0.00     0.134 A 
ATOM     57  F   UNL A   1      37.778  30.449  36.712  1.00  0.00    -0.206 F 
ATOM     58  C   UNL A   1      37.727  32.505  37.845  1.00  0.00     0.040 A 
ATOM     59  C   UNL A   1      39.078  34.343  37.067  1.00  0.00     0.040 A 
ATOM     60  F   UNL A   1      40.426  34.086  35.164  1.00  0.00    -0.206 F 
ATOM     61  C   UNL A   1      38.161  33.824  37.978  1.00  0.00     0.006 A 
ENDBRANCH  37  54
ENDBRANCH  11  12
ENDBRANCH   4   6
ENDBRANCH   3   4
ENDBRANCH   2   3
ENDBRANCH   1   2
BRANCH   1  62
ATOM     62  O   UNL A   1      46.007  19.976  24.899  1.00  0.00    -0.374 OA
BRANCH  62  63
ATOM     63  C   UNL A   1      44.891  19.305  24.303  1.00  0.00     0.202 C 
BRANCH  63  64
ATOM     64  C   UNL A   1      44.015  18.684  25.395  1.00  0.00     0.261 C 
BRANCH  64  65
ATOM     65  O   UNL A   1      42.667  19.142  25.222  1.00  0.00    -0.457 OA
BRANCH  65  66
ATOM     66  C   UNL A   1      41.947  19.240  26.377  1.00  0.00     0.376 C 
ATOM     67  O   UNL A   1      42.295  18.853  27.484  1.00  0.00    -0.242 OA
BRANCH  66  68
ATOM     68  C   UNL A   1      40.727  20.061  26.102  1.00  0.00     0.239 A 
ATOM     69  N   UNL A   1      39.706  19.424  25.493  1.00  0.00    -0.230 NA
ATOM     70  N   UNL A   1      40.704  21.329  26.566  1.00  0.00    -0.222 NA
ATOM     71  C   UNL A   1      38.583  20.143  25.340  1.00  0.00     0.124 A 
ATOM     72  C   UNL A   1      39.576  22.019  26.367  1.00  0.00     0.075 A 
ATOM     73  C   UNL A   1      38.449  21.461  25.750  1.00  0.00     0.019 A 
ATOM     74  C   UNL A   1      39.501  23.342  26.780  1.00  0.00     0.029 A 
ATOM     75  C   UNL A   1      37.276  22.212  25.561  1.00  0.00     0.012 A 
ATOM     76  C   UNL A   1      38.347  24.107  26.583  1.00  0.00     0.002 A 
ATOM     77  C   UNL A   1      37.232  23.541  25.976  1.00  0.00     0.001 A 
ENDBRANCH  66  68
ENDBRANCH  65  66
ENDBRANCH  64  65
ENDBRANCH  63  64
ENDBRANCH  62  63
ENDBRANCH   1  62
TORSDOF 14
ENDMDL
MODEL 3
REMARK VINA RESULT:      -8.6      0.545      6.388
REMARK SMILES O=C(OCCOCCOC(=O)c1ncc2ccccc2n1)c1ccc(-c2c3nc(c(-c4c(F)cccc4F)c4ccc([nH]4)c(-c4c(F)cccc4F)c4nc(c(-c5c(F)cccc5F)c5ccc2[nH]5)C=C4)C=C3)cc1
REMARK SMILES IDX 5 1 4 2 3 3 2 4 1 5 22 6 23 7 75 8 24 9 74 10 25 11 26 12
REMARK SMILES IDX 27 13 68 14 28 15 73 16 67 17 69 18 29 19 72 20 66 21 65 22
REMARK SMILES IDX 30 24 56 25 39 26 55 27 40 28 43 29 54 30 70 31 41 32 42 33
REMARK SMILES IDX 53 35 71 36 44 37 31 38 32 39 37 40 33 41 34 42 36 43 38 44
REMARK SMILES IDX 35 45 57 46 58 47 63 48 59 49 60 50 62 51 64 52 61 53 45 54
REMARK SMILES IDX 46 55 51 56 47 57 48 58 50 59 52 60 49 61 6 62 7 63 8 64
REMARK SMILES IDX 9 65 10 66 11 67 12 68 13 69 21 70 14 71 20 72 15 73 19 74
REMARK SMILES IDX 16 75 18 76 17 77
REMARK H PARENT 69 23 43 34
REMARK Flexibility Score: inf
ROOT
ATOM      1  C   UNL A   1      33.169  36.571  32.223  1.00  0.00     0.202 C 
ENDROOT
BRANCH   1   2
ATOM      2  C   UNL A   1      32.296  36.162  31.032  1.00  0.00     0.261 C 
BRANCH   2   3
ATOM      3  O   UNL A   1      33.107  35.870  29.881  1.00  0.00    -0.460 OA
BRANCH   3   4
ATOM      4  C   UNL A   1      33.452  34.673  29.355  1.00  0.00     0.338 C 
ATOM      5  O   UNL A   1      32.680  34.157  28.546  1.00  0.00    -0.246 OA
BRANCH   4   6
ATOM      6  C   UNL A   1      34.723  33.935  29.659  1.00  0.00     0.060 A 
ATOM      7  C   UNL A   1      34.856  32.854  30.532  1.00  0.00     0.016 A 
ATOM      8  C   UNL A   1      35.870  34.337  28.946  1.00  0.00     0.016 A 
ATOM      9  C   UNL A   1      36.084  32.242  30.753  1.00  0.00     0.010 A 
ATOM     10  C   UNL A   1      37.103  33.705  29.132  1.00  0.00     0.010 A 
ATOM     11  C   UNL A   1      37.217  32.672  30.065  1.00  0.00    -0.014 A 
BRANCH  11  12
ATOM     12  C   UNL A   1      38.516  32.096  30.457  1.00  0.00     0.031 A 
ATOM     13  C   UNL A   1      38.947  30.811  29.816  1.00  0.00     0.074 A 
ATOM     14  C   UNL A   1      39.348  32.805  31.241  1.00  0.00     0.049 A 
ATOM     15  N   UNL A   1      40.078  30.170  29.927  1.00  0.00    -0.248 NA
ATOM     16  C   UNL A   1      37.976  30.176  28.909  1.00  0.00     0.031 C 
ATOM     17  C   UNL A   1      39.044  34.113  31.825  1.00  0.00     0.029 A 
ATOM     18  N   UNL A   1      40.631  32.547  31.641  1.00  0.00    -0.354 N 
ATOM     19  C   UNL A   1      39.953  29.051  29.115  1.00  0.00     0.074 A 
ATOM     20  C   UNL A   1      38.632  29.092  28.526  1.00  0.00     0.031 C 
ATOM     21  C   UNL A   1      40.129  34.562  32.477  1.00  0.00     0.029 A 
ATOM     22  C   UNL A   1      41.183  33.556  32.393  1.00  0.00     0.049 A 
ATOM     23  H   UNL A   1      41.113  31.720  31.413  1.00  0.00     0.167 HD
ATOM     24  C   UNL A   1      40.861  28.076  28.884  1.00  0.00     0.037 A 
ATOM     25  C   UNL A   1      42.405  33.646  32.950  1.00  0.00     0.037 A 
ATOM     26  C   UNL A   1      42.168  28.050  29.484  1.00  0.00     0.049 A 
ATOM     27  C   UNL A   1      43.370  32.511  32.738  1.00  0.00     0.074 A 
ATOM     28  C   UNL A   1      43.151  27.085  29.379  1.00  0.00     0.029 A 
ATOM     29  N   UNL A   1      42.666  29.049  30.309  1.00  0.00    -0.354 N 
ATOM     30  N   UNL A   1      43.228  31.432  32.004  1.00  0.00    -0.248 NA
ATOM     31  C   UNL A   1      44.658  32.598  33.437  1.00  0.00     0.031 C 
ATOM     32  C   UNL A   1      44.234  27.485  30.171  1.00  0.00     0.029 A 
ATOM     33  C   UNL A   1      43.940  28.718  30.735  1.00  0.00     0.049 A 
ATOM     34  H   UNL A   1      42.185  29.872  30.555  1.00  0.00     0.167 HD
ATOM     35  C   UNL A   1      44.413  30.721  32.137  1.00  0.00     0.074 A 
ATOM     36  C   UNL A   1      45.269  31.502  33.009  1.00  0.00     0.031 C 
ATOM     37  C   UNL A   1      44.764  29.529  31.596  1.00  0.00     0.037 A 
BRANCH  24  38
ATOM     38  C   UNL A   1      40.430  26.945  28.001  1.00  0.00     0.057 A 
ATOM     39  C   UNL A   1      39.582  25.927  28.457  1.00  0.00     0.134 A 
ATOM     40  C   UNL A   1      40.911  26.848  26.690  1.00  0.00     0.134 A 
ATOM     41  F   UNL A   1      39.111  25.944  29.713  1.00  0.00    -0.206 F 
ATOM     42  C   UNL A   1      39.252  24.837  27.647  1.00  0.00     0.040 A 
ATOM     43  C   UNL A   1      40.572  25.775  25.865  1.00  0.00     0.040 A 
ATOM     44  F   UNL A   1      41.734  27.785  26.197  1.00  0.00    -0.206 F 
ATOM     45  C   UNL A   1      39.746  24.761  26.347  1.00  0.00     0.006 A 
ENDBRANCH  24  38
BRANCH  25  46
ATOM     46  C   UNL A   1      42.777  34.832  33.763  1.00  0.00     0.057 A 
ATOM     47  C   UNL A   1      43.327  35.977  33.174  1.00  0.00     0.134 A 
ATOM     48  C   UNL A   1      42.604  34.845  35.152  1.00  0.00     0.134 A 
ATOM     49  F   UNL A   1      43.540  36.021  31.851  1.00  0.00    -0.206 F 
ATOM     50  C   UNL A   1      43.703  37.084  33.938  1.00  0.00     0.040 A 
ATOM     51  C   UNL A   1      42.951  35.955  35.926  1.00  0.00     0.040 A 
ATOM     52  F   UNL A   1      42.084  33.781  35.780  1.00  0.00    -0.206 F 
ATOM     53  C   UNL A   1      43.510  37.077  35.318  1.00  0.00     0.006 A 
ENDBRANCH  25  46
BRANCH  37  54
ATOM     54  C   UNL A   1      46.136  29.021  31.914  1.00  0.00     0.057 A 
ATOM     55  C   UNL A   1      46.377  28.195  33.018  1.00  0.00     0.134 A 
ATOM     56  C   UNL A   1      47.218  29.333  31.083  1.00  0.00     0.134 A 
ATOM     57  F   UNL A   1      45.380  27.873  33.857  1.00  0.00    -0.206 F 
ATOM     58  C   UNL A   1      47.655  27.712  33.298  1.00  0.00     0.040 A 
ATOM     59  C   UNL A   1      48.496  28.837  31.339  1.00  0.00     0.040 A 
ATOM     60  F   UNL A   1      47.049  30.113  30.005  1.00  0.00    -0.206 F 
ATOM     61  C   UNL A   1      48.718  28.028  32.452  1.00  0.00     0.006 A 
ENDBRANCH  37  54
ENDBRANCH  11  12
ENDBRANCH   4   6
ENDBRANCH   3   4
ENDBRANCH   2   3
ENDBRANCH   1   2
BRANCH   1  62
ATOM     62  O   UNL A   1      34.375  35.812  32.319  1.00  0.00    -0.374 OA
BRANCH  62  63
ATOM     63  C   UNL A   1      34.457  34.928  33.443  1.00  0.00     0.202 C 
BRANCH  63  64
ATOM     64  C   UNL A   1      35.921  34.581  33.726  1.00  0.00     0.261 C 
BRANCH  64  65
ATOM     65  O   UNL A   1      35.970  33.364  34.484  1.00  0.00    -0.457 OA
BRANCH  65  66
ATOM     66  C   UNL A   1      37.074  33.229  35.274  1.00  0.00     0.376 C 
ATOM     67  O   UNL A   1      37.281  33.802  36.334  1.00  0.00    -0.242 OA
BRANCH  66  68
ATOM     68  C   UNL A   1      37.917  32.127  34.718  1.00  0.00     0.239 A 
ATOM     69  N   UNL A   1      39.209  32.111  35.107  1.00  0.00    -0.230 NA
ATOM     70  N   UNL A   1      37.309  31.189  33.961  1.00  0.00    -0.222 NA
ATOM     71  C   UNL A   1      39.931  31.063  34.679  1.00  0.00     0.124 A 
ATOM     72  C   UNL A   1      38.070  30.177  33.533  1.00  0.00     0.075 A 
ATOM     73  C   UNL A   1      39.424  30.054  33.876  1.00  0.00     0.019 A 
ATOM     74  C   UNL A   1      37.518  29.202  32.714  1.00  0.00     0.029 A 
ATOM     75  C   UNL A   1      40.196  28.974  33.414  1.00  0.00     0.012 A 
ATOM     76  C   UNL A   1      38.278  28.131  32.233  1.00  0.00     0.002 A 
ATOM     77  C   UNL A   1      39.618  28.016  32.585  1.00  0.00     0.001 A 
ENDBRANCH  66  68
ENDBRANCH  65  66
ENDBRANCH  64  65
ENDBRANCH  63  64
ENDBRANCH  62  63
ENDBRANCH   1  62
TORSDOF 14
ENDMDL
