MODEL 1
REMARK VINA RESULT:     -11.8      0.000      0.000
REMARK SMILES O=C(OCCOCCOC(=O)[C@H]1CC=CC[C@H]1C(=O)Nc1ccc(S(=O)(=O)N2CCc3ccccc32)cc1)c1ccc(-c2c3nc(c(-c4c(F)cccc4F)c4ccc([nH]4)c(-c4c(F)cccc4F)c4nc(c(-c5c(F)cccc5F)c5ccc2[nH]5)C=C4)C=C3)cc1
REMARK SMILES IDX 7 1 6 2 5 3 4 4 3 5 2 6 1 7 39 8 40 9 92 10 41 11 91 12
REMARK SMILES IDX 42 13 43 14 44 15 85 16 45 17 90 18 84 19 86 20 46 21 89 22
REMARK SMILES IDX 83 23 82 24 47 26 73 27 56 28 72 29 57 30 60 31 71 32 87 33
REMARK SMILES IDX 58 34 59 35 70 37 88 38 61 39 48 40 49 41 54 42 50 43 51 44
REMARK SMILES IDX 53 45 55 46 52 47 74 48 75 49 80 50 76 51 77 52 79 53 81 54
REMARK SMILES IDX 78 55 62 56 63 57 68 58 64 59 65 60 67 61 69 62 66 63 8 64
REMARK SMILES IDX 9 65 10 66 11 67 12 68 13 69 17 70 14 71 16 72 15 73 18 74
REMARK SMILES IDX 19 75 20 76 21 78 22 79 38 80 23 81 37 82 24 83 25 84 26 85
REMARK SMILES IDX 27 86 28 87 29 88 36 89 30 90 31 91 35 92 32 93 34 94 33 95
REMARK H PARENT 86 25 60 36 20 77
REMARK Flexibility Score: inf
ROOT
ATOM      1  C   UNL A   1      38.024  21.690  25.390  1.00  0.00     0.202 C 
ENDROOT
BRANCH   1   2
ATOM      2  O   UNL A   1      37.554  20.567  24.636  1.00  0.00    -0.374 OA
BRANCH   2   3
ATOM      3  C   UNL A   1      38.157  19.328  25.032  1.00  0.00     0.202 C 
BRANCH   3   4
ATOM      4  C   UNL A   1      39.356  19.586  25.947  1.00  0.00     0.261 C 
BRANCH   4   5
ATOM      5  O   UNL A   1      40.588  18.959  25.524  1.00  0.00    -0.460 OA
BRANCH   5   6
ATOM      6  C   UNL A   1      41.721  19.177  26.239  1.00  0.00     0.338 C 
ATOM      7  O   UNL A   1      42.629  18.363  26.328  1.00  0.00    -0.246 OA
BRANCH   6   8
ATOM      8  C   UNL A   1      41.895  20.607  26.604  1.00  0.00     0.060 A 
ATOM      9  C   UNL A   1      42.068  21.604  25.640  1.00  0.00     0.016 A 
ATOM     10  C   UNL A   1      41.860  20.955  27.958  1.00  0.00     0.016 A 
ATOM     11  C   UNL A   1      42.272  22.925  26.020  1.00  0.00     0.010 A 
ATOM     12  C   UNL A   1      42.051  22.285  28.343  1.00  0.00     0.010 A 
ATOM     13  C   UNL A   1      42.285  23.270  27.372  1.00  0.00    -0.014 A 
BRANCH  13  14
ATOM     14  C   UNL A   1      42.657  24.648  27.755  1.00  0.00     0.031 A 
ATOM     15  C   UNL A   1      44.101  25.039  27.732  1.00  0.00     0.074 A 
ATOM     16  C   UNL A   1      41.712  25.560  28.039  1.00  0.00     0.049 A 
ATOM     17  N   UNL A   1      44.656  26.174  28.068  1.00  0.00    -0.248 NA
ATOM     18  C   UNL A   1      45.047  24.019  27.252  1.00  0.00     0.031 C 
ATOM     19  C   UNL A   1      40.273  25.319  27.995  1.00  0.00     0.029 A 
ATOM     20  N   UNL A   1      41.825  26.875  28.410  1.00  0.00    -0.354 N 
ATOM     21  C   UNL A   1      46.015  26.002  27.856  1.00  0.00     0.074 A 
ATOM     22  C   UNL A   1      46.204  24.651  27.369  1.00  0.00     0.031 C 
ATOM     23  C   UNL A   1      39.638  26.454  28.331  1.00  0.00     0.029 A 
ATOM     24  C   UNL A   1      40.617  27.480  28.648  1.00  0.00     0.049 A 
ATOM     25  H   UNL A   1      42.689  27.339  28.496  1.00  0.00     0.167 HD
ATOM     26  C   UNL A   1      47.015  26.891  28.060  1.00  0.00     0.037 A 
ATOM     27  C   UNL A   1      40.326  28.715  29.096  1.00  0.00     0.037 A 
ATOM     28  C   UNL A   1      46.819  28.223  28.564  1.00  0.00     0.049 A 
ATOM     29  C   UNL A   1      41.456  29.652  29.402  1.00  0.00     0.074 A 
ATOM     30  C   UNL A   1      47.767  29.187  28.854  1.00  0.00     0.029 A 
ATOM     31  N   UNL A   1      45.581  28.777  28.860  1.00  0.00    -0.354 N 
ATOM     32  N   UNL A   1      42.745  29.464  29.253  1.00  0.00    -0.248 NA
ATOM     33  C   UNL A   1      41.094  30.964  29.952  1.00  0.00     0.031 C 
ATOM     34  C   UNL A   1      47.107  30.311  29.363  1.00  0.00     0.029 A 
ATOM     35  C   UNL A   1      45.743  30.063  29.347  1.00  0.00     0.049 A 
ATOM     36  H   UNL A   1      44.715  28.323  28.740  1.00  0.00     0.167 HD
ATOM     37  C   UNL A   1      43.349  30.634  29.683  1.00  0.00     0.074 A 
ATOM     38  C   UNL A   1      42.284  31.535  30.080  1.00  0.00     0.031 C 
ATOM     39  C   UNL A   1      44.668  30.936  29.748  1.00  0.00     0.037 A 
BRANCH  26  40
ATOM     40  C   UNL A   1      48.407  26.406  27.796  1.00  0.00     0.057 A 
ATOM     41  C   UNL A   1      49.028  26.572  26.552  1.00  0.00     0.134 A 
ATOM     42  C   UNL A   1      49.121  25.731  28.794  1.00  0.00     0.134 A 
ATOM     43  F   UNL A   1      48.385  27.184  25.547  1.00  0.00    -0.206 F 
ATOM     44  C   UNL A   1      50.302  26.059  26.302  1.00  0.00     0.040 A 
ATOM     45  C   UNL A   1      50.403  25.233  28.562  1.00  0.00     0.040 A 
ATOM     46  F   UNL A   1      48.578  25.534  30.005  1.00  0.00    -0.206 F 
ATOM     47  C   UNL A   1      50.994  25.390  27.310  1.00  0.00     0.006 A 
ENDBRANCH  26  40
BRANCH  27  48
ATOM     48  C   UNL A   1      38.919  29.124  29.328  1.00  0.00     0.057 A 
ATOM     49  C   UNL A   1      38.316  28.978  30.582  1.00  0.00     0.134 A 
ATOM     50  C   UNL A   1      38.133  29.637  28.290  1.00  0.00     0.134 A 
ATOM     51  F   UNL A   1      39.007  28.461  31.608  1.00  0.00    -0.206 F 
ATOM     52  C   UNL A   1      36.978  29.319  30.792  1.00  0.00     0.040 A 
ATOM     53  C   UNL A   1      36.797  29.990  28.488  1.00  0.00     0.040 A 
ATOM     54  F   UNL A   1      38.653  29.803  27.065  1.00  0.00    -0.206 F 
ATOM     55  C   UNL A   1      36.215  29.830  29.743  1.00  0.00     0.006 A 
ENDBRANCH  27  48
BRANCH  39  56
ATOM     56  C   UNL A   1      45.023  32.299  30.255  1.00  0.00     0.057 A 
ATOM     57  C   UNL A   1      45.288  32.535  31.609  1.00  0.00     0.134 A 
ATOM     58  C   UNL A   1      45.119  33.383  29.374  1.00  0.00     0.134 A 
ATOM     59  F   UNL A   1      45.193  31.540  32.504  1.00  0.00    -0.206 F 
ATOM     60  C   UNL A   1      45.620  33.808  32.074  1.00  0.00     0.040 A 
ATOM     61  C   UNL A   1      45.472  34.655  29.823  1.00  0.00     0.040 A 
ATOM     62  F   UNL A   1      44.878  33.219  28.064  1.00  0.00    -0.206 F 
ATOM     63  C   UNL A   1      45.719  34.870  31.177  1.00  0.00     0.006 A 
ENDBRANCH  39  56
ENDBRANCH  13  14
ENDBRANCH   6   8
ENDBRANCH   5   6
ENDBRANCH   4   5
ENDBRANCH   3   4
ENDBRANCH   2   3
ENDBRANCH   1   2
BRANCH   1  64
ATOM     64  C   UNL A   1      37.330  23.000  25.002  1.00  0.00     0.261 C 
BRANCH  64  65
ATOM     65  O   UNL A   1      36.086  22.734  24.325  1.00  0.00    -0.463 OA
BRANCH  65  66
ATOM     66  C   UNL A   1      34.945  23.006  25.025  1.00  0.00     0.310 C 
ATOM     67  O   UNL A   1      34.570  24.137  25.306  1.00  0.00    -0.252 OA
BRANCH  66  68
ATOM     68  C   UNL A   1      34.215  21.717  25.382  1.00  0.00     0.116 C 
ATOM     69  C   UNL A   1      34.422  21.538  26.902  1.00  0.00     0.043 C 
ATOM     70  C   UNL A   1      32.703  21.596  25.027  1.00  0.00     0.097 C 
ATOM     71  C   UNL A   1      33.441  22.316  27.733  1.00  0.00    -0.030 C 
ATOM     72  C   UNL A   1      31.740  22.421  25.899  1.00  0.00     0.041 C 
ATOM     73  C   UNL A   1      32.248  22.717  27.276  1.00  0.00    -0.030 C 
BRANCH  70  74
ATOM     74  C   UNL A   1      32.274  21.395  23.543  1.00  0.00     0.228 C 
ATOM     75  O   UNL A   1      32.559  20.341  22.961  1.00  0.00    -0.274 OA
ATOM     76  N   UNL A   1      31.457  22.298  22.891  1.00  0.00    -0.326 N 
ATOM     77  H   UNL A   1      30.739  21.920  22.334  1.00  0.00     0.169 HD
BRANCH  76  78
ATOM     78  C   UNL A   1      31.546  23.696  22.939  1.00  0.00     0.041 A 
ATOM     79  C   UNL A   1      32.668  24.405  22.526  1.00  0.00     0.027 A 
ATOM     80  C   UNL A   1      30.482  24.396  23.470  1.00  0.00     0.027 A 
ATOM     81  C   UNL A   1      32.621  25.812  22.504  1.00  0.00     0.024 A 
ATOM     82  C   UNL A   1      30.386  25.769  23.402  1.00  0.00     0.024 A 
ATOM     83  C   UNL A   1      31.447  26.481  22.887  1.00  0.00     0.088 A 
BRANCH  83  84
ATOM     84  S   UNL A   1      31.319  28.246  22.819  1.00  0.00     0.264 S 
ATOM     85  O   UNL A   1      32.692  28.722  22.733  1.00  0.00    -0.201 OA
ATOM     86  O   UNL A   1      30.355  28.571  21.799  1.00  0.00    -0.201 OA
BRANCH  84  87
ATOM     87  N   UNL A   1      30.646  28.645  24.408  1.00  0.00    -0.266 N 
ATOM     88  C   UNL A   1      30.213  30.105  24.501  1.00  0.00     0.140 C 
ATOM     89  C   UNL A   1      31.656  28.511  25.408  1.00  0.00     0.055 A 
ATOM     90  C   UNL A   1      31.321  30.851  25.278  1.00  0.00     0.060 C 
ATOM     91  C   UNL A   1      32.207  29.740  25.730  1.00  0.00    -0.022 A 
ATOM     92  C   UNL A   1      32.190  27.318  25.846  1.00  0.00     0.027 A 
ATOM     93  C   UNL A   1      33.452  29.792  26.328  1.00  0.00     0.006 A 
ATOM     94  C   UNL A   1      33.430  27.358  26.469  1.00  0.00     0.002 A 
ATOM     95  C   UNL A   1      34.082  28.585  26.658  1.00  0.00     0.000 A 
ENDBRANCH  84  87
ENDBRANCH  83  84
ENDBRANCH  76  78
ENDBRANCH  70  74
ENDBRANCH  66  68
ENDBRANCH  65  66
ENDBRANCH  64  65
ENDBRANCH   1  64
TORSDOF 18
ENDMDL
MODEL 2
REMARK VINA RESULT:     -11.7      0.712      5.828
REMARK SMILES O=C(OCCOCCOC(=O)[C@H]1CC=CC[C@H]1C(=O)Nc1ccc(S(=O)(=O)N2CCc3ccccc32)cc1)c1ccc(-c2c3nc(c(-c4c(F)cccc4F)c4ccc([nH]4)c(-c4c(F)cccc4F)c4nc(c(-c5c(F)cccc5F)c5ccc2[nH]5)C=C4)C=C3)cc1
REMARK SMILES IDX 7 1 6 2 5 3 4 4 3 5 2 6 1 7 39 8 40 9 92 10 41 11 91 12
REMARK SMILES IDX 42 13 43 14 44 15 85 16 45 17 90 18 84 19 86 20 46 21 89 22
REMARK SMILES IDX 83 23 82 24 47 26 73 27 56 28 72 29 57 30 60 31 71 32 87 33
REMARK SMILES IDX 58 34 59 35 70 37 88 38 61 39 48 40 49 41 54 42 50 43 51 44
REMARK SMILES IDX 53 45 55 46 52 47 74 48 75 49 80 50 76 51 77 52 79 53 81 54
REMARK SMILES IDX 78 55 62 56 63 57 68 58 64 59 65 60 67 61 69 62 66 63 8 64
REMARK SMILES IDX 9 65 10 66 11 67 12 68 13 69 17 70 14 71 16 72 15 73 18 74
REMARK SMILES IDX 19 75 20 76 21 78 22 79 38 80 23 81 37 82 24 83 25 84 26 85
REMARK SMILES IDX 27 86 28 87 29 88 36 89 30 90 31 91 35 92 32 93 34 94 33 95
REMARK H PARENT 86 25 60 36 20 77
REMARK Flexibility Score: inf
ROOT
ATOM      1  C   UNL A   1      37.871  22.069  25.613  1.00  0.00     0.202 C 
ENDROOT
BRANCH   1   2
ATOM      2  O   UNL A   1      37.433  21.001  24.766  1.00  0.00    -0.374 OA
BRANCH   2   3
ATOM      3  C   UNL A   1      38.168  19.786  24.961  1.00  0.00     0.202 C 
BRANCH   3   4
ATOM      4  C   UNL A   1      39.497  20.073  25.663  1.00  0.00     0.261 C 
BRANCH   4   5
ATOM      5  O   UNL A   1      40.352  18.920  25.839  1.00  0.00    -0.460 OA
BRANCH   5   6
ATOM      6  C   UNL A   1      41.681  19.106  26.046  1.00  0.00     0.338 C 
ATOM      7  O   UNL A   1      42.535  18.299  25.709  1.00  0.00    -0.246 OA
BRANCH   6   8
ATOM      8  C   UNL A   1      42.008  20.512  26.395  1.00  0.00     0.060 A 
ATOM      9  C   UNL A   1      42.276  21.478  25.421  1.00  0.00     0.016 A 
ATOM     10  C   UNL A   1      42.022  20.874  27.747  1.00  0.00     0.016 A 
ATOM     11  C   UNL A   1      42.623  22.772  25.786  1.00  0.00     0.010 A 
ATOM     12  C   UNL A   1      42.357  22.179  28.118  1.00  0.00     0.010 A 
ATOM     13  C   UNL A   1      42.684  23.126  27.136  1.00  0.00    -0.014 A 
BRANCH  13  14
ATOM     14  C   UNL A   1      43.203  24.460  27.502  1.00  0.00     0.031 A 
ATOM     15  C   UNL A   1      42.240  25.509  27.960  1.00  0.00     0.074 A 
ATOM     16  C   UNL A   1      44.524  24.705  27.507  1.00  0.00     0.049 A 
ATOM     17  N   UNL A   1      42.466  26.754  28.288  1.00  0.00    -0.248 NA
ATOM     18  C   UNL A   1      40.831  25.097  28.077  1.00  0.00     0.031 C 
ATOM     19  C   UNL A   1      45.560  23.730  27.178  1.00  0.00     0.029 A 
ATOM     20  N   UNL A   1      45.218  25.848  27.809  1.00  0.00    -0.354 N 
ATOM     21  C   UNL A   1      41.231  27.280  28.635  1.00  0.00     0.074 A 
ATOM     22  C   UNL A   1      40.256  26.222  28.471  1.00  0.00     0.031 C 
ATOM     23  C   UNL A   1      46.760  24.322  27.294  1.00  0.00     0.029 A 
ATOM     24  C   UNL A   1      46.576  25.716  27.665  1.00  0.00     0.049 A 
ATOM     25  H   UNL A   1      44.784  26.682  28.101  1.00  0.00     0.167 HD
ATOM     26  C   UNL A   1      40.940  28.536  29.044  1.00  0.00     0.037 A 
ATOM     27  C   UNL A   1      47.565  26.620  27.792  1.00  0.00     0.037 A 
ATOM     28  C   UNL A   1      41.913  29.585  29.183  1.00  0.00     0.049 A 
ATOM     29  C   UNL A   1      47.207  28.028  28.158  1.00  0.00     0.074 A 
ATOM     30  C   UNL A   1      41.716  30.905  29.543  1.00  0.00     0.029 A 
ATOM     31  N   UNL A   1      43.274  29.428  28.961  1.00  0.00    -0.354 N 
ATOM     32  N   UNL A   1      46.029  28.534  28.430  1.00  0.00    -0.248 NA
ATOM     33  C   UNL A   1      48.311  28.995  28.218  1.00  0.00     0.031 C 
ATOM     34  C   UNL A   1      42.953  31.559  29.500  1.00  0.00     0.029 A 
ATOM     35  C   UNL A   1      43.927  30.634  29.157  1.00  0.00     0.049 A 
ATOM     36  H   UNL A   1      43.711  28.585  28.702  1.00  0.00     0.167 HD
ATOM     37  C   UNL A   1      46.247  29.875  28.702  1.00  0.00     0.074 A 
ATOM     38  C   UNL A   1      47.675  30.100  28.581  1.00  0.00     0.031 C 
ATOM     39  C   UNL A   1      45.347  30.837  29.019  1.00  0.00     0.037 A 
BRANCH  26  40
ATOM     40  C   UNL A   1      39.496  28.840  29.299  1.00  0.00     0.057 A 
ATOM     41  C   UNL A   1      38.912  28.671  30.561  1.00  0.00     0.134 A 
ATOM     42  C   UNL A   1      38.670  29.272  28.254  1.00  0.00     0.134 A 
ATOM     43  F   UNL A   1      39.643  28.231  31.595  1.00  0.00    -0.206 F 
ATOM     44  C   UNL A   1      37.550  28.898  30.767  1.00  0.00     0.040 A 
ATOM     45  C   UNL A   1      37.312  29.523  28.454  1.00  0.00     0.040 A 
ATOM     46  F   UNL A   1      39.167  29.446  27.020  1.00  0.00    -0.206 F 
ATOM     47  C   UNL A   1      36.747  29.328  29.713  1.00  0.00     0.006 A 
ENDBRANCH  26  40
BRANCH  27  48
ATOM     48  C   UNL A   1      48.975  26.240  27.527  1.00  0.00     0.057 A 
ATOM     49  C   UNL A   1      49.833  25.857  28.562  1.00  0.00     0.134 A 
ATOM     50  C   UNL A   1      49.506  26.287  26.233  1.00  0.00     0.134 A 
ATOM     51  F   UNL A   1      49.392  25.826  29.828  1.00  0.00    -0.206 F 
ATOM     52  C   UNL A   1      51.173  25.544  28.322  1.00  0.00     0.040 A 
ATOM     53  C   UNL A   1      50.841  25.967  25.977  1.00  0.00     0.040 A 
ATOM     54  F   UNL A   1      48.734  26.644  25.196  1.00  0.00    -0.206 F 
ATOM     55  C   UNL A   1      51.679  25.596  27.025  1.00  0.00     0.006 A 
ENDBRANCH  27  48
BRANCH  39  56
ATOM     56  C   UNL A   1      45.888  32.210  29.268  1.00  0.00     0.057 A 
ATOM     57  C   UNL A   1      46.268  32.630  30.548  1.00  0.00     0.134 A 
ATOM     58  C   UNL A   1      46.051  33.113  28.211  1.00  0.00     0.134 A 
ATOM     59  F   UNL A   1      46.117  31.816  31.604  1.00  0.00    -0.206 F 
ATOM     60  C   UNL A   1      46.773  33.911  30.773  1.00  0.00     0.040 A 
ATOM     61  C   UNL A   1      46.577  34.388  28.419  1.00  0.00     0.040 A 
ATOM     62  F   UNL A   1      45.707  32.767  26.961  1.00  0.00    -0.206 F 
ATOM     63  C   UNL A   1      46.935  34.791  29.704  1.00  0.00     0.006 A 
ENDBRANCH  39  56
ENDBRANCH  13  14
ENDBRANCH   6   8
ENDBRANCH   5   6
ENDBRANCH   4   5
ENDBRANCH   3   4
ENDBRANCH   2   3
ENDBRANCH   1   2
BRANCH   1  64
ATOM     64  C   UNL A   1      37.163  23.394  25.317  1.00  0.00     0.261 C 
BRANCH  64  65
ATOM     65  O   UNL A   1      35.977  23.171  24.528  1.00  0.00    -0.463 OA
BRANCH  65  66
ATOM     66  C   UNL A   1      34.782  23.347  25.167  1.00  0.00     0.310 C 
ATOM     67  O   UNL A   1      34.331  24.441  25.480  1.00  0.00    -0.252 OA
BRANCH  66  68
ATOM     68  C   UNL A   1      34.101  22.006  25.410  1.00  0.00     0.116 C 
ATOM     69  C   UNL A   1      34.253  21.740  26.924  1.00  0.00     0.043 C 
ATOM     70  C   UNL A   1      32.613  21.838  24.981  1.00  0.00     0.097 C 
ATOM     71  C   UNL A   1      33.201  22.418  27.757  1.00  0.00    -0.030 C 
ATOM     72  C   UNL A   1      31.575  22.561  25.857  1.00  0.00     0.041 C 
ATOM     73  C   UNL A   1      32.010  22.791  27.271  1.00  0.00    -0.030 C 
BRANCH  70  74
ATOM     74  C   UNL A   1      32.258  21.713  23.469  1.00  0.00     0.228 C 
ATOM     75  O   UNL A   1      32.531  20.671  22.861  1.00  0.00    -0.274 OA
ATOM     76  N   UNL A   1      31.514  22.673  22.812  1.00  0.00    -0.326 N 
ATOM     77  H   UNL A   1      30.812  22.347  22.203  1.00  0.00     0.169 HD
BRANCH  76  78
ATOM     78  C   UNL A   1      31.656  24.064  22.921  1.00  0.00     0.041 A 
ATOM     79  C   UNL A   1      32.805  24.747  22.540  1.00  0.00     0.027 A 
ATOM     80  C   UNL A   1      30.618  24.779  23.483  1.00  0.00     0.027 A 
ATOM     81  C   UNL A   1      32.812  26.154  22.580  1.00  0.00     0.024 A 
ATOM     82  C   UNL A   1      30.575  26.156  23.475  1.00  0.00     0.024 A 
ATOM     83  C   UNL A   1      31.663  26.850  22.992  1.00  0.00     0.088 A 
BRANCH  83  84
ATOM     84  S   UNL A   1      31.603  28.619  23.001  1.00  0.00     0.264 S 
ATOM     85  O   UNL A   1      32.988  29.045  23.138  1.00  0.00    -0.201 OA
ATOM     86  O   UNL A   1      30.808  29.032  21.873  1.00  0.00    -0.201 OA
BRANCH  84  87
ATOM     87  N   UNL A   1      30.720  28.967  24.497  1.00  0.00    -0.266 N 
ATOM     88  C   UNL A   1      30.136  30.376  24.508  1.00  0.00     0.140 C 
ATOM     89  C   UNL A   1      31.620  28.949  25.605  1.00  0.00     0.055 A 
ATOM     90  C   UNL A   1      31.070  31.240  25.385  1.00  0.00     0.060 C 
ATOM     91  C   UNL A   1      32.007  30.231  25.957  1.00  0.00    -0.022 A 
ATOM     92  C   UNL A   1      32.219  27.822  26.127  1.00  0.00     0.027 A 
ATOM     93  C   UNL A   1      33.166  30.417  26.687  1.00  0.00     0.006 A 
ATOM     94  C   UNL A   1      33.371  27.994  26.881  1.00  0.00     0.002 A 
ATOM     95  C   UNL A   1      33.872  29.284  27.112  1.00  0.00     0.000 A 
ENDBRANCH  84  87
ENDBRANCH  83  84
ENDBRANCH  76  78
ENDBRANCH  70  74
ENDBRANCH  66  68
ENDBRANCH  65  66
ENDBRANCH  64  65
ENDBRANCH   1  64
TORSDOF 18
ENDMDL
MODEL 3
REMARK VINA RESULT:     -11.7      2.280      7.912
REMARK SMILES O=C(OCCOCCOC(=O)[C@H]1CC=CC[C@H]1C(=O)Nc1ccc(S(=O)(=O)N2CCc3ccccc32)cc1)c1ccc(-c2c3nc(c(-c4c(F)cccc4F)c4ccc([nH]4)c(-c4c(F)cccc4F)c4nc(c(-c5c(F)cccc5F)c5ccc2[nH]5)C=C4)C=C3)cc1
REMARK SMILES IDX 7 1 6 2 5 3 4 4 3 5 2 6 1 7 39 8 40 9 92 10 41 11 91 12
REMARK SMILES IDX 42 13 43 14 44 15 85 16 45 17 90 18 84 19 86 20 46 21 89 22
REMARK SMILES IDX 83 23 82 24 47 26 73 27 56 28 72 29 57 30 60 31 71 32 87 33
REMARK SMILES IDX 58 34 59 35 70 37 88 38 61 39 48 40 49 41 54 42 50 43 51 44
REMARK SMILES IDX 53 45 55 46 52 47 74 48 75 49 80 50 76 51 77 52 79 53 81 54
REMARK SMILES IDX 78 55 62 56 63 57 68 58 64 59 65 60 67 61 69 62 66 63 8 64
REMARK SMILES IDX 9 65 10 66 11 67 12 68 13 69 17 70 14 71 16 72 15 73 18 74
REMARK SMILES IDX 19 75 20 76 21 78 22 79 38 80 23 81 37 82 24 83 25 84 26 85
REMARK SMILES IDX 27 86 28 87 29 88 36 89 30 90 31 91 35 92 32 93 34 94 33 95
REMARK H PARENT 86 25 60 36 20 77
REMARK Flexibility Score: inf
ROOT
ATOM      1  C   UNL A   1      31.687  28.230  27.685  1.00  0.00     0.202 C 
ENDROOT
BRANCH   1   2
ATOM      2  O   UNL A   1      32.081  29.456  27.060  1.00  0.00    -0.374 OA
BRANCH   2   3
ATOM      3  C   UNL A   1      33.481  29.735  27.193  1.00  0.00     0.202 C 
BRANCH   3   4
ATOM      4  C   UNL A   1      33.697  31.187  27.622  1.00  0.00     0.261 C 
BRANCH   4   5
ATOM      5  O   UNL A   1      35.080  31.568  27.800  1.00  0.00    -0.460 OA
BRANCH   5   6
ATOM      6  C   UNL A   1      35.653  31.429  29.023  1.00  0.00     0.338 C 
ATOM      7  O   UNL A   1      35.050  31.604  30.073  1.00  0.00    -0.246 OA
BRANCH   6   8
ATOM      8  C   UNL A   1      36.955  30.717  28.962  1.00  0.00     0.060 A 
ATOM      9  C   UNL A   1      37.728  30.480  30.102  1.00  0.00     0.016 A 
ATOM     10  C   UNL A   1      37.400  30.255  27.718  1.00  0.00     0.016 A 
ATOM     11  C   UNL A   1      38.962  29.851  30.000  1.00  0.00     0.010 A 
ATOM     12  C   UNL A   1      38.635  29.609  27.614  1.00  0.00     0.010 A 
ATOM     13  C   UNL A   1      39.432  29.430  28.755  1.00  0.00    -0.014 A 
BRANCH  13  14
ATOM     14  C   UNL A   1      40.809  28.905  28.650  1.00  0.00     0.031 A 
ATOM     15  C   UNL A   1      41.956  29.824  28.931  1.00  0.00     0.074 A 
ATOM     16  C   UNL A   1      41.031  27.606  28.390  1.00  0.00     0.049 A 
ATOM     17  N   UNL A   1      43.240  29.592  28.858  1.00  0.00    -0.248 NA
ATOM     18  C   UNL A   1      41.610  31.187  29.366  1.00  0.00     0.031 C 
ATOM     19  C   UNL A   1      39.991  26.599  28.200  1.00  0.00     0.029 A 
ATOM     20  N   UNL A   1      42.205  26.911  28.252  1.00  0.00    -0.354 N 
ATOM     21  C   UNL A   1      43.856  30.779  29.222  1.00  0.00     0.074 A 
ATOM     22  C   UNL A   1      42.807  31.735  29.508  1.00  0.00     0.031 C 
ATOM     23  C   UNL A   1      40.579  25.414  27.966  1.00  0.00     0.029 A 
ATOM     24  C   UNL A   1      42.022  25.585  27.952  1.00  0.00     0.049 A 
ATOM     25  H   UNL A   1      43.092  27.325  28.358  1.00  0.00     0.167 HD
ATOM     26  C   UNL A   1      45.180  31.047  29.299  1.00  0.00     0.037 A 
ATOM     27  C   UNL A   1      42.914  24.617  27.671  1.00  0.00     0.037 A 
ATOM     28  C   UNL A   1      46.215  30.098  28.992  1.00  0.00     0.049 A 
ATOM     29  C   UNL A   1      44.372  24.962  27.675  1.00  0.00     0.074 A 
ATOM     30  C   UNL A   1      47.585  30.281  28.991  1.00  0.00     0.029 A 
ATOM     31  N   UNL A   1      45.987  28.779  28.624  1.00  0.00    -0.354 N 
ATOM     32  N   UNL A   1      44.948  26.104  27.965  1.00  0.00    -0.248 NA
ATOM     33  C   UNL A   1      45.304  23.892  27.297  1.00  0.00     0.031 C 
ATOM     34  C   UNL A   1      48.186  29.085  28.582  1.00  0.00     0.029 A 
ATOM     35  C   UNL A   1      47.191  28.143  28.374  1.00  0.00     0.049 A 
ATOM     36  H   UNL A   1      45.099  28.358  28.551  1.00  0.00     0.167 HD
ATOM     37  C   UNL A   1      46.308  25.890  27.812  1.00  0.00     0.074 A 
ATOM     38  C   UNL A   1      46.474  24.502  27.424  1.00  0.00     0.031 C 
ATOM     39  C   UNL A   1      47.330  26.765  27.976  1.00  0.00     0.037 A 
BRANCH  26  40
ATOM     40  C   UNL A   1      45.560  32.448  29.669  1.00  0.00     0.057 A 
ATOM     41  C   UNL A   1      45.707  32.851  31.002  1.00  0.00     0.134 A 
ATOM     42  C   UNL A   1      45.745  33.415  28.674  1.00  0.00     0.134 A 
ATOM     43  F   UNL A   1      45.513  31.979  32.001  1.00  0.00    -0.206 F 
ATOM     44  C   UNL A   1      45.999  34.176  31.332  1.00  0.00     0.040 A 
ATOM     45  C   UNL A   1      46.059  34.737  28.991  1.00  0.00     0.040 A 
ATOM     46  F   UNL A   1      45.612  33.094  27.378  1.00  0.00    -0.206 F 
ATOM     47  C   UNL A   1      46.178  35.122  30.325  1.00  0.00     0.006 A 
ENDBRANCH  26  40
BRANCH  27  48
ATOM     48  C   UNL A   1      42.459  23.250  27.318  1.00  0.00     0.057 A 
ATOM     49  C   UNL A   1      42.164  22.303  28.304  1.00  0.00     0.134 A 
ATOM     50  C   UNL A   1      42.344  22.847  25.983  1.00  0.00     0.134 A 
ATOM     51  F   UNL A   1      42.288  22.618  29.602  1.00  0.00    -0.206 F 
ATOM     52  C   UNL A   1      41.780  21.001  27.975  1.00  0.00     0.040 A 
ATOM     53  C   UNL A   1      41.952  21.551  25.639  1.00  0.00     0.040 A 
ATOM     54  F   UNL A   1      42.611  23.708  24.990  1.00  0.00    -0.206 F 
ATOM     55  C   UNL A   1      41.670  20.624  26.638  1.00  0.00     0.006 A 
ENDBRANCH  27  48
BRANCH  39  56
ATOM     56  C   UNL A   1      48.712  26.236  27.745  1.00  0.00     0.057 A 
ATOM     57  C   UNL A   1      49.489  25.726  28.792  1.00  0.00     0.134 A 
ATOM     58  C   UNL A   1      49.261  26.218  26.458  1.00  0.00     0.134 A 
ATOM     59  F   UNL A   1      49.024  25.734  30.051  1.00  0.00    -0.206 F 
ATOM     60  C   UNL A   1      50.775  25.233  28.570  1.00  0.00     0.040 A 
ATOM     61  C   UNL A   1      50.537  25.707  26.219  1.00  0.00     0.040 A 
ATOM     62  F   UNL A   1      48.564  26.691  25.413  1.00  0.00    -0.206 F 
ATOM     63  C   UNL A   1      51.298  25.217  27.278  1.00  0.00     0.006 A 
ENDBRANCH  39  56
ENDBRANCH  13  14
ENDBRANCH   6   8
ENDBRANCH   5   6
ENDBRANCH   4   5
ENDBRANCH   3   4
ENDBRANCH   2   3
ENDBRANCH   1   2
BRANCH   1  64
ATOM     64  C   UNL A   1      31.383  27.118  26.676  1.00  0.00     0.261 C 
BRANCH  64  65
ATOM     65  O   UNL A   1      32.569  26.349  26.395  1.00  0.00    -0.463 OA
BRANCH  65  66
ATOM     66  C   UNL A   1      33.038  26.406  25.113  1.00  0.00     0.310 C 
ATOM     67  O   UNL A   1      33.999  25.765  24.709  1.00  0.00    -0.252 OA
BRANCH  66  68
ATOM     68  C   UNL A   1      32.191  27.355  24.274  1.00  0.00     0.116 C 
ATOM     69  C   UNL A   1      33.191  28.357  23.656  1.00  0.00     0.043 C 
ATOM     70  C   UNL A   1      31.277  26.754  23.165  1.00  0.00     0.097 C 
ATOM     71  C   UNL A   1      33.849  27.848  22.405  1.00  0.00    -0.030 C 
ATOM     72  C   UNL A   1      31.999  26.235  21.908  1.00  0.00     0.041 C 
ATOM     73  C   UNL A   1      33.315  26.892  21.633  1.00  0.00    -0.030 C 
BRANCH  70  74
ATOM     74  C   UNL A   1      29.978  25.994  23.566  1.00  0.00     0.228 C 
ATOM     75  O   UNL A   1      28.938  26.629  23.776  1.00  0.00    -0.274 OA
ATOM     76  N   UNL A   1      29.907  24.615  23.555  1.00  0.00    -0.326 N 
ATOM     77  H   UNL A   1      29.090  24.218  23.175  1.00  0.00     0.169 HD
BRANCH  76  78
ATOM     78  C   UNL A   1      30.877  23.721  24.031  1.00  0.00     0.041 A 
ATOM     79  C   UNL A   1      31.758  23.037  23.201  1.00  0.00     0.027 A 
ATOM     80  C   UNL A   1      30.920  23.472  25.387  1.00  0.00     0.027 A 
ATOM     81  C   UNL A   1      32.771  22.249  23.778  1.00  0.00     0.024 A 
ATOM     82  C   UNL A   1      31.937  22.756  25.980  1.00  0.00     0.024 A 
ATOM     83  C   UNL A   1      32.888  22.167  25.175  1.00  0.00     0.088 A 
BRANCH  83  84
ATOM     84  S   UNL A   1      34.182  21.238  25.946  1.00  0.00     0.264 S 
ATOM     85  O   UNL A   1      34.712  22.112  26.982  1.00  0.00    -0.201 OA
ATOM     86  O   UNL A   1      33.647  19.940  26.273  1.00  0.00    -0.201 OA
BRANCH  84  87
ATOM     87  N   UNL A   1      35.368  21.069  24.640  1.00  0.00    -0.266 N 
ATOM     88  C   UNL A   1      36.005  19.685  24.615  1.00  0.00     0.140 C 
ATOM     89  C   UNL A   1      36.462  21.959  24.864  1.00  0.00     0.055 A 
ATOM     90  C   UNL A   1      37.402  19.823  25.262  1.00  0.00     0.060 C 
ATOM     91  C   UNL A   1      37.534  21.298  25.439  1.00  0.00    -0.022 A 
ATOM     92  C   UNL A   1      36.409  23.332  24.748  1.00  0.00     0.027 A 
ATOM     93  C   UNL A   1      38.496  22.022  26.118  1.00  0.00     0.006 A 
ATOM     94  C   UNL A   1      37.382  24.072  25.405  1.00  0.00     0.002 A 
ATOM     95  C   UNL A   1      38.388  23.419  26.133  1.00  0.00     0.000 A 
ENDBRANCH  84  87
ENDBRANCH  83  84
ENDBRANCH  76  78
ENDBRANCH  70  74
ENDBRANCH  66  68
ENDBRANCH  65  66
ENDBRANCH  64  65
ENDBRANCH   1  64
TORSDOF 18
ENDMDL
