MODEL 1
REMARK VINA RESULT:     -11.1      0.000      0.000
REMARK SMILES C[C@@]([NH3+])(C(=O)Nc1cc(C(=O)OCCOCCOC(=O)c2ccc(-c3c4nc(c(-c5c(F)cccc5F)c5ccc([nH]5)c(-c5c(F)cccc5F)c5nc(c(-c6c(F)cccc6F)c6ccc3[nH]6)C=C5)C=C4)cc2)ccc1F)C(F)(F)F
REMARK SMILES IDX 14 1 13 2 12 3 10 4 11 5 9 6 7 7 8 8 77 9 76 10 78 11 75 12
REMARK SMILES IDX 6 13 4 14 5 15 2 17 1 18 3 19 79 23 80 24 81 25 82 26 15 27
REMARK SMILES IDX 16 28 17 29 18 30 19 31 20 32 21 33 22 34 74 35 23 36 73 37
REMARK SMILES IDX 24 38 25 39 26 40 67 41 27 42 72 43 66 44 68 45 28 46 71 47
REMARK SMILES IDX 65 48 64 49 29 51 55 52 38 53 54 54 39 55 42 56 53 57 69 58
REMARK SMILES IDX 40 59 41 60 52 62 70 63 43 64 30 65 31 66 36 67 32 68 33 69
REMARK SMILES IDX 35 70 37 71 34 72 56 73 57 74 62 75 58 76 59 77 61 78 63 79
REMARK SMILES IDX 60 80 44 81 45 82 50 83 46 84 47 85 49 86 51 87 48 88
REMARK H PARENT 6 16 3 20 3 21 3 22 68 50 42 61
REMARK Flexibility Score: inf
ROOT
ATOM      1  C   UNL A   1      40.434  20.799  26.826  1.00  0.00     0.202 C 
ENDROOT
BRANCH   1   2
ATOM      2  C   UNL A   1      39.547  21.947  26.334  1.00  0.00     0.261 C 
BRANCH   2   3
ATOM      3  O   UNL A   1      38.349  21.452  25.718  1.00  0.00    -0.460 OA
BRANCH   3   4
ATOM      4  C   UNL A   1      37.322  22.333  25.666  1.00  0.00     0.338 C 
ATOM      5  O   UNL A   1      37.396  23.542  25.516  1.00  0.00    -0.246 OA
BRANCH   4   6
ATOM      6  C   UNL A   1      36.043  21.587  25.611  1.00  0.00     0.062 A 
ATOM      7  C   UNL A   1      33.729  21.474  26.287  1.00  0.00     0.078 A 
ATOM      8  C   UNL A   1      34.953  22.134  26.303  1.00  0.00     0.045 A 
ATOM      9  C   UNL A   1      33.566  20.348  25.479  1.00  0.00     0.146 A 
ATOM     10  C   UNL A   1      34.637  19.808  24.773  1.00  0.00     0.042 A 
ATOM     11  F   UNL A   1      32.357  19.782  25.344  1.00  0.00    -0.205 F 
ATOM     12  C   UNL A   1      35.889  20.418  24.851  1.00  0.00     0.019 A 
BRANCH   7  13
ATOM     13  N   UNL A   1      32.675  22.000  27.039  1.00  0.00    -0.318 N 
ATOM     14  C   UNL A   1      31.840  23.045  26.724  1.00  0.00     0.295 C 
ATOM     15  O   UNL A   1      31.051  23.388  27.612  1.00  0.00    -0.267 OA
ATOM     16  H   UNL A   1      32.509  21.566  27.907  1.00  0.00     0.170 HD
BRANCH  14  17
ATOM     17  C   UNL A   1      31.790  23.664  25.296  1.00  0.00     0.267 C 
ATOM     18  C   UNL A   1      32.078  22.661  24.175  1.00  0.00     0.100 C 
BRANCH  17  19
ATOM     19  N   UNL A   1      30.415  24.253  25.060  1.00  0.00    -0.337 N 
ATOM     20  H   UNL A   1      29.828  24.086  25.877  1.00  0.00     0.345 HD
ATOM     21  H   UNL A   1      29.992  23.813  24.242  1.00  0.00     0.345 HD
ATOM     22  H   UNL A   1      30.498  25.258  24.900  1.00  0.00     0.345 HD
ENDBRANCH  17  19
BRANCH  17  23
ATOM     23  C   UNL A   1      32.912  24.738  25.250  1.00  0.00     0.453 C 
ATOM     24  F   UNL A   1      33.952  24.393  24.463  1.00  0.00    -0.164 F 
ATOM     25  F   UNL A   1      32.406  25.897  24.740  1.00  0.00    -0.164 F 
ATOM     26  F   UNL A   1      33.374  25.050  26.482  1.00  0.00    -0.164 F 
ENDBRANCH  17  23
ENDBRANCH  14  17
ENDBRANCH   7  13
ENDBRANCH   4   6
ENDBRANCH   3   4
ENDBRANCH   2   3
ENDBRANCH   1   2
BRANCH   1  27
ATOM     27  O   UNL A   1      41.806  21.086  27.089  1.00  0.00    -0.374 OA
BRANCH  27  28
ATOM     28  C   UNL A   1      42.781  20.630  26.153  1.00  0.00     0.202 C 
BRANCH  28  29
ATOM     29  C   UNL A   1      43.570  21.677  25.354  1.00  0.00     0.261 C 
BRANCH  29  30
ATOM     30  O   UNL A   1      42.874  22.925  25.207  1.00  0.00    -0.460 OA
BRANCH  30  31
ATOM     31  C   UNL A   1      43.658  24.025  25.322  1.00  0.00     0.338 C 
ATOM     32  O   UNL A   1      44.634  24.317  24.651  1.00  0.00    -0.246 OA
BRANCH  31  33
ATOM     33  C   UNL A   1      43.058  24.960  26.290  1.00  0.00     0.060 A 
ATOM     34  C   UNL A   1      43.558  26.269  26.335  1.00  0.00     0.016 A 
ATOM     35  C   UNL A   1      42.072  24.542  27.183  1.00  0.00     0.016 A 
ATOM     36  C   UNL A   1      43.080  27.164  27.289  1.00  0.00     0.010 A 
ATOM     37  C   UNL A   1      41.602  25.440  28.148  1.00  0.00     0.010 A 
ATOM     38  C   UNL A   1      42.116  26.748  28.218  1.00  0.00    -0.014 A 
BRANCH  38  39
ATOM     39  C   UNL A   1      41.693  27.656  29.310  1.00  0.00     0.031 A 
ATOM     40  C   UNL A   1      42.418  27.622  30.624  1.00  0.00     0.074 A 
ATOM     41  C   UNL A   1      40.664  28.502  29.126  1.00  0.00     0.049 A 
ATOM     42  N   UNL A   1      42.151  28.266  31.732  1.00  0.00    -0.248 NA
ATOM     43  C   UNL A   1      43.597  26.746  30.706  1.00  0.00     0.031 C 
ATOM     44  C   UNL A   1      39.912  28.654  27.882  1.00  0.00     0.029 A 
ATOM     45  N   UNL A   1      40.066  29.383  29.992  1.00  0.00    -0.354 N 
ATOM     46  C   UNL A   1      43.121  27.867  32.643  1.00  0.00     0.074 A 
ATOM     47  C   UNL A   1      43.968  26.907  31.969  1.00  0.00     0.031 C 
ATOM     48  C   UNL A   1      38.942  29.565  28.068  1.00  0.00     0.029 A 
ATOM     49  C   UNL A   1      38.977  30.026  29.455  1.00  0.00     0.049 A 
ATOM     50  H   UNL A   1      40.385  29.538  30.910  1.00  0.00     0.167 HD
ATOM     51  C   UNL A   1      43.289  28.275  33.923  1.00  0.00     0.037 A 
ATOM     52  C   UNL A   1      38.090  30.867  30.023  1.00  0.00     0.037 A 
ATOM     53  C   UNL A   1      42.447  29.240  34.582  1.00  0.00     0.049 A 
ATOM     54  C   UNL A   1      38.253  31.242  31.472  1.00  0.00     0.074 A 
ATOM     55  C   UNL A   1      42.563  29.740  35.867  1.00  0.00     0.029 A 
ATOM     56  N   UNL A   1      41.334  29.840  34.017  1.00  0.00    -0.354 N 
ATOM     57  N   UNL A   1      39.185  30.879  32.318  1.00  0.00    -0.248 NA
ATOM     58  C   UNL A   1      37.239  32.139  32.048  1.00  0.00     0.031 C 
ATOM     59  C   UNL A   1      41.483  30.594  36.101  1.00  0.00     0.029 A 
ATOM     60  C   UNL A   1      40.730  30.677  34.941  1.00  0.00     0.049 A 
ATOM     61  H   UNL A   1      41.019  29.694  33.095  1.00  0.00     0.167 HD
ATOM     62  C   UNL A   1      38.885  31.517  33.516  1.00  0.00     0.074 A 
ATOM     63  C   UNL A   1      37.689  32.301  33.285  1.00  0.00     0.031 C 
ATOM     64  C   UNL A   1      39.542  31.455  34.700  1.00  0.00     0.037 A 
BRANCH  51  65
ATOM     65  C   UNL A   1      44.412  27.673  34.715  1.00  0.00     0.057 A 
ATOM     66  C   UNL A   1      44.198  26.531  35.499  1.00  0.00     0.134 A 
ATOM     67  C   UNL A   1      45.674  28.276  34.785  1.00  0.00     0.134 A 
ATOM     68  F   UNL A   1      43.009  25.909  35.483  1.00  0.00    -0.206 F 
ATOM     69  C   UNL A   1      45.191  26.023  36.337  1.00  0.00     0.040 A 
ATOM     70  C   UNL A   1      46.684  27.763  35.600  1.00  0.00     0.040 A 
ATOM     71  F   UNL A   1      45.948  29.367  34.052  1.00  0.00    -0.206 F 
ATOM     72  C   UNL A   1      46.438  26.640  36.390  1.00  0.00     0.006 A 
ENDBRANCH  51  65
BRANCH  52  73
ATOM     73  C   UNL A   1      36.961  31.395  29.217  1.00  0.00     0.057 A 
ATOM     74  C   UNL A   1      36.972  32.703  28.716  1.00  0.00     0.134 A 
ATOM     75  C   UNL A   1      35.835  30.611  28.945  1.00  0.00     0.134 A 
ATOM     76  F   UNL A   1      38.021  33.507  28.942  1.00  0.00    -0.206 F 
ATOM     77  C   UNL A   1      35.894  33.221  27.997  1.00  0.00     0.040 A 
ATOM     78  C   UNL A   1      34.761  31.107  28.204  1.00  0.00     0.040 A 
ATOM     79  F   UNL A   1      35.775  29.343  29.378  1.00  0.00    -0.206 F 
ATOM     80  C   UNL A   1      34.784  32.420  27.738  1.00  0.00     0.006 A 
ENDBRANCH  52  73
BRANCH  64  81
ATOM     81  C   UNL A   1      39.004  32.262  35.847  1.00  0.00     0.057 A 
ATOM     82  C   UNL A   1      39.413  33.588  36.041  1.00  0.00     0.134 A 
ATOM     83  C   UNL A   1      38.167  31.696  36.815  1.00  0.00     0.134 A 
ATOM     84  F   UNL A   1      40.226  34.187  35.157  1.00  0.00    -0.206 F 
ATOM     85  C   UNL A   1      39.031  34.314  37.170  1.00  0.00     0.040 A 
ATOM     86  C   UNL A   1      37.754  32.421  37.935  1.00  0.00     0.040 A 
ATOM     87  F   UNL A   1      37.731  30.435  36.685  1.00  0.00    -0.206 F 
ATOM     88  C   UNL A   1      38.197  33.729  38.121  1.00  0.00     0.006 A 
ENDBRANCH  64  81
ENDBRANCH  38  39
ENDBRANCH  31  33
ENDBRANCH  30  31
ENDBRANCH  29  30
ENDBRANCH  28  29
ENDBRANCH  27  28
ENDBRANCH   1  27
TORSDOF 18
ENDMDL
MODEL 2
REMARK VINA RESULT:     -10.7      0.398      6.207
REMARK SMILES C[C@@]([NH3+])(C(=O)Nc1cc(C(=O)OCCOCCOC(=O)c2ccc(-c3c4nc(c(-c5c(F)cccc5F)c5ccc([nH]5)c(-c5c(F)cccc5F)c5nc(c(-c6c(F)cccc6F)c6ccc3[nH]6)C=C5)C=C4)cc2)ccc1F)C(F)(F)F
REMARK SMILES IDX 14 1 13 2 12 3 10 4 11 5 9 6 7 7 8 8 77 9 76 10 78 11 75 12
REMARK SMILES IDX 6 13 4 14 5 15 2 17 1 18 3 19 79 23 80 24 81 25 82 26 15 27
REMARK SMILES IDX 16 28 17 29 18 30 19 31 20 32 21 33 22 34 74 35 23 36 73 37
REMARK SMILES IDX 24 38 25 39 26 40 67 41 27 42 72 43 66 44 68 45 28 46 71 47
REMARK SMILES IDX 65 48 64 49 29 51 55 52 38 53 54 54 39 55 42 56 53 57 69 58
REMARK SMILES IDX 40 59 41 60 52 62 70 63 43 64 30 65 31 66 36 67 32 68 33 69
REMARK SMILES IDX 35 70 37 71 34 72 56 73 57 74 62 75 58 76 59 77 61 78 63 79
REMARK SMILES IDX 60 80 44 81 45 82 50 83 46 84 47 85 49 86 51 87 48 88
REMARK H PARENT 6 16 3 20 3 21 3 22 68 50 42 61
REMARK Flexibility Score: inf
ROOT
ATOM      1  C   UNL A   1      40.738  21.069  26.570  1.00  0.00     0.202 C 
ENDROOT
BRANCH   1   2
ATOM      2  C   UNL A   1      39.777  22.179  26.130  1.00  0.00     0.261 C 
BRANCH   2   3
ATOM      3  O   UNL A   1      38.542  21.637  25.644  1.00  0.00    -0.460 OA
BRANCH   3   4
ATOM      4  C   UNL A   1      37.476  22.469  25.721  1.00  0.00     0.338 C 
ATOM      5  O   UNL A   1      37.490  23.688  25.671  1.00  0.00    -0.246 OA
BRANCH   4   6
ATOM      6  C   UNL A   1      36.229  21.671  25.671  1.00  0.00     0.062 A 
ATOM      7  C   UNL A   1      33.903  21.500  26.290  1.00  0.00     0.078 A 
ATOM      8  C   UNL A   1      35.099  22.208  26.304  1.00  0.00     0.045 A 
ATOM      9  C   UNL A   1      33.807  20.327  25.539  1.00  0.00     0.146 A 
ATOM     10  C   UNL A   1      34.918  19.796  24.891  1.00  0.00     0.042 A 
ATOM     11  F   UNL A   1      32.626  19.708  25.401  1.00  0.00    -0.205 F 
ATOM     12  C   UNL A   1      36.143  20.459  24.970  1.00  0.00     0.019 A 
BRANCH   7  13
ATOM     13  N   UNL A   1      32.809  22.021  26.985  1.00  0.00    -0.318 N 
ATOM     14  C   UNL A   1      31.978  23.054  26.620  1.00  0.00     0.295 C 
ATOM     15  O   UNL A   1      31.144  23.396  27.464  1.00  0.00    -0.267 OA
ATOM     16  H   UNL A   1      32.606  21.593  27.849  1.00  0.00     0.170 HD
BRANCH  14  17
ATOM     17  C   UNL A   1      31.991  23.657  25.184  1.00  0.00     0.267 C 
ATOM     18  C   UNL A   1      32.438  22.672  24.100  1.00  0.00     0.100 C 
BRANCH  17  19
ATOM     19  N   UNL A   1      30.596  24.138  24.838  1.00  0.00    -0.337 N 
ATOM     20  H   UNL A   1      29.908  23.502  25.238  1.00  0.00     0.345 HD
ATOM     21  H   UNL A   1      30.487  24.164  23.824  1.00  0.00     0.345 HD
ATOM     22  H   UNL A   1      30.456  25.075  25.219  1.00  0.00     0.345 HD
ENDBRANCH  17  19
BRANCH  17  23
ATOM     23  C   UNL A   1      33.029  24.814  25.210  1.00  0.00     0.453 C 
ATOM     24  F   UNL A   1      34.155  24.537  24.522  1.00  0.00    -0.164 F 
ATOM     25  F   UNL A   1      32.482  25.923  24.633  1.00  0.00    -0.164 F 
ATOM     26  F   UNL A   1      33.357  25.180  26.470  1.00  0.00    -0.164 F 
ENDBRANCH  17  23
ENDBRANCH  14  17
ENDBRANCH   7  13
ENDBRANCH   4   6
ENDBRANCH   3   4
ENDBRANCH   2   3
ENDBRANCH   1   2
BRANCH   1  27
ATOM     27  O   UNL A   1      41.896  20.838  25.770  1.00  0.00    -0.374 OA
BRANCH  27  28
ATOM     28  C   UNL A   1      43.043  21.656  25.992  1.00  0.00     0.202 C 
BRANCH  28  29
ATOM     29  C   UNL A   1      43.618  22.443  24.806  1.00  0.00     0.261 C 
BRANCH  29  30
ATOM     30  O   UNL A   1      43.095  23.777  24.700  1.00  0.00    -0.460 OA
BRANCH  30  31
ATOM     31  C   UNL A   1      43.939  24.749  25.128  1.00  0.00     0.338 C 
ATOM     32  O   UNL A   1      45.013  25.066  24.647  1.00  0.00    -0.246 OA
BRANCH  31  33
ATOM     33  C   UNL A   1      43.290  25.531  26.196  1.00  0.00     0.060 A 
ATOM     34  C   UNL A   1      43.791  26.811  26.468  1.00  0.00     0.016 A 
ATOM     35  C   UNL A   1      42.256  24.992  26.960  1.00  0.00     0.016 A 
ATOM     36  C   UNL A   1      43.265  27.555  27.522  1.00  0.00     0.010 A 
ATOM     37  C   UNL A   1      41.737  25.736  28.025  1.00  0.00     0.010 A 
ATOM     38  C   UNL A   1      42.251  27.012  28.322  1.00  0.00    -0.014 A 
BRANCH  38  39
ATOM     39  C   UNL A   1      41.771  27.746  29.517  1.00  0.00     0.031 A 
ATOM     40  C   UNL A   1      40.583  28.656  29.401  1.00  0.00     0.074 A 
ATOM     41  C   UNL A   1      42.399  27.600  30.698  1.00  0.00     0.049 A 
ATOM     42  N   UNL A   1      40.061  29.453  30.299  1.00  0.00    -0.248 NA
ATOM     43  C   UNL A   1      39.891  28.676  28.103  1.00  0.00     0.031 C 
ATOM     44  C   UNL A   1      43.536  26.714  30.943  1.00  0.00     0.029 A 
ATOM     45  N   UNL A   1      42.177  28.207  31.909  1.00  0.00    -0.354 N 
ATOM     46  C   UNL A   1      38.989  30.074  29.673  1.00  0.00     0.074 A 
ATOM     47  C   UNL A   1      38.947  29.583  28.312  1.00  0.00     0.031 C 
ATOM     48  C   UNL A   1      43.921  26.845  32.222  1.00  0.00     0.029 A 
ATOM     49  C   UNL A   1      43.088  27.853  32.874  1.00  0.00     0.049 A 
ATOM     50  H   UNL A   1      41.437  28.834  32.070  1.00  0.00     0.167 HD
ATOM     51  C   UNL A   1      38.116  30.968  30.194  1.00  0.00     0.037 A 
ATOM     52  C   UNL A   1      43.253  28.313  34.131  1.00  0.00     0.037 A 
ATOM     53  C   UNL A   1      38.158  31.444  31.552  1.00  0.00     0.049 A 
ATOM     54  C   UNL A   1      42.318  29.366  34.660  1.00  0.00     0.074 A 
ATOM     55  C   UNL A   1      37.292  32.323  32.179  1.00  0.00     0.029 A 
ATOM     56  N   UNL A   1      39.118  31.091  32.488  1.00  0.00    -0.354 N 
ATOM     57  N   UNL A   1      41.293  29.930  34.070  1.00  0.00    -0.248 NA
ATOM     58  C   UNL A   1      42.564  29.853  36.027  1.00  0.00     0.031 C 
ATOM     59  C   UNL A   1      37.765  32.552  33.473  1.00  0.00     0.029 A 
ATOM     60  C   UNL A   1      38.888  31.766  33.675  1.00  0.00     0.049 A 
ATOM     61  H   UNL A   1      39.852  30.455  32.331  1.00  0.00     0.167 HD
ATOM     62  C   UNL A   1      40.759  30.819  34.996  1.00  0.00     0.074 A 
ATOM     63  C   UNL A   1      41.566  30.711  36.193  1.00  0.00     0.031 C 
ATOM     64  C   UNL A   1      39.696  31.649  34.862  1.00  0.00     0.037 A 
BRANCH  51  65
ATOM     65  C   UNL A   1      37.043  31.515  29.298  1.00  0.00     0.057 A 
ATOM     66  C   UNL A   1      37.142  32.814  28.781  1.00  0.00     0.134 A 
ATOM     67  C   UNL A   1      35.869  30.800  29.028  1.00  0.00     0.134 A 
ATOM     68  F   UNL A   1      38.236  33.555  29.009  1.00  0.00    -0.206 F 
ATOM     69  C   UNL A   1      36.104  33.388  28.046  1.00  0.00     0.040 A 
ATOM     70  C   UNL A   1      34.836  31.354  28.272  1.00  0.00     0.040 A 
ATOM     71  F   UNL A   1      35.715  29.547  29.485  1.00  0.00    -0.206 F 
ATOM     72  C   UNL A   1      34.946  32.658  27.790  1.00  0.00     0.006 A 
ENDBRANCH  51  65
BRANCH  52  73
ATOM     73  C   UNL A   1      44.363  27.784  34.964  1.00  0.00     0.057 A 
ATOM     74  C   UNL A   1      45.624  28.394  34.971  1.00  0.00     0.134 A 
ATOM     75  C   UNL A   1      44.195  26.644  35.756  1.00  0.00     0.134 A 
ATOM     76  F   UNL A   1      45.851  29.489  34.232  1.00  0.00    -0.206 F 
ATOM     77  C   UNL A   1      46.685  27.875  35.714  1.00  0.00     0.040 A 
ATOM     78  C   UNL A   1      45.239  26.129  36.527  1.00  0.00     0.040 A 
ATOM     79  F   UNL A   1      43.005  26.028  35.809  1.00  0.00    -0.206 F 
ATOM     80  C   UNL A   1      46.492  26.740  36.498  1.00  0.00     0.006 A 
ENDBRANCH  52  73
BRANCH  64  81
ATOM     81  C   UNL A   1      39.320  32.507  36.037  1.00  0.00     0.057 A 
ATOM     82  C   UNL A   1      38.419  32.040  37.002  1.00  0.00     0.134 A 
ATOM     83  C   UNL A   1      39.766  33.828  36.156  1.00  0.00     0.134 A 
ATOM     84  F   UNL A   1      37.942  30.787  36.941  1.00  0.00    -0.206 F 
ATOM     85  C   UNL A   1      37.954  32.864  38.029  1.00  0.00     0.040 A 
ATOM     86  C   UNL A   1      39.331  34.653  37.194  1.00  0.00     0.040 A 
ATOM     87  F   UNL A   1      40.638  34.334  35.270  1.00  0.00    -0.206 F 
ATOM     88  C   UNL A   1      38.412  34.176  38.126  1.00  0.00     0.006 A 
ENDBRANCH  64  81
ENDBRANCH  38  39
ENDBRANCH  31  33
ENDBRANCH  30  31
ENDBRANCH  29  30
ENDBRANCH  28  29
ENDBRANCH  27  28
ENDBRANCH   1  27
TORSDOF 18
ENDMDL
MODEL 3
REMARK VINA RESULT:     -10.7      4.640      9.702
REMARK SMILES C[C@@]([NH3+])(C(=O)Nc1cc(C(=O)OCCOCCOC(=O)c2ccc(-c3c4nc(c(-c5c(F)cccc5F)c5ccc([nH]5)c(-c5c(F)cccc5F)c5nc(c(-c6c(F)cccc6F)c6ccc3[nH]6)C=C5)C=C4)cc2)ccc1F)C(F)(F)F
REMARK SMILES IDX 14 1 13 2 12 3 10 4 11 5 9 6 7 7 8 8 77 9 76 10 78 11 75 12
REMARK SMILES IDX 6 13 4 14 5 15 2 17 1 18 3 19 79 23 80 24 81 25 82 26 15 27
REMARK SMILES IDX 16 28 17 29 18 30 19 31 20 32 21 33 22 34 74 35 23 36 73 37
REMARK SMILES IDX 24 38 25 39 26 40 67 41 27 42 72 43 66 44 68 45 28 46 71 47
REMARK SMILES IDX 65 48 64 49 29 51 55 52 38 53 54 54 39 55 42 56 53 57 69 58
REMARK SMILES IDX 40 59 41 60 52 62 70 63 43 64 30 65 31 66 36 67 32 68 33 69
REMARK SMILES IDX 35 70 37 71 34 72 56 73 57 74 62 75 58 76 59 77 61 78 63 79
REMARK SMILES IDX 60 80 44 81 45 82 50 83 46 84 47 85 49 86 51 87 48 88
REMARK H PARENT 6 16 3 20 3 21 3 22 68 50 42 61
REMARK Flexibility Score: inf
ROOT
ATOM      1  C   UNL A   1      33.773  32.821  27.801  1.00  0.00     0.202 C 
ENDROOT
BRANCH   1   2
ATOM      2  C   UNL A   1      34.042  31.316  27.900  1.00  0.00     0.261 C 
BRANCH   2   3
ATOM      3  O   UNL A   1      33.231  30.581  26.972  1.00  0.00    -0.460 OA
BRANCH   3   4
ATOM      4  C   UNL A   1      33.611  29.297  26.767  1.00  0.00     0.338 C 
ATOM      5  O   UNL A   1      34.579  28.730  27.247  1.00  0.00    -0.246 OA
BRANCH   4   6
ATOM      6  C   UNL A   1      32.547  28.588  26.019  1.00  0.00     0.062 A 
ATOM      7  C   UNL A   1      31.042  26.704  25.927  1.00  0.00     0.078 A 
ATOM      8  C   UNL A   1      32.039  27.411  26.588  1.00  0.00     0.045 A 
ATOM      9  C   UNL A   1      30.468  27.240  24.773  1.00  0.00     0.146 A 
ATOM     10  C   UNL A   1      30.952  28.417  24.210  1.00  0.00     0.042 A 
ATOM     11  F   UNL A   1      29.412  26.642  24.202  1.00  0.00    -0.205 F 
ATOM     12  C   UNL A   1      32.010  29.088  24.823  1.00  0.00     0.019 A 
BRANCH   7  13
ATOM     13  N   UNL A   1      30.598  25.498  26.477  1.00  0.00    -0.318 N 
ATOM     14  C   UNL A   1      30.964  24.217  26.137  1.00  0.00     0.295 C 
ATOM     15  O   UNL A   1      30.343  23.313  26.704  1.00  0.00    -0.267 OA
ATOM     16  H   UNL A   1      29.937  25.576  27.203  1.00  0.00     0.170 HD
BRANCH  14  17
ATOM     17  C   UNL A   1      32.178  23.924  25.206  1.00  0.00     0.267 C 
ATOM     18  C   UNL A   1      33.299  24.963  25.301  1.00  0.00     0.100 C 
BRANCH  17  19
ATOM     19  N   UNL A   1      32.758  22.570  25.563  1.00  0.00    -0.337 N 
ATOM     20  H   UNL A   1      33.463  22.310  24.873  1.00  0.00     0.345 HD
ATOM     21  H   UNL A   1      32.014  21.873  25.569  1.00  0.00     0.345 HD
ATOM     22  H   UNL A   1      33.189  22.618  26.487  1.00  0.00     0.345 HD
ENDBRANCH  17  19
BRANCH  17  23
ATOM     23  C   UNL A   1      31.630  23.971  23.752  1.00  0.00     0.453 C 
ATOM     24  F   UNL A   1      30.283  23.975  23.689  1.00  0.00    -0.164 F 
ATOM     25  F   UNL A   1      32.053  25.118  23.148  1.00  0.00    -0.164 F 
ATOM     26  F   UNL A   1      32.107  22.958  22.992  1.00  0.00    -0.164 F 
ENDBRANCH  17  23
ENDBRANCH  14  17
ENDBRANCH   7  13
ENDBRANCH   4   6
ENDBRANCH   3   4
ENDBRANCH   2   3
ENDBRANCH   1   2
BRANCH   1  27
ATOM     27  O   UNL A   1      34.555  33.690  28.619  1.00  0.00    -0.374 OA
BRANCH  27  28
ATOM     28  C   UNL A   1      33.917  34.334  29.720  1.00  0.00     0.202 C 
BRANCH  28  29
ATOM     29  C   UNL A   1      34.367  33.964  31.140  1.00  0.00     0.261 C 
BRANCH  29  30
ATOM     30  O   UNL A   1      34.598  32.557  31.317  1.00  0.00    -0.460 OA
BRANCH  30  31
ATOM     31  C   UNL A   1      35.528  32.252  32.256  1.00  0.00     0.338 C 
ATOM     32  O   UNL A   1      35.428  32.361  33.466  1.00  0.00    -0.246 OA
BRANCH  31  33
ATOM     33  C   UNL A   1      36.671  31.575  31.616  1.00  0.00     0.060 A 
ATOM     34  C   UNL A   1      37.651  31.016  32.447  1.00  0.00     0.016 A 
ATOM     35  C   UNL A   1      36.812  31.550  30.229  1.00  0.00     0.016 A 
ATOM     36  C   UNL A   1      38.789  30.439  31.889  1.00  0.00     0.010 A 
ATOM     37  C   UNL A   1      37.962  30.981  29.672  1.00  0.00     0.010 A 
ATOM     38  C   UNL A   1      38.964  30.440  30.499  1.00  0.00    -0.014 A 
BRANCH  38  39
ATOM     39  C   UNL A   1      40.227  29.939  29.906  1.00  0.00     0.031 A 
ATOM     40  C   UNL A   1      41.388  30.875  29.737  1.00  0.00     0.074 A 
ATOM     41  C   UNL A   1      40.330  28.654  29.520  1.00  0.00     0.049 A 
ATOM     42  N   UNL A   1      42.545  30.661  29.162  1.00  0.00    -0.248 NA
ATOM     43  C   UNL A   1      41.228  32.231  30.282  1.00  0.00     0.031 C 
ATOM     44  C   UNL A   1      39.286  27.643  29.673  1.00  0.00     0.029 A 
ATOM     45  N   UNL A   1      41.360  27.986  28.907  1.00  0.00    -0.354 N 
ATOM     46  C   UNL A   1      43.245  31.855  29.268  1.00  0.00     0.074 A 
ATOM     47  C   UNL A   1      42.376  32.799  29.939  1.00  0.00     0.031 C 
ATOM     48  C   UNL A   1      39.723  26.484  29.155  1.00  0.00     0.029 A 
ATOM     49  C   UNL A   1      41.059  26.683  28.595  1.00  0.00     0.049 A 
ATOM     50  H   UNL A   1      42.230  28.400  28.710  1.00  0.00     0.167 HD
ATOM     51  C   UNL A   1      44.501  32.132  28.848  1.00  0.00     0.037 A 
ATOM     52  C   UNL A   1      41.765  25.762  27.908  1.00  0.00     0.037 A 
ATOM     53  C   UNL A   1      45.363  31.184  28.191  1.00  0.00     0.049 A 
ATOM     54  C   UNL A   1      43.129  26.121  27.381  1.00  0.00     0.074 A 
ATOM     55  C   UNL A   1      46.666  31.365  27.762  1.00  0.00     0.029 A 
ATOM     56  N   UNL A   1      45.008  29.885  27.860  1.00  0.00    -0.354 N 
ATOM     57  N   UNL A   1      43.792  27.244  27.507  1.00  0.00    -0.248 NA
ATOM     58  C   UNL A   1      43.841  25.088  26.613  1.00  0.00     0.031 C 
ATOM     59  C   UNL A   1      47.077  30.198  27.113  1.00  0.00     0.029 A 
ATOM     60  C   UNL A   1      46.054  29.267  27.195  1.00  0.00     0.049 A 
ATOM     61  H   UNL A   1      44.142  29.466  28.066  1.00  0.00     0.167 HD
ATOM     62  C   UNL A   1      45.004  27.048  26.855  1.00  0.00     0.074 A 
ATOM     63  C   UNL A   1      44.991  25.693  26.346  1.00  0.00     0.031 C 
ATOM     64  C   UNL A   1      46.032  27.916  26.695  1.00  0.00     0.037 A 
BRANCH  51  65
ATOM     65  C   UNL A   1      45.030  33.520  29.063  1.00  0.00     0.057 A 
ATOM     66  C   UNL A   1      44.874  34.502  28.076  1.00  0.00     0.134 A 
ATOM     67  C   UNL A   1      45.779  33.859  30.198  1.00  0.00     0.134 A 
ATOM     68  F   UNL A   1      44.174  34.240  26.962  1.00  0.00    -0.206 F 
ATOM     69  C   UNL A   1      45.459  35.762  28.200  1.00  0.00     0.040 A 
ATOM     70  C   UNL A   1      46.347  35.124  30.345  1.00  0.00     0.040 A 
ATOM     71  F   UNL A   1      45.958  32.967  31.186  1.00  0.00    -0.206 F 
ATOM     72  C   UNL A   1      46.199  36.076  29.337  1.00  0.00     0.006 A 
ENDBRANCH  51  65
BRANCH  52  73
ATOM     73  C   UNL A   1      41.180  24.419  27.670  1.00  0.00     0.057 A 
ATOM     74  C   UNL A   1      41.624  23.294  28.378  1.00  0.00     0.134 A 
ATOM     75  C   UNL A   1      40.178  24.223  26.714  1.00  0.00     0.134 A 
ATOM     76  F   UNL A   1      42.583  23.413  29.307  1.00  0.00    -0.206 F 
ATOM     77  C   UNL A   1      41.112  22.021  28.125  1.00  0.00     0.040 A 
ATOM     78  C   UNL A   1      39.637  22.960  26.470  1.00  0.00     0.040 A 
ATOM     79  F   UNL A   1      39.695  25.264  26.020  1.00  0.00    -0.206 F 
ATOM     80  C   UNL A   1      40.113  21.852  27.169  1.00  0.00     0.006 A 
ENDBRANCH  52  73
BRANCH  64  81
ATOM     81  C   UNL A   1      47.246  27.440  25.948  1.00  0.00     0.057 A 
ATOM     82  C   UNL A   1      47.321  27.563  24.554  1.00  0.00     0.134 A 
ATOM     83  C   UNL A   1      48.289  26.766  26.594  1.00  0.00     0.134 A 
ATOM     84  F   UNL A   1      46.347  28.186  23.872  1.00  0.00    -0.206 F 
ATOM     85  C   UNL A   1      48.376  27.011  23.827  1.00  0.00     0.040 A 
ATOM     86  C   UNL A   1      49.365  26.235  25.880  1.00  0.00     0.040 A 
ATOM     87  F   UNL A   1      48.284  26.623  27.927  1.00  0.00    -0.206 F 
ATOM     88  C   UNL A   1      49.403  26.344  24.491  1.00  0.00     0.006 A 
ENDBRANCH  64  81
ENDBRANCH  38  39
ENDBRANCH  31  33
ENDBRANCH  30  31
ENDBRANCH  29  30
ENDBRANCH  28  29
ENDBRANCH  27  28
ENDBRANCH   1  27
TORSDOF 18
ENDMDL
