MODEL 1
REMARK VINA RESULT:     -12.7      0.000      0.000
REMARK SMILES CC(=O)c1c(C)nn(CC(=O)N2CCC[C@H](c3cccc(C(=O)OCCOCCOC(=O)c4ccc(-c5c6nc(c(-c7c(F)cccc7F)c7ccc([nH]7)c(-c7c(F)cccc7F)c7nc(c(-c8c(F)cccc8F)c8ccc5[nH]8)C=C7)C=C6)cc4)c3)C2)c1C
REMARK SMILES IDX 25 1 24 2 22 3 23 4 21 5 17 6 18 7 87 8 19 9 20 10 16 11
REMARK SMILES IDX 12 12 13 13 88 14 14 15 15 16 10 17 11 18 9 19 8 20 4 21
REMARK SMILES IDX 5 22 89 23 6 24 7 25 90 26 2 27 1 28 3 29 26 30 27 31 28 32
REMARK SMILES IDX 29 33 30 34 31 35 32 36 33 37 34 38 86 39 35 40 85 41 36 42
REMARK SMILES IDX 37 43 38 44 79 45 39 46 84 47 78 48 80 49 40 50 83 51 77 52
REMARK SMILES IDX 76 53 41 55 67 56 50 57 66 58 51 59 54 60 65 61 81 62 52 63
REMARK SMILES IDX 53 64 64 66 82 67 55 68 42 69 43 70 48 71 44 72 45 73 47 74
REMARK SMILES IDX 49 75 46 76 68 77 69 78 74 79 70 80 71 81 73 82 75 83 72 84
REMARK SMILES IDX 56 85 57 86 62 87 58 88 59 89 61 90 63 91 60 92
REMARK H PARENT 80 54 54 65
REMARK Flexibility Score: inf
ROOT
ATOM      1  C   UNL A   1      39.517  21.900  26.657  1.00  0.00     0.261 C 
ENDROOT
BRANCH   1   2
ATOM      2  O   UNL A   1      38.323  22.152  25.906  1.00  0.00    -0.460 OA
BRANCH   2   3
ATOM      3  C   UNL A   1      37.800  23.391  26.090  1.00  0.00     0.338 C 
ATOM      4  O   UNL A   1      38.281  24.303  26.742  1.00  0.00    -0.246 OA
BRANCH   3   5
ATOM      5  C   UNL A   1      36.654  23.573  25.179  1.00  0.00     0.060 A 
ATOM      6  C   UNL A   1      34.489  24.528  24.621  1.00  0.00    -0.042 A 
ATOM      7  C   UNL A   1      34.577  23.840  23.402  1.00  0.00     0.004 A 
ATOM      8  C   UNL A   1      35.524  24.315  25.545  1.00  0.00     0.019 A 
ATOM      9  C   UNL A   1      35.678  23.065  23.048  1.00  0.00     0.001 A 
ATOM     10  C   UNL A   1      36.737  22.957  23.928  1.00  0.00     0.016 A 
BRANCH   6  11
ATOM     11  C   UNL A   1      33.344  25.503  24.924  1.00  0.00     0.039 C 
ATOM     12  N   UNL A   1      31.436  23.888  25.250  1.00  0.00    -0.340 N 
ATOM     13  C   UNL A   1      30.849  24.245  23.952  1.00  0.00     0.119 C 
ATOM     14  C   UNL A   1      32.224  24.967  25.872  1.00  0.00     0.127 C 
ATOM     15  C   UNL A   1      31.871  24.828  22.980  1.00  0.00     0.022 C 
ATOM     16  C   UNL A   1      32.643  25.977  23.630  1.00  0.00     0.012 C 
BRANCH  12  17
ATOM     17  C   UNL A   1      31.380  22.556  25.644  1.00  0.00     0.244 C 
ATOM     18  O   UNL A   1      30.289  22.075  25.991  1.00  0.00    -0.273 OA
BRANCH  17  19
ATOM     19  C   UNL A   1      32.608  21.698  25.926  1.00  0.00     0.244 C 
BRANCH  19  20
ATOM     20  N   UNL A   1      32.727  20.370  25.350  1.00  0.00    -0.259 N 
ATOM     21  C   UNL A   1      32.854  18.635  23.997  1.00  0.00     0.061 A 
ATOM     22  C   UNL A   1      32.848  18.252  25.365  1.00  0.00     0.070 A 
ATOM     23  C   UNL A   1      32.795  20.025  24.017  1.00  0.00     0.047 A 
ATOM     24  C   UNL A   1      32.813  16.894  25.967  1.00  0.00     0.069 C 
ATOM     25  N   UNL A   1      32.893  19.318  26.169  1.00  0.00    -0.177 NA
ATOM     26  C   UNL A   1      32.702  21.045  22.942  1.00  0.00     0.067 C 
BRANCH  21  27
ATOM     27  C   UNL A   1      32.866  17.740  22.847  1.00  0.00     0.163 C 
ATOM     28  C   UNL A   1      34.016  16.779  22.690  1.00  0.00     0.093 C 
ATOM     29  O   UNL A   1      31.936  17.733  22.043  1.00  0.00    -0.294 OA
ENDBRANCH  21  27
ENDBRANCH  19  20
ENDBRANCH  17  19
ENDBRANCH  12  17
ENDBRANCH   6  11
ENDBRANCH   3   5
ENDBRANCH   2   3
ENDBRANCH   1   2
BRANCH   1  30
ATOM     30  C   UNL A   1      40.506  21.016  25.895  1.00  0.00     0.202 C 
BRANCH  30  31
ATOM     31  O   UNL A   1      41.749  20.672  26.507  1.00  0.00    -0.374 OA
BRANCH  31  32
ATOM     32  C   UNL A   1      42.199  19.322  26.520  1.00  0.00     0.202 C 
BRANCH  32  33
ATOM     33  C   UNL A   1      43.388  18.929  25.657  1.00  0.00     0.261 C 
BRANCH  33  34
ATOM     34  O   UNL A   1      43.538  19.786  24.541  1.00  0.00    -0.460 OA
BRANCH  34  35
ATOM     35  C   UNL A   1      44.827  19.939  24.150  1.00  0.00     0.338 C 
ATOM     36  O   UNL A   1      45.619  19.070  23.857  1.00  0.00    -0.246 OA
BRANCH  35  37
ATOM     37  C   UNL A   1      45.186  21.351  24.319  1.00  0.00     0.060 A 
ATOM     38  C   UNL A   1      46.105  21.601  25.335  1.00  0.00     0.016 A 
ATOM     39  C   UNL A   1      44.313  22.334  23.830  1.00  0.00     0.016 A 
ATOM     40  C   UNL A   1      45.918  22.732  26.090  1.00  0.00     0.010 A 
ATOM     41  C   UNL A   1      44.117  23.453  24.594  1.00  0.00     0.010 A 
ATOM     42  C   UNL A   1      44.848  23.579  25.772  1.00  0.00    -0.014 A 
BRANCH  42  43
ATOM     43  C   UNL A   1      44.636  24.749  26.591  1.00  0.00     0.031 A 
ATOM     44  C   UNL A   1      45.807  25.645  26.473  1.00  0.00     0.074 A 
ATOM     45  C   UNL A   1      43.495  24.980  27.271  1.00  0.00     0.049 A 
ATOM     46  N   UNL A   1      46.748  25.792  27.343  1.00  0.00    -0.248 NA
ATOM     47  C   UNL A   1      46.134  26.194  25.143  1.00  0.00     0.031 C 
ATOM     48  C   UNL A   1      42.248  24.209  27.246  1.00  0.00     0.029 A 
ATOM     49  N   UNL A   1      43.189  26.022  28.096  1.00  0.00    -0.354 N 
ATOM     50  C   UNL A   1      47.640  26.686  26.762  1.00  0.00     0.074 A 
ATOM     51  C   UNL A   1      47.361  26.673  25.355  1.00  0.00     0.031 C 
ATOM     52  C   UNL A   1      41.258  24.927  27.831  1.00  0.00     0.029 A 
ATOM     53  C   UNL A   1      41.827  26.135  28.396  1.00  0.00     0.049 A 
ATOM     54  H   UNL A   1      43.868  26.642  28.450  1.00  0.00     0.167 HD
ATOM     55  C   UNL A   1      48.243  27.624  27.538  1.00  0.00     0.037 A 
ATOM     56  C   UNL A   1      41.244  27.182  29.039  1.00  0.00     0.037 A 
ATOM     57  C   UNL A   1      48.139  27.250  28.930  1.00  0.00     0.049 A 
ATOM     58  C   UNL A   1      42.321  27.875  29.780  1.00  0.00     0.074 A 
ATOM     59  C   UNL A   1      48.671  26.272  29.742  1.00  0.00     0.029 A 
ATOM     60  N   UNL A   1      46.995  27.704  29.535  1.00  0.00    -0.354 N 
ATOM     61  N   UNL A   1      42.929  27.350  30.805  1.00  0.00    -0.248 NA
ATOM     62  C   UNL A   1      43.025  28.968  29.126  1.00  0.00     0.031 C 
ATOM     63  C   UNL A   1      47.675  25.999  30.729  1.00  0.00     0.029 A 
ATOM     64  C   UNL A   1      46.600  26.867  30.539  1.00  0.00     0.049 A 
ATOM     65  H   UNL A   1      46.519  28.527  29.277  1.00  0.00     0.167 HD
ATOM     66  C   UNL A   1      44.253  27.720  30.648  1.00  0.00     0.074 A 
ATOM     67  C   UNL A   1      44.226  28.832  29.699  1.00  0.00     0.031 C 
ATOM     68  C   UNL A   1      45.249  26.879  31.054  1.00  0.00     0.037 A 
BRANCH  55  69
ATOM     69  C   UNL A   1      48.382  29.081  27.131  1.00  0.00     0.057 A 
ATOM     70  C   UNL A   1      49.648  29.685  27.246  1.00  0.00     0.134 A 
ATOM     71  C   UNL A   1      47.314  29.987  26.944  1.00  0.00     0.134 A 
ATOM     72  F   UNL A   1      50.750  28.942  27.432  1.00  0.00    -0.206 F 
ATOM     73  C   UNL A   1      49.822  31.075  27.263  1.00  0.00     0.040 A 
ATOM     74  C   UNL A   1      47.483  31.373  26.916  1.00  0.00     0.040 A 
ATOM     75  F   UNL A   1      46.034  29.607  26.875  1.00  0.00    -0.206 F 
ATOM     76  C   UNL A   1      48.735  31.925  27.108  1.00  0.00     0.006 A 
ENDBRANCH  55  69
BRANCH  56  77
ATOM     77  C   UNL A   1      39.913  27.809  28.862  1.00  0.00     0.057 A 
ATOM     78  C   UNL A   1      39.014  27.947  29.933  1.00  0.00     0.134 A 
ATOM     79  C   UNL A   1      39.630  28.578  27.721  1.00  0.00     0.134 A 
ATOM     80  F   UNL A   1      39.222  27.292  31.085  1.00  0.00    -0.206 F 
ATOM     81  C   UNL A   1      37.918  28.821  29.884  1.00  0.00     0.040 A 
ATOM     82  C   UNL A   1      38.539  29.455  27.660  1.00  0.00     0.040 A 
ATOM     83  F   UNL A   1      40.465  28.577  26.672  1.00  0.00    -0.206 F 
ATOM     84  C   UNL A   1      37.688  29.591  28.749  1.00  0.00     0.006 A 
ENDBRANCH  56  77
BRANCH  68  85
ATOM     85  C   UNL A   1      44.869  25.790  32.016  1.00  0.00     0.057 A 
ATOM     86  C   UNL A   1      44.506  24.486  31.649  1.00  0.00     0.134 A 
ATOM     87  C   UNL A   1      44.968  26.062  33.382  1.00  0.00     0.134 A 
ATOM     88  F   UNL A   1      44.461  24.113  30.363  1.00  0.00    -0.206 F 
ATOM     89  C   UNL A   1      44.218  23.507  32.607  1.00  0.00     0.040 A 
ATOM     90  C   UNL A   1      44.716  25.089  34.348  1.00  0.00     0.040 A 
ATOM     91  F   UNL A   1      45.355  27.278  33.800  1.00  0.00    -0.206 F 
ATOM     92  C   UNL A   1      44.328  23.809  33.963  1.00  0.00     0.006 A 
ENDBRANCH  68  85
ENDBRANCH  42  43
ENDBRANCH  35  37
ENDBRANCH  34  35
ENDBRANCH  33  34
ENDBRANCH  32  33
ENDBRANCH  31  32
ENDBRANCH  30  31
ENDBRANCH   1  30
TORSDOF 19
ENDMDL
MODEL 2
REMARK VINA RESULT:     -12.1      5.313     10.186
REMARK SMILES CC(=O)c1c(C)nn(CC(=O)N2CCC[C@H](c3cccc(C(=O)OCCOCCOC(=O)c4ccc(-c5c6nc(c(-c7c(F)cccc7F)c7ccc([nH]7)c(-c7c(F)cccc7F)c7nc(c(-c8c(F)cccc8F)c8ccc5[nH]8)C=C7)C=C6)cc4)c3)C2)c1C
REMARK SMILES IDX 25 1 24 2 22 3 23 4 21 5 17 6 18 7 87 8 19 9 20 10 16 11
REMARK SMILES IDX 12 12 13 13 88 14 14 15 15 16 10 17 11 18 9 19 8 20 4 21
REMARK SMILES IDX 5 22 89 23 6 24 7 25 90 26 2 27 1 28 3 29 26 30 27 31 28 32
REMARK SMILES IDX 29 33 30 34 31 35 32 36 33 37 34 38 86 39 35 40 85 41 36 42
REMARK SMILES IDX 37 43 38 44 79 45 39 46 84 47 78 48 80 49 40 50 83 51 77 52
REMARK SMILES IDX 76 53 41 55 67 56 50 57 66 58 51 59 54 60 65 61 81 62 52 63
REMARK SMILES IDX 53 64 64 66 82 67 55 68 42 69 43 70 48 71 44 72 45 73 47 74
REMARK SMILES IDX 49 75 46 76 68 77 69 78 74 79 70 80 71 81 73 82 75 83 72 84
REMARK SMILES IDX 56 85 57 86 62 87 58 88 59 89 61 90 63 91 60 92
REMARK H PARENT 80 54 54 65
REMARK Flexibility Score: inf
ROOT
ATOM      1  C   UNL A   1      34.431  32.318  27.919  1.00  0.00     0.261 C 
ENDROOT
BRANCH   1   2
ATOM      2  O   UNL A   1      33.487  31.265  27.684  1.00  0.00    -0.460 OA
BRANCH   2   3
ATOM      3  C   UNL A   1      34.045  30.100  27.270  1.00  0.00     0.338 C 
ATOM      4  O   UNL A   1      35.173  29.700  27.504  1.00  0.00    -0.246 OA
BRANCH   3   5
ATOM      5  C   UNL A   1      32.998  29.247  26.676  1.00  0.00     0.060 A 
ATOM      6  C   UNL A   1      31.619  28.532  24.805  1.00  0.00    -0.042 A 
ATOM      7  C   UNL A   1      31.037  27.604  25.679  1.00  0.00     0.004 A 
ATOM      8  C   UNL A   1      32.563  29.415  25.355  1.00  0.00     0.019 A 
ATOM      9  C   UNL A   1      31.433  27.460  27.006  1.00  0.00     0.001 A 
ATOM     10  C   UNL A   1      32.442  28.264  27.498  1.00  0.00     0.016 A 
BRANCH   6  11
ATOM     11  C   UNL A   1      31.281  28.565  23.309  1.00  0.00     0.039 C 
ATOM     12  N   UNL A   1      32.219  26.344  22.574  1.00  0.00    -0.340 N 
ATOM     13  C   UNL A   1      33.359  26.991  21.911  1.00  0.00     0.119 C 
ATOM     14  C   UNL A   1      31.008  27.180  22.641  1.00  0.00     0.127 C 
ATOM     15  C   UNL A   1      33.662  28.377  22.473  1.00  0.00     0.022 C 
ATOM     16  C   UNL A   1      32.402  29.244  22.488  1.00  0.00     0.012 C 
BRANCH  12  17
ATOM     17  C   UNL A   1      32.449  25.146  23.241  1.00  0.00     0.244 C 
ATOM     18  O   UNL A   1      32.008  25.004  24.394  1.00  0.00    -0.273 OA
BRANCH  17  19
ATOM     19  C   UNL A   1      33.424  24.077  22.763  1.00  0.00     0.244 C 
BRANCH  19  20
ATOM     20  N   UNL A   1      33.631  22.869  23.539  1.00  0.00    -0.259 N 
ATOM     21  C   UNL A   1      33.531  20.841  24.399  1.00  0.00     0.061 A 
ATOM     22  C   UNL A   1      34.456  21.674  25.087  1.00  0.00     0.070 A 
ATOM     23  C   UNL A   1      33.023  21.642  23.380  1.00  0.00     0.047 A 
ATOM     24  C   UNL A   1      35.246  21.397  26.315  1.00  0.00     0.069 C 
ATOM     25  N   UNL A   1      34.592  22.856  24.479  1.00  0.00    -0.177 NA
ATOM     26  C   UNL A   1      31.979  21.417  22.349  1.00  0.00     0.067 C 
BRANCH  21  27
ATOM     27  C   UNL A   1      33.177  19.471  24.744  1.00  0.00     0.163 C 
ATOM     28  C   UNL A   1      34.152  18.368  24.422  1.00  0.00     0.093 C 
ATOM     29  O   UNL A   1      32.125  19.219  25.329  1.00  0.00    -0.294 OA
ENDBRANCH  21  27
ENDBRANCH  19  20
ENDBRANCH  17  19
ENDBRANCH  12  17
ENDBRANCH   6  11
ENDBRANCH   3   5
ENDBRANCH   2   3
ENDBRANCH   1   2
BRANCH   1  30
ATOM     30  C   UNL A   1      33.947  33.306  28.983  1.00  0.00     0.202 C 
BRANCH  30  31
ATOM     31  O   UNL A   1      33.088  34.379  28.599  1.00  0.00    -0.374 OA
BRANCH  31  32
ATOM     32  C   UNL A   1      33.376  35.714  29.001  1.00  0.00     0.202 C 
BRANCH  32  33
ATOM     33  C   UNL A   1      32.777  36.244  30.294  1.00  0.00     0.261 C 
BRANCH  33  34
ATOM     34  O   UNL A   1      33.645  36.056  31.396  1.00  0.00    -0.460 OA
BRANCH  34  35
ATOM     35  C   UNL A   1      33.165  35.186  32.317  1.00  0.00     0.338 C 
ATOM     36  O   UNL A   1      32.020  35.066  32.696  1.00  0.00    -0.246 OA
BRANCH  35  37
ATOM     37  C   UNL A   1      34.309  34.516  32.944  1.00  0.00     0.060 A 
ATOM     38  C   UNL A   1      35.475  35.275  32.992  1.00  0.00     0.016 A 
ATOM     39  C   UNL A   1      34.315  33.115  33.016  1.00  0.00     0.016 A 
ATOM     40  C   UNL A   1      36.663  34.622  32.772  1.00  0.00     0.010 A 
ATOM     41  C   UNL A   1      35.498  32.467  32.779  1.00  0.00     0.010 A 
ATOM     42  C   UNL A   1      36.634  33.238  32.552  1.00  0.00    -0.014 A 
BRANCH  42  43
ATOM     43  C   UNL A   1      37.882  32.563  32.287  1.00  0.00     0.031 A 
ATOM     44  C   UNL A   1      38.690  32.528  33.525  1.00  0.00     0.074 A 
ATOM     45  C   UNL A   1      38.180  31.997  31.100  1.00  0.00     0.049 A 
ATOM     46  N   UNL A   1      39.704  33.279  33.799  1.00  0.00    -0.248 NA
ATOM     47  C   UNL A   1      38.142  31.818  34.696  1.00  0.00     0.031 C 
ATOM     48  C   UNL A   1      37.320  31.844  29.922  1.00  0.00     0.029 A 
ATOM     49  N   UNL A   1      39.327  31.365  30.720  1.00  0.00    -0.354 N 
ATOM     50  C   UNL A   1      40.085  32.915  35.084  1.00  0.00     0.074 A 
ATOM     51  C   UNL A   1      38.957  32.243  35.663  1.00  0.00     0.031 C 
ATOM     52  C   UNL A   1      37.887  30.972  29.055  1.00  0.00     0.029 A 
ATOM     53  C   UNL A   1      39.207  30.618  29.542  1.00  0.00     0.049 A 
ATOM     54  H   UNL A   1      40.167  31.427  31.230  1.00  0.00     0.167 HD
ATOM     55  C   UNL A   1      41.407  32.857  35.396  1.00  0.00     0.037 A 
ATOM     56  C   UNL A   1      40.138  29.757  29.055  1.00  0.00     0.037 A 
ATOM     57  C   UNL A   1      42.174  33.589  34.414  1.00  0.00     0.049 A 
ATOM     58  C   UNL A   1      41.429  30.135  29.672  1.00  0.00     0.074 A 
ATOM     59  C   UNL A   1      42.341  34.911  34.062  1.00  0.00     0.029 A 
ATOM     60  N   UNL A   1      42.550  32.830  33.336  1.00  0.00    -0.354 N 
ATOM     61  N   UNL A   1      42.049  31.248  29.397  1.00  0.00    -0.248 NA
ATOM     62  C   UNL A   1      41.821  29.491  30.918  1.00  0.00     0.031 C 
ATOM     63  C   UNL A   1      42.602  34.910  32.657  1.00  0.00     0.029 A 
ATOM     64  C   UNL A   1      42.664  33.592  32.208  1.00  0.00     0.049 A 
ATOM     65  H   UNL A   1      42.716  31.859  33.371  1.00  0.00     0.167 HD
ATOM     66  C   UNL A   1      42.555  31.670  30.613  1.00  0.00     0.074 A 
ATOM     67  C   UNL A   1      42.522  30.487  31.471  1.00  0.00     0.031 C 
ATOM     68  C   UNL A   1      42.644  33.005  30.887  1.00  0.00     0.037 A 
BRANCH  55  69
ATOM     69  C   UNL A   1      42.031  31.715  36.181  1.00  0.00     0.057 A 
ATOM     70  C   UNL A   1      42.966  32.033  37.184  1.00  0.00     0.134 A 
ATOM     71  C   UNL A   1      42.012  30.354  35.804  1.00  0.00     0.134 A 
ATOM     72  F   UNL A   1      43.093  33.291  37.632  1.00  0.00    -0.206 F 
ATOM     73  C   UNL A   1      43.864  31.091  37.703  1.00  0.00     0.040 A 
ATOM     74  C   UNL A   1      42.874  29.399  36.347  1.00  0.00     0.040 A 
ATOM     75  F   UNL A   1      41.237  29.874  34.827  1.00  0.00    -0.206 F 
ATOM     76  C   UNL A   1      43.827  29.770  37.276  1.00  0.00     0.006 A 
ENDBRANCH  55  69
BRANCH  56  77
ATOM     77  C   UNL A   1      39.988  28.473  28.329  1.00  0.00     0.057 A 
ATOM     78  C   UNL A   1      40.603  28.253  27.085  1.00  0.00     0.134 A 
ATOM     79  C   UNL A   1      39.512  27.329  28.989  1.00  0.00     0.134 A 
ATOM     80  F   UNL A   1      41.133  29.275  26.396  1.00  0.00    -0.206 F 
ATOM     81  C   UNL A   1      40.765  26.967  26.546  1.00  0.00     0.040 A 
ATOM     82  C   UNL A   1      39.668  26.041  28.462  1.00  0.00     0.040 A 
ATOM     83  F   UNL A   1      38.976  27.420  30.215  1.00  0.00    -0.206 F 
ATOM     84  C   UNL A   1      40.310  25.854  27.245  1.00  0.00     0.006 A 
ENDBRANCH  56  77
BRANCH  68  85
ATOM     85  C   UNL A   1      42.579  33.945  29.718  1.00  0.00     0.057 A 
ATOM     86  C   UNL A   1      41.442  34.671  29.334  1.00  0.00     0.134 A 
ATOM     87  C   UNL A   1      43.758  34.188  29.009  1.00  0.00     0.134 A 
ATOM     88  F   UNL A   1      40.288  34.560  30.005  1.00  0.00    -0.206 F 
ATOM     89  C   UNL A   1      41.473  35.572  28.263  1.00  0.00     0.040 A 
ATOM     90  C   UNL A   1      43.812  35.107  27.962  1.00  0.00     0.040 A 
ATOM     91  F   UNL A   1      44.893  33.560  29.355  1.00  0.00    -0.206 F 
ATOM     92  C   UNL A   1      42.665  35.794  27.577  1.00  0.00     0.006 A 
ENDBRANCH  68  85
ENDBRANCH  42  43
ENDBRANCH  35  37
ENDBRANCH  34  35
ENDBRANCH  33  34
ENDBRANCH  32  33
ENDBRANCH  31  32
ENDBRANCH  30  31
ENDBRANCH   1  30
TORSDOF 19
ENDMDL
MODEL 3
REMARK VINA RESULT:     -12.1      1.737      3.780
REMARK SMILES CC(=O)c1c(C)nn(CC(=O)N2CCC[C@H](c3cccc(C(=O)OCCOCCOC(=O)c4ccc(-c5c6nc(c(-c7c(F)cccc7F)c7ccc([nH]7)c(-c7c(F)cccc7F)c7nc(c(-c8c(F)cccc8F)c8ccc5[nH]8)C=C7)C=C6)cc4)c3)C2)c1C
REMARK SMILES IDX 25 1 24 2 22 3 23 4 21 5 17 6 18 7 87 8 19 9 20 10 16 11
REMARK SMILES IDX 12 12 13 13 88 14 14 15 15 16 10 17 11 18 9 19 8 20 4 21
REMARK SMILES IDX 5 22 89 23 6 24 7 25 90 26 2 27 1 28 3 29 26 30 27 31 28 32
REMARK SMILES IDX 29 33 30 34 31 35 32 36 33 37 34 38 86 39 35 40 85 41 36 42
REMARK SMILES IDX 37 43 38 44 79 45 39 46 84 47 78 48 80 49 40 50 83 51 77 52
REMARK SMILES IDX 76 53 41 55 67 56 50 57 66 58 51 59 54 60 65 61 81 62 52 63
REMARK SMILES IDX 53 64 64 66 82 67 55 68 42 69 43 70 48 71 44 72 45 73 47 74
REMARK SMILES IDX 49 75 46 76 68 77 69 78 74 79 70 80 71 81 73 82 75 83 72 84
REMARK SMILES IDX 56 85 57 86 62 87 58 88 59 89 61 90 63 91 60 92
REMARK H PARENT 80 54 54 65
REMARK Flexibility Score: inf
ROOT
ATOM      1  C   UNL A   1      39.958  21.531  26.008  1.00  0.00     0.261 C 
ENDROOT
BRANCH   1   2
ATOM      2  O   UNL A   1      38.673  22.161  26.080  1.00  0.00    -0.460 OA
BRANCH   2   3
ATOM      3  C   UNL A   1      37.724  21.580  25.304  1.00  0.00     0.338 C 
ATOM      4  O   UNL A   1      37.786  20.492  24.756  1.00  0.00    -0.246 OA
BRANCH   3   5
ATOM      5  C   UNL A   1      36.473  22.356  25.406  1.00  0.00     0.060 A 
ATOM      6  C   UNL A   1      34.697  23.700  24.430  1.00  0.00    -0.042 A 
ATOM      7  C   UNL A   1      34.142  23.774  25.715  1.00  0.00     0.004 A 
ATOM      8  C   UNL A   1      35.929  23.037  24.310  1.00  0.00     0.019 A 
ATOM      9  C   UNL A   1      34.700  23.136  26.820  1.00  0.00     0.001 A 
ATOM     10  C   UNL A   1      35.854  22.396  26.658  1.00  0.00     0.016 A 
BRANCH   6  11
ATOM     11  C   UNL A   1      33.982  24.274  23.200  1.00  0.00     0.039 C 
ATOM     12  N   UNL A   1      31.582  24.146  23.958  1.00  0.00    -0.340 N 
ATOM     13  C   UNL A   1      31.313  23.006  23.072  1.00  0.00     0.119 C 
ATOM     14  C   UNL A   1      32.651  25.041  23.481  1.00  0.00     0.127 C 
ATOM     15  C   UNL A   1      32.576  22.230  22.706  1.00  0.00     0.022 C 
ATOM     16  C   UNL A   1      33.654  23.172  22.167  1.00  0.00     0.012 C 
BRANCH  12  17
ATOM     17  C   UNL A   1      30.984  24.148  25.213  1.00  0.00     0.244 C 
ATOM     18  O   UNL A   1      30.575  23.076  25.688  1.00  0.00    -0.273 OA
BRANCH  17  19
ATOM     19  C   UNL A   1      30.561  25.410  25.954  1.00  0.00     0.244 C 
BRANCH  19  20
ATOM     20  N   UNL A   1      30.647  26.708  25.308  1.00  0.00    -0.259 N 
ATOM     21  C   UNL A   1      30.349  28.480  24.031  1.00  0.00     0.061 A 
ATOM     22  C   UNL A   1      31.488  28.606  24.872  1.00  0.00     0.070 A 
ATOM     23  C   UNL A   1      29.808  27.238  24.352  1.00  0.00     0.047 A 
ATOM     24  C   UNL A   1      32.512  29.683  24.922  1.00  0.00     0.069 C 
ATOM     25  N   UNL A   1      31.582  27.579  25.722  1.00  0.00    -0.177 NA
ATOM     26  C   UNL A   1      28.662  26.468  23.805  1.00  0.00     0.067 C 
BRANCH  21  27
ATOM     27  C   UNL A   1      29.904  29.436  23.026  1.00  0.00     0.163 C 
ATOM     28  C   UNL A   1      29.189  30.683  23.478  1.00  0.00     0.093 C 
ATOM     29  O   UNL A   1      30.146  29.257  21.834  1.00  0.00    -0.294 OA
ENDBRANCH  21  27
ENDBRANCH  19  20
ENDBRANCH  17  19
ENDBRANCH  12  17
ENDBRANCH   6  11
ENDBRANCH   3   5
ENDBRANCH   2   3
ENDBRANCH   1   2
BRANCH   1  30
ATOM     30  C   UNL A   1      40.406  20.971  27.360  1.00  0.00     0.202 C 
BRANCH  30  31
ATOM     31  O   UNL A   1      41.566  20.142  27.421  1.00  0.00    -0.374 OA
BRANCH  31  32
ATOM     32  C   UNL A   1      42.697  20.420  26.603  1.00  0.00     0.202 C 
BRANCH  32  33
ATOM     33  C   UNL A   1      43.250  19.324  25.706  1.00  0.00     0.261 C 
BRANCH  33  34
ATOM     34  O   UNL A   1      43.537  19.800  24.404  1.00  0.00    -0.460 OA
BRANCH  34  35
ATOM     35  C   UNL A   1      44.864  19.912  24.152  1.00  0.00     0.338 C 
ATOM     36  O   UNL A   1      45.659  19.017  23.960  1.00  0.00    -0.246 OA
BRANCH  35  37
ATOM     37  C   UNL A   1      45.242  21.317  24.337  1.00  0.00     0.060 A 
ATOM     38  C   UNL A   1      46.113  21.551  25.399  1.00  0.00     0.016 A 
ATOM     39  C   UNL A   1      44.416  22.316  23.803  1.00  0.00     0.016 A 
ATOM     40  C   UNL A   1      45.911  22.688  26.141  1.00  0.00     0.010 A 
ATOM     41  C   UNL A   1      44.203  23.441  24.554  1.00  0.00     0.010 A 
ATOM     42  C   UNL A   1      44.875  23.555  25.768  1.00  0.00    -0.014 A 
BRANCH  42  43
ATOM     43  C   UNL A   1      44.645  24.731  26.573  1.00  0.00     0.031 A 
ATOM     44  C   UNL A   1      45.809  25.636  26.457  1.00  0.00     0.074 A 
ATOM     45  C   UNL A   1      43.496  24.958  27.241  1.00  0.00     0.049 A 
ATOM     46  N   UNL A   1      46.741  25.800  27.335  1.00  0.00    -0.248 NA
ATOM     47  C   UNL A   1      46.144  26.175  25.126  1.00  0.00     0.031 C 
ATOM     48  C   UNL A   1      42.256  24.176  27.211  1.00  0.00     0.029 A 
ATOM     49  N   UNL A   1      43.173  26.006  28.052  1.00  0.00    -0.354 N 
ATOM     50  C   UNL A   1      47.630  26.696  26.754  1.00  0.00     0.074 A 
ATOM     51  C   UNL A   1      47.365  26.667  25.345  1.00  0.00     0.031 C 
ATOM     52  C   UNL A   1      41.254  24.891  27.779  1.00  0.00     0.029 A 
ATOM     53  C   UNL A   1      41.807  26.110  28.338  1.00  0.00     0.049 A 
ATOM     54  H   UNL A   1      43.842  26.635  28.406  1.00  0.00     0.167 HD
ATOM     55  C   UNL A   1      48.218  27.647  27.527  1.00  0.00     0.037 A 
ATOM     56  C   UNL A   1      41.209  27.157  28.965  1.00  0.00     0.037 A 
ATOM     57  C   UNL A   1      48.104  27.285  28.921  1.00  0.00     0.049 A 
ATOM     58  C   UNL A   1      42.272  27.868  29.710  1.00  0.00     0.074 A 
ATOM     59  C   UNL A   1      48.636  26.321  29.748  1.00  0.00     0.029 A 
ATOM     60  N   UNL A   1      46.950  27.735  29.510  1.00  0.00    -0.354 N 
ATOM     61  N   UNL A   1      42.875  27.357  30.746  1.00  0.00    -0.248 NA
ATOM     62  C   UNL A   1      42.973  28.960  29.052  1.00  0.00     0.031 C 
ATOM     63  C   UNL A   1      47.633  26.048  30.727  1.00  0.00     0.029 A 
ATOM     64  C   UNL A   1      46.552  26.904  30.519  1.00  0.00     0.049 A 
ATOM     65  H   UNL A   1      46.469  28.551  29.240  1.00  0.00     0.167 HD
ATOM     66  C   UNL A   1      44.197  27.738  30.597  1.00  0.00     0.074 A 
ATOM     67  C   UNL A   1      44.169  28.841  29.637  1.00  0.00     0.031 C 
ATOM     68  C   UNL A   1      45.196  26.910  31.021  1.00  0.00     0.037 A 
BRANCH  55  69
ATOM     69  C   UNL A   1      48.347  29.101  27.106  1.00  0.00     0.057 A 
ATOM     70  C   UNL A   1      49.604  29.721  27.238  1.00  0.00     0.134 A 
ATOM     71  C   UNL A   1      47.273  29.992  26.890  1.00  0.00     0.134 A 
ATOM     72  F   UNL A   1      50.711  28.992  27.452  1.00  0.00    -0.206 F 
ATOM     73  C   UNL A   1      49.762  31.113  27.243  1.00  0.00     0.040 A 
ATOM     74  C   UNL A   1      47.427  31.380  26.850  1.00  0.00     0.040 A 
ATOM     75  F   UNL A   1      45.999  29.598  26.801  1.00  0.00    -0.206 F 
ATOM     76  C   UNL A   1      48.669  31.949  27.059  1.00  0.00     0.006 A 
ENDBRANCH  55  69
BRANCH  56  77
ATOM     77  C   UNL A   1      39.874  27.771  28.769  1.00  0.00     0.057 A 
ATOM     78  C   UNL A   1      38.939  27.852  29.815  1.00  0.00     0.134 A 
ATOM     79  C   UNL A   1      39.615  28.581  27.651  1.00  0.00     0.134 A 
ATOM     80  F   UNL A   1      39.120  27.154  30.946  1.00  0.00    -0.206 F 
ATOM     81  C   UNL A   1      37.830  28.711  29.764  1.00  0.00     0.040 A 
ATOM     82  C   UNL A   1      38.513  29.443  27.589  1.00  0.00     0.040 A 
ATOM     83  F   UNL A   1      40.484  28.635  26.631  1.00  0.00    -0.206 F 
ATOM     84  C   UNL A   1      37.624  29.522  28.654  1.00  0.00     0.006 A 
ENDBRANCH  56  77
BRANCH  68  85
ATOM     85  C   UNL A   1      44.817  25.827  31.990  1.00  0.00     0.057 A 
ATOM     86  C   UNL A   1      44.581  26.021  33.359  1.00  0.00     0.134 A 
ATOM     87  C   UNL A   1      44.593  24.545  31.481  1.00  0.00     0.134 A 
ATOM     88  F   UNL A   1      44.695  27.232  33.918  1.00  0.00    -0.206 F 
ATOM     89  C   UNL A   1      44.177  24.970  34.190  1.00  0.00     0.040 A 
ATOM     90  C   UNL A   1      44.158  23.497  32.290  1.00  0.00     0.040 A 
ATOM     91  F   UNL A   1      44.755  24.303  30.170  1.00  0.00    -0.206 F 
ATOM     92  C   UNL A   1      43.959  23.703  33.652  1.00  0.00     0.006 A 
ENDBRANCH  68  85
ENDBRANCH  42  43
ENDBRANCH  35  37
ENDBRANCH  34  35
ENDBRANCH  33  34
ENDBRANCH  32  33
ENDBRANCH  31  32
ENDBRANCH  30  31
ENDBRANCH   1  30
TORSDOF 19
ENDMDL
