MODEL 1
REMARK VINA RESULT:     -10.6      0.000      0.000
REMARK SMILES COc1ccc(C(=O)c2ccccc2)cc1[C@@H](C)C(=O)OCCOCCOC(=O)c1ccc(-c2c3nc(c(-c4c(F)cccc4F)c4ccc([nH]4)c(-c4c(F)cccc4F)c4nc(c(-c5c(F)cccc5F)c5ccc2[nH]5)C=C4)C=C3)cc1
REMARK SMILES IDX 23 1 22 2 21 3 19 4 20 5 17 6 18 7 16 8 3 9 4 10 5 11 15 12
REMARK SMILES IDX 6 13 2 14 1 15 7 16 8 17 9 18 10 19 14 20 11 21 13 22 12 23
REMARK SMILES IDX 24 24 25 25 26 26 27 27 28 28 29 29 30 30 31 31 83 32 32 33
REMARK SMILES IDX 82 34 33 35 34 36 35 37 76 38 36 39 81 40 75 41 77 42 37 43
REMARK SMILES IDX 80 44 74 45 73 46 38 48 64 49 47 50 63 51 48 52 51 53 62 54
REMARK SMILES IDX 78 55 49 56 50 57 61 59 79 60 52 61 39 62 40 63 45 64 41 65
REMARK SMILES IDX 42 66 44 67 46 68 43 69 65 70 66 71 71 72 67 73 68 74 70 75
REMARK SMILES IDX 72 76 69 77 53 78 54 79 59 80 55 81 56 82 58 83 60 84 57 85
REMARK H PARENT 77 47 51 58
REMARK Flexibility Score: inf
ROOT
ATOM      1  C   UNL A   1      33.298  20.398  25.431  1.00  0.00     0.202 C 
ENDROOT
BRANCH   1   2
ATOM      2  C   UNL A   1      32.162  21.192  24.785  1.00  0.00     0.261 C 
BRANCH   2   3
ATOM      3  O   UNL A   1      32.483  22.596  24.744  1.00  0.00    -0.463 OA
BRANCH   3   4
ATOM      4  C   UNL A   1      32.909  23.089  23.549  1.00  0.00     0.313 C 
ATOM      5  O   UNL A   1      32.851  22.482  22.486  1.00  0.00    -0.252 OA
BRANCH   4   6
ATOM      6  C   UNL A   1      33.515  24.479  23.670  1.00  0.00     0.130 C 
ATOM      7  C   UNL A   1      34.756  24.429  24.562  1.00  0.00     0.025 C 
BRANCH   6   8
ATOM      8  C   UNL A   1      32.555  25.591  24.088  1.00  0.00     0.009 A 
ATOM      9  C   UNL A   1      31.575  26.080  23.211  1.00  0.00     0.122 A 
ATOM     10  C   UNL A   1      30.809  27.201  23.536  1.00  0.00     0.047 A 
ATOM     11  C   UNL A   1      31.000  27.849  24.757  1.00  0.00     0.016 A 
ATOM     12  C   UNL A   1      32.673  26.214  25.348  1.00  0.00     0.020 A 
ATOM     13  C   UNL A   1      31.945  27.369  25.672  1.00  0.00     0.023 A 
BRANCH   9  14
ATOM     14  O   UNL A   1      31.405  25.544  21.963  1.00  0.00    -0.496 OA
ATOM     15  C   UNL A   1      32.453  25.954  21.083  1.00  0.00     0.278 C 
ENDBRANCH   9  14
BRANCH  13  16
ATOM     16  C   UNL A   1      32.118  28.115  26.956  1.00  0.00     0.193 C 
ATOM     17  O   UNL A   1      31.407  27.811  27.913  1.00  0.00    -0.289 OA
BRANCH  16  18
ATOM     18  C   UNL A   1      33.142  29.180  27.153  1.00  0.00     0.022 A 
ATOM     19  C   UNL A   1      32.692  30.503  27.233  1.00  0.00     0.012 A 
ATOM     20  C   UNL A   1      34.514  28.926  27.256  1.00  0.00     0.012 A 
ATOM     21  C   UNL A   1      33.576  31.539  27.533  1.00  0.00     0.001 A 
ATOM     22  C   UNL A   1      35.398  29.962  27.572  1.00  0.00     0.001 A 
ATOM     23  C   UNL A   1      34.926  31.263  27.729  1.00  0.00     0.000 A 
ENDBRANCH  16  18
ENDBRANCH  13  16
ENDBRANCH   6   8
ENDBRANCH   4   6
ENDBRANCH   3   4
ENDBRANCH   2   3
ENDBRANCH   1   2
BRANCH   1  24
ATOM     24  O   UNL A   1      33.885  21.015  26.579  1.00  0.00    -0.374 OA
BRANCH  24  25
ATOM     25  C   UNL A   1      35.224  21.480  26.426  1.00  0.00     0.202 C 
BRANCH  25  26
ATOM     26  C   UNL A   1      36.029  20.817  25.301  1.00  0.00     0.261 C 
BRANCH  26  27
ATOM     27  O   UNL A   1      37.242  21.534  25.017  1.00  0.00    -0.460 OA
BRANCH  27  28
ATOM     28  C   UNL A   1      38.331  21.104  25.695  1.00  0.00     0.338 C 
ATOM     29  O   UNL A   1      38.781  19.966  25.737  1.00  0.00    -0.246 OA
BRANCH  28  30
ATOM     30  C   UNL A   1      39.038  22.257  26.279  1.00  0.00     0.060 A 
ATOM     31  C   UNL A   1      38.509  23.536  26.059  1.00  0.00     0.016 A 
ATOM     32  C   UNL A   1      40.228  22.098  26.985  1.00  0.00     0.016 A 
ATOM     33  C   UNL A   1      39.182  24.667  26.527  1.00  0.00     0.010 A 
ATOM     34  C   UNL A   1      40.904  23.234  27.439  1.00  0.00     0.010 A 
ATOM     35  C   UNL A   1      40.397  24.528  27.209  1.00  0.00    -0.014 A 
BRANCH  35  36
ATOM     36  C   UNL A   1      41.213  25.714  27.585  1.00  0.00     0.031 A 
ATOM     37  C   UNL A   1      40.573  26.818  28.386  1.00  0.00     0.074 A 
ATOM     38  C   UNL A   1      42.496  25.838  27.191  1.00  0.00     0.049 A 
ATOM     39  N   UNL A   1      41.052  27.989  28.719  1.00  0.00    -0.248 NA
ATOM     40  C   UNL A   1      39.202  26.571  28.859  1.00  0.00     0.031 C 
ATOM     41  C   UNL A   1      43.249  24.851  26.420  1.00  0.00     0.029 A 
ATOM     42  N   UNL A   1      43.383  26.873  27.365  1.00  0.00    -0.354 N 
ATOM     43  C   UNL A   1      40.040  28.619  29.431  1.00  0.00     0.074 A 
ATOM     44  C   UNL A   1      38.901  27.727  29.429  1.00  0.00     0.031 C 
ATOM     45  C   UNL A   1      44.478  25.338  26.167  1.00  0.00     0.029 A 
ATOM     46  C   UNL A   1      44.588  26.680  26.734  1.00  0.00     0.049 A 
ATOM     47  H   UNL A   1      43.175  27.678  27.892  1.00  0.00     0.167 HD
ATOM     48  C   UNL A   1      40.060  29.819  30.059  1.00  0.00     0.037 A 
ATOM     49  C   UNL A   1      45.649  27.500  26.607  1.00  0.00     0.037 A 
ATOM     50  C   UNL A   1      41.196  30.701  30.095  1.00  0.00     0.049 A 
ATOM     51  C   UNL A   1      45.629  28.860  27.256  1.00  0.00     0.074 A 
ATOM     52  C   UNL A   1      41.328  31.910  30.755  1.00  0.00     0.029 A 
ATOM     53  N   UNL A   1      42.396  30.465  29.445  1.00  0.00    -0.354 N 
ATOM     54  N   UNL A   1      44.683  29.421  27.970  1.00  0.00    -0.248 NA
ATOM     55  C   UNL A   1      46.828  29.695  27.091  1.00  0.00     0.031 C 
ATOM     56  C   UNL A   1      42.598  32.424  30.475  1.00  0.00     0.029 A 
ATOM     57  C   UNL A   1      43.270  31.515  29.674  1.00  0.00     0.049 A 
ATOM     58  H   UNL A   1      42.599  29.670  28.900  1.00  0.00     0.167 HD
ATOM     59  C   UNL A   1      45.191  30.649  28.377  1.00  0.00     0.074 A 
ATOM     60  C   UNL A   1      46.525  30.755  27.827  1.00  0.00     0.031 C 
ATOM     61  C   UNL A   1      44.606  31.600  29.145  1.00  0.00     0.037 A 
BRANCH  48  62
ATOM     62  C   UNL A   1      38.811  30.240  30.775  1.00  0.00     0.057 A 
ATOM     63  C   UNL A   1      37.854  31.059  30.160  1.00  0.00     0.134 A 
ATOM     64  C   UNL A   1      38.548  29.803  32.079  1.00  0.00     0.134 A 
ATOM     65  F   UNL A   1      38.053  31.522  28.917  1.00  0.00    -0.206 F 
ATOM     66  C   UNL A   1      36.695  31.455  30.829  1.00  0.00     0.040 A 
ATOM     67  C   UNL A   1      37.379  30.170  32.748  1.00  0.00     0.040 A 
ATOM     68  F   UNL A   1      39.419  29.010  32.720  1.00  0.00    -0.206 F 
ATOM     69  C   UNL A   1      36.453  31.005  32.126  1.00  0.00     0.006 A 
ENDBRANCH  48  62
BRANCH  49  70
ATOM     70  C   UNL A   1      46.836  27.071  25.823  1.00  0.00     0.057 A 
ATOM     71  C   UNL A   1      46.985  27.434  24.480  1.00  0.00     0.134 A 
ATOM     72  C   UNL A   1      47.821  26.249  26.383  1.00  0.00     0.134 A 
ATOM     73  F   UNL A   1      46.061  28.201  23.881  1.00  0.00    -0.206 F 
ATOM     74  C   UNL A   1      48.057  26.973  23.712  1.00  0.00     0.040 A 
ATOM     75  C   UNL A   1      48.908  25.798  25.634  1.00  0.00     0.040 A 
ATOM     76  F   UNL A   1      47.739  25.873  27.669  1.00  0.00    -0.206 F 
ATOM     77  C   UNL A   1      49.023  26.153  24.291  1.00  0.00     0.006 A 
ENDBRANCH  49  70
BRANCH  61  78
ATOM     78  C   UNL A   1      45.422  32.810  29.497  1.00  0.00     0.057 A 
ATOM     79  C   UNL A   1      45.377  33.983  28.734  1.00  0.00     0.134 A 
ATOM     80  C   UNL A   1      46.221  32.815  30.648  1.00  0.00     0.134 A 
ATOM     81  F   UNL A   1      44.642  34.038  27.614  1.00  0.00    -0.206 F 
ATOM     82  C   UNL A   1      46.112  35.113  29.096  1.00  0.00     0.040 A 
ATOM     83  C   UNL A   1      46.941  33.947  31.032  1.00  0.00     0.040 A 
ATOM     84  F   UNL A   1      46.301  31.725  31.427  1.00  0.00    -0.206 F 
ATOM     85  C   UNL A   1      46.891  35.099  30.252  1.00  0.00     0.006 A 
ENDBRANCH  61  78
ENDBRANCH  35  36
ENDBRANCH  28  30
ENDBRANCH  27  28
ENDBRANCH  26  27
ENDBRANCH  25  26
ENDBRANCH  24  25
ENDBRANCH   1  24
TORSDOF 18
ENDMDL
MODEL 2
REMARK VINA RESULT:     -10.6      4.034      7.604
REMARK SMILES COc1ccc(C(=O)c2ccccc2)cc1[C@@H](C)C(=O)OCCOCCOC(=O)c1ccc(-c2c3nc(c(-c4c(F)cccc4F)c4ccc([nH]4)c(-c4c(F)cccc4F)c4nc(c(-c5c(F)cccc5F)c5ccc2[nH]5)C=C4)C=C3)cc1
REMARK SMILES IDX 23 1 22 2 21 3 19 4 20 5 17 6 18 7 16 8 3 9 4 10 5 11 15 12
REMARK SMILES IDX 6 13 2 14 1 15 7 16 8 17 9 18 10 19 14 20 11 21 13 22 12 23
REMARK SMILES IDX 24 24 25 25 26 26 27 27 28 28 29 29 30 30 31 31 83 32 32 33
REMARK SMILES IDX 82 34 33 35 34 36 35 37 76 38 36 39 81 40 75 41 77 42 37 43
REMARK SMILES IDX 80 44 74 45 73 46 38 48 64 49 47 50 63 51 48 52 51 53 62 54
REMARK SMILES IDX 78 55 49 56 50 57 61 59 79 60 52 61 39 62 40 63 45 64 41 65
REMARK SMILES IDX 42 66 44 67 46 68 43 69 65 70 66 71 71 72 67 73 68 74 70 75
REMARK SMILES IDX 72 76 69 77 53 78 54 79 59 80 55 81 56 82 58 83 60 84 57 85
REMARK H PARENT 77 47 51 58
REMARK Flexibility Score: inf
ROOT
ATOM      1  C   UNL A   1      35.696  21.660  25.534  1.00  0.00     0.202 C 
ENDROOT
BRANCH   1   2
ATOM      2  C   UNL A   1      35.765  23.139  25.153  1.00  0.00     0.261 C 
BRANCH   2   3
ATOM      3  O   UNL A   1      34.475  23.612  24.718  1.00  0.00    -0.463 OA
BRANCH   3   4
ATOM      4  C   UNL A   1      34.239  23.592  23.378  1.00  0.00     0.313 C 
ATOM      5  O   UNL A   1      35.057  23.249  22.532  1.00  0.00    -0.252 OA
BRANCH   4   6
ATOM      6  C   UNL A   1      32.846  24.089  23.020  1.00  0.00     0.130 C 
ATOM      7  C   UNL A   1      32.871  24.758  21.644  1.00  0.00     0.025 C 
BRANCH   6   8
ATOM      8  C   UNL A   1      32.161  24.962  24.068  1.00  0.00     0.009 A 
ATOM      9  C   UNL A   1      31.201  24.436  24.945  1.00  0.00     0.122 A 
ATOM     10  C   UNL A   1      30.461  25.266  25.790  1.00  0.00     0.047 A 
ATOM     11  C   UNL A   1      30.679  26.644  25.784  1.00  0.00     0.016 A 
ATOM     12  C   UNL A   1      32.419  26.348  24.138  1.00  0.00     0.020 A 
ATOM     13  C   UNL A   1      31.653  27.202  24.946  1.00  0.00     0.023 A 
BRANCH   9  14
ATOM     14  O   UNL A   1      30.878  23.106  24.933  1.00  0.00    -0.496 OA
ATOM     15  C   UNL A   1      30.824  22.581  26.261  1.00  0.00     0.278 C 
ENDBRANCH   9  14
BRANCH  13  16
ATOM     16  C   UNL A   1      31.828  28.687  24.969  1.00  0.00     0.193 C 
ATOM     17  O   UNL A   1      31.225  29.362  24.135  1.00  0.00    -0.289 OA
BRANCH  16  18
ATOM     18  C   UNL A   1      32.659  29.399  25.981  1.00  0.00     0.022 A 
ATOM     19  C   UNL A   1      33.896  28.834  26.313  1.00  0.00     0.012 A 
ATOM     20  C   UNL A   1      32.267  30.585  26.609  1.00  0.00     0.012 A 
ATOM     21  C   UNL A   1      34.777  29.503  27.162  1.00  0.00     0.001 A 
ATOM     22  C   UNL A   1      33.156  31.263  27.448  1.00  0.00     0.001 A 
ATOM     23  C   UNL A   1      34.417  30.731  27.708  1.00  0.00     0.000 A 
ENDBRANCH  16  18
ENDBRANCH  13  16
ENDBRANCH   6   8
ENDBRANCH   4   6
ENDBRANCH   3   4
ENDBRANCH   2   3
ENDBRANCH   1   2
BRANCH   1  24
ATOM     24  O   UNL A   1      36.950  21.073  25.889  1.00  0.00    -0.374 OA
BRANCH  24  25
ATOM     25  C   UNL A   1      38.109  21.673  25.315  1.00  0.00     0.202 C 
BRANCH  25  26
ATOM     26  C   UNL A   1      39.189  22.111  26.311  1.00  0.00     0.261 C 
BRANCH  26  27
ATOM     27  O   UNL A   1      39.438  23.525  26.243  1.00  0.00    -0.460 OA
BRANCH  27  28
ATOM     28  C   UNL A   1      40.636  23.917  26.737  1.00  0.00     0.338 C 
ATOM     29  O   UNL A   1      41.739  23.461  26.467  1.00  0.00    -0.246 OA
BRANCH  28  30
ATOM     30  C   UNL A   1      40.459  25.124  27.564  1.00  0.00     0.060 A 
ATOM     31  C   UNL A   1      41.456  26.108  27.518  1.00  0.00     0.016 A 
ATOM     32  C   UNL A   1      39.364  25.269  28.412  1.00  0.00     0.016 A 
ATOM     33  C   UNL A   1      41.372  27.235  28.339  1.00  0.00     0.010 A 
ATOM     34  C   UNL A   1      39.293  26.393  29.241  1.00  0.00     0.010 A 
ATOM     35  C   UNL A   1      40.296  27.381  29.222  1.00  0.00    -0.014 A 
BRANCH  35  36
ATOM     36  C   UNL A   1      40.255  28.488  30.215  1.00  0.00     0.031 A 
ATOM     37  C   UNL A   1      41.154  28.421  31.422  1.00  0.00     0.074 A 
ATOM     38  C   UNL A   1      39.405  29.525  30.078  1.00  0.00     0.049 A 
ATOM     39  N   UNL A   1      41.199  29.204  32.470  1.00  0.00    -0.248 NA
ATOM     40  C   UNL A   1      42.119  27.311  31.457  1.00  0.00     0.031 C 
ATOM     41  C   UNL A   1      38.483  29.728  28.962  1.00  0.00     0.029 A 
ATOM     42  N   UNL A   1      39.162  30.591  30.910  1.00  0.00    -0.354 N 
ATOM     43  C   UNL A   1      42.189  28.676  33.290  1.00  0.00     0.074 A 
ATOM     44  C   UNL A   1      42.674  27.474  32.648  1.00  0.00     0.031 C 
ATOM     45  C   UNL A   1      37.757  30.838  29.190  1.00  0.00     0.029 A 
ATOM     46  C   UNL A   1      38.144  31.407  30.479  1.00  0.00     0.049 A 
ATOM     47  H   UNL A   1      39.669  30.755  31.738  1.00  0.00     0.167 HD
ATOM     48  C   UNL A   1      42.676  29.160  34.457  1.00  0.00     0.037 A 
ATOM     49  C   UNL A   1      37.572  32.477  31.067  1.00  0.00     0.037 A 
ATOM     50  C   UNL A   1      42.223  30.370  35.089  1.00  0.00     0.049 A 
ATOM     51  C   UNL A   1      38.083  32.962  32.399  1.00  0.00     0.074 A 
ATOM     52  C   UNL A   1      42.697  30.969  36.243  1.00  0.00     0.029 A 
ATOM     53  N   UNL A   1      41.193  31.166  34.617  1.00  0.00    -0.354 N 
ATOM     54  N   UNL A   1      39.054  32.483  33.137  1.00  0.00    -0.248 NA
ATOM     55  C   UNL A   1      37.424  34.145  32.974  1.00  0.00     0.031 C 
ATOM     56  C   UNL A   1      41.929  32.111  36.490  1.00  0.00     0.029 A 
ATOM     57  C   UNL A   1      41.004  32.244  35.467  1.00  0.00     0.049 A 
ATOM     58  H   UNL A   1      40.671  30.993  33.800  1.00  0.00     0.167 HD
ATOM     59  C   UNL A   1      39.153  33.329  34.234  1.00  0.00     0.074 A 
ATOM     60  C   UNL A   1      38.141  34.350  34.070  1.00  0.00     0.031 C 
ATOM     61  C   UNL A   1      40.012  33.271  35.280  1.00  0.00     0.037 A 
BRANCH  48  62
ATOM     62  C   UNL A   1      43.772  28.379  35.119  1.00  0.00     0.057 A 
ATOM     63  C   UNL A   1      45.123  28.667  34.884  1.00  0.00     0.134 A 
ATOM     64  C   UNL A   1      43.476  27.347  36.019  1.00  0.00     0.134 A 
ATOM     65  F   UNL A   1      45.472  29.635  34.023  1.00  0.00    -0.206 F 
ATOM     66  C   UNL A   1      46.142  27.937  35.497  1.00  0.00     0.040 A 
ATOM     67  C   UNL A   1      44.487  26.628  36.658  1.00  0.00     0.040 A 
ATOM     68  F   UNL A   1      42.204  27.028  36.294  1.00  0.00    -0.206 F 
ATOM     69  C   UNL A   1      45.824  26.916  36.391  1.00  0.00     0.006 A 
ENDBRANCH  48  62
BRANCH  49  70
ATOM     70  C   UNL A   1      36.438  33.174  30.409  1.00  0.00     0.057 A 
ATOM     71  C   UNL A   1      35.119  32.964  30.829  1.00  0.00     0.134 A 
ATOM     72  C   UNL A   1      36.640  34.025  29.317  1.00  0.00     0.134 A 
ATOM     73  F   UNL A   1      34.861  32.140  31.856  1.00  0.00    -0.206 F 
ATOM     74  C   UNL A   1      34.039  33.554  30.169  1.00  0.00     0.040 A 
ATOM     75  C   UNL A   1      35.571  34.637  28.661  1.00  0.00     0.040 A 
ATOM     76  F   UNL A   1      37.881  34.273  28.871  1.00  0.00    -0.206 F 
ATOM     77  C   UNL A   1      34.265  34.395  29.082  1.00  0.00     0.006 A 
ENDBRANCH  49  70
BRANCH  61  78
ATOM     78  C   UNL A   1      39.947  34.373  36.297  1.00  0.00     0.057 A 
ATOM     79  C   UNL A   1      39.191  34.258  37.470  1.00  0.00     0.134 A 
ATOM     80  C   UNL A   1      40.698  35.543  36.123  1.00  0.00     0.134 A 
ATOM     81  F   UNL A   1      38.440  33.169  37.690  1.00  0.00    -0.206 F 
ATOM     82  C   UNL A   1      39.171  35.276  38.425  1.00  0.00     0.040 A 
ATOM     83  C   UNL A   1      40.705  36.556  37.082  1.00  0.00     0.040 A 
ATOM     84  F   UNL A   1      41.451  35.712  35.025  1.00  0.00    -0.206 F 
ATOM     85  C   UNL A   1      39.936  36.426  38.236  1.00  0.00     0.006 A 
ENDBRANCH  61  78
ENDBRANCH  35  36
ENDBRANCH  28  30
ENDBRANCH  27  28
ENDBRANCH  26  27
ENDBRANCH  25  26
ENDBRANCH  24  25
ENDBRANCH   1  24
TORSDOF 18
ENDMDL
MODEL 3
REMARK VINA RESULT:     -10.5      2.239      7.653
REMARK SMILES COc1ccc(C(=O)c2ccccc2)cc1[C@@H](C)C(=O)OCCOCCOC(=O)c1ccc(-c2c3nc(c(-c4c(F)cccc4F)c4ccc([nH]4)c(-c4c(F)cccc4F)c4nc(c(-c5c(F)cccc5F)c5ccc2[nH]5)C=C4)C=C3)cc1
REMARK SMILES IDX 23 1 22 2 21 3 19 4 20 5 17 6 18 7 16 8 3 9 4 10 5 11 15 12
REMARK SMILES IDX 6 13 2 14 1 15 7 16 8 17 9 18 10 19 14 20 11 21 13 22 12 23
REMARK SMILES IDX 24 24 25 25 26 26 27 27 28 28 29 29 30 30 31 31 83 32 32 33
REMARK SMILES IDX 82 34 33 35 34 36 35 37 76 38 36 39 81 40 75 41 77 42 37 43
REMARK SMILES IDX 80 44 74 45 73 46 38 48 64 49 47 50 63 51 48 52 51 53 62 54
REMARK SMILES IDX 78 55 49 56 50 57 61 59 79 60 52 61 39 62 40 63 45 64 41 65
REMARK SMILES IDX 42 66 44 67 46 68 43 69 65 70 66 71 71 72 67 73 68 74 70 75
REMARK SMILES IDX 72 76 69 77 53 78 54 79 59 80 55 81 56 82 58 83 60 84 57 85
REMARK H PARENT 77 47 51 58
REMARK Flexibility Score: inf
ROOT
ATOM      1  C   UNL A   1      33.552  31.885  27.435  1.00  0.00     0.202 C 
ENDROOT
BRANCH   1   2
ATOM      2  C   UNL A   1      32.580  30.732  27.179  1.00  0.00     0.261 C 
BRANCH   2   3
ATOM      3  O   UNL A   1      33.298  29.523  26.861  1.00  0.00    -0.463 OA
BRANCH   3   4
ATOM      4  C   UNL A   1      32.664  28.349  27.131  1.00  0.00     0.313 C 
ATOM      5  O   UNL A   1      31.817  28.201  28.004  1.00  0.00    -0.252 OA
BRANCH   4   6
ATOM      6  C   UNL A   1      33.152  27.205  26.257  1.00  0.00     0.130 C 
ATOM      7  C   UNL A   1      34.248  27.702  25.313  1.00  0.00     0.025 C 
BRANCH   6   8
ATOM      8  C   UNL A   1      32.069  26.426  25.514  1.00  0.00     0.009 A 
ATOM      9  C   UNL A   1      32.259  25.089  25.133  1.00  0.00     0.122 A 
ATOM     10  C   UNL A   1      31.337  24.431  24.317  1.00  0.00     0.047 A 
ATOM     11  C   UNL A   1      30.194  25.098  23.875  1.00  0.00     0.016 A 
ATOM     12  C   UNL A   1      30.867  27.051  25.121  1.00  0.00     0.020 A 
ATOM     13  C   UNL A   1      29.953  26.422  24.262  1.00  0.00     0.023 A 
BRANCH   9  14
ATOM     14  O   UNL A   1      33.403  24.411  25.459  1.00  0.00    -0.496 OA
ATOM     15  C   UNL A   1      33.170  23.505  26.539  1.00  0.00     0.278 C 
ENDBRANCH   9  14
BRANCH  13  16
ATOM     16  C   UNL A   1      28.721  27.090  23.742  1.00  0.00     0.193 C 
ATOM     17  O   UNL A   1      27.637  26.529  23.897  1.00  0.00    -0.289 OA
BRANCH  16  18
ATOM     18  C   UNL A   1      28.730  28.428  23.084  1.00  0.00     0.022 A 
ATOM     19  C   UNL A   1      29.905  28.819  22.433  1.00  0.00     0.012 A 
ATOM     20  C   UNL A   1      27.637  29.301  23.088  1.00  0.00     0.012 A 
ATOM     21  C   UNL A   1      29.951  30.004  21.697  1.00  0.00     0.001 A 
ATOM     22  C   UNL A   1      27.677  30.480  22.338  1.00  0.00     0.001 A 
ATOM     23  C   UNL A   1      28.826  30.820  21.628  1.00  0.00     0.000 A 
ENDBRANCH  16  18
ENDBRANCH  13  16
ENDBRANCH   6   8
ENDBRANCH   4   6
ENDBRANCH   3   4
ENDBRANCH   2   3
ENDBRANCH   1   2
BRANCH   1  24
ATOM     24  O   UNL A   1      33.922  32.066  28.803  1.00  0.00    -0.374 OA
BRANCH  24  25
ATOM     25  C   UNL A   1      34.120  33.413  29.227  1.00  0.00     0.202 C 
BRANCH  25  26
ATOM     26  C   UNL A   1      34.325  33.609  30.733  1.00  0.00     0.261 C 
BRANCH  26  27
ATOM     27  O   UNL A   1      34.511  32.357  31.416  1.00  0.00    -0.460 OA
BRANCH  27  28
ATOM     28  C   UNL A   1      35.562  32.323  32.268  1.00  0.00     0.338 C 
ATOM     29  O   UNL A   1      35.591  32.701  33.431  1.00  0.00    -0.246 OA
BRANCH  28  30
ATOM     30  C   UNL A   1      36.680  31.594  31.644  1.00  0.00     0.060 A 
ATOM     31  C   UNL A   1      37.606  30.959  32.483  1.00  0.00     0.016 A 
ATOM     32  C   UNL A   1      36.854  31.575  30.262  1.00  0.00     0.016 A 
ATOM     33  C   UNL A   1      38.724  30.319  31.944  1.00  0.00     0.010 A 
ATOM     34  C   UNL A   1      37.982  30.945  29.729  1.00  0.00     0.010 A 
ATOM     35  C   UNL A   1      38.932  30.320  30.560  1.00  0.00    -0.014 A 
BRANCH  35  36
ATOM     36  C   UNL A   1      40.187  29.783  29.966  1.00  0.00     0.031 A 
ATOM     37  C   UNL A   1      41.353  30.713  29.755  1.00  0.00     0.074 A 
ATOM     38  C   UNL A   1      40.286  28.496  29.578  1.00  0.00     0.049 A 
ATOM     39  N   UNL A   1      42.491  30.496  29.148  1.00  0.00    -0.248 NA
ATOM     40  C   UNL A   1      41.205  32.077  30.288  1.00  0.00     0.031 C 
ATOM     41  C   UNL A   1      39.246  27.479  29.724  1.00  0.00     0.029 A 
ATOM     42  N   UNL A   1      41.313  27.835  28.948  1.00  0.00    -0.354 N 
ATOM     43  C   UNL A   1      43.189  31.695  29.218  1.00  0.00     0.074 A 
ATOM     44  C   UNL A   1      42.322  32.652  29.872  1.00  0.00     0.031 C 
ATOM     45  C   UNL A   1      39.679  26.329  29.178  1.00  0.00     0.029 A 
ATOM     46  C   UNL A   1      41.014  26.534  28.620  1.00  0.00     0.049 A 
ATOM     47  H   UNL A   1      42.182  28.253  28.750  1.00  0.00     0.167 HD
ATOM     48  C   UNL A   1      44.449  31.973  28.807  1.00  0.00     0.037 A 
ATOM     49  C   UNL A   1      41.723  25.622  27.928  1.00  0.00     0.037 A 
ATOM     50  C   UNL A   1      45.331  31.023  28.184  1.00  0.00     0.049 A 
ATOM     51  C   UNL A   1      43.098  25.970  27.419  1.00  0.00     0.074 A 
ATOM     52  C   UNL A   1      46.645  31.198  27.786  1.00  0.00     0.029 A 
ATOM     53  N   UNL A   1      44.988  29.717  27.873  1.00  0.00    -0.354 N 
ATOM     54  N   UNL A   1      43.765  27.092  27.538  1.00  0.00    -0.248 NA
ATOM     55  C   UNL A   1      43.823  24.919  26.687  1.00  0.00     0.031 C 
ATOM     56  C   UNL A   1      47.086  30.007  27.201  1.00  0.00     0.029 A 
ATOM     57  C   UNL A   1      46.060  29.079  27.272  1.00  0.00     0.049 A 
ATOM     58  H   UNL A   1      44.112  29.303  28.053  1.00  0.00     0.167 HD
ATOM     59  C   UNL A   1      44.999  26.868  26.942  1.00  0.00     0.074 A 
ATOM     60  C   UNL A   1      44.990  25.505  26.456  1.00  0.00     0.031 C 
ATOM     61  C   UNL A   1      46.051  27.713  26.816  1.00  0.00     0.037 A 
BRANCH  48  62
ATOM     62  C   UNL A   1      44.952  33.368  29.033  1.00  0.00     0.057 A 
ATOM     63  C   UNL A   1      44.742  34.385  28.092  1.00  0.00     0.134 A 
ATOM     64  C   UNL A   1      45.631  33.704  30.211  1.00  0.00     0.134 A 
ATOM     65  F   UNL A   1      44.110  34.124  26.938  1.00  0.00    -0.206 F 
ATOM     66  C   UNL A   1      45.216  35.681  28.301  1.00  0.00     0.040 A 
ATOM     67  C   UNL A   1      46.086  35.003  30.442  1.00  0.00     0.040 A 
ATOM     68  F   UNL A   1      45.857  32.779  31.154  1.00  0.00    -0.206 F 
ATOM     69  C   UNL A   1      45.886  35.994  29.482  1.00  0.00     0.006 A 
ENDBRANCH  48  62
BRANCH  49  70
ATOM     70  C   UNL A   1      41.152  24.276  27.662  1.00  0.00     0.057 A 
ATOM     71  C   UNL A   1      41.603  23.149  28.357  1.00  0.00     0.134 A 
ATOM     72  C   UNL A   1      40.181  24.080  26.674  1.00  0.00     0.134 A 
ATOM     73  F   UNL A   1      42.550  23.271  29.300  1.00  0.00    -0.206 F 
ATOM     74  C   UNL A   1      41.129  21.869  28.062  1.00  0.00     0.040 A 
ATOM     75  C   UNL A   1      39.683  22.809  26.382  1.00  0.00     0.040 A 
ATOM     76  F   UNL A   1      39.702  25.122  25.977  1.00  0.00    -0.206 F 
ATOM     77  C   UNL A   1      40.165  21.698  27.071  1.00  0.00     0.006 A 
ENDBRANCH  49  70
BRANCH  61  78
ATOM     78  C   UNL A   1      47.304  27.177  26.189  1.00  0.00     0.057 A 
ATOM     79  C   UNL A   1      48.296  26.537  26.941  1.00  0.00     0.134 A 
ATOM     80  C   UNL A   1      47.493  27.258  24.803  1.00  0.00     0.134 A 
ATOM     81  F   UNL A   1      48.182  26.439  28.273  1.00  0.00    -0.206 F 
ATOM     82  C   UNL A   1      49.439  26.009  26.337  1.00  0.00     0.040 A 
ATOM     83  C   UNL A   1      48.620  26.712  24.186  1.00  0.00     0.040 A 
ATOM     84  F   UNL A   1      46.576  27.852  24.023  1.00  0.00    -0.206 F 
ATOM     85  C   UNL A   1      49.599  26.089  24.955  1.00  0.00     0.006 A 
ENDBRANCH  61  78
ENDBRANCH  35  36
ENDBRANCH  28  30
ENDBRANCH  27  28
ENDBRANCH  26  27
ENDBRANCH  25  26
ENDBRANCH  24  25
ENDBRANCH   1  24
TORSDOF 18
ENDMDL
