MODEL 1
REMARK VINA RESULT:     -10.7      0.000      0.000
REMARK SMILES O=C(OCCOCCOC(=O)[C@@H]1CC(=O)N(CCCCc2ccccn2)C1)c1ccc(-c2c3nc(c(-c4c(F)cccc4F)c4ccc([nH]4)c(-c4c(F)cccc4F)c4nc(c(-c5c(F)cccc5F)c5ccc2[nH]5)C=C4)C=C3)cc1
REMARK SMILES IDX 7 1 6 2 5 3 4 4 3 5 2 6 1 7 28 8 29 9 81 10 30 11 80 12
REMARK SMILES IDX 31 13 32 14 33 15 74 16 34 17 79 18 73 19 75 20 35 21 78 22
REMARK SMILES IDX 72 23 71 24 36 26 62 27 45 28 61 29 46 30 49 31 60 32 76 33
REMARK SMILES IDX 47 34 48 35 59 37 77 38 50 39 37 40 38 41 43 42 39 43 40 44
REMARK SMILES IDX 42 45 44 46 41 47 63 48 64 49 69 50 65 51 66 52 68 53 70 54
REMARK SMILES IDX 67 55 51 56 52 57 57 58 53 59 54 60 56 61 58 62 55 63 8 64
REMARK SMILES IDX 9 65 10 66 11 67 12 68 13 69 27 70 14 71 16 72 15 73 17 74
REMARK SMILES IDX 18 75 19 76 20 77 21 78 22 79 26 80 23 81 25 82 24 83
REMARK H PARENT 75 25 49 36
REMARK Flexibility Score: inf
ROOT
ATOM      1  C   UNL A   1      32.429  29.732  27.213  1.00  0.00     0.202 C 
ENDROOT
BRANCH   1   2
ATOM      2  O   UNL A   1      32.106  30.785  26.291  1.00  0.00    -0.374 OA
BRANCH   2   3
ATOM      3  C   UNL A   1      31.376  31.892  26.826  1.00  0.00     0.202 C 
BRANCH   3   4
ATOM      4  C   UNL A   1      32.014  33.268  26.621  1.00  0.00     0.261 C 
BRANCH   4   5
ATOM      5  O   UNL A   1      32.182  33.942  27.877  1.00  0.00    -0.460 OA
BRANCH   5   6
ATOM      6  C   UNL A   1      33.328  34.466  28.374  1.00  0.00     0.338 C 
ATOM      7  O   UNL A   1      33.451  35.687  28.427  1.00  0.00    -0.246 OA
BRANCH   6   8
ATOM      8  C   UNL A   1      34.453  33.624  28.873  1.00  0.00     0.060 A 
ATOM      9  C   UNL A   1      34.339  32.279  29.235  1.00  0.00     0.016 A 
ATOM     10  C   UNL A   1      35.725  34.212  28.897  1.00  0.00     0.016 A 
ATOM     11  C   UNL A   1      35.422  31.559  29.703  1.00  0.00     0.010 A 
ATOM     12  C   UNL A   1      36.836  33.479  29.320  1.00  0.00     0.010 A 
ATOM     13  C   UNL A   1      36.674  32.156  29.747  1.00  0.00    -0.014 A 
BRANCH  13  14
ATOM     14  C   UNL A   1      37.771  31.401  30.364  1.00  0.00     0.031 A 
ATOM     15  C   UNL A   1      37.998  31.568  31.831  1.00  0.00     0.074 A 
ATOM     16  C   UNL A   1      38.450  30.501  29.633  1.00  0.00     0.049 A 
ATOM     17  N   UNL A   1      38.958  31.100  32.579  1.00  0.00    -0.248 NA
ATOM     18  C   UNL A   1      36.998  32.371  32.558  1.00  0.00     0.031 C 
ATOM     19  C   UNL A   1      38.181  30.176  28.229  1.00  0.00     0.029 A 
ATOM     20  N   UNL A   1      39.487  29.678  29.973  1.00  0.00    -0.354 N 
ATOM     21  C   UNL A   1      38.703  31.586  33.853  1.00  0.00     0.074 A 
ATOM     22  C   UNL A   1      37.498  32.381  33.783  1.00  0.00     0.031 C 
ATOM     23  C   UNL A   1      39.027  29.212  27.834  1.00  0.00     0.029 A 
ATOM     24  C   UNL A   1      39.942  28.914  28.928  1.00  0.00     0.049 A 
ATOM     25  H   UNL A   1      39.870  29.638  30.879  1.00  0.00     0.167 HD
ATOM     26  C   UNL A   1      39.433  31.389  34.975  1.00  0.00     0.037 A 
ATOM     27  C   UNL A   1      41.012  28.103  28.864  1.00  0.00     0.037 A 
ATOM     28  C   UNL A   1      40.625  30.586  34.996  1.00  0.00     0.049 A 
ATOM     29  C   UNL A   1      41.863  27.975  30.097  1.00  0.00     0.074 A 
ATOM     30  C   UNL A   1      41.501  30.358  36.039  1.00  0.00     0.029 A 
ATOM     31  N   UNL A   1      41.103  29.872  33.902  1.00  0.00    -0.354 N 
ATOM     32  N   UNL A   1      41.682  28.510  31.283  1.00  0.00    -0.248 NA
ATOM     33  C   UNL A   1      43.073  27.154  29.984  1.00  0.00     0.031 C 
ATOM     34  C   UNL A   1      42.531  29.537  35.563  1.00  0.00     0.029 A 
ATOM     35  C   UNL A   1      42.269  29.213  34.239  1.00  0.00     0.049 A 
ATOM     36  H   UNL A   1      40.672  29.841  33.017  1.00  0.00     0.167 HD
ATOM     37  C   UNL A   1      42.744  28.080  32.064  1.00  0.00     0.074 A 
ATOM     38  C   UNL A   1      43.555  27.223  31.218  1.00  0.00     0.031 C 
ATOM     39  C   UNL A   1      43.033  28.364  33.358  1.00  0.00     0.037 A 
BRANCH  26  40
ATOM     40  C   UNL A   1      38.996  32.123  36.205  1.00  0.00     0.057 A 
ATOM     41  C   UNL A   1      38.098  31.573  37.130  1.00  0.00     0.134 A 
ATOM     42  C   UNL A   1      39.436  33.434  36.437  1.00  0.00     0.134 A 
ATOM     43  F   UNL A   1      37.610  30.336  36.950  1.00  0.00    -0.206 F 
ATOM     44  C   UNL A   1      37.628  32.310  38.220  1.00  0.00     0.040 A 
ATOM     45  C   UNL A   1      38.993  34.171  37.535  1.00  0.00     0.040 A 
ATOM     46  F   UNL A   1      40.287  34.026  35.585  1.00  0.00    -0.206 F 
ATOM     47  C   UNL A   1      38.078  33.613  38.425  1.00  0.00     0.006 A 
ENDBRANCH  26  40
BRANCH  27  48
ATOM     48  C   UNL A   1      41.362  27.417  27.593  1.00  0.00     0.057 A 
ATOM     49  C   UNL A   1      40.939  26.109  27.329  1.00  0.00     0.134 A 
ATOM     50  C   UNL A   1      42.127  28.054  26.606  1.00  0.00     0.134 A 
ATOM     51  F   UNL A   1      40.220  25.437  28.239  1.00  0.00    -0.206 F 
ATOM     52  C   UNL A   1      41.272  25.458  26.139  1.00  0.00     0.040 A 
ATOM     53  C   UNL A   1      42.445  27.425  25.401  1.00  0.00     0.040 A 
ATOM     54  F   UNL A   1      42.565  29.308  26.792  1.00  0.00    -0.206 F 
ATOM     55  C   UNL A   1      42.022  26.119  25.168  1.00  0.00     0.006 A 
ENDBRANCH  27  48
BRANCH  39  56
ATOM     56  C   UNL A   1      44.253  27.713  33.932  1.00  0.00     0.057 A 
ATOM     57  C   UNL A   1      45.497  28.352  33.936  1.00  0.00     0.134 A 
ATOM     58  C   UNL A   1      44.163  26.452  34.534  1.00  0.00     0.134 A 
ATOM     59  F   UNL A   1      45.647  29.555  33.362  1.00  0.00    -0.206 F 
ATOM     60  C   UNL A   1      46.618  27.750  34.506  1.00  0.00     0.040 A 
ATOM     61  C   UNL A   1      45.270  25.852  35.130  1.00  0.00     0.040 A 
ATOM     62  F   UNL A   1      42.993  25.795  34.567  1.00  0.00    -0.206 F 
ATOM     63  C   UNL A   1      46.504  26.500  35.113  1.00  0.00     0.006 A 
ENDBRANCH  39  56
ENDBRANCH  13  14
ENDBRANCH   6   8
ENDBRANCH   5   6
ENDBRANCH   4   5
ENDBRANCH   3   4
ENDBRANCH   2   3
ENDBRANCH   1   2
BRANCH   1  64
ATOM     64  C   UNL A   1      33.645  28.954  26.702  1.00  0.00     0.261 C 
BRANCH  64  65
ATOM     65  O   UNL A   1      33.218  27.608  26.466  1.00  0.00    -0.463 OA
BRANCH  65  66
ATOM     66  C   UNL A   1      33.591  27.173  25.227  1.00  0.00     0.311 C 
ATOM     67  O   UNL A   1      33.887  27.901  24.291  1.00  0.00    -0.252 OA
BRANCH  66  68
ATOM     68  C   UNL A   1      33.653  25.662  25.227  1.00  0.00     0.128 C 
ATOM     69  C   UNL A   1      34.375  25.125  23.997  1.00  0.00     0.117 C 
ATOM     70  C   UNL A   1      32.261  25.129  25.090  1.00  0.00     0.135 C 
ATOM     71  C   UNL A   1      33.267  25.101  22.973  1.00  0.00     0.223 C 
ATOM     72  N   UNL A   1      32.061  25.150  23.666  1.00  0.00    -0.342 N 
ATOM     73  O   UNL A   1      33.422  25.047  21.765  1.00  0.00    -0.275 OA
BRANCH  72  74
ATOM     74  C   UNL A   1      30.797  25.502  23.056  1.00  0.00     0.119 C 
BRANCH  74  75
ATOM     75  C   UNL A   1      29.993  26.544  23.822  1.00  0.00     0.022 C 
BRANCH  75  76
ATOM     76  C   UNL A   1      29.731  27.878  23.106  1.00  0.00     0.008 C 
BRANCH  76  77
ATOM     77  C   UNL A   1      28.294  28.409  23.163  1.00  0.00     0.056 C 
BRANCH  77  78
ATOM     78  C   UNL A   1      28.192  29.819  22.656  1.00  0.00     0.040 A 
ATOM     79  C   UNL A   1      28.106  30.889  23.544  1.00  0.00     0.024 A 
ATOM     80  N   UNL A   1      28.259  29.983  21.315  1.00  0.00    -0.261 NA
ATOM     81  C   UNL A   1      28.126  32.182  23.035  1.00  0.00     0.003 A 
ATOM     82  C   UNL A   1      28.263  31.249  20.848  1.00  0.00     0.111 A 
ATOM     83  C   UNL A   1      28.210  32.368  21.661  1.00  0.00     0.020 A 
ENDBRANCH  77  78
ENDBRANCH  76  77
ENDBRANCH  75  76
ENDBRANCH  74  75
ENDBRANCH  72  74
ENDBRANCH  66  68
ENDBRANCH  65  66
ENDBRANCH  64  65
ENDBRANCH   1  64
TORSDOF 19
ENDMDL
MODEL 2
REMARK VINA RESULT:     -10.5      5.011     10.431
REMARK SMILES O=C(OCCOCCOC(=O)[C@@H]1CC(=O)N(CCCCc2ccccn2)C1)c1ccc(-c2c3nc(c(-c4c(F)cccc4F)c4ccc([nH]4)c(-c4c(F)cccc4F)c4nc(c(-c5c(F)cccc5F)c5ccc2[nH]5)C=C4)C=C3)cc1
REMARK SMILES IDX 7 1 6 2 5 3 4 4 3 5 2 6 1 7 28 8 29 9 81 10 30 11 80 12
REMARK SMILES IDX 31 13 32 14 33 15 74 16 34 17 79 18 73 19 75 20 35 21 78 22
REMARK SMILES IDX 72 23 71 24 36 26 62 27 45 28 61 29 46 30 49 31 60 32 76 33
REMARK SMILES IDX 47 34 48 35 59 37 77 38 50 39 37 40 38 41 43 42 39 43 40 44
REMARK SMILES IDX 42 45 44 46 41 47 63 48 64 49 69 50 65 51 66 52 68 53 70 54
REMARK SMILES IDX 67 55 51 56 52 57 57 58 53 59 54 60 56 61 58 62 55 63 8 64
REMARK SMILES IDX 9 65 10 66 11 67 12 68 13 69 27 70 14 71 16 72 15 73 17 74
REMARK SMILES IDX 18 75 19 76 20 77 21 78 22 79 26 80 23 81 25 82 24 83
REMARK H PARENT 75 25 49 36
REMARK Flexibility Score: inf
ROOT
ATOM      1  C   UNL A   1      36.796  22.007  25.572  1.00  0.00     0.202 C 
ENDROOT
BRANCH   1   2
ATOM      2  O   UNL A   1      38.108  21.435  25.694  1.00  0.00    -0.374 OA
BRANCH   2   3
ATOM      3  C   UNL A   1      38.336  20.217  24.980  1.00  0.00     0.202 C 
BRANCH   3   4
ATOM      4  C   UNL A   1      39.058  19.117  25.761  1.00  0.00     0.261 C 
BRANCH   4   5
ATOM      5  O   UNL A   1      40.473  19.179  25.535  1.00  0.00    -0.460 OA
BRANCH   5   6
ATOM      6  C   UNL A   1      41.415  19.649  26.388  1.00  0.00     0.338 C 
ATOM      7  O   UNL A   1      42.136  18.850  26.980  1.00  0.00    -0.246 OA
BRANCH   6   8
ATOM      8  C   UNL A   1      41.625  21.104  26.639  1.00  0.00     0.060 A 
ATOM      9  C   UNL A   1      41.278  22.122  25.747  1.00  0.00     0.016 A 
ATOM     10  C   UNL A   1      42.132  21.466  27.894  1.00  0.00     0.016 A 
ATOM     11  C   UNL A   1      41.513  23.453  26.037  1.00  0.00     0.010 A 
ATOM     12  C   UNL A   1      42.326  22.810  28.219  1.00  0.00     0.010 A 
ATOM     13  C   UNL A   1      42.038  23.802  27.274  1.00  0.00    -0.014 A 
BRANCH  13  14
ATOM     14  C   UNL A   1      42.387  25.210  27.497  1.00  0.00     0.031 A 
ATOM     15  C   UNL A   1      43.690  25.702  26.955  1.00  0.00     0.074 A 
ATOM     16  C   UNL A   1      41.489  26.035  28.061  1.00  0.00     0.049 A 
ATOM     17  N   UNL A   1      44.266  26.861  27.112  1.00  0.00    -0.248 NA
ATOM     18  C   UNL A   1      44.445  24.757  26.113  1.00  0.00     0.031 C 
ATOM     19  C   UNL A   1      40.136  25.654  28.477  1.00  0.00     0.029 A 
ATOM     20  N   UNL A   1      41.568  27.367  28.359  1.00  0.00    -0.354 N 
ATOM     21  C   UNL A   1      45.469  26.770  26.427  1.00  0.00     0.074 A 
ATOM     22  C   UNL A   1      45.541  25.448  25.848  1.00  0.00     0.031 C 
ATOM     23  C   UNL A   1      39.509  26.735  28.967  1.00  0.00     0.029 A 
ATOM     24  C   UNL A   1      40.441  27.856  28.970  1.00  0.00     0.049 A 
ATOM     25  H   UNL A   1      42.356  27.920  28.155  1.00  0.00     0.167 HD
ATOM     26  C   UNL A   1      46.430  27.716  26.313  1.00  0.00     0.037 A 
ATOM     27  C   UNL A   1      40.218  29.066  29.512  1.00  0.00     0.037 A 
ATOM     28  C   UNL A   1      46.312  29.020  26.906  1.00  0.00     0.049 A 
ATOM     29  C   UNL A   1      41.338  30.069  29.457  1.00  0.00     0.074 A 
ATOM     30  C   UNL A   1      47.232  30.049  26.933  1.00  0.00     0.029 A 
ATOM     31  N   UNL A   1      45.181  29.469  27.579  1.00  0.00    -0.354 N 
ATOM     32  N   UNL A   1      42.519  29.957  28.893  1.00  0.00    -0.248 NA
ATOM     33  C   UNL A   1      41.109  31.353  30.127  1.00  0.00     0.031 C 
ATOM     34  C   UNL A   1      46.672  31.107  27.659  1.00  0.00     0.029 A 
ATOM     35  C   UNL A   1      45.383  30.757  28.039  1.00  0.00     0.049 A 
ATOM     36  H   UNL A   1      44.356  28.947  27.708  1.00  0.00     0.167 HD
ATOM     37  C   UNL A   1      43.170  31.159  29.125  1.00  0.00     0.074 A 
ATOM     38  C   UNL A   1      42.242  31.992  29.867  1.00  0.00     0.031 C 
ATOM     39  C   UNL A   1      44.419  31.545  28.767  1.00  0.00     0.037 A 
BRANCH  26  40
ATOM     40  C   UNL A   1      47.690  27.320  25.606  1.00  0.00     0.057 A 
ATOM     41  C   UNL A   1      48.822  26.856  26.291  1.00  0.00     0.134 A 
ATOM     42  C   UNL A   1      47.793  27.466  24.216  1.00  0.00     0.134 A 
ATOM     43  F   UNL A   1      48.803  26.727  27.626  1.00  0.00    -0.206 F 
ATOM     44  C   UNL A   1      50.019  26.584  25.623  1.00  0.00     0.040 A 
ATOM     45  C   UNL A   1      48.975  27.174  23.535  1.00  0.00     0.040 A 
ATOM     46  F   UNL A   1      46.752  27.916  23.501  1.00  0.00    -0.206 F 
ATOM     47  C   UNL A   1      50.096  26.742  24.241  1.00  0.00     0.006 A 
ENDBRANCH  26  40
BRANCH  27  48
ATOM     48  C   UNL A   1      38.931  29.361  30.192  1.00  0.00     0.057 A 
ATOM     49  C   UNL A   1      38.748  29.096  31.554  1.00  0.00     0.134 A 
ATOM     50  C   UNL A   1      37.849  29.920  29.498  1.00  0.00     0.134 A 
ATOM     51  F   UNL A   1      39.736  28.545  32.273  1.00  0.00    -0.206 F 
ATOM     52  C   UNL A   1      37.536  29.365  32.196  1.00  0.00     0.040 A 
ATOM     53  C   UNL A   1      36.642  30.219  30.132  1.00  0.00     0.040 A 
ATOM     54  F   UNL A   1      37.955  30.201  28.190  1.00  0.00    -0.206 F 
ATOM     55  C   UNL A   1      36.481  29.934  31.486  1.00  0.00     0.006 A 
ENDBRANCH  27  48
BRANCH  39  56
ATOM     56  C   UNL A   1      44.826  32.936  29.145  1.00  0.00     0.057 A 
ATOM     57  C   UNL A   1      44.544  34.034  28.326  1.00  0.00     0.134 A 
ATOM     58  C   UNL A   1      45.459  33.177  30.370  1.00  0.00     0.134 A 
ATOM     59  F   UNL A   1      43.951  33.863  27.135  1.00  0.00    -0.206 F 
ATOM     60  C   UNL A   1      44.896  35.329  28.707  1.00  0.00     0.040 A 
ATOM     61  C   UNL A   1      45.792  34.469  30.772  1.00  0.00     0.040 A 
ATOM     62  F   UNL A   1      45.746  32.162  31.200  1.00  0.00    -0.206 F 
ATOM     63  C   UNL A   1      45.514  35.549  29.937  1.00  0.00     0.006 A 
ENDBRANCH  39  56
ENDBRANCH  13  14
ENDBRANCH   6   8
ENDBRANCH   5   6
ENDBRANCH   4   5
ENDBRANCH   3   4
ENDBRANCH   2   3
ENDBRANCH   1   2
BRANCH   1  64
ATOM     64  C   UNL A   1      36.911  23.478  25.162  1.00  0.00     0.261 C 
BRANCH  64  65
ATOM     65  O   UNL A   1      35.618  24.069  25.337  1.00  0.00    -0.463 OA
BRANCH  65  66
ATOM     66  C   UNL A   1      35.021  24.334  24.139  1.00  0.00     0.311 C 
ATOM     67  O   UNL A   1      35.285  23.770  23.088  1.00  0.00    -0.252 OA
BRANCH  66  68
ATOM     68  C   UNL A   1      33.938  25.371  24.341  1.00  0.00     0.128 C 
ATOM     69  C   UNL A   1      33.370  25.327  25.756  1.00  0.00     0.117 C 
ATOM     70  C   UNL A   1      32.772  25.015  23.473  1.00  0.00     0.135 C 
ATOM     71  C   UNL A   1      32.335  24.235  25.640  1.00  0.00     0.223 C 
ATOM     72  N   UNL A   1      32.059  24.067  24.286  1.00  0.00    -0.342 N 
ATOM     73  O   UNL A   1      31.843  23.627  26.575  1.00  0.00    -0.275 OA
BRANCH  72  74
ATOM     74  C   UNL A   1      31.402  22.900  23.739  1.00  0.00     0.119 C 
BRANCH  74  75
ATOM     75  C   UNL A   1      32.349  21.851  23.168  1.00  0.00     0.022 C 
BRANCH  75  76
ATOM     76  C   UNL A   1      33.273  21.139  24.167  1.00  0.00     0.008 C 
BRANCH  76  77
ATOM     77  C   UNL A   1      32.590  20.222  25.190  1.00  0.00     0.056 C 
BRANCH  77  78
ATOM     78  C   UNL A   1      32.838  18.769  24.901  1.00  0.00     0.040 A 
ATOM     79  C   UNL A   1      33.430  18.374  23.704  1.00  0.00     0.024 A 
ATOM     80  N   UNL A   1      32.522  17.897  25.886  1.00  0.00    -0.261 NA
ATOM     81  C   UNL A   1      33.744  17.033  23.525  1.00  0.00     0.003 A 
ATOM     82  C   UNL A   1      32.825  16.599  25.679  1.00  0.00     0.111 A 
ATOM     83  C   UNL A   1      33.440  16.126  24.532  1.00  0.00     0.020 A 
ENDBRANCH  77  78
ENDBRANCH  76  77
ENDBRANCH  75  76
ENDBRANCH  74  75
ENDBRANCH  72  74
ENDBRANCH  66  68
ENDBRANCH  65  66
ENDBRANCH  64  65
ENDBRANCH   1  64
TORSDOF 19
ENDMDL
MODEL 3
REMARK VINA RESULT:     -10.4      2.288      4.578
REMARK SMILES O=C(OCCOCCOC(=O)[C@@H]1CC(=O)N(CCCCc2ccccn2)C1)c1ccc(-c2c3nc(c(-c4c(F)cccc4F)c4ccc([nH]4)c(-c4c(F)cccc4F)c4nc(c(-c5c(F)cccc5F)c5ccc2[nH]5)C=C4)C=C3)cc1
REMARK SMILES IDX 7 1 6 2 5 3 4 4 3 5 2 6 1 7 28 8 29 9 81 10 30 11 80 12
REMARK SMILES IDX 31 13 32 14 33 15 74 16 34 17 79 18 73 19 75 20 35 21 78 22
REMARK SMILES IDX 72 23 71 24 36 26 62 27 45 28 61 29 46 30 49 31 60 32 76 33
REMARK SMILES IDX 47 34 48 35 59 37 77 38 50 39 37 40 38 41 43 42 39 43 40 44
REMARK SMILES IDX 42 45 44 46 41 47 63 48 64 49 69 50 65 51 66 52 68 53 70 54
REMARK SMILES IDX 67 55 51 56 52 57 57 58 53 59 54 60 56 61 58 62 55 63 8 64
REMARK SMILES IDX 9 65 10 66 11 67 12 68 13 69 27 70 14 71 16 72 15 73 17 74
REMARK SMILES IDX 18 75 19 76 20 77 21 78 22 79 26 80 23 81 25 82 24 83
REMARK H PARENT 75 25 49 36
REMARK Flexibility Score: inf
ROOT
ATOM      1  C   UNL A   1      32.475  29.856  27.028  1.00  0.00     0.202 C 
ENDROOT
BRANCH   1   2
ATOM      2  O   UNL A   1      31.612  30.697  26.246  1.00  0.00    -0.374 OA
BRANCH   2   3
ATOM      3  C   UNL A   1      31.203  31.924  26.855  1.00  0.00     0.202 C 
BRANCH   3   4
ATOM      4  C   UNL A   1      32.132  33.119  26.626  1.00  0.00     0.261 C 
BRANCH   4   5
ATOM      5  O   UNL A   1      32.146  33.979  27.775  1.00  0.00    -0.460 OA
BRANCH   5   6
ATOM      6  C   UNL A   1      33.234  34.508  28.384  1.00  0.00     0.338 C 
ATOM      7  O   UNL A   1      33.300  35.725  28.537  1.00  0.00    -0.246 OA
BRANCH   6   8
ATOM      8  C   UNL A   1      34.363  33.674  28.890  1.00  0.00     0.060 A 
ATOM      9  C   UNL A   1      34.233  32.370  29.373  1.00  0.00     0.016 A 
ATOM     10  C   UNL A   1      35.650  34.220  28.790  1.00  0.00     0.016 A 
ATOM     11  C   UNL A   1      35.321  31.657  29.840  1.00  0.00     0.010 A 
ATOM     12  C   UNL A   1      36.763  33.489  29.212  1.00  0.00     0.010 A 
ATOM     13  C   UNL A   1      36.590  32.213  29.761  1.00  0.00    -0.014 A 
BRANCH  13  14
ATOM     14  C   UNL A   1      37.700  31.477  30.378  1.00  0.00     0.031 A 
ATOM     15  C   UNL A   1      37.943  31.673  31.839  1.00  0.00     0.074 A 
ATOM     16  C   UNL A   1      38.377  30.570  29.655  1.00  0.00     0.049 A 
ATOM     17  N   UNL A   1      38.915  31.226  32.583  1.00  0.00    -0.248 NA
ATOM     18  C   UNL A   1      36.946  32.481  32.563  1.00  0.00     0.031 C 
ATOM     19  C   UNL A   1      38.094  30.218  28.261  1.00  0.00     0.029 A 
ATOM     20  N   UNL A   1      39.425  29.761  29.997  1.00  0.00    -0.354 N 
ATOM     21  C   UNL A   1      38.672  31.732  33.851  1.00  0.00     0.074 A 
ATOM     22  C   UNL A   1      37.460  32.516  33.782  1.00  0.00     0.031 C 
ATOM     23  C   UNL A   1      38.942  29.254  27.872  1.00  0.00     0.029 A 
ATOM     24  C   UNL A   1      39.873  28.982  28.960  1.00  0.00     0.049 A 
ATOM     25  H   UNL A   1      39.819  29.740  30.899  1.00  0.00     0.167 HD
ATOM     26  C   UNL A   1      39.417  31.560  34.968  1.00  0.00     0.037 A 
ATOM     27  C   UNL A   1      40.948  28.178  28.898  1.00  0.00     0.037 A 
ATOM     28  C   UNL A   1      40.615  30.767  34.989  1.00  0.00     0.049 A 
ATOM     29  C   UNL A   1      41.814  28.078  30.123  1.00  0.00     0.074 A 
ATOM     30  C   UNL A   1      41.505  30.564  36.025  1.00  0.00     0.029 A 
ATOM     31  N   UNL A   1      41.085  30.038  33.902  1.00  0.00    -0.354 N 
ATOM     32  N   UNL A   1      41.644  28.633  31.301  1.00  0.00    -0.248 NA
ATOM     33  C   UNL A   1      43.030  27.264  30.010  1.00  0.00     0.031 C 
ATOM     34  C   UNL A   1      42.536  29.743  35.551  1.00  0.00     0.029 A 
ATOM     35  C   UNL A   1      42.261  29.393  34.236  1.00  0.00     0.049 A 
ATOM     36  H   UNL A   1      40.644  29.987  33.023  1.00  0.00     0.167 HD
ATOM     37  C   UNL A   1      42.718  28.225  32.076  1.00  0.00     0.074 A 
ATOM     38  C   UNL A   1      43.526  27.360  31.236  1.00  0.00     0.031 C 
ATOM     39  C   UNL A   1      43.021  28.534  33.361  1.00  0.00     0.037 A 
BRANCH  26  40
ATOM     40  C   UNL A   1      38.989  32.314  36.190  1.00  0.00     0.057 A 
ATOM     41  C   UNL A   1      39.454  33.604  36.479  1.00  0.00     0.134 A 
ATOM     42  C   UNL A   1      38.143  31.709  37.130  1.00  0.00     0.134 A 
ATOM     43  F   UNL A   1      40.295  34.227  35.640  1.00  0.00    -0.206 F 
ATOM     44  C   UNL A   1      39.120  34.251  37.672  1.00  0.00     0.040 A 
ATOM     45  C   UNL A   1      37.782  32.355  38.312  1.00  0.00     0.040 A 
ATOM     46  F   UNL A   1      37.671  30.470  36.922  1.00  0.00    -0.206 F 
ATOM     47  C   UNL A   1      38.280  33.626  38.591  1.00  0.00     0.006 A 
ENDBRANCH  26  40
BRANCH  27  48
ATOM     48  C   UNL A   1      41.288  27.472  27.635  1.00  0.00     0.057 A 
ATOM     49  C   UNL A   1      42.010  28.105  26.617  1.00  0.00     0.134 A 
ATOM     50  C   UNL A   1      40.901  26.143  27.414  1.00  0.00     0.134 A 
ATOM     51  F   UNL A   1      42.395  29.381  26.756  1.00  0.00    -0.206 F 
ATOM     52  C   UNL A   1      42.325  27.447  25.425  1.00  0.00     0.040 A 
ATOM     53  C   UNL A   1      41.232  25.465  26.240  1.00  0.00     0.040 A 
ATOM     54  F   UNL A   1      40.207  25.475  28.348  1.00  0.00    -0.206 F 
ATOM     55  C   UNL A   1      41.941  26.121  25.237  1.00  0.00     0.006 A 
ENDBRANCH  27  48
BRANCH  39  56
ATOM     56  C   UNL A   1      44.252  27.902  33.932  1.00  0.00     0.057 A 
ATOM     57  C   UNL A   1      45.492  28.550  33.908  1.00  0.00     0.134 A 
ATOM     58  C   UNL A   1      44.178  26.653  34.560  1.00  0.00     0.134 A 
ATOM     59  F   UNL A   1      45.626  29.743  33.309  1.00  0.00    -0.206 F 
ATOM     60  C   UNL A   1      46.624  27.967  34.475  1.00  0.00     0.040 A 
ATOM     61  C   UNL A   1      45.297  26.072  35.153  1.00  0.00     0.040 A 
ATOM     62  F   UNL A   1      43.013  25.989  34.621  1.00  0.00    -0.206 F 
ATOM     63  C   UNL A   1      46.526  26.728  35.108  1.00  0.00     0.006 A 
ENDBRANCH  39  56
ENDBRANCH  13  14
ENDBRANCH   6   8
ENDBRANCH   5   6
ENDBRANCH   4   5
ENDBRANCH   3   4
ENDBRANCH   2   3
ENDBRANCH   1   2
BRANCH   1  64
ATOM     64  C   UNL A   1      31.764  28.535  27.338  1.00  0.00     0.261 C 
BRANCH  64  65
ATOM     65  O   UNL A   1      31.709  27.787  26.118  1.00  0.00    -0.463 OA
BRANCH  65  66
ATOM     66  C   UNL A   1      32.166  26.513  26.289  1.00  0.00     0.311 C 
ATOM     67  O   UNL A   1      31.490  25.575  26.684  1.00  0.00    -0.252 OA
BRANCH  66  68
ATOM     68  C   UNL A   1      33.608  26.437  25.839  1.00  0.00     0.128 C 
ATOM     69  C   UNL A   1      33.828  27.167  24.519  1.00  0.00     0.117 C 
ATOM     70  C   UNL A   1      33.933  25.012  25.523  1.00  0.00     0.135 C 
ATOM     71  C   UNL A   1      33.436  26.112  23.514  1.00  0.00     0.223 C 
ATOM     72  N   UNL A   1      33.472  24.883  24.166  1.00  0.00    -0.342 N 
ATOM     73  O   UNL A   1      33.146  26.321  22.347  1.00  0.00    -0.275 OA
BRANCH  72  74
ATOM     74  C   UNL A   1      32.830  23.687  23.665  1.00  0.00     0.119 C 
BRANCH  74  75
ATOM     75  C   UNL A   1      33.436  22.384  24.171  1.00  0.00     0.022 C 
BRANCH  75  76
ATOM     76  C   UNL A   1      32.496  21.173  24.255  1.00  0.00     0.008 C 
BRANCH  76  77
ATOM     77  C   UNL A   1      32.610  20.311  25.519  1.00  0.00     0.056 C 
BRANCH  77  78
ATOM     78  C   UNL A   1      33.056  18.911  25.209  1.00  0.00     0.040 A 
ATOM     79  C   UNL A   1      34.180  18.681  24.419  1.00  0.00     0.024 A 
ATOM     80  N   UNL A   1      32.354  17.912  25.793  1.00  0.00    -0.261 NA
ATOM     81  C   UNL A   1      34.622  17.376  24.250  1.00  0.00     0.003 A 
ATOM     82  C   UNL A   1      32.798  16.653  25.600  1.00  0.00     0.111 A 
ATOM     83  C   UNL A   1      33.922  16.340  24.855  1.00  0.00     0.020 A 
ENDBRANCH  77  78
ENDBRANCH  76  77
ENDBRANCH  75  76
ENDBRANCH  74  75
ENDBRANCH  72  74
ENDBRANCH  66  68
ENDBRANCH  65  66
ENDBRANCH  64  65
ENDBRANCH   1  64
TORSDOF 19
ENDMDL
