MODEL 1
REMARK VINA RESULT:      -9.5      0.000      0.000
REMARK SMILES COc1ccc([C@H]2CC(c3ccc(S(C)(=O)=O)cc3)=NN2c2ccc(C(=O)OCCOCCOC(=O)c3ccc(-c4c5nc(c(-c6c(F)cccc6F)c6ccc([nH]6)c(-c6c(F)cccc6F)c6nc(c(-c7c(F)cccc7F)c7ccc4[nH]7)C=C6)C=C5)cc3)cc2)cc1
REMARK SMILES IDX 30 1 29 2 28 3 26 4 27 5 25 6 22 7 23 8 92 9 24 10 91 11
REMARK SMILES IDX 21 12 7 13 8 14 9 15 20 16 6 17 3 18 4 19 94 20 5 21 93 22
REMARK SMILES IDX 2 23 1 24 10 25 11 26 19 27 12 28 18 29 13 30 14 31 15 32
REMARK SMILES IDX 16 33 17 34 31 35 32 36 33 37 34 38 35 39 36 40 37 41 38 42
REMARK SMILES IDX 90 43 39 44 89 45 40 46 41 47 42 48 83 49 43 50 88 51 82 52
REMARK SMILES IDX 84 53 44 54 87 55 81 56 80 57 45 59 71 60 54 61 70 62 55 63
REMARK SMILES IDX 58 64 69 65 85 66 56 67 57 68 68 70 86 71 59 72 46 73 47 74
REMARK SMILES IDX 52 75 48 76 49 77 51 78 53 79 50 80 72 81 73 82 78 83 74 84
REMARK SMILES IDX 75 85 77 86 79 87 76 88 60 89 61 90 66 91 62 92 63 93 65 94
REMARK SMILES IDX 67 95 64 96
REMARK H PARENT 84 58 58 69
REMARK Flexibility Score: inf
ROOT
ATOM      1  C   UNL A   1      33.242  35.931  30.282  1.00  0.00     0.202 C 
ENDROOT
BRANCH   1   2
ATOM      2  C   UNL A   1      33.627  35.403  31.667  1.00  0.00     0.261 C 
BRANCH   2   3
ATOM      3  O   UNL A   1      34.824  34.610  31.606  1.00  0.00    -0.460 OA
BRANCH   3   4
ATOM      4  C   UNL A   1      34.742  33.404  32.219  1.00  0.00     0.338 C 
ATOM      5  O   UNL A   1      33.726  32.751  32.414  1.00  0.00    -0.246 OA
BRANCH   4   6
ATOM      6  C   UNL A   1      36.094  32.882  32.512  1.00  0.00     0.060 A 
ATOM      7  C   UNL A   1      38.579  31.789  33.256  1.00  0.00     0.060 A 
ATOM      8  C   UNL A   1      37.456  30.968  33.097  1.00  0.00     0.029 A 
ATOM      9  C   UNL A   1      38.452  33.155  32.955  1.00  0.00     0.029 A 
ATOM     10  C   UNL A   1      36.217  31.511  32.758  1.00  0.00     0.018 A 
ATOM     11  C   UNL A   1      37.222  33.703  32.567  1.00  0.00     0.018 A 
BRANCH   7  12
ATOM     12  N   UNL A   1      39.762  31.273  33.775  1.00  0.00    -0.257 N 
ATOM     13  C   UNL A   1      40.439  31.878  34.928  1.00  0.00     0.144 C 
ATOM     14  C   UNL A   1      41.517  30.844  35.271  1.00  0.00     0.091 C 
ATOM     15  C   UNL A   1      41.175  29.766  34.279  1.00  0.00     0.071 C 
ATOM     16  N   UNL A   1      40.186  30.014  33.478  1.00  0.00    -0.176 NA
BRANCH  13  17
ATOM     17  C   UNL A   1      39.495  32.151  36.092  1.00  0.00    -0.023 A 
ATOM     18  C   UNL A   1      37.759  32.713  38.249  1.00  0.00     0.118 A 
ATOM     19  C   UNL A   1      38.677  33.667  37.810  1.00  0.00     0.047 A 
ATOM     20  C   UNL A   1      37.680  31.489  37.588  1.00  0.00     0.047 A 
ATOM     21  C   UNL A   1      39.543  33.389  36.750  1.00  0.00     0.010 A 
ATOM     22  C   UNL A   1      38.537  31.213  36.515  1.00  0.00     0.010 A 
BRANCH  18  23
ATOM     23  O   UNL A   1      36.975  33.105  39.299  1.00  0.00    -0.497 OA
ATOM     24  C   UNL A   1      35.919  32.221  39.655  1.00  0.00     0.278 C 
ENDBRANCH  18  23
ENDBRANCH  13  17
BRANCH  15  25
ATOM     25  C   UNL A   1      41.990  28.549  34.206  1.00  0.00    -0.002 A 
ATOM     26  C   UNL A   1      41.667  27.481  35.050  1.00  0.00     0.011 A 
ATOM     27  C   UNL A   1      43.028  28.442  33.278  1.00  0.00     0.011 A 
ATOM     28  C   UNL A   1      42.372  26.282  34.947  1.00  0.00     0.021 A 
ATOM     29  C   UNL A   1      43.752  27.251  33.191  1.00  0.00     0.021 A 
ATOM     30  C   UNL A   1      43.418  26.177  34.024  1.00  0.00     0.067 A 
BRANCH  30  31
ATOM     31  S   UNL A   1      44.298  24.636  33.882  1.00  0.00     0.175 S 
ATOM     32  C   UNL A   1      44.560  24.441  32.139  1.00  0.00     0.163 C 
ATOM     33  O   UNL A   1      45.585  24.834  34.522  1.00  0.00    -0.224 OA
ATOM     34  O   UNL A   1      43.403  23.580  34.312  1.00  0.00    -0.224 OA
ENDBRANCH  30  31
ENDBRANCH  15  25
ENDBRANCH   7  12
ENDBRANCH   4   6
ENDBRANCH   3   4
ENDBRANCH   2   3
ENDBRANCH   1   2
BRANCH   1  35
ATOM     35  O   UNL A   1      34.028  35.434  29.197  1.00  0.00    -0.374 OA
BRANCH  35  36
ATOM     36  C   UNL A   1      33.611  34.190  28.626  1.00  0.00     0.202 C 
BRANCH  36  37
ATOM     37  C   UNL A   1      34.745  33.211  28.299  1.00  0.00     0.261 C 
BRANCH  37  38
ATOM     38  O   UNL A   1      34.658  32.023  29.108  1.00  0.00    -0.460 OA
BRANCH  38  39
ATOM     39  C   UNL A   1      34.605  30.861  28.419  1.00  0.00     0.338 C 
ATOM     40  O   UNL A   1      33.683  30.447  27.727  1.00  0.00    -0.246 OA
BRANCH  39  41
ATOM     41  C   UNL A   1      35.917  30.189  28.465  1.00  0.00     0.060 A 
ATOM     42  C   UNL A   1      36.348  29.700  29.705  1.00  0.00     0.016 A 
ATOM     43  C   UNL A   1      36.740  30.089  27.340  1.00  0.00     0.016 A 
ATOM     44  C   UNL A   1      37.624  29.157  29.837  1.00  0.00     0.010 A 
ATOM     45  C   UNL A   1      38.025  29.551  27.476  1.00  0.00     0.010 A 
ATOM     46  C   UNL A   1      38.484  29.115  28.732  1.00  0.00    -0.014 A 
BRANCH  46  47
ATOM     47  C   UNL A   1      39.908  28.751  28.929  1.00  0.00     0.031 A 
ATOM     48  C   UNL A   1      40.836  29.750  29.564  1.00  0.00     0.074 A 
ATOM     49  C   UNL A   1      40.364  27.536  28.578  1.00  0.00     0.049 A 
ATOM     50  N   UNL A   1      42.116  29.651  29.817  1.00  0.00    -0.248 NA
ATOM     51  C   UNL A   1      40.239  31.034  29.968  1.00  0.00     0.031 C 
ATOM     52  C   UNL A   1      39.558  26.469  27.988  1.00  0.00     0.029 A 
ATOM     53  N   UNL A   1      41.623  26.999  28.668  1.00  0.00    -0.354 N 
ATOM     54  C   UNL A   1      42.478  30.856  30.405  1.00  0.00     0.074 A 
ATOM     55  C   UNL A   1      41.291  31.683  30.445  1.00  0.00     0.031 C 
ATOM     56  C   UNL A   1      40.347  25.405  27.759  1.00  0.00     0.029 A 
ATOM     57  C   UNL A   1      41.714  25.726  28.163  1.00  0.00     0.049 A 
ATOM     58  H   UNL A   1      42.388  27.481  29.058  1.00  0.00     0.167 HD
ATOM     59  C   UNL A   1      43.688  31.236  30.881  1.00  0.00     0.037 A 
ATOM     60  C   UNL A   1      42.785  24.920  28.028  1.00  0.00     0.037 A 
ATOM     61  C   UNL A   1      44.869  30.416  30.844  1.00  0.00     0.049 A 
ATOM     62  C   UNL A   1      44.134  25.389  28.504  1.00  0.00     0.074 A 
ATOM     63  C   UNL A   1      46.137  30.706  31.317  1.00  0.00     0.029 A 
ATOM     64  N   UNL A   1      44.928  29.143  30.296  1.00  0.00    -0.354 N 
ATOM     65  N   UNL A   1      44.459  26.520  29.082  1.00  0.00    -0.248 NA
ATOM     66  C   UNL A   1      45.263  24.469  28.310  1.00  0.00     0.031 C 
ATOM     67  C   UNL A   1      46.974  29.625  31.018  1.00  0.00     0.029 A 
ATOM     68  C   UNL A   1      46.216  28.645  30.397  1.00  0.00     0.049 A 
ATOM     69  H   UNL A   1      44.167  28.665  29.894  1.00  0.00     0.167 HD
ATOM     70  C   UNL A   1      45.821  26.435  29.344  1.00  0.00     0.074 A 
ATOM     71  C   UNL A   1      46.259  25.139  28.871  1.00  0.00     0.031 C 
ATOM     72  C   UNL A   1      46.636  27.350  29.927  1.00  0.00     0.037 A 
BRANCH  59  73
ATOM     73  C   UNL A   1      43.797  32.614  31.463  1.00  0.00     0.057 A 
ATOM     74  C   UNL A   1      43.832  33.756  30.653  1.00  0.00     0.134 A 
ATOM     75  C   UNL A   1      43.836  32.801  32.850  1.00  0.00     0.134 A 
ATOM     76  F   UNL A   1      43.810  33.644  29.317  1.00  0.00    -0.206 F 
ATOM     77  C   UNL A   1      43.925  35.036  31.203  1.00  0.00     0.040 A 
ATOM     78  C   UNL A   1      43.906  34.077  33.412  1.00  0.00     0.040 A 
ATOM     79  F   UNL A   1      43.803  31.748  33.681  1.00  0.00    -0.206 F 
ATOM     80  C   UNL A   1      43.956  35.199  32.587  1.00  0.00     0.006 A 
ENDBRANCH  59  73
BRANCH  60  81
ATOM     81  C   UNL A   1      42.631  23.582  27.405  1.00  0.00     0.057 A 
ATOM     82  C   UNL A   1      42.786  23.400  26.026  1.00  0.00     0.134 A 
ATOM     83  C   UNL A   1      42.304  22.457  28.172  1.00  0.00     0.134 A 
ATOM     84  F   UNL A   1      43.075  24.445  25.237  1.00  0.00    -0.206 F 
ATOM     85  C   UNL A   1      42.607  22.151  25.430  1.00  0.00     0.040 A 
ATOM     86  C   UNL A   1      42.144  21.197  27.592  1.00  0.00     0.040 A 
ATOM     87  F   UNL A   1      42.141  22.566  29.499  1.00  0.00    -0.206 F 
ATOM     88  C   UNL A   1      42.290  21.044  26.215  1.00  0.00     0.006 A 
ENDBRANCH  60  81
BRANCH  72  89
ATOM     89  C   UNL A   1      48.075  26.968  30.115  1.00  0.00     0.057 A 
ATOM     90  C   UNL A   1      48.503  26.228  31.224  1.00  0.00     0.134 A 
ATOM     91  C   UNL A   1      49.034  27.311  29.155  1.00  0.00     0.134 A 
ATOM     92  F   UNL A   1      47.635  25.878  32.185  1.00  0.00    -0.206 F 
ATOM     93  C   UNL A   1      49.841  25.859  31.381  1.00  0.00     0.040 A 
ATOM     94  C   UNL A   1      50.370  26.928  29.289  1.00  0.00     0.040 A 
ATOM     95  F   UNL A   1      48.687  28.013  28.065  1.00  0.00    -0.206 F 
ATOM     96  C   UNL A   1      50.777  26.204  30.408  1.00  0.00     0.006 A 
ENDBRANCH  72  89
ENDBRANCH  46  47
ENDBRANCH  39  41
ENDBRANCH  38  39
ENDBRANCH  37  38
ENDBRANCH  36  37
ENDBRANCH  35  36
ENDBRANCH   1  35
TORSDOF 19
ENDMDL
MODEL 2
REMARK VINA RESULT:      -9.2      1.293      2.141
REMARK SMILES COc1ccc([C@H]2CC(c3ccc(S(C)(=O)=O)cc3)=NN2c2ccc(C(=O)OCCOCCOC(=O)c3ccc(-c4c5nc(c(-c6c(F)cccc6F)c6ccc([nH]6)c(-c6c(F)cccc6F)c6nc(c(-c7c(F)cccc7F)c7ccc4[nH]7)C=C6)C=C5)cc3)cc2)cc1
REMARK SMILES IDX 30 1 29 2 28 3 26 4 27 5 25 6 22 7 23 8 92 9 24 10 91 11
REMARK SMILES IDX 21 12 7 13 8 14 9 15 20 16 6 17 3 18 4 19 94 20 5 21 93 22
REMARK SMILES IDX 2 23 1 24 10 25 11 26 19 27 12 28 18 29 13 30 14 31 15 32
REMARK SMILES IDX 16 33 17 34 31 35 32 36 33 37 34 38 35 39 36 40 37 41 38 42
REMARK SMILES IDX 90 43 39 44 89 45 40 46 41 47 42 48 83 49 43 50 88 51 82 52
REMARK SMILES IDX 84 53 44 54 87 55 81 56 80 57 45 59 71 60 54 61 70 62 55 63
REMARK SMILES IDX 58 64 69 65 85 66 56 67 57 68 68 70 86 71 59 72 46 73 47 74
REMARK SMILES IDX 52 75 48 76 49 77 51 78 53 79 50 80 72 81 73 82 78 83 74 84
REMARK SMILES IDX 75 85 77 86 79 87 76 88 60 89 61 90 66 91 62 92 63 93 65 94
REMARK SMILES IDX 67 95 64 96
REMARK H PARENT 84 58 58 69
REMARK Flexibility Score: inf
ROOT
ATOM      1  C   UNL A   1      33.052  35.693  29.014  1.00  0.00     0.202 C 
ENDROOT
BRANCH   1   2
ATOM      2  C   UNL A   1      32.988  35.718  30.544  1.00  0.00     0.261 C 
BRANCH   2   3
ATOM      3  O   UNL A   1      34.217  35.248  31.121  1.00  0.00    -0.460 OA
BRANCH   3   4
ATOM      4  C   UNL A   1      34.074  34.541  32.269  1.00  0.00     0.338 C 
ATOM      5  O   UNL A   1      33.023  34.242  32.817  1.00  0.00    -0.246 OA
BRANCH   4   6
ATOM      6  C   UNL A   1      35.385  34.031  32.726  1.00  0.00     0.060 A 
ATOM      7  C   UNL A   1      37.928  33.014  33.376  1.00  0.00     0.060 A 
ATOM      8  C   UNL A   1      37.789  34.043  32.437  1.00  0.00     0.029 A 
ATOM      9  C   UNL A   1      36.777  32.562  34.042  1.00  0.00     0.029 A 
ATOM     10  C   UNL A   1      36.528  34.528  32.090  1.00  0.00     0.018 A 
ATOM     11  C   UNL A   1      35.510  33.075  33.736  1.00  0.00     0.018 A 
BRANCH   7  12
ATOM     12  N   UNL A   1      39.163  32.406  33.579  1.00  0.00    -0.257 N 
ATOM     13  C   UNL A   1      40.378  33.179  33.860  1.00  0.00     0.144 C 
ATOM     14  C   UNL A   1      41.389  32.095  34.247  1.00  0.00     0.091 C 
ATOM     15  C   UNL A   1      40.503  30.881  34.208  1.00  0.00     0.071 C 
ATOM     16  N   UNL A   1      39.270  31.078  33.860  1.00  0.00    -0.176 NA
BRANCH  13  17
ATOM     17  C   UNL A   1      40.178  34.216  34.960  1.00  0.00    -0.023 A 
ATOM     18  C   UNL A   1      39.798  36.093  37.036  1.00  0.00     0.118 A 
ATOM     19  C   UNL A   1      39.463  34.752  37.222  1.00  0.00     0.047 A 
ATOM     20  C   UNL A   1      40.358  36.493  35.824  1.00  0.00     0.047 A 
ATOM     21  C   UNL A   1      39.642  33.823  36.195  1.00  0.00     0.010 A 
ATOM     22  C   UNL A   1      40.551  35.561  34.797  1.00  0.00     0.010 A 
BRANCH  18  23
ATOM     23  O   UNL A   1      39.568  36.901  38.115  1.00  0.00    -0.497 OA
ATOM     24  C   UNL A   1      40.504  36.803  39.181  1.00  0.00     0.278 C 
ENDBRANCH  18  23
ENDBRANCH  13  17
BRANCH  15  25
ATOM     25  C   UNL A   1      41.064  29.553  34.482  1.00  0.00    -0.002 A 
ATOM     26  C   UNL A   1      41.365  28.722  33.397  1.00  0.00     0.011 A 
ATOM     27  C   UNL A   1      41.342  29.153  35.791  1.00  0.00     0.011 A 
ATOM     28  C   UNL A   1      41.973  27.487  33.621  1.00  0.00     0.021 A 
ATOM     29  C   UNL A   1      41.927  27.906  36.020  1.00  0.00     0.021 A 
ATOM     30  C   UNL A   1      42.242  27.082  34.933  1.00  0.00     0.067 A 
BRANCH  30  31
ATOM     31  S   UNL A   1      43.040  25.515  35.210  1.00  0.00     0.175 S 
ATOM     32  C   UNL A   1      41.717  24.423  35.660  1.00  0.00     0.163 C 
ATOM     33  O   UNL A   1      43.572  25.089  33.928  1.00  0.00    -0.224 OA
ATOM     34  O   UNL A   1      43.902  25.660  36.366  1.00  0.00    -0.224 OA
ENDBRANCH  30  31
ENDBRANCH  15  25
ENDBRANCH   7  12
ENDBRANCH   4   6
ENDBRANCH   3   4
ENDBRANCH   2   3
ENDBRANCH   1   2
BRANCH   1  35
ATOM     35  O   UNL A   1      34.361  35.568  28.457  1.00  0.00    -0.374 OA
BRANCH  35  36
ATOM     36  C   UNL A   1      34.693  34.298  27.888  1.00  0.00     0.202 C 
BRANCH  36  37
ATOM     37  C   UNL A   1      35.776  33.511  28.635  1.00  0.00     0.261 C 
BRANCH  37  38
ATOM     38  O   UNL A   1      35.203  32.439  29.406  1.00  0.00    -0.460 OA
BRANCH  38  39
ATOM     39  C   UNL A   1      35.054  31.270  28.744  1.00  0.00     0.338 C 
ATOM     40  O   UNL A   1      34.088  30.906  28.085  1.00  0.00    -0.246 OA
BRANCH  39  41
ATOM     41  C   UNL A   1      36.319  30.512  28.769  1.00  0.00     0.060 A 
ATOM     42  C   UNL A   1      36.774  30.058  30.014  1.00  0.00     0.016 A 
ATOM     43  C   UNL A   1      37.079  30.297  27.617  1.00  0.00     0.016 A 
ATOM     44  C   UNL A   1      38.015  29.436  30.120  1.00  0.00     0.010 A 
ATOM     45  C   UNL A   1      38.330  29.679  27.725  1.00  0.00     0.010 A 
ATOM     46  C   UNL A   1      38.818  29.277  28.982  1.00  0.00    -0.014 A 
BRANCH  46  47
ATOM     47  C   UNL A   1      40.222  28.826  29.137  1.00  0.00     0.031 A 
ATOM     48  C   UNL A   1      41.221  29.753  29.773  1.00  0.00     0.074 A 
ATOM     49  C   UNL A   1      40.597  27.596  28.746  1.00  0.00     0.049 A 
ATOM     50  N   UNL A   1      42.498  29.573  29.993  1.00  0.00    -0.248 NA
ATOM     51  C   UNL A   1      40.710  31.059  30.222  1.00  0.00     0.031 C 
ATOM     52  C   UNL A   1      39.717  26.593  28.149  1.00  0.00     0.029 A 
ATOM     53  N   UNL A   1      41.825  26.984  28.793  1.00  0.00    -0.354 N 
ATOM     54  C   UNL A   1      42.944  30.740  30.602  1.00  0.00     0.074 A 
ATOM     55  C   UNL A   1      41.808  31.633  30.689  1.00  0.00     0.031 C 
ATOM     56  C   UNL A   1      40.437  25.491  27.876  1.00  0.00     0.029 A 
ATOM     57  C   UNL A   1      41.829  25.721  28.255  1.00  0.00     0.049 A 
ATOM     58  H   UNL A   1      42.625  27.411  29.176  1.00  0.00     0.167 HD
ATOM     59  C   UNL A   1      44.184  31.036  31.057  1.00  0.00     0.037 A 
ATOM     60  C   UNL A   1      42.847  24.858  28.075  1.00  0.00     0.037 A 
ATOM     61  C   UNL A   1      45.314  30.150  30.972  1.00  0.00     0.049 A 
ATOM     62  C   UNL A   1      44.232  25.236  28.531  1.00  0.00     0.074 A 
ATOM     63  C   UNL A   1      46.607  30.353  31.422  1.00  0.00     0.029 A 
ATOM     64  N   UNL A   1      45.285  28.890  30.393  1.00  0.00    -0.354 N 
ATOM     65  N   UNL A   1      44.636  26.330  29.128  1.00  0.00    -0.248 NA
ATOM     66  C   UNL A   1      45.300  24.256  28.288  1.00  0.00     0.031 C 
ATOM     67  C   UNL A   1      47.372  29.234  31.077  1.00  0.00     0.029 A 
ATOM     68  C   UNL A   1      46.544  28.315  30.452  1.00  0.00     0.049 A 
ATOM     69  H   UNL A   1      44.489  28.467  29.997  1.00  0.00     0.167 HD
ATOM     70  C   UNL A   1      45.996  26.160  29.356  1.00  0.00     0.074 A 
ATOM     71  C   UNL A   1      46.346  24.853  28.841  1.00  0.00     0.031 C 
ATOM     72  C   UNL A   1      46.876  27.010  29.941  1.00  0.00     0.037 A 
BRANCH  59  73
ATOM     73  C   UNL A   1      44.387  32.390  31.669  1.00  0.00     0.057 A 
ATOM     74  C   UNL A   1      44.470  32.568  33.056  1.00  0.00     0.134 A 
ATOM     75  C   UNL A   1      44.530  33.525  30.861  1.00  0.00     0.134 A 
ATOM     76  F   UNL A   1      44.328  31.522  33.885  1.00  0.00    -0.206 F 
ATOM     77  C   UNL A   1      44.667  33.830  33.619  1.00  0.00     0.040 A 
ATOM     78  C   UNL A   1      44.751  34.789  31.411  1.00  0.00     0.040 A 
ATOM     79  F   UNL A   1      44.463  33.422  29.525  1.00  0.00    -0.206 F 
ATOM     80  C   UNL A   1      44.814  34.944  32.794  1.00  0.00     0.006 A 
ENDBRANCH  59  73
BRANCH  60  81
ATOM     81  C   UNL A   1      42.601  23.547  27.424  1.00  0.00     0.057 A 
ATOM     82  C   UNL A   1      42.263  22.415  28.174  1.00  0.00     0.134 A 
ATOM     83  C   UNL A   1      42.721  23.391  26.038  1.00  0.00     0.134 A 
ATOM     84  F   UNL A   1      42.160  22.498  29.509  1.00  0.00    -0.206 F 
ATOM     85  C   UNL A   1      42.067  21.172  27.572  1.00  0.00     0.040 A 
ATOM     86  C   UNL A   1      42.504  22.159  25.419  1.00  0.00     0.040 A 
ATOM     87  F   UNL A   1      43.043  24.438  25.263  1.00  0.00    -0.206 F 
ATOM     88  C   UNL A   1      42.182  21.043  26.189  1.00  0.00     0.006 A 
ENDBRANCH  60  81
BRANCH  72  89
ATOM     89  C   UNL A   1      48.294  26.540  30.085  1.00  0.00     0.057 A 
ATOM     90  C   UNL A   1      48.717  25.803  31.198  1.00  0.00     0.134 A 
ATOM     91  C   UNL A   1      49.235  26.795  29.080  1.00  0.00     0.134 A 
ATOM     92  F   UNL A   1      47.867  25.537  32.201  1.00  0.00    -0.206 F 
ATOM     93  C   UNL A   1      50.033  25.352  31.315  1.00  0.00     0.040 A 
ATOM     94  C   UNL A   1      50.547  26.329  29.175  1.00  0.00     0.040 A 
ATOM     95  F   UNL A   1      48.891  27.488  27.984  1.00  0.00    -0.206 F 
ATOM     96  C   UNL A   1      50.951  25.610  30.298  1.00  0.00     0.006 A 
ENDBRANCH  72  89
ENDBRANCH  46  47
ENDBRANCH  39  41
ENDBRANCH  38  39
ENDBRANCH  37  38
ENDBRANCH  36  37
ENDBRANCH  35  36
ENDBRANCH   1  35
TORSDOF 19
ENDMDL
MODEL 3
REMARK VINA RESULT:      -9.0      4.883     10.559
REMARK SMILES COc1ccc([C@H]2CC(c3ccc(S(C)(=O)=O)cc3)=NN2c2ccc(C(=O)OCCOCCOC(=O)c3ccc(-c4c5nc(c(-c6c(F)cccc6F)c6ccc([nH]6)c(-c6c(F)cccc6F)c6nc(c(-c7c(F)cccc7F)c7ccc4[nH]7)C=C6)C=C5)cc3)cc2)cc1
REMARK SMILES IDX 30 1 29 2 28 3 26 4 27 5 25 6 22 7 23 8 92 9 24 10 91 11
REMARK SMILES IDX 21 12 7 13 8 14 9 15 20 16 6 17 3 18 4 19 94 20 5 21 93 22
REMARK SMILES IDX 2 23 1 24 10 25 11 26 19 27 12 28 18 29 13 30 14 31 15 32
REMARK SMILES IDX 16 33 17 34 31 35 32 36 33 37 34 38 35 39 36 40 37 41 38 42
REMARK SMILES IDX 90 43 39 44 89 45 40 46 41 47 42 48 83 49 43 50 88 51 82 52
REMARK SMILES IDX 84 53 44 54 87 55 81 56 80 57 45 59 71 60 54 61 70 62 55 63
REMARK SMILES IDX 58 64 69 65 85 66 56 67 57 68 68 70 86 71 59 72 46 73 47 74
REMARK SMILES IDX 52 75 48 76 49 77 51 78 53 79 50 80 72 81 73 82 78 83 74 84
REMARK SMILES IDX 75 85 77 86 79 87 76 88 60 89 61 90 66 91 62 92 63 93 65 94
REMARK SMILES IDX 67 95 64 96
REMARK H PARENT 84 58 58 69
REMARK Flexibility Score: inf
ROOT
ATOM      1  C   UNL A   1      33.813  19.908  24.623  1.00  0.00     0.202 C 
ENDROOT
BRANCH   1   2
ATOM      2  C   UNL A   1      32.527  20.360  25.321  1.00  0.00     0.261 C 
BRANCH   2   3
ATOM      3  O   UNL A   1      31.978  21.529  24.689  1.00  0.00    -0.460 OA
BRANCH   3   4
ATOM      4  C   UNL A   1      31.256  22.333  25.507  1.00  0.00     0.338 C 
ATOM      5  O   UNL A   1      30.235  22.035  26.111  1.00  0.00    -0.246 OA
BRANCH   4   6
ATOM      6  C   UNL A   1      31.951  23.624  25.705  1.00  0.00     0.060 A 
ATOM      7  C   UNL A   1      33.098  26.180  25.975  1.00  0.00     0.060 A 
ATOM      8  C   UNL A   1      31.804  25.924  26.444  1.00  0.00     0.029 A 
ATOM      9  C   UNL A   1      33.836  25.110  25.442  1.00  0.00     0.029 A 
ATOM     10  C   UNL A   1      31.222  24.666  26.286  1.00  0.00     0.018 A 
ATOM     11  C   UNL A   1      33.278  23.831  25.320  1.00  0.00     0.018 A 
BRANCH   7  12
ATOM     12  N   UNL A   1      33.601  27.477  25.965  1.00  0.00    -0.257 N 
ATOM     13  C   UNL A   1      33.623  28.298  24.749  1.00  0.00     0.144 C 
ATOM     14  C   UNL A   1      34.017  29.681  25.279  1.00  0.00     0.091 C 
ATOM     15  C   UNL A   1      34.048  29.399  26.756  1.00  0.00     0.071 C 
ATOM     16  N   UNL A   1      33.792  28.180  27.115  1.00  0.00    -0.176 NA
BRANCH  13  17
ATOM     17  C   UNL A   1      32.286  28.307  24.018  1.00  0.00    -0.023 A 
ATOM     18  C   UNL A   1      29.796  28.379  22.686  1.00  0.00     0.118 A 
ATOM     19  C   UNL A   1      30.095  29.309  23.682  1.00  0.00     0.047 A 
ATOM     20  C   UNL A   1      30.755  27.433  22.328  1.00  0.00     0.047 A 
ATOM     21  C   UNL A   1      31.321  29.272  24.348  1.00  0.00     0.010 A 
ATOM     22  C   UNL A   1      31.991  27.402  22.985  1.00  0.00     0.010 A 
BRANCH  18  23
ATOM     23  O   UNL A   1      28.560  28.518  22.117  1.00  0.00    -0.497 OA
ATOM     24  C   UNL A   1      27.936  29.786  22.279  1.00  0.00     0.278 C 
ENDBRANCH  18  23
ENDBRANCH  13  17
BRANCH  15  25
ATOM     25  C   UNL A   1      34.429  30.457  27.698  1.00  0.00    -0.002 A 
ATOM     26  C   UNL A   1      33.702  31.653  27.683  1.00  0.00     0.011 A 
ATOM     27  C   UNL A   1      35.454  30.253  28.623  1.00  0.00     0.011 A 
ATOM     28  C   UNL A   1      33.987  32.646  28.620  1.00  0.00     0.021 A 
ATOM     29  C   UNL A   1      35.759  31.256  29.546  1.00  0.00     0.021 A 
ATOM     30  C   UNL A   1      35.021  32.445  29.541  1.00  0.00     0.067 A 
BRANCH  30  31
ATOM     31  S   UNL A   1      35.363  33.706  30.749  1.00  0.00     0.175 S 
ATOM     32  C   UNL A   1      34.254  35.026  30.330  1.00  0.00     0.163 C 
ATOM     33  O   UNL A   1      34.968  33.166  32.037  1.00  0.00    -0.224 OA
ATOM     34  O   UNL A   1      36.713  34.178  30.519  1.00  0.00    -0.224 OA
ENDBRANCH  30  31
ENDBRANCH  15  25
ENDBRANCH   7  12
ENDBRANCH   4   6
ENDBRANCH   3   4
ENDBRANCH   2   3
ENDBRANCH   1   2
BRANCH   1  35
ATOM     35  O   UNL A   1      34.848  20.889  24.550  1.00  0.00    -0.374 OA
BRANCH  35  36
ATOM     36  C   UNL A   1      35.678  21.027  25.707  1.00  0.00     0.202 C 
BRANCH  36  37
ATOM     37  C   UNL A   1      36.489  22.326  25.777  1.00  0.00     0.261 C 
BRANCH  37  38
ATOM     38  O   UNL A   1      37.737  22.201  25.068  1.00  0.00    -0.460 OA
BRANCH  38  39
ATOM     39  C   UNL A   1      38.771  21.736  25.804  1.00  0.00     0.338 C 
ATOM     40  O   UNL A   1      39.262  20.614  25.771  1.00  0.00    -0.246 OA
BRANCH  39  41
ATOM     41  C   UNL A   1      39.377  22.838  26.573  1.00  0.00     0.060 A 
ATOM     42  C   UNL A   1      38.965  24.141  26.267  1.00  0.00     0.016 A 
ATOM     43  C   UNL A   1      40.370  22.616  27.530  1.00  0.00     0.016 A 
ATOM     44  C   UNL A   1      39.581  25.231  26.878  1.00  0.00     0.010 A 
ATOM     45  C   UNL A   1      40.995  23.712  28.138  1.00  0.00     0.010 A 
ATOM     46  C   UNL A   1      40.627  25.024  27.788  1.00  0.00    -0.014 A 
BRANCH  46  47
ATOM     47  C   UNL A   1      41.426  26.182  28.257  1.00  0.00     0.031 A 
ATOM     48  C   UNL A   1      42.814  26.379  27.713  1.00  0.00     0.074 A 
ATOM     49  C   UNL A   1      40.912  27.064  29.131  1.00  0.00     0.049 A 
ATOM     50  N   UNL A   1      43.691  27.308  27.993  1.00  0.00    -0.248 NA
ATOM     51  C   UNL A   1      43.274  25.396  26.719  1.00  0.00     0.031 C 
ATOM     52  C   UNL A   1      39.569  27.003  29.704  1.00  0.00     0.029 A 
ATOM     53  N   UNL A   1      41.468  28.187  29.691  1.00  0.00    -0.354 N 
ATOM     54  C   UNL A   1      44.805  27.022  27.215  1.00  0.00     0.074 A 
ATOM     55  C   UNL A   1      44.506  25.816  26.473  1.00  0.00     0.031 C 
ATOM     56  C   UNL A   1      39.407  28.041  30.544  1.00  0.00     0.029 A 
ATOM     57  C   UNL A   1      40.642  28.821  30.585  1.00  0.00     0.049 A 
ATOM     58  H   UNL A   1      42.373  28.507  29.472  1.00  0.00     0.167 HD
ATOM     59  C   UNL A   1      45.969  27.708  27.118  1.00  0.00     0.037 A 
ATOM     60  C   UNL A   1      40.866  29.899  31.361  1.00  0.00     0.037 A 
ATOM     61  C   UNL A   1      46.269  28.908  27.853  1.00  0.00     0.049 A 
ATOM     62  C   UNL A   1      42.192  30.607  31.284  1.00  0.00     0.074 A 
ATOM     63  C   UNL A   1      47.413  29.685  27.809  1.00  0.00     0.029 A 
ATOM     64  N   UNL A   1      45.417  29.501  28.772  1.00  0.00    -0.354 N 
ATOM     65  N   UNL A   1      43.228  30.343  30.526  1.00  0.00    -0.248 NA
ATOM     66  C   UNL A   1      42.378  31.765  32.171  1.00  0.00     0.031 C 
ATOM     67  C   UNL A   1      47.272  30.726  28.733  1.00  0.00     0.029 A 
ATOM     68  C   UNL A   1      46.021  30.621  29.320  1.00  0.00     0.049 A 
ATOM     69  H   UNL A   1      44.517  29.175  29.003  1.00  0.00     0.167 HD
ATOM     70  C   UNL A   1      44.176  31.315  30.823  1.00  0.00     0.074 A 
ATOM     71  C   UNL A   1      43.588  32.180  31.824  1.00  0.00     0.031 C 
ATOM     72  C   UNL A   1      45.421  31.477  30.311  1.00  0.00     0.037 A 
BRANCH  59  73
ATOM     73  C   UNL A   1      47.016  27.159  26.195  1.00  0.00     0.057 A 
ATOM     74  C   UNL A   1      48.034  26.313  26.653  1.00  0.00     0.134 A 
ATOM     75  C   UNL A   1      46.988  27.457  24.827  1.00  0.00     0.134 A 
ATOM     76  F   UNL A   1      48.123  26.001  27.955  1.00  0.00    -0.206 F 
ATOM     77  C   UNL A   1      49.000  25.800  25.786  1.00  0.00     0.040 A 
ATOM     78  C   UNL A   1      47.935  26.931  23.946  1.00  0.00     0.040 A 
ATOM     79  F   UNL A   1      46.037  28.259  24.323  1.00  0.00    -0.206 F 
ATOM     80  C   UNL A   1      48.949  26.104  24.427  1.00  0.00     0.006 A 
ENDBRANCH  59  73
BRANCH  60  81
ATOM     81  C   UNL A   1      39.811  30.376  32.290  1.00  0.00     0.057 A 
ATOM     82  C   UNL A   1      39.710  29.875  33.593  1.00  0.00     0.134 A 
ATOM     83  C   UNL A   1      38.866  31.328  31.889  1.00  0.00     0.134 A 
ATOM     84  F   UNL A   1      40.571  28.943  34.025  1.00  0.00    -0.206 F 
ATOM     85  C   UNL A   1      38.698  30.293  34.459  1.00  0.00     0.040 A 
ATOM     86  C   UNL A   1      37.863  31.772  32.751  1.00  0.00     0.040 A 
ATOM     87  F   UNL A   1      38.909  31.846  30.652  1.00  0.00    -0.206 F 
ATOM     88  C   UNL A   1      37.775  31.248  34.040  1.00  0.00     0.006 A 
ENDBRANCH  60  81
BRANCH  72  89
ATOM     89  C   UNL A   1      46.218  32.650  30.800  1.00  0.00     0.057 A 
ATOM     90  C   UNL A   1      47.086  32.549  31.894  1.00  0.00     0.134 A 
ATOM     91  C   UNL A   1      46.146  33.885  30.141  1.00  0.00     0.134 A 
ATOM     92  F   UNL A   1      47.191  31.398  32.574  1.00  0.00    -0.206 F 
ATOM     93  C   UNL A   1      47.840  33.641  32.329  1.00  0.00     0.040 A 
ATOM     94  C   UNL A   1      46.913  34.976  30.553  1.00  0.00     0.040 A 
ATOM     95  F   UNL A   1      45.340  34.045  29.081  1.00  0.00    -0.206 F 
ATOM     96  C   UNL A   1      47.758  34.857  31.654  1.00  0.00     0.006 A 
ENDBRANCH  72  89
ENDBRANCH  46  47
ENDBRANCH  39  41
ENDBRANCH  38  39
ENDBRANCH  37  38
ENDBRANCH  36  37
ENDBRANCH  35  36
ENDBRANCH   1  35
TORSDOF 19
ENDMDL
