MODEL 1
REMARK VINA RESULT:     -11.1      0.000      0.000
REMARK SMILES CC[NH2+][C@@]1(C(=O)OCCOCCOC(=O)c2ccc(-c3c4nc(c(-c5c(F)cccc5F)c5ccc([nH]5)c(-c5c(F)cccc5F)c5nc(c(-c6c(F)cccc6F)c6ccc3[nH]6)C=C5)C=C4)cc2)CC[C@H](Oc2ccc3c(c2)OCO3)C1
REMARK SMILES IDX 10 1 9 2 8 3 7 4 5 5 6 6 4 7 70 8 83 9 71 10 72 11 3 12 2 15
REMARK SMILES IDX 1 16 73 17 74 18 75 19 79 20 76 21 78 22 77 23 80 24 82 25
REMARK SMILES IDX 81 26 11 27 12 28 13 29 14 30 15 31 16 32 17 33 69 34 18 35
REMARK SMILES IDX 68 36 19 37 20 38 21 39 62 40 22 41 67 42 61 43 63 44 23 45
REMARK SMILES IDX 66 46 60 47 59 48 24 50 50 51 33 52 49 53 34 54 37 55 48 56
REMARK SMILES IDX 64 57 35 58 36 59 47 61 65 62 38 63 25 64 26 65 31 66 27 67
REMARK SMILES IDX 28 68 30 69 32 70 29 71 51 72 52 73 57 74 53 75 54 76 56 77
REMARK SMILES IDX 58 78 55 79 39 80 40 81 45 82 41 83 42 84 44 85 46 86 43 87
REMARK H PARENT 3 13 3 14 63 49 37 60
REMARK Flexibility Score: inf
ROOT
ATOM      1  O   UNL A   1      32.496  29.930  27.006  1.00  0.00    -0.374 OA
ENDROOT
BRANCH   1   2
ATOM      2  C   UNL A   1      33.374  29.164  26.185  1.00  0.00     0.202 C 
BRANCH   2   3
ATOM      3  C   UNL A   1      33.356  27.642  26.363  1.00  0.00     0.261 C 
BRANCH   3   4
ATOM      4  O   UNL A   1      32.634  26.988  25.318  1.00  0.00    -0.459 OA
BRANCH   4   5
ATOM      5  C   UNL A   1      31.334  26.703  25.591  1.00  0.00     0.368 C 
ATOM      6  O   UNL A   1      30.745  27.073  26.605  1.00  0.00    -0.245 OA
BRANCH   5   7
ATOM      7  C   UNL A   1      30.627  25.931  24.436  1.00  0.00     0.198 C 
ATOM      8  C   UNL A   1      31.584  25.855  23.237  1.00  0.00     0.085 C 
ATOM      9  C   UNL A   1      29.448  26.685  23.793  1.00  0.00     0.126 C 
ATOM     10  C   UNL A   1      31.512  27.259  22.632  1.00  0.00     0.052 C 
ATOM     11  C   UNL A   1      30.099  27.777  22.937  1.00  0.00     0.180 C 
BRANCH   7  12
ATOM     12  N   UNL A   1      30.129  24.604  24.887  1.00  0.00    -0.332 N 
ATOM     13  H   UNL A   1      29.575  24.745  25.732  1.00  0.00     0.347 HD
ATOM     14  H   UNL A   1      29.591  24.221  24.110  1.00  0.00     0.347 HD
BRANCH  12  15
ATOM     15  C   UNL A   1      31.173  23.622  25.187  1.00  0.00     0.257 C 
ATOM     16  C   UNL A   1      30.627  22.573  26.148  1.00  0.00     0.071 C 
ENDBRANCH  12  15
ENDBRANCH   7  12
BRANCH  11  17
ATOM     17  O   UNL A   1      30.147  28.952  23.744  1.00  0.00    -0.490 OA
BRANCH  17  18
ATOM     18  C   UNL A   1      29.563  30.093  23.284  1.00  0.00     0.123 A 
ATOM     19  C   UNL A   1      29.322  31.257  24.033  1.00  0.00     0.050 A 
ATOM     20  C   UNL A   1      29.160  30.026  21.948  1.00  0.00     0.097 A 
ATOM     21  C   UNL A   1      28.682  32.359  23.450  1.00  0.00     0.054 A 
ATOM     22  C   UNL A   1      28.553  31.132  21.396  1.00  0.00     0.169 A 
ATOM     23  C   UNL A   1      28.315  32.267  22.126  1.00  0.00     0.166 A 
ATOM     24  O   UNL A   1      28.131  31.249  20.113  1.00  0.00    -0.453 OA
ATOM     25  O   UNL A   1      27.702  33.236  21.396  1.00  0.00    -0.454 OA
ATOM     26  C   UNL A   1      27.620  32.596  20.105  1.00  0.00     0.468 C 
ENDBRANCH  17  18
ENDBRANCH  11  17
ENDBRANCH   5   7
ENDBRANCH   4   5
ENDBRANCH   3   4
ENDBRANCH   2   3
ENDBRANCH   1   2
BRANCH   1  27
ATOM     27  C   UNL A   1      31.674  30.911  26.367  1.00  0.00     0.202 C 
BRANCH  27  28
ATOM     28  C   UNL A   1      31.542  32.279  27.054  1.00  0.00     0.261 C 
BRANCH  28  29
ATOM     29  O   UNL A   1      32.668  33.150  26.823  1.00  0.00    -0.460 OA
BRANCH  29  30
ATOM     30  C   UNL A   1      33.168  33.741  27.939  1.00  0.00     0.338 C 
ATOM     31  O   UNL A   1      32.650  34.608  28.617  1.00  0.00    -0.246 OA
BRANCH  30  32
ATOM     32  C   UNL A   1      34.435  33.099  28.334  1.00  0.00     0.060 A 
ATOM     33  C   UNL A   1      34.400  31.792  28.842  1.00  0.00     0.016 A 
ATOM     34  C   UNL A   1      35.620  33.828  28.340  1.00  0.00     0.016 A 
ATOM     35  C   UNL A   1      35.554  31.217  29.385  1.00  0.00     0.010 A 
ATOM     36  C   UNL A   1      36.769  33.251  28.890  1.00  0.00     0.010 A 
ATOM     37  C   UNL A   1      36.744  31.952  29.439  1.00  0.00    -0.014 A 
BRANCH  37  38
ATOM     38  C   UNL A   1      37.933  31.454  30.187  1.00  0.00     0.031 A 
ATOM     39  C   UNL A   1      38.806  30.412  29.539  1.00  0.00     0.074 A 
ATOM     40  C   UNL A   1      38.213  31.862  31.439  1.00  0.00     0.049 A 
ATOM     41  N   UNL A   1      39.778  29.701  30.052  1.00  0.00    -0.248 NA
ATOM     42  C   UNL A   1      38.529  30.122  28.123  1.00  0.00     0.031 C 
ATOM     43  C   UNL A   1      37.467  32.865  32.196  1.00  0.00     0.029 A 
ATOM     44  N   UNL A   1      39.177  31.427  32.319  1.00  0.00    -0.354 N 
ATOM     45  C   UNL A   1      40.218  28.872  29.026  1.00  0.00     0.074 A 
ATOM     46  C   UNL A   1      39.372  29.130  27.881  1.00  0.00     0.031 C 
ATOM     47  C   UNL A   1      37.963  32.929  33.445  1.00  0.00     0.029 A 
ATOM     48  C   UNL A   1      39.049  31.961  33.579  1.00  0.00     0.049 A 
ATOM     49  H   UNL A   1      39.890  30.795  32.070  1.00  0.00     0.167 HD
ATOM     50  C   UNL A   1      41.249  27.993  29.024  1.00  0.00     0.037 A 
ATOM     51  C   UNL A   1      39.705  31.672  34.721  1.00  0.00     0.037 A 
ATOM     52  C   UNL A   1      42.119  27.754  30.144  1.00  0.00     0.049 A 
ATOM     53  C   UNL A   1      40.810  30.651  34.719  1.00  0.00     0.074 A 
ATOM     54  C   UNL A   1      43.231  26.932  30.213  1.00  0.00     0.029 A 
ATOM     55  N   UNL A   1      41.976  28.340  31.390  1.00  0.00    -0.354 N 
ATOM     56  N   UNL A   1      41.243  29.904  33.733  1.00  0.00    -0.248 NA
ATOM     57  C   UNL A   1      41.527  30.444  35.986  1.00  0.00     0.031 C 
ATOM     58  C   UNL A   1      43.744  26.999  31.512  1.00  0.00     0.029 A 
ATOM     59  C   UNL A   1      42.972  27.889  32.240  1.00  0.00     0.049 A 
ATOM     60  H   UNL A   1      41.271  28.982  31.635  1.00  0.00     0.167 HD
ATOM     61  C   UNL A   1      42.315  29.183  34.245  1.00  0.00     0.074 A 
ATOM     62  C   UNL A   1      42.454  29.564  35.634  1.00  0.00     0.031 C 
ATOM     63  C   UNL A   1      43.121  28.297  33.612  1.00  0.00     0.037 A 
BRANCH  50  64
ATOM     64  C   UNL A   1      41.493  27.234  27.755  1.00  0.00     0.057 A 
ATOM     65  C   UNL A   1      42.308  27.747  26.737  1.00  0.00     0.134 A 
ATOM     66  C   UNL A   1      40.915  25.975  27.550  1.00  0.00     0.134 A 
ATOM     67  F   UNL A   1      42.880  28.955  26.868  1.00  0.00    -0.206 F 
ATOM     68  C   UNL A   1      42.511  27.051  25.545  1.00  0.00     0.040 A 
ATOM     69  C   UNL A   1      41.132  25.258  26.373  1.00  0.00     0.040 A 
ATOM     70  F   UNL A   1      40.131  25.424  28.489  1.00  0.00    -0.206 F 
ATOM     71  C   UNL A   1      41.925  25.800  25.363  1.00  0.00     0.006 A 
ENDBRANCH  50  64
BRANCH  51  72
ATOM     72  C   UNL A   1      39.322  32.349  35.984  1.00  0.00     0.057 A 
ATOM     73  C   UNL A   1      38.345  31.811  36.828  1.00  0.00     0.134 A 
ATOM     74  C   UNL A   1      39.901  33.568  36.354  1.00  0.00     0.134 A 
ATOM     75  F   UNL A   1      37.737  30.659  36.508  1.00  0.00    -0.206 F 
ATOM     76  C   UNL A   1      37.944  32.471  37.991  1.00  0.00     0.040 A 
ATOM     77  C   UNL A   1      39.523  34.230  37.523  1.00  0.00     0.040 A 
ATOM     78  F   UNL A   1      40.840  34.132  35.580  1.00  0.00    -0.206 F 
ATOM     79  C   UNL A   1      38.535  33.683  38.341  1.00  0.00     0.006 A 
ENDBRANCH  51  72
BRANCH  63  80
ATOM     80  C   UNL A   1      44.276  27.734  34.386  1.00  0.00     0.057 A 
ATOM     81  C   UNL A   1      45.504  28.397  34.480  1.00  0.00     0.134 A 
ATOM     82  C   UNL A   1      44.133  26.528  35.087  1.00  0.00     0.134 A 
ATOM     83  F   UNL A   1      45.708  29.547  33.820  1.00  0.00    -0.206 F 
ATOM     84  C   UNL A   1      46.556  27.876  35.236  1.00  0.00     0.040 A 
ATOM     85  C   UNL A   1      45.170  26.009  35.863  1.00  0.00     0.040 A 
ATOM     86  F   UNL A   1      42.979  25.847  35.042  1.00  0.00    -0.206 F 
ATOM     87  C   UNL A   1      46.388  26.681  35.936  1.00  0.00     0.006 A 
ENDBRANCH  63  80
ENDBRANCH  37  38
ENDBRANCH  30  32
ENDBRANCH  29  30
ENDBRANCH  28  29
ENDBRANCH  27  28
ENDBRANCH   1  27
TORSDOF 18
ENDMDL
MODEL 2
REMARK VINA RESULT:     -10.9      0.706      6.116
REMARK SMILES CC[NH2+][C@@]1(C(=O)OCCOCCOC(=O)c2ccc(-c3c4nc(c(-c5c(F)cccc5F)c5ccc([nH]5)c(-c5c(F)cccc5F)c5nc(c(-c6c(F)cccc6F)c6ccc3[nH]6)C=C5)C=C4)cc2)CC[C@H](Oc2ccc3c(c2)OCO3)C1
REMARK SMILES IDX 10 1 9 2 8 3 7 4 5 5 6 6 4 7 70 8 83 9 71 10 72 11 3 12 2 15
REMARK SMILES IDX 1 16 73 17 74 18 75 19 79 20 76 21 78 22 77 23 80 24 82 25
REMARK SMILES IDX 81 26 11 27 12 28 13 29 14 30 15 31 16 32 17 33 69 34 18 35
REMARK SMILES IDX 68 36 19 37 20 38 21 39 62 40 22 41 67 42 61 43 63 44 23 45
REMARK SMILES IDX 66 46 60 47 59 48 24 50 50 51 33 52 49 53 34 54 37 55 48 56
REMARK SMILES IDX 64 57 35 58 36 59 47 61 65 62 38 63 25 64 26 65 31 66 27 67
REMARK SMILES IDX 28 68 30 69 32 70 29 71 51 72 52 73 57 74 53 75 54 76 56 77
REMARK SMILES IDX 58 78 55 79 39 80 40 81 45 82 41 83 42 84 44 85 46 86 43 87
REMARK H PARENT 3 13 3 14 63 49 37 60
REMARK Flexibility Score: inf
ROOT
ATOM      1  O   UNL A   1      32.478  30.975  27.096  1.00  0.00    -0.374 OA
ENDROOT
BRANCH   1   2
ATOM      2  C   UNL A   1      31.932  29.659  27.065  1.00  0.00     0.202 C 
BRANCH   2   3
ATOM      3  C   UNL A   1      32.873  28.515  26.675  1.00  0.00     0.261 C 
BRANCH   3   4
ATOM      4  O   UNL A   1      32.216  27.246  26.696  1.00  0.00    -0.459 OA
BRANCH   4   5
ATOM      5  C   UNL A   1      32.284  26.530  25.544  1.00  0.00     0.368 C 
ATOM      6  O   UNL A   1      33.299  26.417  24.861  1.00  0.00    -0.245 OA
BRANCH   5   7
ATOM      7  C   UNL A   1      30.956  25.780  25.218  1.00  0.00     0.198 C 
ATOM      8  C   UNL A   1      31.163  24.947  23.943  1.00  0.00     0.085 C 
ATOM      9  C   UNL A   1      29.804  26.694  24.760  1.00  0.00     0.126 C 
ATOM     10  C   UNL A   1      31.103  25.987  22.822  1.00  0.00     0.052 C 
ATOM     11  C   UNL A   1      30.167  27.095  23.325  1.00  0.00     0.180 C 
BRANCH   7  12
ATOM     12  N   UNL A   1      30.476  24.985  26.379  1.00  0.00    -0.332 N 
ATOM     13  H   UNL A   1      30.918  25.356  27.220  1.00  0.00     0.347 HD
ATOM     14  H   UNL A   1      29.459  25.074  26.385  1.00  0.00     0.347 HD
BRANCH  12  15
ATOM     15  C   UNL A   1      30.763  23.552  26.308  1.00  0.00     0.257 C 
ATOM     16  C   UNL A   1      29.682  22.777  27.052  1.00  0.00     0.071 C 
ENDBRANCH  12  15
ENDBRANCH   7  12
BRANCH  11  17
ATOM     17  O   UNL A   1      30.852  28.343  23.413  1.00  0.00    -0.490 OA
BRANCH  17  18
ATOM     18  C   UNL A   1      30.151  29.496  23.223  1.00  0.00     0.123 A 
ATOM     19  C   UNL A   1      29.887  30.472  24.199  1.00  0.00     0.050 A 
ATOM     20  C   UNL A   1      29.649  29.649  21.928  1.00  0.00     0.097 A 
ATOM     21  C   UNL A   1      29.124  31.604  23.885  1.00  0.00     0.054 A 
ATOM     22  C   UNL A   1      28.921  30.782  21.644  1.00  0.00     0.169 A 
ATOM     23  C   UNL A   1      28.661  31.734  22.595  1.00  0.00     0.166 A 
ATOM     24  O   UNL A   1      28.391  31.104  20.438  1.00  0.00    -0.453 OA
ATOM     25  O   UNL A   1      27.923  32.767  22.109  1.00  0.00    -0.454 OA
ATOM     26  C   UNL A   1      27.785  32.378  20.726  1.00  0.00     0.468 C 
ENDBRANCH  17  18
ENDBRANCH  11  17
ENDBRANCH   5   7
ENDBRANCH   4   5
ENDBRANCH   3   4
ENDBRANCH   2   3
ENDBRANCH   1   2
BRANCH   1  27
ATOM     27  C   UNL A   1      31.576  32.074  26.938  1.00  0.00     0.202 C 
BRANCH  27  28
ATOM     28  C   UNL A   1      32.180  33.486  26.913  1.00  0.00     0.261 C 
BRANCH  28  29
ATOM     29  O   UNL A   1      32.480  34.007  28.225  1.00  0.00    -0.460 OA
BRANCH  29  30
ATOM     30  C   UNL A   1      33.695  34.604  28.335  1.00  0.00     0.338 C 
ATOM     31  O   UNL A   1      33.946  35.794  28.287  1.00  0.00    -0.246 OA
BRANCH  30  32
ATOM     32  C   UNL A   1      34.730  33.604  28.655  1.00  0.00     0.060 A 
ATOM     33  C   UNL A   1      34.359  32.450  29.360  1.00  0.00     0.016 A 
ATOM     34  C   UNL A   1      36.070  33.871  28.392  1.00  0.00     0.016 A 
ATOM     35  C   UNL A   1      35.337  31.566  29.828  1.00  0.00     0.010 A 
ATOM     36  C   UNL A   1      37.043  32.989  28.869  1.00  0.00     0.010 A 
ATOM     37  C   UNL A   1      36.692  31.842  29.611  1.00  0.00    -0.014 A 
BRANCH  37  38
ATOM     38  C   UNL A   1      37.763  31.039  30.263  1.00  0.00     0.031 A 
ATOM     39  C   UNL A   1      38.114  31.335  31.698  1.00  0.00     0.074 A 
ATOM     40  C   UNL A   1      38.463  30.103  29.594  1.00  0.00     0.049 A 
ATOM     41  N   UNL A   1      39.117  30.903  32.419  1.00  0.00    -0.248 NA
ATOM     42  C   UNL A   1      37.217  32.261  32.406  1.00  0.00     0.031 C 
ATOM     43  C   UNL A   1      38.239  29.699  28.208  1.00  0.00     0.029 A 
ATOM     44  N   UNL A   1      39.554  29.362  29.987  1.00  0.00    -0.354 N 
ATOM     45  C   UNL A   1      38.979  31.515  33.659  1.00  0.00     0.074 A 
ATOM     46  C   UNL A   1      37.828  32.388  33.574  1.00  0.00     0.031 C 
ATOM     47  C   UNL A   1      39.198  28.827  27.845  1.00  0.00     0.029 A 
ATOM     48  C   UNL A   1      40.110  28.624  28.969  1.00  0.00     0.049 A 
ATOM     49  H   UNL A   1      39.903  29.359  30.908  1.00  0.00     0.167 HD
ATOM     50  C   UNL A   1      39.723  31.348  34.779  1.00  0.00     0.037 A 
ATOM     51  C   UNL A   1      41.247  27.902  28.933  1.00  0.00     0.037 A 
ATOM     52  C   UNL A   1      40.847  30.457  34.886  1.00  0.00     0.049 A 
ATOM     53  C   UNL A   1      42.096  27.771  30.167  1.00  0.00     0.074 A 
ATOM     54  C   UNL A   1      41.619  30.173  35.999  1.00  0.00     0.029 A 
ATOM     55  N   UNL A   1      41.355  29.704  33.842  1.00  0.00    -0.354 N 
ATOM     56  N   UNL A   1      41.933  28.321  31.346  1.00  0.00    -0.248 NA
ATOM     57  C   UNL A   1      43.282  26.907  30.071  1.00  0.00     0.031 C 
ATOM     58  C   UNL A   1      42.615  29.266  35.620  1.00  0.00     0.029 A 
ATOM     59  C   UNL A   1      42.440  28.962  34.280  1.00  0.00     0.049 A 
ATOM     60  H   UNL A   1      40.999  29.696  32.924  1.00  0.00     0.167 HD
ATOM     61  C   UNL A   1      42.958  27.827  32.143  1.00  0.00     0.074 A 
ATOM     62  C   UNL A   1      43.753  26.951  31.310  1.00  0.00     0.031 C 
ATOM     63  C   UNL A   1      43.207  28.069  33.452  1.00  0.00     0.037 A 
BRANCH  50  64
ATOM     64  C   UNL A   1      39.328  32.147  35.984  1.00  0.00     0.057 A 
ATOM     65  C   UNL A   1      39.906  33.392  36.262  1.00  0.00     0.134 A 
ATOM     66  C   UNL A   1      38.354  31.672  36.871  1.00  0.00     0.134 A 
ATOM     67  F   UNL A   1      40.854  33.896  35.456  1.00  0.00    -0.206 F 
ATOM     68  C   UNL A   1      39.556  34.122  37.398  1.00  0.00     0.040 A 
ATOM     69  C   UNL A   1      37.978  32.403  37.998  1.00  0.00     0.040 A 
ATOM     70  F   UNL A   1      37.757  30.489  36.659  1.00  0.00    -0.206 F 
ATOM     71  C   UNL A   1      38.586  33.629  38.268  1.00  0.00     0.006 A 
ENDBRANCH  50  64
BRANCH  51  72
ATOM     72  C   UNL A   1      41.670  27.250  27.669  1.00  0.00     0.057 A 
ATOM     73  C   UNL A   1      42.392  27.951  26.698  1.00  0.00     0.134 A 
ATOM     74  C   UNL A   1      41.326  25.921  27.392  1.00  0.00     0.134 A 
ATOM     75  F   UNL A   1      42.722  29.235  26.899  1.00  0.00    -0.206 F 
ATOM     76  C   UNL A   1      42.745  27.358  25.485  1.00  0.00     0.040 A 
ATOM     77  C   UNL A   1      41.689  25.311  26.191  1.00  0.00     0.040 A 
ATOM     78  F   UNL A   1      40.630  25.203  28.286  1.00  0.00    -0.206 F 
ATOM     79  C   UNL A   1      42.395  26.033  25.230  1.00  0.00     0.006 A 
ENDBRANCH  51  72
BRANCH  63  80
ATOM     80  C   UNL A   1      44.334  27.318  34.095  1.00  0.00     0.057 A 
ATOM     81  C   UNL A   1      45.619  27.860  34.214  1.00  0.00     0.134 A 
ATOM     82  C   UNL A   1      44.112  26.048  34.646  1.00  0.00     0.134 A 
ATOM     83  F   UNL A   1      45.899  29.064  33.694  1.00  0.00    -0.206 F 
ATOM     84  C   UNL A   1      46.647  27.161  34.849  1.00  0.00     0.040 A 
ATOM     85  C   UNL A   1      45.126  25.349  35.301  1.00  0.00     0.040 A 
ATOM     86  F   UNL A   1      42.902  25.476  34.570  1.00  0.00    -0.206 F 
ATOM     87  C   UNL A   1      46.400  25.904  35.401  1.00  0.00     0.006 A 
ENDBRANCH  63  80
ENDBRANCH  37  38
ENDBRANCH  30  32
ENDBRANCH  29  30
ENDBRANCH  28  29
ENDBRANCH  27  28
ENDBRANCH   1  27
TORSDOF 18
ENDMDL
MODEL 3
REMARK VINA RESULT:     -10.8      3.154      8.261
REMARK SMILES CC[NH2+][C@@]1(C(=O)OCCOCCOC(=O)c2ccc(-c3c4nc(c(-c5c(F)cccc5F)c5ccc([nH]5)c(-c5c(F)cccc5F)c5nc(c(-c6c(F)cccc6F)c6ccc3[nH]6)C=C5)C=C4)cc2)CC[C@H](Oc2ccc3c(c2)OCO3)C1
REMARK SMILES IDX 10 1 9 2 8 3 7 4 5 5 6 6 4 7 70 8 83 9 71 10 72 11 3 12 2 15
REMARK SMILES IDX 1 16 73 17 74 18 75 19 79 20 76 21 78 22 77 23 80 24 82 25
REMARK SMILES IDX 81 26 11 27 12 28 13 29 14 30 15 31 16 32 17 33 69 34 18 35
REMARK SMILES IDX 68 36 19 37 20 38 21 39 62 40 22 41 67 42 61 43 63 44 23 45
REMARK SMILES IDX 66 46 60 47 59 48 24 50 50 51 33 52 49 53 34 54 37 55 48 56
REMARK SMILES IDX 64 57 35 58 36 59 47 61 65 62 38 63 25 64 26 65 31 66 27 67
REMARK SMILES IDX 28 68 30 69 32 70 29 71 51 72 52 73 57 74 53 75 54 76 56 77
REMARK SMILES IDX 58 78 55 79 39 80 40 81 45 82 41 83 42 84 44 85 46 86 43 87
REMARK H PARENT 3 13 3 14 63 49 37 60
REMARK Flexibility Score: inf
ROOT
ATOM      1  O   UNL A   1      39.546  20.939  25.844  1.00  0.00    -0.374 OA
ENDROOT
BRANCH   1   2
ATOM      2  C   UNL A   1      38.611  22.013  25.868  1.00  0.00     0.202 C 
BRANCH   2   3
ATOM      3  C   UNL A   1      37.486  21.993  24.827  1.00  0.00     0.261 C 
BRANCH   3   4
ATOM      4  O   UNL A   1      36.247  21.551  25.383  1.00  0.00    -0.459 OA
BRANCH   4   5
ATOM      5  C   UNL A   1      35.149  21.759  24.610  1.00  0.00     0.368 C 
ATOM      6  O   UNL A   1      35.128  22.494  23.626  1.00  0.00    -0.245 OA
BRANCH   5   7
ATOM      7  C   UNL A   1      33.929  20.890  25.045  1.00  0.00     0.198 C 
ATOM      8  C   UNL A   1      32.790  21.102  24.036  1.00  0.00     0.085 C 
ATOM      9  C   UNL A   1      33.238  21.363  26.337  1.00  0.00     0.126 C 
ATOM     10  C   UNL A   1      32.224  22.473  24.418  1.00  0.00     0.052 C 
ATOM     11  C   UNL A   1      32.457  22.618  25.929  1.00  0.00     0.180 C 
BRANCH   7  12
ATOM     12  N   UNL A   1      34.309  19.463  25.225  1.00  0.00    -0.332 N 
ATOM     13  H   UNL A   1      35.315  19.384  25.081  1.00  0.00     0.347 HD
ATOM     14  H   UNL A   1      34.014  19.206  26.167  1.00  0.00     0.347 HD
BRANCH  12  15
ATOM     15  C   UNL A   1      33.644  18.528  24.317  1.00  0.00     0.257 C 
ATOM     16  C   UNL A   1      32.833  17.521  25.124  1.00  0.00     0.071 C 
ENDBRANCH  12  15
ENDBRANCH   7  12
BRANCH  11  17
ATOM     17  O   UNL A   1      33.300  23.732  26.212  1.00  0.00    -0.490 OA
BRANCH  17  18
ATOM     18  C   UNL A   1      32.796  24.991  26.083  1.00  0.00     0.123 A 
ATOM     19  C   UNL A   1      31.493  25.398  26.418  1.00  0.00     0.050 A 
ATOM     20  C   UNL A   1      33.695  25.909  25.534  1.00  0.00     0.097 A 
ATOM     21  C   UNL A   1      31.084  26.721  26.208  1.00  0.00     0.054 A 
ATOM     22  C   UNL A   1      33.272  27.208  25.359  1.00  0.00     0.169 A 
ATOM     23  C   UNL A   1      32.000  27.605  25.683  1.00  0.00     0.166 A 
ATOM     24  O   UNL A   1      34.020  28.228  24.872  1.00  0.00    -0.453 OA
ATOM     25  O   UNL A   1      31.787  28.923  25.427  1.00  0.00    -0.454 OA
ATOM     26  C   UNL A   1      33.087  29.323  24.945  1.00  0.00     0.468 C 
ENDBRANCH  17  18
ENDBRANCH  11  17
ENDBRANCH   5   7
ENDBRANCH   4   5
ENDBRANCH   3   4
ENDBRANCH   2   3
ENDBRANCH   1   2
BRANCH   1  27
ATOM     27  C   UNL A   1      40.698  21.039  26.685  1.00  0.00     0.202 C 
BRANCH  27  28
ATOM     28  C   UNL A   1      42.066  21.170  25.998  1.00  0.00     0.261 C 
BRANCH  28  29
ATOM     29  O   UNL A   1      42.253  22.432  25.325  1.00  0.00    -0.460 OA
BRANCH  29  30
ATOM     30  C   UNL A   1      43.269  23.191  25.811  1.00  0.00     0.338 C 
ATOM     31  O   UNL A   1      44.463  23.039  25.633  1.00  0.00    -0.246 OA
BRANCH  30  32
ATOM     32  C   UNL A   1      42.735  24.363  26.529  1.00  0.00     0.060 A 
ATOM     33  C   UNL A   1      43.466  25.559  26.506  1.00  0.00     0.016 A 
ATOM     34  C   UNL A   1      41.605  24.240  27.331  1.00  0.00     0.016 A 
ATOM     35  C   UNL A   1      43.080  26.636  27.312  1.00  0.00     0.010 A 
ATOM     36  C   UNL A   1      41.228  25.317  28.140  1.00  0.00     0.010 A 
ATOM     37  C   UNL A   1      41.972  26.514  28.159  1.00  0.00    -0.014 A 
BRANCH  37  38
ATOM     38  C   UNL A   1      41.651  27.557  29.174  1.00  0.00     0.031 A 
ATOM     39  C   UNL A   1      42.386  27.534  30.488  1.00  0.00     0.074 A 
ATOM     40  C   UNL A   1      40.687  28.476  28.975  1.00  0.00     0.049 A 
ATOM     41  N   UNL A   1      42.161  28.213  31.583  1.00  0.00    -0.248 NA
ATOM     42  C   UNL A   1      43.521  26.601  30.580  1.00  0.00     0.031 C 
ATOM     43  C   UNL A   1      39.894  28.630  27.757  1.00  0.00     0.029 A 
ATOM     44  N   UNL A   1      40.173  29.421  29.831  1.00  0.00    -0.354 N 
ATOM     45  C   UNL A   1      43.114  27.780  32.496  1.00  0.00     0.074 A 
ATOM     46  C   UNL A   1      43.885  26.743  31.845  1.00  0.00     0.031 C 
ATOM     47  C   UNL A   1      38.954  29.570  27.963  1.00  0.00     0.029 A 
ATOM     48  C   UNL A   1      39.071  30.072  29.330  1.00  0.00     0.049 A 
ATOM     49  H   UNL A   1      40.556  29.614  30.718  1.00  0.00     0.167 HD
ATOM     50  C   UNL A   1      43.350  28.222  33.756  1.00  0.00     0.037 A 
ATOM     51  C   UNL A   1      38.227  30.943  29.920  1.00  0.00     0.037 A 
ATOM     52  C   UNL A   1      42.616  29.275  34.402  1.00  0.00     0.049 A 
ATOM     53  C   UNL A   1      38.465  31.381  31.338  1.00  0.00     0.074 A 
ATOM     54  C   UNL A   1      42.827  29.835  35.650  1.00  0.00     0.029 A 
ATOM     55  N   UNL A   1      41.530  29.932  33.846  1.00  0.00    -0.354 N 
ATOM     56  N   UNL A   1      39.395  30.995  32.178  1.00  0.00    -0.248 NA
ATOM     57  C   UNL A   1      37.545  32.389  31.887  1.00  0.00     0.031 C 
ATOM     58  C   UNL A   1      41.849  30.812  35.862  1.00  0.00     0.029 A 
ATOM     59  C   UNL A   1      41.051  30.883  34.732  1.00  0.00     0.049 A 
ATOM     60  H   UNL A   1      41.154  29.748  32.955  1.00  0.00     0.167 HD
ATOM     61  C   UNL A   1      39.206  31.750  33.329  1.00  0.00     0.074 A 
ATOM     62  C   UNL A   1      38.060  32.601  33.091  1.00  0.00     0.031 C 
ATOM     63  C   UNL A   1      39.929  31.747  34.474  1.00  0.00     0.037 A 
BRANCH  50  64
ATOM     64  C   UNL A   1      44.465  27.562  34.510  1.00  0.00     0.057 A 
ATOM     65  C   UNL A   1      44.246  26.425  35.299  1.00  0.00     0.134 A 
ATOM     66  C   UNL A   1      45.771  28.062  34.443  1.00  0.00     0.134 A 
ATOM     67  F   UNL A   1      43.013  25.906  35.415  1.00  0.00    -0.206 F 
ATOM     68  C   UNL A   1      45.279  25.829  36.022  1.00  0.00     0.040 A 
ATOM     69  C   UNL A   1      46.818  27.460  35.142  1.00  0.00     0.040 A 
ATOM     70  F   UNL A   1      46.049  29.144  33.699  1.00  0.00    -0.206 F 
ATOM     71  C   UNL A   1      46.571  26.344  35.941  1.00  0.00     0.006 A 
ENDBRANCH  50  64
BRANCH  51  72
ATOM     72  C   UNL A   1      37.051  31.454  29.173  1.00  0.00     0.057 A 
ATOM     73  C   UNL A   1      37.042  32.743  28.630  1.00  0.00     0.134 A 
ATOM     74  C   UNL A   1      35.899  30.675  29.019  1.00  0.00     0.134 A 
ATOM     75  F   UNL A   1      38.108  33.543  28.772  1.00  0.00    -0.206 F 
ATOM     76  C   UNL A   1      35.918  33.247  27.972  1.00  0.00     0.040 A 
ATOM     77  C   UNL A   1      34.776  31.160  28.349  1.00  0.00     0.040 A 
ATOM     78  F   UNL A   1      35.851  29.433  29.524  1.00  0.00    -0.206 F 
ATOM     79  C   UNL A   1      34.782  32.453  27.829  1.00  0.00     0.006 A 
ENDBRANCH  51  72
BRANCH  63  80
ATOM     80  C   UNL A   1      39.560  32.745  35.531  1.00  0.00     0.057 A 
ATOM     81  C   UNL A   1      38.597  32.474  36.509  1.00  0.00     0.134 A 
ATOM     82  C   UNL A   1      40.221  33.980  35.595  1.00  0.00     0.134 A 
ATOM     83  F   UNL A   1      37.919  31.316  36.492  1.00  0.00    -0.206 F 
ATOM     84  C   UNL A   1      38.293  33.401  37.508  1.00  0.00     0.040 A 
ATOM     85  C   UNL A   1      39.941  34.905  36.601  1.00  0.00     0.040 A 
ATOM     86  F   UNL A   1      41.159  34.298  34.691  1.00  0.00    -0.206 F 
ATOM     87  C   UNL A   1      38.972  34.618  37.560  1.00  0.00     0.006 A 
ENDBRANCH  63  80
ENDBRANCH  37  38
ENDBRANCH  30  32
ENDBRANCH  29  30
ENDBRANCH  28  29
ENDBRANCH  27  28
ENDBRANCH   1  27
TORSDOF 18
ENDMDL
