MODEL 1
REMARK VINA RESULT:     -11.6      0.000      0.000
REMARK SMILES CCc1ccnc(C(=O)c2[nH]c3ccc(OC(F)(F)F)cc3c2CC(=O)OCCOCCOC(=O)c2ccc(-c3c4nc(c(-c5c(F)cccc5F)c5ccc([nH]5)c(-c5c(F)cccc5F)c5nc(c(-c6c(F)cccc6F)c6ccc3[nH]6)C=C5)C=C4)cc2)c1
REMARK SMILES IDX 29 1 28 2 27 3 25 4 26 5 24 6 23 7 10 8 11 9 12 10 22 12
REMARK SMILES IDX 13 13 21 14 14 15 15 16 8 17 9 18 7 19 3 20 4 21 90 22 5 23
REMARK SMILES IDX 6 24 2 25 1 26 16 27 17 28 18 29 19 30 20 31 30 32 31 33
REMARK SMILES IDX 32 34 33 35 34 36 35 37 36 38 37 39 89 40 38 41 88 42 39 43
REMARK SMILES IDX 40 44 41 45 82 46 42 47 87 48 81 49 83 50 43 51 86 52 80 53
REMARK SMILES IDX 79 54 44 56 70 57 53 58 69 59 54 60 57 61 68 62 84 63 55 64
REMARK SMILES IDX 56 65 67 67 85 68 58 69 45 70 46 71 51 72 47 73 48 74 50 75
REMARK SMILES IDX 52 76 49 77 71 78 72 79 77 80 73 81 74 82 76 83 78 84 75 85
REMARK SMILES IDX 59 86 60 87 65 88 61 89 62 90 64 91 66 92 63 93
REMARK H PARENT 11 11 83 55 57 66
REMARK Flexibility Score: inf
ROOT
ATOM      1  C   UNL A   1      32.114  29.509  27.173  1.00  0.00     0.202 C 
ENDROOT
BRANCH   1   2
ATOM      2  C   UNL A   1      33.215  28.442  27.161  1.00  0.00     0.261 C 
BRANCH   2   3
ATOM      3  O   UNL A   1      34.151  28.644  26.079  1.00  0.00    -0.463 OA
BRANCH   3   4
ATOM      4  C   UNL A   1      33.652  28.402  24.837  1.00  0.00     0.310 C 
ATOM      5  O   UNL A   1      33.469  29.279  23.994  1.00  0.00    -0.252 OA
BRANCH   4   6
ATOM      6  C   UNL A   1      33.274  26.966  24.550  1.00  0.00     0.161 C 
BRANCH   6   7
ATOM      7  C   UNL A   1      31.854  26.520  24.787  1.00  0.00     0.000 A 
ATOM      8  C   UNL A   1      31.425  25.342  25.408  1.00  0.00     0.093 A 
ATOM      9  N   UNL A   1      30.045  25.377  25.404  1.00  0.00    -0.352 N 
ATOM     10  C   UNL A   1      29.588  26.363  24.562  1.00  0.00     0.046 A 
ATOM     11  H   UNL A   1      29.468  24.778  25.931  1.00  0.00     0.167 HD
ATOM     12  C   UNL A   1      30.695  27.117  24.189  1.00  0.00     0.008 A 
ATOM     13  C   UNL A   1      28.297  26.634  24.097  1.00  0.00     0.030 A 
ATOM     14  C   UNL A   1      30.499  28.193  23.299  1.00  0.00     0.057 A 
ATOM     15  C   UNL A   1      28.139  27.679  23.174  1.00  0.00     0.049 A 
ATOM     16  C   UNL A   1      29.228  28.445  22.762  1.00  0.00     0.130 A 
BRANCH   8  17
ATOM     17  C   UNL A   1      32.247  24.272  25.967  1.00  0.00     0.227 C 
ATOM     18  O   UNL A   1      31.971  23.729  27.035  1.00  0.00    -0.285 OA
BRANCH  17  19
ATOM     19  C   UNL A   1      33.493  23.827  25.267  1.00  0.00     0.113 A 
ATOM     20  C   UNL A   1      35.874  23.485  25.204  1.00  0.00    -0.044 A 
ATOM     21  C   UNL A   1      35.677  22.785  24.005  1.00  0.00     0.024 A 
ATOM     22  C   UNL A   1      34.746  23.999  25.854  1.00  0.00     0.036 A 
ATOM     23  C   UNL A   1      34.395  22.661  23.495  1.00  0.00     0.112 A 
ATOM     24  N   UNL A   1      33.302  23.181  24.089  1.00  0.00    -0.253 NA
BRANCH  20  25
ATOM     25  C   UNL A   1      37.275  23.573  25.764  1.00  0.00     0.032 C 
ATOM     26  C   UNL A   1      38.084  22.281  25.755  1.00  0.00     0.009 C 
ENDBRANCH  20  25
ENDBRANCH  17  19
ENDBRANCH   8  17
BRANCH  16  27
ATOM     27  O   UNL A   1      29.204  29.458  21.844  1.00  0.00    -0.406 OA
BRANCH  27  28
ATOM     28  C   UNL A   1      28.622  30.688  22.239  1.00  0.00     0.573 C 
ATOM     29  F   UNL A   1      29.114  31.723  21.524  1.00  0.00    -0.132 F 
ATOM     30  F   UNL A   1      27.279  30.648  22.108  1.00  0.00    -0.132 F 
ATOM     31  F   UNL A   1      28.912  30.904  23.541  1.00  0.00    -0.132 F 
ENDBRANCH  27  28
ENDBRANCH  16  27
ENDBRANCH   6   7
ENDBRANCH   4   6
ENDBRANCH   3   4
ENDBRANCH   2   3
ENDBRANCH   1   2
BRANCH   1  32
ATOM     32  O   UNL A   1      32.471  30.787  26.637  1.00  0.00    -0.374 OA
BRANCH  32  33
ATOM     33  C   UNL A   1      31.412  31.736  26.508  1.00  0.00     0.202 C 
BRANCH  33  34
ATOM     34  C   UNL A   1      31.784  33.183  26.847  1.00  0.00     0.261 C 
BRANCH  34  35
ATOM     35  O   UNL A   1      32.209  33.331  28.212  1.00  0.00    -0.460 OA
BRANCH  35  36
ATOM     36  C   UNL A   1      33.248  34.177  28.378  1.00  0.00     0.338 C 
ATOM     37  O   UNL A   1      33.205  35.399  28.480  1.00  0.00    -0.246 OA
BRANCH  36  38
ATOM     38  C   UNL A   1      34.501  33.433  28.576  1.00  0.00     0.060 A 
ATOM     39  C   UNL A   1      34.395  32.160  29.149  1.00  0.00     0.016 A 
ATOM     40  C   UNL A   1      35.754  33.990  28.305  1.00  0.00     0.016 A 
ATOM     41  C   UNL A   1      35.542  31.472  29.526  1.00  0.00     0.010 A 
ATOM     42  C   UNL A   1      36.908  33.297  28.688  1.00  0.00     0.010 A 
ATOM     43  C   UNL A   1      36.803  32.057  29.343  1.00  0.00    -0.014 A 
BRANCH  43  44
ATOM     44  C   UNL A   1      37.973  31.422  29.994  1.00  0.00     0.031 A 
ATOM     45  C   UNL A   1      38.271  31.744  31.432  1.00  0.00     0.074 A 
ATOM     46  C   UNL A   1      38.697  30.496  29.340  1.00  0.00     0.049 A 
ATOM     47  N   UNL A   1      39.164  31.222  32.232  1.00  0.00    -0.248 NA
ATOM     48  C   UNL A   1      37.448  32.795  32.054  1.00  0.00     0.031 C 
ATOM     49  C   UNL A   1      38.483  30.088  27.953  1.00  0.00     0.029 A 
ATOM     50  N   UNL A   1      39.744  29.721  29.765  1.00  0.00    -0.354 N 
ATOM     51  C   UNL A   1      39.005  31.871  33.451  1.00  0.00     0.074 A 
ATOM     52  C   UNL A   1      37.959  32.855  33.275  1.00  0.00     0.031 C 
ATOM     53  C   UNL A   1      39.368  29.124  27.643  1.00  0.00     0.029 A 
ATOM     54  C   UNL A   1      40.214  28.859  28.805  1.00  0.00     0.049 A 
ATOM     55  H   UNL A   1      40.123  29.778  30.672  1.00  0.00     0.167 HD
ATOM     56  C   UNL A   1      39.660  31.654  34.617  1.00  0.00     0.037 A 
ATOM     57  C   UNL A   1      41.210  27.956  28.864  1.00  0.00     0.037 A 
ATOM     58  C   UNL A   1      40.701  30.675  34.788  1.00  0.00     0.049 A 
ATOM     59  C   UNL A   1      41.948  27.759  30.161  1.00  0.00     0.074 A 
ATOM     60  C   UNL A   1      41.422  30.370  35.929  1.00  0.00     0.029 A 
ATOM     61  N   UNL A   1      41.173  29.846  33.782  1.00  0.00    -0.354 N 
ATOM     62  N   UNL A   1      41.764  28.352  31.316  1.00  0.00    -0.248 NA
ATOM     63  C   UNL A   1      43.025  26.758  30.165  1.00  0.00     0.031 C 
ATOM     64  C   UNL A   1      42.357  29.383  35.603  1.00  0.00     0.029 A 
ATOM     65  C   UNL A   1      42.189  29.042  34.270  1.00  0.00     0.049 A 
ATOM     66  H   UNL A   1      40.835  29.831  32.858  1.00  0.00     0.167 HD
ATOM     67  C   UNL A   1      42.680  27.780  32.189  1.00  0.00     0.074 A 
ATOM     68  C   UNL A   1      43.410  26.782  31.433  1.00  0.00     0.031 C 
ATOM     69  C   UNL A   1      42.901  28.055  33.499  1.00  0.00     0.037 A 
BRANCH  56  70
ATOM     70  C   UNL A   1      39.276  32.506  35.791  1.00  0.00     0.057 A 
ATOM     71  C   UNL A   1      38.362  32.063  36.758  1.00  0.00     0.134 A 
ATOM     72  C   UNL A   1      39.837  33.776  35.969  1.00  0.00     0.134 A 
ATOM     73  F   UNL A   1      37.776  30.862  36.640  1.00  0.00    -0.206 F 
ATOM     74  C   UNL A   1      38.005  32.862  37.846  1.00  0.00     0.040 A 
ATOM     75  C   UNL A   1      39.506  34.575  37.064  1.00  0.00     0.040 A 
ATOM     76  F   UNL A   1      40.719  34.260  35.081  1.00  0.00    -0.206 F 
ATOM     77  C   UNL A   1      38.582  34.120  38.004  1.00  0.00     0.006 A 
ENDBRANCH  56  70
BRANCH  57  78
ATOM     78  C   UNL A   1      41.555  27.154  27.663  1.00  0.00     0.057 A 
ATOM     79  C   UNL A   1      42.465  27.624  26.710  1.00  0.00     0.134 A 
ATOM     80  C   UNL A   1      40.978  25.897  27.441  1.00  0.00     0.134 A 
ATOM     81  F   UNL A   1      43.034  28.830  26.856  1.00  0.00    -0.206 F 
ATOM     82  C   UNL A   1      42.777  26.882  25.569  1.00  0.00     0.040 A 
ATOM     83  C   UNL A   1      41.299  25.135  26.317  1.00  0.00     0.040 A 
ATOM     84  F   UNL A   1      40.101  25.390  28.318  1.00  0.00    -0.206 F 
ATOM     85  C   UNL A   1      42.197  25.630  25.374  1.00  0.00     0.006 A 
ENDBRANCH  57  78
BRANCH  69  86
ATOM     86  C   UNL A   1      43.956  27.248  34.196  1.00  0.00     0.057 A 
ATOM     87  C   UNL A   1      43.664  26.018  34.799  1.00  0.00     0.134 A 
ATOM     88  C   UNL A   1      45.283  27.694  34.241  1.00  0.00     0.134 A 
ATOM     89  F   UNL A   1      42.410  25.541  34.800  1.00  0.00    -0.206 F 
ATOM     90  C   UNL A   1      44.652  25.272  35.445  1.00  0.00     0.040 A 
ATOM     91  C   UNL A   1      46.283  26.945  34.862  1.00  0.00     0.040 A 
ATOM     92  F   UNL A   1      45.629  28.860  33.674  1.00  0.00    -0.206 F 
ATOM     93  C   UNL A   1      45.967  25.734  35.473  1.00  0.00     0.006 A 
ENDBRANCH  69  86
ENDBRANCH  43  44
ENDBRANCH  36  38
ENDBRANCH  35  36
ENDBRANCH  34  35
ENDBRANCH  33  34
ENDBRANCH  32  33
ENDBRANCH   1  32
TORSDOF 20
ENDMDL
MODEL 2
REMARK VINA RESULT:     -11.4      2.619      7.462
REMARK SMILES CCc1ccnc(C(=O)c2[nH]c3ccc(OC(F)(F)F)cc3c2CC(=O)OCCOCCOC(=O)c2ccc(-c3c4nc(c(-c5c(F)cccc5F)c5ccc([nH]5)c(-c5c(F)cccc5F)c5nc(c(-c6c(F)cccc6F)c6ccc3[nH]6)C=C5)C=C4)cc2)c1
REMARK SMILES IDX 29 1 28 2 27 3 25 4 26 5 24 6 23 7 10 8 11 9 12 10 22 12
REMARK SMILES IDX 13 13 21 14 14 15 15 16 8 17 9 18 7 19 3 20 4 21 90 22 5 23
REMARK SMILES IDX 6 24 2 25 1 26 16 27 17 28 18 29 19 30 20 31 30 32 31 33
REMARK SMILES IDX 32 34 33 35 34 36 35 37 36 38 37 39 89 40 38 41 88 42 39 43
REMARK SMILES IDX 40 44 41 45 82 46 42 47 87 48 81 49 83 50 43 51 86 52 80 53
REMARK SMILES IDX 79 54 44 56 70 57 53 58 69 59 54 60 57 61 68 62 84 63 55 64
REMARK SMILES IDX 56 65 67 67 85 68 58 69 45 70 46 71 51 72 47 73 48 74 50 75
REMARK SMILES IDX 52 76 49 77 71 78 72 79 77 80 73 81 74 82 76 83 78 84 75 85
REMARK SMILES IDX 59 86 60 87 65 88 61 89 62 90 64 91 66 92 63 93
REMARK H PARENT 11 11 83 55 57 66
REMARK Flexibility Score: inf
ROOT
ATOM      1  C   UNL A   1      33.148  29.365  25.272  1.00  0.00     0.202 C 
ENDROOT
BRANCH   1   2
ATOM      2  C   UNL A   1      33.355  28.485  26.511  1.00  0.00     0.261 C 
BRANCH   2   3
ATOM      3  O   UNL A   1      33.057  27.097  26.243  1.00  0.00    -0.463 OA
BRANCH   3   4
ATOM      4  C   UNL A   1      31.841  26.677  26.686  1.00  0.00     0.310 C 
ATOM      5  O   UNL A   1      31.058  27.393  27.306  1.00  0.00    -0.252 OA
BRANCH   4   6
ATOM      6  C   UNL A   1      31.509  25.227  26.413  1.00  0.00     0.161 C 
BRANCH   6   7
ATOM      7  C   UNL A   1      31.456  24.742  24.987  1.00  0.00     0.000 A 
ATOM      8  C   UNL A   1      30.610  25.189  23.967  1.00  0.00     0.093 A 
ATOM      9  N   UNL A   1      30.935  24.461  22.840  1.00  0.00    -0.352 N 
ATOM     10  C   UNL A   1      31.730  23.389  23.170  1.00  0.00     0.046 A 
ATOM     11  H   UNL A   1      30.639  24.679  21.927  1.00  0.00     0.167 HD
ATOM     12  C   UNL A   1      32.102  23.557  24.499  1.00  0.00     0.008 A 
ATOM     13  C   UNL A   1      32.134  22.288  22.405  1.00  0.00     0.030 A 
ATOM     14  C   UNL A   1      32.913  22.569  25.094  1.00  0.00     0.057 A 
ATOM     15  C   UNL A   1      32.898  21.297  23.038  1.00  0.00     0.049 A 
ATOM     16  C   UNL A   1      33.273  21.421  24.375  1.00  0.00     0.130 A 
BRANCH   8  17
ATOM     17  C   UNL A   1      29.582  26.224  24.044  1.00  0.00     0.227 C 
ATOM     18  O   UNL A   1      28.555  26.074  24.705  1.00  0.00    -0.285 OA
BRANCH  17  19
ATOM     19  C   UNL A   1      29.730  27.499  23.275  1.00  0.00     0.113 A 
ATOM     20  C   UNL A   1      28.900  29.638  22.550  1.00  0.00    -0.044 A 
ATOM     21  C   UNL A   1      30.178  29.887  22.032  1.00  0.00     0.024 A 
ATOM     22  C   UNL A   1      28.684  28.420  23.203  1.00  0.00     0.036 A 
ATOM     23  C   UNL A   1      31.158  28.915  22.150  1.00  0.00     0.112 A 
ATOM     24  N   UNL A   1      30.958  27.721  22.743  1.00  0.00    -0.253 NA
BRANCH  20  25
ATOM     25  C   UNL A   1      27.857  30.728  22.448  1.00  0.00     0.032 C 
ATOM     26  C   UNL A   1      27.296  31.247  23.766  1.00  0.00     0.009 C 
ENDBRANCH  20  25
ENDBRANCH  17  19
ENDBRANCH   8  17
BRANCH  16  27
ATOM     27  O   UNL A   1      33.981  20.507  25.105  1.00  0.00    -0.406 OA
BRANCH  27  28
ATOM     28  C   UNL A   1      35.392  20.638  25.130  1.00  0.00     0.573 C 
ATOM     29  F   UNL A   1      35.830  21.478  24.168  1.00  0.00    -0.132 F 
ATOM     30  F   UNL A   1      35.813  21.074  26.336  1.00  0.00    -0.132 F 
ATOM     31  F   UNL A   1      35.941  19.423  24.906  1.00  0.00    -0.132 F 
ENDBRANCH  27  28
ENDBRANCH  16  27
ENDBRANCH   6   7
ENDBRANCH   4   6
ENDBRANCH   3   4
ENDBRANCH   2   3
ENDBRANCH   1   2
BRANCH   1  32
ATOM     32  O   UNL A   1      32.078  30.312  25.346  1.00  0.00    -0.374 OA
BRANCH  32  33
ATOM     33  C   UNL A   1      31.650  30.682  26.656  1.00  0.00     0.202 C 
BRANCH  33  34
ATOM     34  C   UNL A   1      31.390  32.178  26.863  1.00  0.00     0.261 C 
BRANCH  34  35
ATOM     35  O   UNL A   1      32.562  32.973  26.619  1.00  0.00    -0.460 OA
BRANCH  35  36
ATOM     36  C   UNL A   1      33.058  33.577  27.721  1.00  0.00     0.338 C 
ATOM     37  O   UNL A   1      32.515  34.436  28.408  1.00  0.00    -0.246 OA
BRANCH  36  38
ATOM     38  C   UNL A   1      34.336  32.967  28.120  1.00  0.00     0.060 A 
ATOM     39  C   UNL A   1      34.326  31.592  28.375  1.00  0.00     0.016 A 
ATOM     40  C   UNL A   1      35.491  33.724  28.336  1.00  0.00     0.016 A 
ATOM     41  C   UNL A   1      35.448  30.980  28.922  1.00  0.00     0.010 A 
ATOM     42  C   UNL A   1      36.619  33.107  28.890  1.00  0.00     0.010 A 
ATOM     43  C   UNL A   1      36.583  31.743  29.229  1.00  0.00    -0.014 A 
BRANCH  43  44
ATOM     44  C   UNL A   1      37.647  31.120  30.050  1.00  0.00     0.031 A 
ATOM     45  C   UNL A   1      38.631  30.195  29.387  1.00  0.00     0.074 A 
ATOM     46  C   UNL A   1      37.793  31.453  31.344  1.00  0.00     0.049 A 
ATOM     47  N   UNL A   1      39.705  29.634  29.880  1.00  0.00    -0.248 NA
ATOM     48  C   UNL A   1      38.371  29.861  27.977  1.00  0.00     0.031 C 
ATOM     49  C   UNL A   1      36.914  32.357  32.084  1.00  0.00     0.029 A 
ATOM     50  N   UNL A   1      38.746  31.083  32.258  1.00  0.00    -0.354 N 
ATOM     51  C   UNL A   1      40.253  28.891  28.841  1.00  0.00     0.074 A 
ATOM     52  C   UNL A   1      39.372  29.037  27.703  1.00  0.00     0.031 C 
ATOM     53  C   UNL A   1      37.376  32.481  33.340  1.00  0.00     0.029 A 
ATOM     54  C   UNL A   1      38.574  31.658  33.493  1.00  0.00     0.049 A 
ATOM     55  H   UNL A   1      39.482  30.464  32.048  1.00  0.00     0.167 HD
ATOM     56  C   UNL A   1      41.397  28.166  28.831  1.00  0.00     0.037 A 
ATOM     57  C   UNL A   1      39.308  31.537  34.615  1.00  0.00     0.037 A 
ATOM     58  C   UNL A   1      42.271  28.021  29.966  1.00  0.00     0.049 A 
ATOM     59  C   UNL A   1      40.555  30.695  34.590  1.00  0.00     0.074 A 
ATOM     60  C   UNL A   1      43.458  27.316  30.059  1.00  0.00     0.029 A 
ATOM     61  N   UNL A   1      42.044  28.591  31.210  1.00  0.00    -0.354 N 
ATOM     62  N   UNL A   1      41.083  30.027  33.592  1.00  0.00    -0.248 NA
ATOM     63  C   UNL A   1      41.316  30.600  35.845  1.00  0.00     0.031 C 
ATOM     64  C   UNL A   1      43.929  27.428  31.372  1.00  0.00     0.029 A 
ATOM     65  C   UNL A   1      43.059  28.238  32.084  1.00  0.00     0.049 A 
ATOM     66  H   UNL A   1      41.275  29.162  31.438  1.00  0.00     0.167 HD
ATOM     67  C   UNL A   1      42.247  29.456  34.088  1.00  0.00     0.074 A 
ATOM     68  C   UNL A   1      42.356  29.868  35.474  1.00  0.00     0.031 C 
ATOM     69  C   UNL A   1      43.147  28.660  33.458  1.00  0.00     0.037 A 
BRANCH  56  70
ATOM     70  C   UNL A   1      41.756  27.462  27.556  1.00  0.00     0.057 A 
ATOM     71  C   UNL A   1      42.461  28.106  26.529  1.00  0.00     0.134 A 
ATOM     72  C   UNL A   1      41.408  26.121  27.355  1.00  0.00     0.134 A 
ATOM     73  F   UNL A   1      42.812  29.395  26.651  1.00  0.00    -0.206 F 
ATOM     74  C   UNL A   1      42.788  27.447  25.342  1.00  0.00     0.040 A 
ATOM     75  C   UNL A   1      41.749  25.444  26.183  1.00  0.00     0.040 A 
ATOM     76  F   UNL A   1      40.734  25.445  28.298  1.00  0.00    -0.206 F 
ATOM     77  C   UNL A   1      42.436  26.110  25.169  1.00  0.00     0.006 A 
ENDBRANCH  56  70
BRANCH  57  78
ATOM     78  C   UNL A   1      38.893  32.244  35.852  1.00  0.00     0.057 A 
ATOM     79  C   UNL A   1      39.219  33.587  36.068  1.00  0.00     0.134 A 
ATOM     80  C   UNL A   1      38.161  31.589  36.850  1.00  0.00     0.134 A 
ATOM     81  F   UNL A   1      39.937  34.263  35.158  1.00  0.00    -0.206 F 
ATOM     82  C   UNL A   1      38.848  34.251  37.239  1.00  0.00     0.040 A 
ATOM     83  C   UNL A   1      37.763  32.247  38.015  1.00  0.00     0.040 A 
ATOM     84  F   UNL A   1      37.815  30.302  36.702  1.00  0.00    -0.206 F 
ATOM     85  C   UNL A   1      38.112  33.580  38.214  1.00  0.00     0.006 A 
ENDBRANCH  57  78
BRANCH  69  86
ATOM     86  C   UNL A   1      44.334  28.208  34.255  1.00  0.00     0.057 A 
ATOM     87  C   UNL A   1      45.527  28.941  34.282  1.00  0.00     0.134 A 
ATOM     88  C   UNL A   1      44.273  27.041  35.027  1.00  0.00     0.134 A 
ATOM     89  F   UNL A   1      45.653  30.062  33.555  1.00  0.00    -0.206 F 
ATOM     90  C   UNL A   1      46.627  28.514  35.027  1.00  0.00     0.040 A 
ATOM     91  C   UNL A   1      45.357  26.618  35.796  1.00  0.00     0.040 A 
ATOM     92  F   UNL A   1      43.155  26.299  35.052  1.00  0.00    -0.206 F 
ATOM     93  C   UNL A   1      46.542  27.352  35.791  1.00  0.00     0.006 A 
ENDBRANCH  69  86
ENDBRANCH  43  44
ENDBRANCH  36  38
ENDBRANCH  35  36
ENDBRANCH  34  35
ENDBRANCH  33  34
ENDBRANCH  32  33
ENDBRANCH   1  32
TORSDOF 20
ENDMDL
MODEL 3
REMARK VINA RESULT:     -11.4      3.624      7.149
REMARK SMILES CCc1ccnc(C(=O)c2[nH]c3ccc(OC(F)(F)F)cc3c2CC(=O)OCCOCCOC(=O)c2ccc(-c3c4nc(c(-c5c(F)cccc5F)c5ccc([nH]5)c(-c5c(F)cccc5F)c5nc(c(-c6c(F)cccc6F)c6ccc3[nH]6)C=C5)C=C4)cc2)c1
REMARK SMILES IDX 29 1 28 2 27 3 25 4 26 5 24 6 23 7 10 8 11 9 12 10 22 12
REMARK SMILES IDX 13 13 21 14 14 15 15 16 8 17 9 18 7 19 3 20 4 21 90 22 5 23
REMARK SMILES IDX 6 24 2 25 1 26 16 27 17 28 18 29 19 30 20 31 30 32 31 33
REMARK SMILES IDX 32 34 33 35 34 36 35 37 36 38 37 39 89 40 38 41 88 42 39 43
REMARK SMILES IDX 40 44 41 45 82 46 42 47 87 48 81 49 83 50 43 51 86 52 80 53
REMARK SMILES IDX 79 54 44 56 70 57 53 58 69 59 54 60 57 61 68 62 84 63 55 64
REMARK SMILES IDX 56 65 67 67 85 68 58 69 45 70 46 71 51 72 47 73 48 74 50 75
REMARK SMILES IDX 52 76 49 77 71 78 72 79 77 80 73 81 74 82 76 83 78 84 75 85
REMARK SMILES IDX 59 86 60 87 65 88 61 89 62 90 64 91 66 92 63 93
REMARK H PARENT 11 11 83 55 57 66
REMARK Flexibility Score: inf
ROOT
ATOM      1  C   UNL A   1      33.643  31.389  27.341  1.00  0.00     0.202 C 
ENDROOT
BRANCH   1   2
ATOM      2  C   UNL A   1      33.337  29.922  27.015  1.00  0.00     0.261 C 
BRANCH   2   3
ATOM      3  O   UNL A   1      33.960  29.503  25.780  1.00  0.00    -0.463 OA
BRANCH   3   4
ATOM      4  C   UNL A   1      33.637  28.245  25.375  1.00  0.00     0.310 C 
ATOM      5  O   UNL A   1      34.021  27.751  24.316  1.00  0.00    -0.252 OA
BRANCH   4   6
ATOM      6  C   UNL A   1      32.716  27.475  26.295  1.00  0.00     0.161 C 
BRANCH   6   7
ATOM      7  C   UNL A   1      31.460  26.863  25.731  1.00  0.00     0.000 A 
ATOM      8  C   UNL A   1      31.095  25.513  25.735  1.00  0.00     0.093 A 
ATOM      9  N   UNL A   1      29.862  25.437  25.119  1.00  0.00    -0.352 N 
ATOM     10  C   UNL A   1      29.572  26.615  24.473  1.00  0.00     0.046 A 
ATOM     11  H   UNL A   1      29.272  24.649  25.138  1.00  0.00     0.167 HD
ATOM     12  C   UNL A   1      30.535  27.537  24.866  1.00  0.00     0.008 A 
ATOM     13  C   UNL A   1      28.549  26.929  23.570  1.00  0.00     0.030 A 
ATOM     14  C   UNL A   1      30.475  28.837  24.322  1.00  0.00     0.057 A 
ATOM     15  C   UNL A   1      28.544  28.213  23.008  1.00  0.00     0.049 A 
ATOM     16  C   UNL A   1      29.504  29.159  23.362  1.00  0.00     0.130 A 
BRANCH   8  17
ATOM     17  C   UNL A   1      31.842  24.383  26.283  1.00  0.00     0.227 C 
ATOM     18  O   UNL A   1      31.646  23.965  27.423  1.00  0.00    -0.285 OA
BRANCH  17  19
ATOM     19  C   UNL A   1      32.914  23.719  25.477  1.00  0.00     0.113 A 
ATOM     20  C   UNL A   1      34.882  22.347  25.302  1.00  0.00    -0.044 A 
ATOM     21  C   UNL A   1      34.692  22.363  23.914  1.00  0.00     0.024 A 
ATOM     22  C   UNL A   1      33.955  23.028  26.097  1.00  0.00     0.036 A 
ATOM     23  C   UNL A   1      33.628  23.074  23.383  1.00  0.00     0.112 A 
ATOM     24  N   UNL A   1      32.746  23.767  24.131  1.00  0.00    -0.253 NA
BRANCH  20  25
ATOM     25  C   UNL A   1      36.024  21.530  25.863  1.00  0.00     0.032 C 
ATOM     26  C   UNL A   1      36.877  20.781  24.847  1.00  0.00     0.009 C 
ENDBRANCH  20  25
ENDBRANCH  17  19
ENDBRANCH   8  17
BRANCH  16  27
ATOM     27  O   UNL A   1      29.623  30.423  22.855  1.00  0.00    -0.406 OA
BRANCH  27  28
ATOM     28  C   UNL A   1      28.788  31.430  23.401  1.00  0.00     0.573 C 
ATOM     29  F   UNL A   1      28.445  32.348  22.471  1.00  0.00    -0.132 F 
ATOM     30  F   UNL A   1      27.672  30.891  23.935  1.00  0.00    -0.132 F 
ATOM     31  F   UNL A   1      29.463  32.063  24.385  1.00  0.00    -0.132 F 
ENDBRANCH  27  28
ENDBRANCH  16  27
ENDBRANCH   6   7
ENDBRANCH   4   6
ENDBRANCH   3   4
ENDBRANCH   2   3
ENDBRANCH   1   2
BRANCH   1  32
ATOM     32  O   UNL A   1      34.055  31.662  28.683  1.00  0.00    -0.374 OA
BRANCH  32  33
ATOM     33  C   UNL A   1      34.156  33.039  29.046  1.00  0.00     0.202 C 
BRANCH  33  34
ATOM     34  C   UNL A   1      34.668  33.308  30.464  1.00  0.00     0.261 C 
BRANCH  34  35
ATOM     35  O   UNL A   1      34.823  32.098  31.225  1.00  0.00    -0.460 OA
BRANCH  35  36
ATOM     36  C   UNL A   1      35.937  32.065  31.988  1.00  0.00     0.338 C 
ATOM     37  O   UNL A   1      36.079  32.515  33.121  1.00  0.00    -0.246 OA
BRANCH  36  38
ATOM     38  C   UNL A   1      36.989  31.266  31.341  1.00  0.00     0.060 A 
ATOM     39  C   UNL A   1      37.962  30.708  32.178  1.00  0.00     0.016 A 
ATOM     40  C   UNL A   1      37.087  31.142  29.953  1.00  0.00     0.016 A 
ATOM     41  C   UNL A   1      39.079  30.090  31.626  1.00  0.00     0.010 A 
ATOM     42  C   UNL A   1      38.214  30.522  29.399  1.00  0.00     0.010 A 
ATOM     43  C   UNL A   1      39.236  30.038  30.234  1.00  0.00    -0.014 A 
BRANCH  43  44
ATOM     44  C   UNL A   1      40.549  29.619  29.691  1.00  0.00     0.031 A 
ATOM     45  C   UNL A   1      40.708  28.218  29.169  1.00  0.00     0.074 A 
ATOM     46  C   UNL A   1      41.552  30.507  29.574  1.00  0.00     0.049 A 
ATOM     47  N   UNL A   1      41.722  27.674  28.547  1.00  0.00    -0.248 NA
ATOM     48  C   UNL A   1      39.570  27.308  29.373  1.00  0.00     0.031 C 
ATOM     49  C   UNL A   1      41.501  31.897  30.023  1.00  0.00     0.029 A 
ATOM     50  N   UNL A   1      42.800  30.373  29.023  1.00  0.00    -0.354 N 
ATOM     51  C   UNL A   1      41.341  26.365  28.276  1.00  0.00     0.074 A 
ATOM     52  C   UNL A   1      40.021  26.182  28.839  1.00  0.00     0.031 C 
ATOM     53  C   UNL A   1      42.667  32.495  29.718  1.00  0.00     0.029 A 
ATOM     54  C   UNL A   1      43.545  31.526  29.065  1.00  0.00     0.049 A 
ATOM     55  H   UNL A   1      43.131  29.531  28.635  1.00  0.00     0.167 HD
ATOM     56  C   UNL A   1      42.023  25.407  27.605  1.00  0.00     0.037 A 
ATOM     57  C   UNL A   1      44.791  31.770  28.619  1.00  0.00     0.037 A 
ATOM     58  C   UNL A   1      43.337  25.592  27.048  1.00  0.00     0.049 A 
ATOM     59  C   UNL A   1      45.544  30.677  27.908  1.00  0.00     0.074 A 
ATOM     60  C   UNL A   1      44.113  24.688  26.342  1.00  0.00     0.029 A 
ATOM     61  N   UNL A   1      44.073  26.763  27.142  1.00  0.00    -0.354 N 
ATOM     62  N   UNL A   1      45.159  29.455  27.625  1.00  0.00    -0.248 NA
ATOM     63  C   UNL A   1      46.900  31.002  27.442  1.00  0.00     0.031 C 
ATOM     64  C   UNL A   1      45.333  25.302  26.043  1.00  0.00     0.029 A 
ATOM     65  C   UNL A   1      45.302  26.601  26.524  1.00  0.00     0.049 A 
ATOM     66  H   UNL A   1      43.766  27.588  27.583  1.00  0.00     0.167 HD
ATOM     67  C   UNL A   1      46.211  28.875  26.929  1.00  0.00     0.074 A 
ATOM     68  C   UNL A   1      47.245  29.884  26.819  1.00  0.00     0.031 C 
ATOM     69  C   UNL A   1      46.315  27.620  26.426  1.00  0.00     0.037 A 
BRANCH  56  70
ATOM     70  C   UNL A   1      41.361  24.069  27.452  1.00  0.00     0.057 A 
ATOM     71  C   UNL A   1      40.307  23.863  26.551  1.00  0.00     0.134 A 
ATOM     72  C   UNL A   1      41.792  22.967  28.202  1.00  0.00     0.134 A 
ATOM     73  F   UNL A   1      39.836  24.880  25.813  1.00  0.00    -0.206 F 
ATOM     74  C   UNL A   1      39.692  22.617  26.417  1.00  0.00     0.040 A 
ATOM     75  C   UNL A   1      41.200  21.711  28.061  1.00  0.00     0.040 A 
ATOM     76  F   UNL A   1      42.797  23.094  29.082  1.00  0.00    -0.206 F 
ATOM     77  C   UNL A   1      40.143  21.535  27.170  1.00  0.00     0.006 A 
ENDBRANCH  56  70
BRANCH  57  78
ATOM     78  C   UNL A   1      45.400  33.109  28.814  1.00  0.00     0.057 A 
ATOM     79  C   UNL A   1      46.062  33.443  30.000  1.00  0.00     0.134 A 
ATOM     80  C   UNL A   1      45.329  34.090  27.816  1.00  0.00     0.134 A 
ATOM     81  F   UNL A   1      46.144  32.555  31.001  1.00  0.00    -0.206 F 
ATOM     82  C   UNL A   1      46.618  34.709  30.196  1.00  0.00     0.040 A 
ATOM     83  C   UNL A   1      45.900  35.351  27.989  1.00  0.00     0.040 A 
ATOM     84  F   UNL A   1      44.709  33.830  26.656  1.00  0.00    -0.206 F 
ATOM     85  C   UNL A   1      46.543  35.665  29.184  1.00  0.00     0.006 A 
ENDBRANCH  57  78
BRANCH  69  86
ATOM     86  C   UNL A   1      47.580  27.282  25.692  1.00  0.00     0.057 A 
ATOM     87  C   UNL A   1      47.722  27.522  24.320  1.00  0.00     0.134 A 
ATOM     88  C   UNL A   1      48.676  26.737  26.374  1.00  0.00     0.134 A 
ATOM     89  F   UNL A   1      46.705  28.032  23.609  1.00  0.00    -0.206 F 
ATOM     90  C   UNL A   1      48.903  27.206  23.646  1.00  0.00     0.040 A 
ATOM     91  C   UNL A   1      49.869  26.441  25.714  1.00  0.00     0.040 A 
ATOM     92  F   UNL A   1      48.606  26.493  27.691  1.00  0.00    -0.206 F 
ATOM     93  C   UNL A   1      49.982  26.668  24.344  1.00  0.00     0.006 A 
ENDBRANCH  69  86
ENDBRANCH  43  44
ENDBRANCH  36  38
ENDBRANCH  35  36
ENDBRANCH  34  35
ENDBRANCH  33  34
ENDBRANCH  32  33
ENDBRANCH   1  32
TORSDOF 20
ENDMDL
