MODEL 1
REMARK VINA RESULT:     -11.7      0.000      0.000
REMARK SMILES O=C(OCCOCCOC(=O)c1ccnc(-c2ccnc(COc3ccccc3)n2)c1)c1ccc(-c2c3nc(c(-c4c(F)cccc4F)c4ccc([nH]4)c(-c4c(F)cccc4F)c4nc(c(-c5c(F)cccc5F)c5ccc2[nH]5)C=C4)C=C3)cc1
REMARK SMILES IDX 7 1 6 2 5 3 4 4 3 5 2 6 1 7 32 8 33 9 85 10 34 11 84 12
REMARK SMILES IDX 35 13 36 14 37 15 78 16 38 17 83 18 77 19 79 20 39 21 82 22
REMARK SMILES IDX 76 23 75 24 40 26 66 27 49 28 65 29 50 30 53 31 64 32 80 33
REMARK SMILES IDX 51 34 52 35 63 37 81 38 54 39 41 40 42 41 47 42 43 43 44 44
REMARK SMILES IDX 46 45 48 46 45 47 67 48 68 49 73 50 69 51 70 52 72 53 74 54
REMARK SMILES IDX 71 55 55 56 56 57 61 58 57 59 58 60 60 61 62 62 59 63 8 64
REMARK SMILES IDX 9 65 10 66 11 67 12 68 13 69 31 70 14 71 16 72 15 73 17 74
REMARK SMILES IDX 18 75 30 76 19 77 21 78 20 79 22 80 23 81 24 82 25 83 29 84
REMARK SMILES IDX 26 85 28 86 27 87
REMARK H PARENT 79 25 53 36
REMARK Flexibility Score: inf
ROOT
ATOM      1  C   UNL A   1      43.722  19.618  25.609  1.00  0.00     0.202 C 
ENDROOT
BRANCH   1   2
ATOM      2  O   UNL A   1      43.706  20.838  24.856  1.00  0.00    -0.374 OA
BRANCH   2   3
ATOM      3  C   UNL A   1      44.967  21.498  24.732  1.00  0.00     0.202 C 
BRANCH   3   4
ATOM      4  C   UNL A   1      44.929  22.771  23.881  1.00  0.00     0.261 C 
BRANCH   4   5
ATOM      5  O   UNL A   1      44.182  23.802  24.548  1.00  0.00    -0.460 OA
BRANCH   5   6
ATOM      6  C   UNL A   1      44.622  24.965  25.081  1.00  0.00     0.338 C 
ATOM      7  O   UNL A   1      45.678  25.437  24.661  1.00  0.00    -0.246 OA
BRANCH   6   8
ATOM      8  C   UNL A   1      43.892  25.733  26.139  1.00  0.00     0.060 A 
ATOM      9  C   UNL A   1      43.994  27.107  26.352  1.00  0.00     0.016 A 
ATOM     10  C   UNL A   1      42.980  25.013  26.934  1.00  0.00     0.016 A 
ATOM     11  C   UNL A   1      43.296  27.739  27.369  1.00  0.00     0.010 A 
ATOM     12  C   UNL A   1      42.236  25.648  27.934  1.00  0.00     0.010 A 
ATOM     13  C   UNL A   1      42.423  27.011  28.174  1.00  0.00    -0.014 A 
BRANCH  13  14
ATOM     14  C   UNL A   1      41.848  27.705  29.338  1.00  0.00     0.031 A 
ATOM     15  C   UNL A   1      42.633  27.714  30.614  1.00  0.00     0.074 A 
ATOM     16  C   UNL A   1      40.745  28.458  29.181  1.00  0.00     0.049 A 
ATOM     17  N   UNL A   1      42.375  28.318  31.742  1.00  0.00    -0.248 NA
ATOM     18  C   UNL A   1      43.895  26.954  30.612  1.00  0.00     0.031 C 
ATOM     19  C   UNL A   1      39.994  28.600  27.931  1.00  0.00     0.029 A 
ATOM     20  N   UNL A   1      40.095  29.285  30.056  1.00  0.00    -0.354 N 
ATOM     21  C   UNL A   1      43.429  27.996  32.586  1.00  0.00     0.074 A 
ATOM     22  C   UNL A   1      44.326  27.138  31.848  1.00  0.00     0.031 C 
ATOM     23  C   UNL A   1      39.009  29.493  28.111  1.00  0.00     0.029 A 
ATOM     24  C   UNL A   1      39.025  29.942  29.499  1.00  0.00     0.049 A 
ATOM     25  H   UNL A   1      40.368  29.399  30.996  1.00  0.00     0.167 HD
ATOM     26  C   UNL A   1      43.620  28.383  33.868  1.00  0.00     0.037 A 
ATOM     27  C   UNL A   1      38.154  30.798  30.063  1.00  0.00     0.037 A 
ATOM     28  C   UNL A   1      42.708  29.237  34.579  1.00  0.00     0.049 A 
ATOM     29  C   UNL A   1      38.344  31.144  31.515  1.00  0.00     0.074 A 
ATOM     30  C   UNL A   1      42.751  29.645  35.898  1.00  0.00     0.029 A 
ATOM     31  N   UNL A   1      41.581  29.817  34.012  1.00  0.00    -0.354 N 
ATOM     32  N   UNL A   1      39.309  30.785  32.330  1.00  0.00    -0.248 NA
ATOM     33  C   UNL A   1      37.324  32.002  32.128  1.00  0.00     0.031 C 
ATOM     34  C   UNL A   1      41.623  30.439  36.141  1.00  0.00     0.029 A 
ATOM     35  C   UNL A   1      40.908  30.567  34.958  1.00  0.00     0.049 A 
ATOM     36  H   UNL A   1      41.301  29.709  33.074  1.00  0.00     0.167 HD
ATOM     37  C   UNL A   1      39.026  31.390  33.546  1.00  0.00     0.074 A 
ATOM     38  C   UNL A   1      37.807  32.154  33.354  1.00  0.00     0.031 C 
ATOM     39  C   UNL A   1      39.704  31.323  34.718  1.00  0.00     0.037 A 
BRANCH  26  40
ATOM     40  C   UNL A   1      44.812  27.813  34.577  1.00  0.00     0.057 A 
ATOM     41  C   UNL A   1      46.049  28.471  34.616  1.00  0.00     0.134 A 
ATOM     42  C   UNL A   1      44.732  26.554  35.187  1.00  0.00     0.134 A 
ATOM     43  F   UNL A   1      46.202  29.665  34.022  1.00  0.00    -0.206 F 
ATOM     44  C   UNL A   1      47.169  27.885  35.208  1.00  0.00     0.040 A 
ATOM     45  C   UNL A   1      45.840  25.968  35.802  1.00  0.00     0.040 A 
ATOM     46  F   UNL A   1      43.581  25.866  35.179  1.00  0.00    -0.206 F 
ATOM     47  C   UNL A   1      47.066  26.630  35.805  1.00  0.00     0.006 A 
ENDBRANCH  26  40
BRANCH  27  48
ATOM     48  C   UNL A   1      37.023  31.355  29.275  1.00  0.00     0.057 A 
ATOM     49  C   UNL A   1      35.876  30.600  29.005  1.00  0.00     0.134 A 
ATOM     50  C   UNL A   1      37.070  32.656  28.756  1.00  0.00     0.134 A 
ATOM     51  F   UNL A   1      35.774  29.341  29.456  1.00  0.00    -0.206 F 
ATOM     52  C   UNL A   1      34.828  31.109  28.234  1.00  0.00     0.040 A 
ATOM     53  C   UNL A   1      36.018  33.187  28.007  1.00  0.00     0.040 A 
ATOM     54  F   UNL A   1      38.139  33.436  28.976  1.00  0.00    -0.206 F 
ATOM     55  C   UNL A   1      34.895  32.410  27.737  1.00  0.00     0.006 A 
ENDBRANCH  27  48
BRANCH  39  56
ATOM     56  C   UNL A   1      39.161  32.130  35.858  1.00  0.00     0.057 A 
ATOM     57  C   UNL A   1      38.248  31.595  36.775  1.00  0.00     0.134 A 
ATOM     58  C   UNL A   1      39.590  33.448  36.058  1.00  0.00     0.134 A 
ATOM     59  F   UNL A   1      37.791  30.343  36.627  1.00  0.00    -0.206 F 
ATOM     60  C   UNL A   1      37.761  32.353  37.840  1.00  0.00     0.040 A 
ATOM     61  C   UNL A   1      39.131  34.206  37.134  1.00  0.00     0.040 A 
ATOM     62  F   UNL A   1      40.472  34.013  35.219  1.00  0.00    -0.206 F 
ATOM     63  C   UNL A   1      38.208  33.660  38.024  1.00  0.00     0.006 A 
ENDBRANCH  39  56
ENDBRANCH  13  14
ENDBRANCH   6   8
ENDBRANCH   5   6
ENDBRANCH   4   5
ENDBRANCH   3   4
ENDBRANCH   2   3
ENDBRANCH   1   2
BRANCH   1  64
ATOM     64  C   UNL A   1      42.301  19.064  25.742  1.00  0.00     0.261 C 
BRANCH  64  65
ATOM     65  O   UNL A   1      41.371  20.153  25.632  1.00  0.00    -0.460 OA
BRANCH  65  66
ATOM     66  C   UNL A   1      40.680  20.436  26.766  1.00  0.00     0.338 C 
ATOM     67  O   UNL A   1      40.837  19.954  27.873  1.00  0.00    -0.246 OA
BRANCH  66  68
ATOM     68  C   UNL A   1      39.864  21.637  26.495  1.00  0.00     0.063 A 
ATOM     69  C   UNL A   1      40.213  22.882  27.012  1.00  0.00     0.036 A 
ATOM     70  C   UNL A   1      38.660  21.463  25.813  1.00  0.00     0.046 A 
ATOM     71  C   UNL A   1      39.303  23.906  26.868  1.00  0.00     0.112 A 
ATOM     72  C   UNL A   1      37.795  22.542  25.742  1.00  0.00     0.090 A 
ATOM     73  N   UNL A   1      38.097  23.753  26.283  1.00  0.00    -0.255 NA
BRANCH  72  74
ATOM     74  C   UNL A   1      36.474  22.438  25.123  1.00  0.00     0.092 A 
ATOM     75  C   UNL A   1      36.248  22.834  23.819  1.00  0.00     0.051 A 
ATOM     76  N   UNL A   1      35.529  21.836  25.872  1.00  0.00    -0.228 NA
ATOM     77  C   UNL A   1      34.995  22.574  23.319  1.00  0.00     0.115 A 
ATOM     78  C   UNL A   1      34.365  21.541  25.267  1.00  0.00     0.166 A 
ATOM     79  N   UNL A   1      34.043  21.928  24.013  1.00  0.00    -0.238 NA
BRANCH  78  80
ATOM     80  C   UNL A   1      33.458  20.536  25.945  1.00  0.00     0.306 C 
BRANCH  80  81
ATOM     81  O   UNL A   1      32.591  19.816  25.046  1.00  0.00    -0.486 OA
BRANCH  81  82
ATOM     82  C   UNL A   1      32.937  18.512  24.806  1.00  0.00     0.119 A 
ATOM     83  C   UNL A   1      32.530  17.578  25.758  1.00  0.00     0.046 A 
ATOM     84  C   UNL A   1      33.757  18.101  23.755  1.00  0.00     0.046 A 
ATOM     85  C   UNL A   1      32.902  16.237  25.632  1.00  0.00     0.004 A 
ATOM     86  C   UNL A   1      34.124  16.760  23.625  1.00  0.00     0.004 A 
ATOM     87  C   UNL A   1      33.693  15.827  24.562  1.00  0.00     0.000 A 
ENDBRANCH  81  82
ENDBRANCH  80  81
ENDBRANCH  78  80
ENDBRANCH  72  74
ENDBRANCH  66  68
ENDBRANCH  65  66
ENDBRANCH  64  65
ENDBRANCH   1  64
TORSDOF 18
ENDMDL
MODEL 2
REMARK VINA RESULT:     -11.5      3.494      8.661
REMARK SMILES O=C(OCCOCCOC(=O)c1ccnc(-c2ccnc(COc3ccccc3)n2)c1)c1ccc(-c2c3nc(c(-c4c(F)cccc4F)c4ccc([nH]4)c(-c4c(F)cccc4F)c4nc(c(-c5c(F)cccc5F)c5ccc2[nH]5)C=C4)C=C3)cc1
REMARK SMILES IDX 7 1 6 2 5 3 4 4 3 5 2 6 1 7 32 8 33 9 85 10 34 11 84 12
REMARK SMILES IDX 35 13 36 14 37 15 78 16 38 17 83 18 77 19 79 20 39 21 82 22
REMARK SMILES IDX 76 23 75 24 40 26 66 27 49 28 65 29 50 30 53 31 64 32 80 33
REMARK SMILES IDX 51 34 52 35 63 37 81 38 54 39 41 40 42 41 47 42 43 43 44 44
REMARK SMILES IDX 46 45 48 46 45 47 67 48 68 49 73 50 69 51 70 52 72 53 74 54
REMARK SMILES IDX 71 55 55 56 56 57 61 58 57 59 58 60 60 61 62 62 59 63 8 64
REMARK SMILES IDX 9 65 10 66 11 67 12 68 13 69 31 70 14 71 16 72 15 73 17 74
REMARK SMILES IDX 18 75 30 76 19 77 21 78 20 79 22 80 23 81 24 82 25 83 29 84
REMARK SMILES IDX 26 85 28 86 27 87
REMARK H PARENT 79 25 53 36
REMARK Flexibility Score: inf
ROOT
ATOM      1  C   UNL A   1      34.365  30.377  27.181  1.00  0.00     0.202 C 
ENDROOT
BRANCH   1   2
ATOM      2  O   UNL A   1      32.983  30.512  27.537  1.00  0.00    -0.374 OA
BRANCH   2   3
ATOM      3  C   UNL A   1      32.181  31.242  26.607  1.00  0.00     0.202 C 
BRANCH   3   4
ATOM      4  C   UNL A   1      31.530  32.500  27.190  1.00  0.00     0.261 C 
BRANCH   4   5
ATOM      5  O   UNL A   1      32.459  33.598  27.183  1.00  0.00    -0.460 OA
BRANCH   5   6
ATOM      6  C   UNL A   1      33.068  34.206  28.227  1.00  0.00     0.338 C 
ATOM      7  O   UNL A   1      32.565  35.234  28.678  1.00  0.00    -0.246 OA
BRANCH   6   8
ATOM      8  C   UNL A   1      34.309  33.693  28.889  1.00  0.00     0.060 A 
ATOM      9  C   UNL A   1      35.602  34.156  28.647  1.00  0.00     0.016 A 
ATOM     10  C   UNL A   1      34.140  32.711  29.883  1.00  0.00     0.016 A 
ATOM     11  C   UNL A   1      36.701  33.612  29.291  1.00  0.00     0.010 A 
ATOM     12  C   UNL A   1      35.238  32.185  30.572  1.00  0.00     0.010 A 
ATOM     13  C   UNL A   1      36.528  32.614  30.248  1.00  0.00    -0.014 A 
BRANCH  13  14
ATOM     14  C   UNL A   1      37.742  31.963  30.766  1.00  0.00     0.031 A 
ATOM     15  C   UNL A   1      38.120  32.207  32.195  1.00  0.00     0.074 A 
ATOM     16  C   UNL A   1      38.366  31.036  30.018  1.00  0.00     0.049 A 
ATOM     17  N   UNL A   1      39.091  31.689  32.896  1.00  0.00    -0.248 NA
ATOM     18  C   UNL A   1      37.270  33.149  32.945  1.00  0.00     0.031 C 
ATOM     19  C   UNL A   1      37.979  30.652  28.658  1.00  0.00     0.029 A 
ATOM     20  N   UNL A   1      39.419  30.212  30.310  1.00  0.00    -0.354 N 
ATOM     21  C   UNL A   1      38.982  32.255  34.159  1.00  0.00     0.074 A 
ATOM     22  C   UNL A   1      37.858  33.161  34.130  1.00  0.00     0.031 C 
ATOM     23  C   UNL A   1      38.760  29.640  28.249  1.00  0.00     0.029 A 
ATOM     24  C   UNL A   1      39.735  29.344  29.294  1.00  0.00     0.049 A 
ATOM     25  H   UNL A   1      39.904  30.239  31.167  1.00  0.00     0.167 HD
ATOM     26  C   UNL A   1      39.762  32.036  35.242  1.00  0.00     0.037 A 
ATOM     27  C   UNL A   1      40.715  28.425  29.221  1.00  0.00     0.037 A 
ATOM     28  C   UNL A   1      40.876  31.128  35.242  1.00  0.00     0.049 A 
ATOM     29  C   UNL A   1      41.620  28.264  30.413  1.00  0.00     0.074 A 
ATOM     30  C   UNL A   1      41.784  30.869  36.249  1.00  0.00     0.029 A 
ATOM     31  N   UNL A   1      41.227  30.326  34.164  1.00  0.00    -0.354 N 
ATOM     32  N   UNL A   1      41.553  28.850  31.586  1.00  0.00    -0.248 NA
ATOM     33  C   UNL A   1      42.738  27.326  30.270  1.00  0.00     0.031 C 
ATOM     34  C   UNL A   1      42.713  29.939  35.766  1.00  0.00     0.029 A 
ATOM     35  C   UNL A   1      42.350  29.581  34.475  1.00  0.00     0.049 A 
ATOM     36  H   UNL A   1      40.748  30.292  33.304  1.00  0.00     0.167 HD
ATOM     37  C   UNL A   1      42.605  28.336  32.330  1.00  0.00     0.074 A 
ATOM     38  C   UNL A   1      43.283  27.377  31.479  1.00  0.00     0.031 C 
ATOM     39  C   UNL A   1      42.984  28.627  33.599  1.00  0.00     0.037 A 
BRANCH  26  40
ATOM     40  C   UNL A   1      39.468  32.854  36.465  1.00  0.00     0.057 A 
ATOM     41  C   UNL A   1      38.542  32.447  37.435  1.00  0.00     0.134 A 
ATOM     42  C   UNL A   1      40.087  34.098  36.643  1.00  0.00     0.134 A 
ATOM     43  F   UNL A   1      37.890  31.282  37.306  1.00  0.00    -0.206 F 
ATOM     44  C   UNL A   1      38.220  33.262  38.523  1.00  0.00     0.040 A 
ATOM     45  C   UNL A   1      39.789  34.911  37.738  1.00  0.00     0.040 A 
ATOM     46  F   UNL A   1      40.976  34.551  35.748  1.00  0.00    -0.206 F 
ATOM     47  C   UNL A   1      38.846  34.498  38.677  1.00  0.00     0.006 A 
ENDBRANCH  26  40
BRANCH  27  48
ATOM     48  C   UNL A   1      40.910  27.622  27.986  1.00  0.00     0.057 A 
ATOM     49  C   UNL A   1      41.727  28.070  26.942  1.00  0.00     0.134 A 
ATOM     50  C   UNL A   1      40.267  26.389  27.812  1.00  0.00     0.134 A 
ATOM     51  F   UNL A   1      42.357  29.250  27.036  1.00  0.00    -0.206 F 
ATOM     52  C   UNL A   1      41.883  27.333  25.765  1.00  0.00     0.040 A 
ATOM     53  C   UNL A   1      40.435  25.629  26.653  1.00  0.00     0.040 A 
ATOM     54  F   UNL A   1      39.469  25.899  28.772  1.00  0.00    -0.206 F 
ATOM     55  C   UNL A   1      41.239  26.105  25.621  1.00  0.00     0.006 A 
ENDBRANCH  27  48
BRANCH  39  56
ATOM     56  C   UNL A   1      44.155  27.867  34.144  1.00  0.00     0.057 A 
ATOM     57  C   UNL A   1      44.009  26.601  34.725  1.00  0.00     0.134 A 
ATOM     58  C   UNL A   1      45.447  28.396  34.048  1.00  0.00     0.134 A 
ATOM     59  F   UNL A   1      42.794  26.049  34.856  1.00  0.00    -0.206 F 
ATOM     60  C   UNL A   1      45.109  25.898  35.216  1.00  0.00     0.040 A 
ATOM     61  C   UNL A   1      46.557  27.690  34.511  1.00  0.00     0.040 A 
ATOM     62  F   UNL A   1      45.652  29.599  33.492  1.00  0.00    -0.206 F 
ATOM     63  C   UNL A   1      46.388  26.440  35.102  1.00  0.00     0.006 A 
ENDBRANCH  39  56
ENDBRANCH  13  14
ENDBRANCH   6   8
ENDBRANCH   5   6
ENDBRANCH   4   5
ENDBRANCH   3   4
ENDBRANCH   2   3
ENDBRANCH   1   2
BRANCH   1  64
ATOM     64  C   UNL A   1      34.764  28.899  27.180  1.00  0.00     0.261 C 
BRANCH  64  65
ATOM     65  O   UNL A   1      33.611  28.111  26.846  1.00  0.00    -0.460 OA
BRANCH  65  66
ATOM     66  C   UNL A   1      33.640  27.540  25.615  1.00  0.00     0.338 C 
ATOM     67  O   UNL A   1      34.105  28.006  24.590  1.00  0.00    -0.246 OA
BRANCH  66  68
ATOM     68  C   UNL A   1      33.244  26.127  25.776  1.00  0.00     0.063 A 
ATOM     69  C   UNL A   1      31.997  25.777  26.288  1.00  0.00     0.036 A 
ATOM     70  C   UNL A   1      34.207  25.150  25.524  1.00  0.00     0.046 A 
ATOM     71  C   UNL A   1      31.781  24.448  26.580  1.00  0.00     0.112 A 
ATOM     72  C   UNL A   1      33.911  23.844  25.875  1.00  0.00     0.090 A 
ATOM     73  N   UNL A   1      32.717  23.490  26.421  1.00  0.00    -0.255 NA
BRANCH  72  74
ATOM     74  C   UNL A   1      34.884  22.762  25.729  1.00  0.00     0.092 A 
ATOM     75  C   UNL A   1      34.555  21.563  25.126  1.00  0.00     0.051 A 
ATOM     76  N   UNL A   1      36.140  23.054  26.123  1.00  0.00    -0.228 NA
ATOM     77  C   UNL A   1      35.588  20.676  24.944  1.00  0.00     0.115 A 
ATOM     78  C   UNL A   1      37.100  22.163  25.818  1.00  0.00     0.166 A 
ATOM     79  N   UNL A   1      36.862  20.950  25.272  1.00  0.00    -0.238 NA
BRANCH  78  80
ATOM     80  C   UNL A   1      38.538  22.631  25.890  1.00  0.00     0.306 C 
BRANCH  80  81
ATOM     81  O   UNL A   1      39.498  21.573  26.089  1.00  0.00    -0.486 OA
BRANCH  81  82
ATOM     82  C   UNL A   1      40.719  21.965  26.569  1.00  0.00     0.119 A 
ATOM     83  C   UNL A   1      40.788  22.248  27.933  1.00  0.00     0.046 A 
ATOM     84  C   UNL A   1      41.834  22.208  25.766  1.00  0.00     0.046 A 
ATOM     85  C   UNL A   1      41.975  22.724  28.494  1.00  0.00     0.004 A 
ATOM     86  C   UNL A   1      43.023  22.679  26.327  1.00  0.00     0.004 A 
ATOM     87  C   UNL A   1      43.095  22.933  27.693  1.00  0.00     0.000 A 
ENDBRANCH  81  82
ENDBRANCH  80  81
ENDBRANCH  78  80
ENDBRANCH  72  74
ENDBRANCH  66  68
ENDBRANCH  65  66
ENDBRANCH  64  65
ENDBRANCH   1  64
TORSDOF 18
ENDMDL
MODEL 3
REMARK VINA RESULT:     -11.1      3.616      8.438
REMARK SMILES O=C(OCCOCCOC(=O)c1ccnc(-c2ccnc(COc3ccccc3)n2)c1)c1ccc(-c2c3nc(c(-c4c(F)cccc4F)c4ccc([nH]4)c(-c4c(F)cccc4F)c4nc(c(-c5c(F)cccc5F)c5ccc2[nH]5)C=C4)C=C3)cc1
REMARK SMILES IDX 7 1 6 2 5 3 4 4 3 5 2 6 1 7 32 8 33 9 85 10 34 11 84 12
REMARK SMILES IDX 35 13 36 14 37 15 78 16 38 17 83 18 77 19 79 20 39 21 82 22
REMARK SMILES IDX 76 23 75 24 40 26 66 27 49 28 65 29 50 30 53 31 64 32 80 33
REMARK SMILES IDX 51 34 52 35 63 37 81 38 54 39 41 40 42 41 47 42 43 43 44 44
REMARK SMILES IDX 46 45 48 46 45 47 67 48 68 49 73 50 69 51 70 52 72 53 74 54
REMARK SMILES IDX 71 55 55 56 56 57 61 58 57 59 58 60 60 61 62 62 59 63 8 64
REMARK SMILES IDX 9 65 10 66 11 67 12 68 13 69 31 70 14 71 16 72 15 73 17 74
REMARK SMILES IDX 18 75 30 76 19 77 21 78 20 79 22 80 23 81 24 82 25 83 29 84
REMARK SMILES IDX 26 85 28 86 27 87
REMARK H PARENT 79 25 53 36
REMARK Flexibility Score: inf
ROOT
ATOM      1  C   UNL A   1      31.689  29.121  26.549  1.00  0.00     0.202 C 
ENDROOT
BRANCH   1   2
ATOM      2  O   UNL A   1      32.487  30.308  26.651  1.00  0.00    -0.374 OA
BRANCH   2   3
ATOM      3  C   UNL A   1      31.766  31.508  26.937  1.00  0.00     0.202 C 
BRANCH   3   4
ATOM      4  C   UNL A   1      32.565  32.793  26.700  1.00  0.00     0.261 C 
BRANCH   4   5
ATOM      5  O   UNL A   1      32.197  33.801  27.656  1.00  0.00    -0.460 OA
BRANCH   5   6
ATOM      6  C   UNL A   1      32.986  34.508  28.498  1.00  0.00     0.338 C 
ATOM      7  O   UNL A   1      32.656  35.659  28.778  1.00  0.00    -0.246 OA
BRANCH   6   8
ATOM      8  C   UNL A   1      34.229  33.969  29.133  1.00  0.00     0.060 A 
ATOM      9  C   UNL A   1      35.526  34.411  28.871  1.00  0.00     0.016 A 
ATOM     10  C   UNL A   1      34.062  32.982  30.123  1.00  0.00     0.016 A 
ATOM     11  C   UNL A   1      36.627  33.843  29.491  1.00  0.00     0.010 A 
ATOM     12  C   UNL A   1      35.164  32.433  30.789  1.00  0.00     0.010 A 
ATOM     13  C   UNL A   1      36.454  32.842  30.443  1.00  0.00    -0.014 A 
BRANCH  13  14
ATOM     14  C   UNL A   1      37.666  32.166  30.934  1.00  0.00     0.031 A 
ATOM     15  C   UNL A   1      38.084  32.408  32.353  1.00  0.00     0.074 A 
ATOM     16  C   UNL A   1      38.251  31.223  30.176  1.00  0.00     0.049 A 
ATOM     17  N   UNL A   1      39.061  31.871  33.032  1.00  0.00    -0.248 NA
ATOM     18  C   UNL A   1      37.275  33.372  33.119  1.00  0.00     0.031 C 
ATOM     19  C   UNL A   1      37.821  30.841  28.828  1.00  0.00     0.029 A 
ATOM     20  N   UNL A   1      39.292  30.377  30.446  1.00  0.00    -0.354 N 
ATOM     21  C   UNL A   1      38.996  32.445  34.295  1.00  0.00     0.074 A 
ATOM     22  C   UNL A   1      37.892  33.376  34.289  1.00  0.00     0.031 C 
ATOM     23  C   UNL A   1      38.570  29.810  28.405  1.00  0.00     0.029 A 
ATOM     24  C   UNL A   1      39.563  29.498  29.426  1.00  0.00     0.049 A 
ATOM     25  H   UNL A   1      39.798  30.396  31.290  1.00  0.00     0.167 HD
ATOM     26  C   UNL A   1      39.797  32.213  35.360  1.00  0.00     0.037 A 
ATOM     27  C   UNL A   1      40.521  28.557  29.334  1.00  0.00     0.037 A 
ATOM     28  C   UNL A   1      40.890  31.281  35.336  1.00  0.00     0.049 A 
ATOM     29  C   UNL A   1      41.451  28.380  30.504  1.00  0.00     0.074 A 
ATOM     30  C   UNL A   1      41.817  31.006  36.322  1.00  0.00     0.029 A 
ATOM     31  N   UNL A   1      41.197  30.466  34.254  1.00  0.00    -0.354 N 
ATOM     32  N   UNL A   1      41.426  28.973  31.676  1.00  0.00    -0.248 NA
ATOM     33  C   UNL A   1      42.545  27.417  30.339  1.00  0.00     0.031 C 
ATOM     34  C   UNL A   1      42.713  30.054  35.820  1.00  0.00     0.029 A 
ATOM     35  C   UNL A   1      42.310  29.698  34.541  1.00  0.00     0.049 A 
ATOM     36  H   UNL A   1      40.696  30.440  33.406  1.00  0.00     0.167 HD
ATOM     37  C   UNL A   1      42.485  28.439  32.396  1.00  0.00     0.074 A 
ATOM     38  C   UNL A   1      43.120  27.461  31.533  1.00  0.00     0.031 C 
ATOM     39  C   UNL A   1      42.901  28.727  33.654  1.00  0.00     0.037 A 
BRANCH  26  40
ATOM     40  C   UNL A   1      39.551  33.043  36.585  1.00  0.00     0.057 A 
ATOM     41  C   UNL A   1      38.626  32.671  37.569  1.00  0.00     0.134 A 
ATOM     42  C   UNL A   1      40.218  34.263  36.753  1.00  0.00     0.134 A 
ATOM     43  F   UNL A   1      37.929  31.531  37.452  1.00  0.00    -0.206 F 
ATOM     44  C   UNL A   1      38.350  33.499  38.660  1.00  0.00     0.040 A 
ATOM     45  C   UNL A   1      39.967  35.088  37.851  1.00  0.00     0.040 A 
ATOM     46  F   UNL A   1      41.110  34.682  35.843  1.00  0.00    -0.206 F 
ATOM     47  C   UNL A   1      39.024  34.711  38.804  1.00  0.00     0.006 A 
ENDBRANCH  26  40
BRANCH  27  48
ATOM     48  C   UNL A   1      40.667  27.744  28.099  1.00  0.00     0.057 A 
ATOM     49  C   UNL A   1      40.059  26.490  27.971  1.00  0.00     0.134 A 
ATOM     50  C   UNL A   1      41.436  28.196  27.018  1.00  0.00     0.134 A 
ATOM     51  F   UNL A   1      39.325  25.990  28.975  1.00  0.00    -0.206 F 
ATOM     52  C   UNL A   1      40.224  25.709  26.825  1.00  0.00     0.040 A 
ATOM     53  C   UNL A   1      41.587  27.438  25.855  1.00  0.00     0.040 A 
ATOM     54  F   UNL A   1      42.047  29.389  27.072  1.00  0.00    -0.206 F 
ATOM     55  C   UNL A   1      40.986  26.185  25.759  1.00  0.00     0.006 A 
ENDBRANCH  27  48
BRANCH  39  56
ATOM     56  C   UNL A   1      44.068  27.943  34.173  1.00  0.00     0.057 A 
ATOM     57  C   UNL A   1      43.904  26.709  34.814  1.00  0.00     0.134 A 
ATOM     58  C   UNL A   1      45.373  28.416  33.993  1.00  0.00     0.134 A 
ATOM     59  F   UNL A   1      42.676  26.211  35.027  1.00  0.00    -0.206 F 
ATOM     60  C   UNL A   1      45.000  25.983  35.281  1.00  0.00     0.040 A 
ATOM     61  C   UNL A   1      46.477  27.686  34.431  1.00  0.00     0.040 A 
ATOM     62  F   UNL A   1      45.596  29.586  33.377  1.00  0.00    -0.206 F 
ATOM     63  C   UNL A   1      46.290  26.469  35.083  1.00  0.00     0.006 A 
ENDBRANCH  39  56
ENDBRANCH  13  14
ENDBRANCH   6   8
ENDBRANCH   5   6
ENDBRANCH   4   5
ENDBRANCH   3   4
ENDBRANCH   2   3
ENDBRANCH   1   2
BRANCH   1  64
ATOM     64  C   UNL A   1      31.259  28.902  25.097  1.00  0.00     0.261 C 
BRANCH  64  65
ATOM     65  O   UNL A   1      31.300  27.495  24.812  1.00  0.00    -0.460 OA
BRANCH  65  66
ATOM     66  C   UNL A   1      30.686  27.122  23.660  1.00  0.00     0.338 C 
ATOM     67  O   UNL A   1      29.618  27.514  23.225  1.00  0.00    -0.246 OA
BRANCH  66  68
ATOM     68  C   UNL A   1      31.664  26.345  22.873  1.00  0.00     0.063 A 
ATOM     69  C   UNL A   1      31.769  26.497  21.493  1.00  0.00     0.036 A 
ATOM     70  C   UNL A   1      32.392  25.356  23.535  1.00  0.00     0.046 A 
ATOM     71  C   UNL A   1      32.571  25.605  20.815  1.00  0.00     0.112 A 
ATOM     72  C   UNL A   1      33.149  24.487  22.768  1.00  0.00     0.090 A 
ATOM     73  N   UNL A   1      33.226  24.590  21.414  1.00  0.00    -0.255 NA
BRANCH  72  74
ATOM     74  C   UNL A   1      33.879  23.366  23.359  1.00  0.00     0.092 A 
ATOM     75  C   UNL A   1      35.253  23.391  23.509  1.00  0.00     0.051 A 
ATOM     76  N   UNL A   1      33.115  22.365  23.839  1.00  0.00    -0.228 NA
ATOM     77  C   UNL A   1      35.804  22.329  24.185  1.00  0.00     0.115 A 
ATOM     78  C   UNL A   1      33.734  21.418  24.567  1.00  0.00     0.166 A 
ATOM     79  N   UNL A   1      35.073  21.339  24.727  1.00  0.00    -0.238 NA
BRANCH  78  80
ATOM     80  C   UNL A   1      32.871  20.524  25.430  1.00  0.00     0.306 C 
BRANCH  80  81
ATOM     81  O   UNL A   1      32.162  19.499  24.703  1.00  0.00    -0.486 OA
BRANCH  81  82
ATOM     82  C   UNL A   1      32.739  18.257  24.717  1.00  0.00     0.119 A 
ATOM     83  C   UNL A   1      33.436  17.884  23.569  1.00  0.00     0.046 A 
ATOM     84  C   UNL A   1      32.564  17.325  25.741  1.00  0.00     0.046 A 
ATOM     85  C   UNL A   1      33.994  16.607  23.467  1.00  0.00     0.004 A 
ATOM     86  C   UNL A   1      33.126  16.050  25.643  1.00  0.00     0.004 A 
ATOM     87  C   UNL A   1      33.845  15.692  24.507  1.00  0.00     0.000 A 
ENDBRANCH  81  82
ENDBRANCH  80  81
ENDBRANCH  78  80
ENDBRANCH  72  74
ENDBRANCH  66  68
ENDBRANCH  65  66
ENDBRANCH  64  65
ENDBRANCH   1  64
TORSDOF 18
ENDMDL
