MODEL 1
REMARK VINA RESULT:     -11.0      0.000      0.000
REMARK SMILES O=C(Cc1ccc(F)cc1F)NC1(CC(=O)OCCOCCOC(=O)c2ccc(-c3c4nc(c(-c5c(F)cccc5F)c5ccc([nH]5)c(-c5c(F)cccc5F)c5nc(c(-c6c(F)cccc6F)c6ccc3[nH]6)C=C5)C=C4)cc2)CCCC1
REMARK SMILES IDX 19 1 18 2 17 3 15 4 16 5 14 6 13 7 80 8 83 9 81 10 82 11
REMARK SMILES IDX 12 12 1 13 2 14 3 16 4 17 5 18 10 19 6 20 9 21 11 22 7 23
REMARK SMILES IDX 8 24 20 25 21 26 22 27 23 28 24 29 25 30 26 31 27 32 79 33
REMARK SMILES IDX 28 34 78 35 29 36 30 37 31 38 72 39 32 40 77 41 71 42 73 43
REMARK SMILES IDX 33 44 76 45 70 46 69 47 34 49 60 50 43 51 59 52 44 53 47 54
REMARK SMILES IDX 58 55 74 56 45 57 46 58 57 60 75 61 48 62 35 63 36 64 41 65
REMARK SMILES IDX 37 66 38 67 40 68 42 69 39 70 61 71 62 72 67 73 63 74 64 75
REMARK SMILES IDX 66 76 68 77 65 78 49 79 50 80 55 81 51 82 52 83 54 84 56 85
REMARK SMILES IDX 53 86
REMARK H PARENT 12 15 73 48 47 59
REMARK Flexibility Score: inf
ROOT
ATOM      1  C   UNL A   1      33.474  30.750  27.346  1.00  0.00     0.202 C 
ENDROOT
BRANCH   1   2
ATOM      2  C   UNL A   1      34.073  29.345  27.378  1.00  0.00     0.261 C 
BRANCH   2   3
ATOM      3  O   UNL A   1      34.753  28.983  26.156  1.00  0.00    -0.463 OA
BRANCH   3   4
ATOM      4  C   UNL A   1      34.049  28.214  25.283  1.00  0.00     0.308 C 
ATOM      5  O   UNL A   1      33.494  28.658  24.283  1.00  0.00    -0.252 OA
BRANCH   4   6
ATOM      6  C   UNL A   1      33.816  26.797  25.772  1.00  0.00     0.151 C 
BRANCH   6   7
ATOM      7  C   UNL A   1      33.097  25.686  24.941  1.00  0.00     0.050 C 
ATOM      8  C   UNL A   1      32.767  24.531  25.929  1.00  0.00     0.029 C 
ATOM      9  C   UNL A   1      34.049  24.914  23.991  1.00  0.00     0.029 C 
ATOM     10  C   UNL A   1      34.076  23.769  26.135  1.00  0.00     0.003 C 
ATOM     11  C   UNL A   1      34.909  24.025  24.883  1.00  0.00     0.003 C 
BRANCH   7  12
ATOM     12  N   UNL A   1      31.827  26.037  24.225  1.00  0.00    -0.350 N 
ATOM     13  O   UNL A   1      30.690  27.138  25.869  1.00  0.00    -0.275 OA
ATOM     14  C   UNL A   1      30.714  26.673  24.733  1.00  0.00     0.224 C 
ATOM     15  H   UNL A   1      31.781  25.782  23.276  1.00  0.00     0.164 HD
BRANCH  14  16
ATOM     16  C   UNL A   1      29.462  26.741  23.848  1.00  0.00     0.138 C 
BRANCH  16  17
ATOM     17  C   UNL A   1      29.150  28.052  23.158  1.00  0.00    -0.003 A 
ATOM     18  C   UNL A   1      30.146  28.789  22.491  1.00  0.00     0.010 A 
ATOM     19  C   UNL A   1      27.847  28.564  23.160  1.00  0.00     0.129 A 
ATOM     20  C   UNL A   1      29.818  29.960  21.795  1.00  0.00     0.040 A 
ATOM     21  C   UNL A   1      27.519  29.745  22.500  1.00  0.00     0.078 A 
ATOM     22  F   UNL A   1      26.878  27.888  23.791  1.00  0.00    -0.207 F 
ATOM     23  C   UNL A   1      28.508  30.425  21.804  1.00  0.00     0.126 A 
ATOM     24  F   UNL A   1      28.190  31.533  21.122  1.00  0.00    -0.207 F 
ENDBRANCH  16  17
ENDBRANCH  14  16
ENDBRANCH   7  12
ENDBRANCH   6   7
ENDBRANCH   4   6
ENDBRANCH   3   4
ENDBRANCH   2   3
ENDBRANCH   1   2
BRANCH   1  25
ATOM     25  O   UNL A   1      32.142  30.884  26.873  1.00  0.00    -0.374 OA
BRANCH  25  26
ATOM     26  C   UNL A   1      31.538  32.168  26.811  1.00  0.00     0.202 C 
BRANCH  26  27
ATOM     27  C   UNL A   1      32.382  33.396  27.127  1.00  0.00     0.261 C 
BRANCH  27  28
ATOM     28  O   UNL A   1      32.350  33.921  28.433  1.00  0.00    -0.460 OA
BRANCH  28  29
ATOM     29  C   UNL A   1      33.250  34.866  28.746  1.00  0.00     0.338 C 
ATOM     30  O   UNL A   1      33.132  36.073  28.776  1.00  0.00    -0.246 OA
BRANCH  29  31
ATOM     31  C   UNL A   1      34.384  34.059  29.194  1.00  0.00     0.060 A 
ATOM     32  C   UNL A   1      35.654  34.424  28.758  1.00  0.00     0.016 A 
ATOM     33  C   UNL A   1      34.184  33.099  30.198  1.00  0.00     0.016 A 
ATOM     34  C   UNL A   1      36.755  33.807  29.333  1.00  0.00     0.010 A 
ATOM     35  C   UNL A   1      35.284  32.499  30.783  1.00  0.00     0.010 A 
ATOM     36  C   UNL A   1      36.568  32.846  30.338  1.00  0.00    -0.014 A 
BRANCH  36  37
ATOM     37  C   UNL A   1      37.735  32.121  30.861  1.00  0.00     0.031 A 
ATOM     38  C   UNL A   1      38.190  32.431  32.250  1.00  0.00     0.074 A 
ATOM     39  C   UNL A   1      38.327  31.187  30.099  1.00  0.00     0.049 A 
ATOM     40  N   UNL A   1      39.155  31.888  32.940  1.00  0.00    -0.248 NA
ATOM     41  C   UNL A   1      37.460  33.497  32.961  1.00  0.00     0.031 C 
ATOM     42  C   UNL A   1      37.923  30.833  28.737  1.00  0.00     0.029 A 
ATOM     43  N   UNL A   1      39.378  30.356  30.367  1.00  0.00    -0.354 N 
ATOM     44  C   UNL A   1      39.137  32.533  34.168  1.00  0.00     0.074 A 
ATOM     45  C   UNL A   1      38.104  33.542  34.116  1.00  0.00     0.031 C 
ATOM     46  C   UNL A   1      38.708  29.835  28.296  1.00  0.00     0.029 A 
ATOM     47  C   UNL A   1      39.681  29.505  29.334  1.00  0.00     0.049 A 
ATOM     48  H   UNL A   1      39.872  30.368  31.219  1.00  0.00     0.167 HD
ATOM     49  C   UNL A   1      39.908  32.280  35.247  1.00  0.00     0.037 A 
ATOM     50  C   UNL A   1      40.640  28.565  29.249  1.00  0.00     0.037 A 
ATOM     51  C   UNL A   1      40.933  31.273  35.263  1.00  0.00     0.049 A 
ATOM     52  C   UNL A   1      41.529  28.350  30.442  1.00  0.00     0.074 A 
ATOM     53  C   UNL A   1      41.780  30.920  36.295  1.00  0.00     0.029 A 
ATOM     54  N   UNL A   1      41.250  30.463  34.181  1.00  0.00    -0.354 N 
ATOM     55  N   UNL A   1      41.490  28.940  31.614  1.00  0.00    -0.248 NA
ATOM     56  C   UNL A   1      42.594  27.349  30.308  1.00  0.00     0.031 C 
ATOM     57  C   UNL A   1      42.641  29.926  35.822  1.00  0.00     0.029 A 
ATOM     58  C   UNL A   1      42.300  29.627  34.510  1.00  0.00     0.049 A 
ATOM     59  H   UNL A   1      40.794  30.481  33.308  1.00  0.00     0.167 HD
ATOM     60  C   UNL A   1      42.514  28.377  32.361  1.00  0.00     0.074 A 
ATOM     61  C   UNL A   1      43.147  27.385  31.514  1.00  0.00     0.031 C 
ATOM     62  C   UNL A   1      42.901  28.654  33.631  1.00  0.00     0.037 A 
BRANCH  49  63
ATOM     63  C   UNL A   1      39.676  33.110  36.473  1.00  0.00     0.057 A 
ATOM     64  C   UNL A   1      40.434  34.261  36.713  1.00  0.00     0.134 A 
ATOM     65  C   UNL A   1      38.708  32.763  37.426  1.00  0.00     0.134 A 
ATOM     66  F   UNL A   1      41.373  34.653  35.838  1.00  0.00    -0.206 F 
ATOM     67  C   UNL A   1      40.245  35.034  37.861  1.00  0.00     0.040 A 
ATOM     68  C   UNL A   1      38.493  33.541  38.565  1.00  0.00     0.040 A 
ATOM     69  F   UNL A   1      37.931  31.684  37.244  1.00  0.00    -0.206 F 
ATOM     70  C   UNL A   1      39.270  34.676  38.788  1.00  0.00     0.006 A 
ENDBRANCH  49  63
BRANCH  50  71
ATOM     71  C   UNL A   1      40.782  27.765  28.007  1.00  0.00     0.057 A 
ATOM     72  C   UNL A   1      40.160  26.518  27.867  1.00  0.00     0.134 A 
ATOM     73  C   UNL A   1      41.579  28.208  26.946  1.00  0.00     0.134 A 
ATOM     74  F   UNL A   1      39.387  26.032  28.850  1.00  0.00    -0.206 F 
ATOM     75  C   UNL A   1      40.345  25.730  26.730  1.00  0.00     0.040 A 
ATOM     76  C   UNL A   1      41.756  27.439  25.793  1.00  0.00     0.040 A 
ATOM     77  F   UNL A   1      42.191  29.400  27.012  1.00  0.00    -0.206 F 
ATOM     78  C   UNL A   1      41.144  26.192  25.686  1.00  0.00     0.006 A 
ENDBRANCH  50  71
BRANCH  62  79
ATOM     79  C   UNL A   1      44.060  27.879  34.179  1.00  0.00     0.057 A 
ATOM     80  C   UNL A   1      45.370  28.347  34.021  1.00  0.00     0.134 A 
ATOM     81  C   UNL A   1      43.882  26.620  34.765  1.00  0.00     0.134 A 
ATOM     82  F   UNL A   1      45.603  29.541  33.453  1.00  0.00    -0.206 F 
ATOM     83  C   UNL A   1      46.467  27.579  34.408  1.00  0.00     0.040 A 
ATOM     84  C   UNL A   1      44.970  25.854  35.178  1.00  0.00     0.040 A 
ATOM     85  F   UNL A   1      42.648  26.125  34.949  1.00  0.00    -0.206 F 
ATOM     86  C   UNL A   1      46.267  26.328  34.989  1.00  0.00     0.006 A 
ENDBRANCH  62  79
ENDBRANCH  36  37
ENDBRANCH  29  31
ENDBRANCH  28  29
ENDBRANCH  27  28
ENDBRANCH  26  27
ENDBRANCH  25  26
ENDBRANCH   1  25
TORSDOF 18
ENDMDL
MODEL 2
REMARK VINA RESULT:     -10.9      1.811      3.803
REMARK SMILES O=C(Cc1ccc(F)cc1F)NC1(CC(=O)OCCOCCOC(=O)c2ccc(-c3c4nc(c(-c5c(F)cccc5F)c5ccc([nH]5)c(-c5c(F)cccc5F)c5nc(c(-c6c(F)cccc6F)c6ccc3[nH]6)C=C5)C=C4)cc2)CCCC1
REMARK SMILES IDX 19 1 18 2 17 3 15 4 16 5 14 6 13 7 80 8 83 9 81 10 82 11
REMARK SMILES IDX 12 12 1 13 2 14 3 16 4 17 5 18 10 19 6 20 9 21 11 22 7 23
REMARK SMILES IDX 8 24 20 25 21 26 22 27 23 28 24 29 25 30 26 31 27 32 79 33
REMARK SMILES IDX 28 34 78 35 29 36 30 37 31 38 72 39 32 40 77 41 71 42 73 43
REMARK SMILES IDX 33 44 76 45 70 46 69 47 34 49 60 50 43 51 59 52 44 53 47 54
REMARK SMILES IDX 58 55 74 56 45 57 46 58 57 60 75 61 48 62 35 63 36 64 41 65
REMARK SMILES IDX 37 66 38 67 40 68 42 69 39 70 61 71 62 72 67 73 63 74 64 75
REMARK SMILES IDX 66 76 68 77 65 78 49 79 50 80 55 81 51 82 52 83 54 84 56 85
REMARK SMILES IDX 53 86
REMARK H PARENT 12 15 73 48 47 59
REMARK Flexibility Score: inf
ROOT
ATOM      1  C   UNL A   1      33.353  29.881  26.654  1.00  0.00     0.202 C 
ENDROOT
BRANCH   1   2
ATOM      2  C   UNL A   1      33.337  28.362  26.485  1.00  0.00     0.261 C 
BRANCH   2   3
ATOM      3  O   UNL A   1      32.183  27.731  27.082  1.00  0.00    -0.463 OA
BRANCH   3   4
ATOM      4  C   UNL A   1      31.447  26.931  26.265  1.00  0.00     0.308 C 
ATOM      5  O   UNL A   1      31.205  25.753  26.506  1.00  0.00    -0.252 OA
BRANCH   4   6
ATOM      6  C   UNL A   1      31.140  27.557  24.917  1.00  0.00     0.151 C 
BRANCH   6   7
ATOM      7  C   UNL A   1      30.591  26.770  23.685  1.00  0.00     0.050 C 
ATOM      8  C   UNL A   1      30.555  27.770  22.495  1.00  0.00     0.029 C 
ATOM      9  C   UNL A   1      29.074  26.463  23.777  1.00  0.00     0.029 C 
ATOM     10  C   UNL A   1      29.312  28.635  22.711  1.00  0.00     0.003 C 
ATOM     11  C   UNL A   1      28.358  27.791  23.549  1.00  0.00     0.003 C 
BRANCH   7  12
ATOM     12  N   UNL A   1      31.336  25.554  23.223  1.00  0.00    -0.350 N 
ATOM     13  O   UNL A   1      33.483  26.327  23.234  1.00  0.00    -0.275 OA
ATOM     14  C   UNL A   1      32.687  25.427  22.981  1.00  0.00     0.224 C 
ATOM     15  H   UNL A   1      30.794  24.746  23.074  1.00  0.00     0.164 HD
BRANCH  14  16
ATOM     16  C   UNL A   1      33.178  24.129  22.323  1.00  0.00     0.138 C 
BRANCH  16  17
ATOM     17  C   UNL A   1      34.043  23.199  23.147  1.00  0.00    -0.003 A 
ATOM     18  C   UNL A   1      35.444  23.333  23.182  1.00  0.00     0.010 A 
ATOM     19  C   UNL A   1      33.464  22.178  23.909  1.00  0.00     0.129 A 
ATOM     20  C   UNL A   1      36.216  22.509  24.012  1.00  0.00     0.040 A 
ATOM     21  C   UNL A   1      34.227  21.333  24.709  1.00  0.00     0.078 A 
ATOM     22  F   UNL A   1      32.133  22.021  23.892  1.00  0.00    -0.207 F 
ATOM     23  C   UNL A   1      35.601  21.519  24.769  1.00  0.00     0.126 A 
ATOM     24  F   UNL A   1      36.337  20.745  25.577  1.00  0.00    -0.207 F 
ENDBRANCH  16  17
ENDBRANCH  14  16
ENDBRANCH   7  12
ENDBRANCH   6   7
ENDBRANCH   4   6
ENDBRANCH   3   4
ENDBRANCH   2   3
ENDBRANCH   1   2
BRANCH   1  25
ATOM     25  O   UNL A   1      32.191  30.494  27.190  1.00  0.00    -0.374 OA
BRANCH  25  26
ATOM     26  C   UNL A   1      31.543  31.534  26.474  1.00  0.00     0.202 C 
BRANCH  26  27
ATOM     27  C   UNL A   1      31.791  32.980  26.887  1.00  0.00     0.261 C 
BRANCH  27  28
ATOM     28  O   UNL A   1      33.100  33.370  27.229  1.00  0.00    -0.460 OA
BRANCH  28  29
ATOM     29  C   UNL A   1      33.251  34.181  28.288  1.00  0.00     0.338 C 
ATOM     30  O   UNL A   1      32.554  35.096  28.672  1.00  0.00    -0.246 OA
BRANCH  29  31
ATOM     31  C   UNL A   1      34.402  33.579  28.959  1.00  0.00     0.060 A 
ATOM     32  C   UNL A   1      34.227  32.336  29.560  1.00  0.00     0.016 A 
ATOM     33  C   UNL A   1      35.668  34.160  28.796  1.00  0.00     0.016 A 
ATOM     34  C   UNL A   1      35.347  31.657  30.016  1.00  0.00     0.010 A 
ATOM     35  C   UNL A   1      36.785  33.473  29.234  1.00  0.00     0.010 A 
ATOM     36  C   UNL A   1      36.619  32.227  29.857  1.00  0.00    -0.014 A 
BRANCH  36  37
ATOM     37  C   UNL A   1      37.785  31.550  30.442  1.00  0.00     0.031 A 
ATOM     38  C   UNL A   1      38.129  31.849  31.865  1.00  0.00     0.074 A 
ATOM     39  C   UNL A   1      38.475  30.666  29.703  1.00  0.00     0.049 A 
ATOM     40  N   UNL A   1      39.073  31.340  32.608  1.00  0.00    -0.248 NA
ATOM     41  C   UNL A   1      37.298  32.859  32.547  1.00  0.00     0.031 C 
ATOM     42  C   UNL A   1      38.182  30.326  28.309  1.00  0.00     0.029 A 
ATOM     43  N   UNL A   1      39.549  29.884  30.025  1.00  0.00    -0.354 N 
ATOM     44  C   UNL A   1      38.940  31.952  33.844  1.00  0.00     0.074 A 
ATOM     45  C   UNL A   1      37.861  32.908  33.744  1.00  0.00     0.031 C 
ATOM     46  C   UNL A   1      39.046  29.380  27.902  1.00  0.00     0.029 A 
ATOM     47  C   UNL A   1      39.964  29.075  28.997  1.00  0.00     0.049 A 
ATOM     48  H   UNL A   1      39.983  29.901  30.908  1.00  0.00     0.167 HD
ATOM     49  C   UNL A   1      39.649  31.713  34.969  1.00  0.00     0.037 A 
ATOM     50  C   UNL A   1      40.975  28.188  28.958  1.00  0.00     0.037 A 
ATOM     51  C   UNL A   1      40.723  30.759  35.033  1.00  0.00     0.049 A 
ATOM     52  C   UNL A   1      41.792  27.989  30.204  1.00  0.00     0.074 A 
ATOM     53  C   UNL A   1      41.516  30.425  36.113  1.00  0.00     0.029 A 
ATOM     54  N   UNL A   1      41.153  29.993  33.958  1.00  0.00    -0.354 N 
ATOM     55  N   UNL A   1      41.644  28.548  31.382  1.00  0.00    -0.248 NA
ATOM     56  C   UNL A   1      42.915  27.047  30.121  1.00  0.00     0.031 C 
ATOM     57  C   UNL A   1      42.458  29.488  35.679  1.00  0.00     0.029 A 
ATOM     58  C   UNL A   1      42.222  29.205  34.340  1.00  0.00     0.049 A 
ATOM     59  H   UNL A   1      40.756  30.009  33.057  1.00  0.00     0.167 HD
ATOM     60  C   UNL A   1      42.644  28.020  32.185  1.00  0.00     0.074 A 
ATOM     61  C   UNL A   1      43.383  27.083  31.362  1.00  0.00     0.031 C 
ATOM     62  C   UNL A   1      42.930  28.285  33.484  1.00  0.00     0.037 A 
BRANCH  49  63
ATOM     63  C   UNL A   1      39.292  32.500  36.193  1.00  0.00     0.057 A 
ATOM     64  C   UNL A   1      38.354  32.011  37.109  1.00  0.00     0.134 A 
ATOM     65  C   UNL A   1      39.867  33.749  36.461  1.00  0.00     0.134 A 
ATOM     66  F   UNL A   1      37.770  30.819  36.916  1.00  0.00    -0.206 F 
ATOM     67  C   UNL A   1      37.993  32.741  38.244  1.00  0.00     0.040 A 
ATOM     68  C   UNL A   1      39.534  34.478  37.604  1.00  0.00     0.040 A 
ATOM     69  F   UNL A   1      40.791  34.263  35.635  1.00  0.00    -0.206 F 
ATOM     70  C   UNL A   1      38.587  33.976  38.495  1.00  0.00     0.006 A 
ENDBRANCH  49  63
BRANCH  50  71
ATOM     71  C   UNL A   1      41.241  27.427  27.711  1.00  0.00     0.057 A 
ATOM     72  C   UNL A   1      40.710  26.146  27.511  1.00  0.00     0.134 A 
ATOM     73  C   UNL A   1      42.070  27.943  26.709  1.00  0.00     0.134 A 
ATOM     74  F   UNL A   1      39.913  25.591  28.436  1.00  0.00    -0.206 F 
ATOM     75  C   UNL A   1      41.012  25.397  26.372  1.00  0.00     0.040 A 
ATOM     76  C   UNL A   1      42.364  27.213  25.555  1.00  0.00     0.040 A 
ATOM     77  F   UNL A   1      42.598  29.169  26.835  1.00  0.00    -0.206 F 
ATOM     78  C   UNL A   1      41.841  25.932  25.388  1.00  0.00     0.006 A 
ENDBRANCH  50  71
BRANCH  62  79
ATOM     79  C   UNL A   1      44.089  27.557  34.093  1.00  0.00     0.057 A 
ATOM     80  C   UNL A   1      45.383  28.087  34.019  1.00  0.00     0.134 A 
ATOM     81  C   UNL A   1      43.935  26.284  34.654  1.00  0.00     0.134 A 
ATOM     82  F   UNL A   1      45.593  29.298  33.479  1.00  0.00    -0.206 F 
ATOM     83  C   UNL A   1      46.489  27.366  34.465  1.00  0.00     0.040 A 
ATOM     84  C   UNL A   1      45.031  25.563  35.125  1.00  0.00     0.040 A 
ATOM     85  F   UNL A   1      42.718  25.730  34.758  1.00  0.00    -0.206 F 
ATOM     86  C   UNL A   1      46.314  26.099  35.019  1.00  0.00     0.006 A 
ENDBRANCH  62  79
ENDBRANCH  36  37
ENDBRANCH  29  31
ENDBRANCH  28  29
ENDBRANCH  27  28
ENDBRANCH  26  27
ENDBRANCH  25  26
ENDBRANCH   1  25
TORSDOF 18
ENDMDL
MODEL 3
REMARK VINA RESULT:     -10.8      1.919      3.687
REMARK SMILES O=C(Cc1ccc(F)cc1F)NC1(CC(=O)OCCOCCOC(=O)c2ccc(-c3c4nc(c(-c5c(F)cccc5F)c5ccc([nH]5)c(-c5c(F)cccc5F)c5nc(c(-c6c(F)cccc6F)c6ccc3[nH]6)C=C5)C=C4)cc2)CCCC1
REMARK SMILES IDX 19 1 18 2 17 3 15 4 16 5 14 6 13 7 80 8 83 9 81 10 82 11
REMARK SMILES IDX 12 12 1 13 2 14 3 16 4 17 5 18 10 19 6 20 9 21 11 22 7 23
REMARK SMILES IDX 8 24 20 25 21 26 22 27 23 28 24 29 25 30 26 31 27 32 79 33
REMARK SMILES IDX 28 34 78 35 29 36 30 37 31 38 72 39 32 40 77 41 71 42 73 43
REMARK SMILES IDX 33 44 76 45 70 46 69 47 34 49 60 50 43 51 59 52 44 53 47 54
REMARK SMILES IDX 58 55 74 56 45 57 46 58 57 60 75 61 48 62 35 63 36 64 41 65
REMARK SMILES IDX 37 66 38 67 40 68 42 69 39 70 61 71 62 72 67 73 63 74 64 75
REMARK SMILES IDX 66 76 68 77 65 78 49 79 50 80 55 81 51 82 52 83 54 84 56 85
REMARK SMILES IDX 53 86
REMARK H PARENT 12 15 73 48 47 59
REMARK Flexibility Score: inf
ROOT
ATOM      1  C   UNL A   1      33.375  30.453  26.782  1.00  0.00     0.202 C 
ENDROOT
BRANCH   1   2
ATOM      2  C   UNL A   1      33.835  28.995  26.804  1.00  0.00     0.261 C 
BRANCH   2   3
ATOM      3  O   UNL A   1      33.679  28.325  25.534  1.00  0.00    -0.463 OA
BRANCH   3   4
ATOM      4  C   UNL A   1      33.068  27.111  25.567  1.00  0.00     0.308 C 
ATOM      5  O   UNL A   1      33.676  26.046  25.605  1.00  0.00    -0.252 OA
BRANCH   4   6
ATOM      6  C   UNL A   1      31.572  27.177  25.324  1.00  0.00     0.151 C 
BRANCH   6   7
ATOM      7  C   UNL A   1      30.794  26.222  24.363  1.00  0.00     0.050 C 
ATOM      8  C   UNL A   1      31.362  26.463  22.935  1.00  0.00     0.029 C 
ATOM      9  C   UNL A   1      29.330  26.664  24.108  1.00  0.00     0.029 C 
ATOM     10  C   UNL A   1      30.721  27.761  22.442  1.00  0.00     0.003 C 
ATOM     11  C   UNL A   1      29.409  27.894  23.208  1.00  0.00     0.003 C 
BRANCH   7  12
ATOM     12  N   UNL A   1      30.849  24.746  24.621  1.00  0.00    -0.350 N 
ATOM     13  O   UNL A   1      30.448  24.681  26.866  1.00  0.00    -0.275 OA
ATOM     14  C   UNL A   1      30.731  24.091  25.828  1.00  0.00     0.224 C 
ATOM     15  H   UNL A   1      30.987  24.174  23.832  1.00  0.00     0.164 HD
BRANCH  14  16
ATOM     16  C   UNL A   1      31.021  22.583  25.855  1.00  0.00     0.138 C 
BRANCH  16  17
ATOM     17  C   UNL A   1      32.468  22.138  25.832  1.00  0.00    -0.003 A 
ATOM     18  C   UNL A   1      33.074  21.661  24.654  1.00  0.00     0.010 A 
ATOM     19  C   UNL A   1      33.249  22.198  26.992  1.00  0.00     0.129 A 
ATOM     20  C   UNL A   1      34.435  21.328  24.640  1.00  0.00     0.040 A 
ATOM     21  C   UNL A   1      34.593  21.835  26.995  1.00  0.00     0.078 A 
ATOM     22  F   UNL A   1      32.699  22.641  28.131  1.00  0.00    -0.207 F 
ATOM     23  C   UNL A   1      35.181  21.420  25.809  1.00  0.00     0.126 A 
ATOM     24  F   UNL A   1      36.486  21.120  25.790  1.00  0.00    -0.207 F 
ENDBRANCH  16  17
ENDBRANCH  14  16
ENDBRANCH   7  12
ENDBRANCH   6   7
ENDBRANCH   4   6
ENDBRANCH   3   4
ENDBRANCH   2   3
ENDBRANCH   1   2
BRANCH   1  25
ATOM     25  O   UNL A   1      32.002  30.711  27.028  1.00  0.00    -0.374 OA
BRANCH  25  26
ATOM     26  C   UNL A   1      31.400  31.891  26.518  1.00  0.00     0.202 C 
BRANCH  26  27
ATOM     27  C   UNL A   1      32.035  33.239  26.835  1.00  0.00     0.261 C 
BRANCH  27  28
ATOM     28  O   UNL A   1      32.274  33.574  28.182  1.00  0.00    -0.460 OA
BRANCH  28  29
ATOM     29  C   UNL A   1      33.159  34.552  28.432  1.00  0.00     0.338 C 
ATOM     30  O   UNL A   1      33.014  35.755  28.412  1.00  0.00    -0.246 OA
BRANCH  29  31
ATOM     31  C   UNL A   1      34.320  33.790  28.889  1.00  0.00     0.060 A 
ATOM     32  C   UNL A   1      35.581  34.343  28.685  1.00  0.00     0.016 A 
ATOM     33  C   UNL A   1      34.120  32.657  29.692  1.00  0.00     0.016 A 
ATOM     34  C   UNL A   1      36.673  33.742  29.292  1.00  0.00     0.010 A 
ATOM     35  C   UNL A   1      35.209  32.071  30.311  1.00  0.00     0.010 A 
ATOM     36  C   UNL A   1      36.487  32.609  30.098  1.00  0.00    -0.014 A 
BRANCH  36  37
ATOM     37  C   UNL A   1      37.663  31.918  30.645  1.00  0.00     0.031 A 
ATOM     38  C   UNL A   1      38.086  32.248  32.040  1.00  0.00     0.074 A 
ATOM     39  C   UNL A   1      38.291  30.995  29.900  1.00  0.00     0.049 A 
ATOM     40  N   UNL A   1      39.053  31.735  32.749  1.00  0.00    -0.248 NA
ATOM     41  C   UNL A   1      37.317  33.300  32.731  1.00  0.00     0.031 C 
ATOM     42  C   UNL A   1      37.920  30.621  28.533  1.00  0.00     0.029 A 
ATOM     43  N   UNL A   1      39.359  30.193  30.191  1.00  0.00    -0.354 N 
ATOM     44  C   UNL A   1      38.998  32.387  33.972  1.00  0.00     0.074 A 
ATOM     45  C   UNL A   1      37.941  33.369  33.896  1.00  0.00     0.031 C 
ATOM     46  C   UNL A   1      38.738  29.641  28.113  1.00  0.00     0.029 A 
ATOM     47  C   UNL A   1      39.701  29.343  29.169  1.00  0.00     0.049 A 
ATOM     48  H   UNL A   1      39.838  30.224  31.051  1.00  0.00     0.167 HD
ATOM     49  C   UNL A   1      39.757  32.162  35.066  1.00  0.00     0.037 A 
ATOM     50  C   UNL A   1      40.686  28.428  29.107  1.00  0.00     0.037 A 
ATOM     51  C   UNL A   1      40.807  31.181  35.106  1.00  0.00     0.049 A 
ATOM     52  C   UNL A   1      41.560  28.243  30.316  1.00  0.00     0.074 A 
ATOM     53  C   UNL A   1      41.645  30.858  36.155  1.00  0.00     0.029 A 
ATOM     54  N   UNL A   1      41.163  30.373  34.035  1.00  0.00    -0.354 N 
ATOM     55  N   UNL A   1      41.486  28.840  31.483  1.00  0.00    -0.248 NA
ATOM     56  C   UNL A   1      42.652  27.270  30.206  1.00  0.00     0.031 C 
ATOM     57  C   UNL A   1      42.540  29.883  35.703  1.00  0.00     0.029 A 
ATOM     58  C   UNL A   1      42.229  29.567  34.387  1.00  0.00     0.049 A 
ATOM     59  H   UNL A   1      40.721  30.373  33.155  1.00  0.00     0.167 HD
ATOM     60  C   UNL A   1      42.511  28.309  32.251  1.00  0.00     0.074 A 
ATOM     61  C   UNL A   1      43.183  27.328  31.421  1.00  0.00     0.031 C 
ATOM     62  C   UNL A   1      42.869  28.604  33.525  1.00  0.00     0.037 A 
BRANCH  49  63
ATOM     63  C   UNL A   1      39.482  32.993  36.282  1.00  0.00     0.057 A 
ATOM     64  C   UNL A   1      40.143  34.210  36.481  1.00  0.00     0.134 A 
ATOM     65  C   UNL A   1      38.572  32.583  37.266  1.00  0.00     0.134 A 
ATOM     66  F   UNL A   1      41.022  34.665  35.575  1.00  0.00    -0.206 F 
ATOM     67  C   UNL A   1      39.915  34.987  37.619  1.00  0.00     0.040 A 
ATOM     68  C   UNL A   1      38.317  33.362  38.396  1.00  0.00     0.040 A 
ATOM     69  F   UNL A   1      37.888  31.437  37.124  1.00  0.00    -0.206 F 
ATOM     70  C   UNL A   1      38.997  34.565  38.577  1.00  0.00     0.006 A 
ENDBRANCH  49  63
BRANCH  50  71
ATOM     71  C   UNL A   1      40.869  27.624  27.872  1.00  0.00     0.057 A 
ATOM     72  C   UNL A   1      40.268  26.367  27.724  1.00  0.00     0.134 A 
ATOM     73  C   UNL A   1      41.685  28.073  26.829  1.00  0.00     0.134 A 
ATOM     74  F   UNL A   1      39.479  25.875  28.691  1.00  0.00    -0.206 F 
ATOM     75  C   UNL A   1      40.492  25.576  26.596  1.00  0.00     0.040 A 
ATOM     76  C   UNL A   1      41.901  27.301  25.685  1.00  0.00     0.040 A 
ATOM     77  F   UNL A   1      42.278  29.274  26.903  1.00  0.00    -0.206 F 
ATOM     78  C   UNL A   1      41.310  26.044  25.570  1.00  0.00     0.006 A 
ENDBRANCH  50  71
BRANCH  62  79
ATOM     79  C   UNL A   1      44.038  27.862  34.098  1.00  0.00     0.057 A 
ATOM     80  C   UNL A   1      43.851  26.653  34.777  1.00  0.00     0.134 A 
ATOM     81  C   UNL A   1      45.329  28.403  34.067  1.00  0.00     0.134 A 
ATOM     82  F   UNL A   1      42.634  26.094  34.851  1.00  0.00    -0.206 F 
ATOM     83  C   UNL A   1      44.907  26.014  35.426  1.00  0.00     0.040 A 
ATOM     84  C   UNL A   1      46.397  27.762  34.693  1.00  0.00     0.040 A 
ATOM     85  F   UNL A   1      45.568  29.556  33.424  1.00  0.00    -0.206 F 
ATOM     86  C   UNL A   1      46.185  26.571  35.385  1.00  0.00     0.006 A 
ENDBRANCH  62  79
ENDBRANCH  36  37
ENDBRANCH  29  31
ENDBRANCH  28  29
ENDBRANCH  27  28
ENDBRANCH  26  27
ENDBRANCH  25  26
ENDBRANCH   1  25
TORSDOF 18
ENDMDL
