MODEL 1
REMARK VINA RESULT:     -10.7      0.000      0.000
REMARK SMILES N#C[C@H]1CN(c2cc(C(=O)OCCOCCOC(=O)c3ccc(-c4c5nc(c(-c6c(F)cccc6F)c6ccc([nH]6)c(-c6c(F)cccc6F)c6nc(c(-c7c(F)cccc7F)c7ccc4[nH]7)C=C6)C=C5)cc3)c(N)cc2F)CCO1
REMARK SMILES IDX 14 1 13 2 12 3 11 4 9 5 10 6 8 7 6 8 7 9 77 10 76 11 78 12
REMARK SMILES IDX 74 13 5 14 3 15 4 16 81 17 80 18 79 19 2 20 1 21 75 22 15 25
REMARK SMILES IDX 16 26 17 27 18 28 19 29 20 30 21 31 73 32 22 33 72 34 23 35
REMARK SMILES IDX 24 36 25 37 66 38 26 39 71 40 65 41 67 42 27 43 70 44 64 45
REMARK SMILES IDX 63 46 28 48 54 49 37 50 53 51 38 52 41 53 52 54 68 55 39 56
REMARK SMILES IDX 40 57 51 59 69 60 42 61 29 62 30 63 35 64 31 65 32 66 34 67
REMARK SMILES IDX 36 68 33 69 55 70 56 71 61 72 57 73 58 74 60 75 62 76 59 77
REMARK SMILES IDX 43 78 44 79 49 80 45 81 46 82 48 83 50 84 47 85
REMARK H PARENT 75 23 75 24 67 47 41 58
REMARK Flexibility Score: inf
ROOT
ATOM      1  O   UNL A   1      44.487  20.540  24.000  1.00  0.00    -0.374 OA
ENDROOT
BRANCH   1   2
ATOM      2  C   UNL A   1      44.402  19.928  25.282  1.00  0.00     0.202 C 
BRANCH   2   3
ATOM      3  C   UNL A   1      43.037  19.446  25.779  1.00  0.00     0.261 C 
BRANCH   3   4
ATOM      4  O   UNL A   1      42.046  20.481  25.715  1.00  0.00    -0.460 OA
BRANCH   4   5
ATOM      5  C   UNL A   1      40.768  20.038  25.829  1.00  0.00     0.340 C 
ATOM      6  O   UNL A   1      40.414  18.871  25.895  1.00  0.00    -0.246 OA
BRANCH   5   7
ATOM      7  C   UNL A   1      39.827  21.165  26.057  1.00  0.00     0.085 A 
ATOM      8  C   UNL A   1      37.684  22.112  25.367  1.00  0.00     0.074 A 
ATOM      9  C   UNL A   1      38.609  21.073  25.349  1.00  0.00     0.047 A 
ATOM     10  C   UNL A   1      38.010  23.248  26.118  1.00  0.00     0.148 A 
ATOM     11  C   UNL A   1      39.180  23.324  26.875  1.00  0.00     0.067 A 
ATOM     12  F   UNL A   1      37.176  24.300  26.122  1.00  0.00    -0.205 F 
ATOM     13  C   UNL A   1      40.088  22.261  26.899  1.00  0.00     0.049 A 
BRANCH   8  14
ATOM     14  N   UNL A   1      36.539  22.048  24.614  1.00  0.00    -0.363 N 
ATOM     15  C   UNL A   1      34.106  21.782  24.815  1.00  0.00     0.240 C 
ATOM     16  C   UNL A   1      35.478  21.060  24.826  1.00  0.00     0.164 C 
ATOM     17  O   UNL A   1      33.951  22.587  23.618  1.00  0.00    -0.360 OA
ATOM     18  C   UNL A   1      34.986  23.583  23.534  1.00  0.00     0.183 C 
ATOM     19  C   UNL A   1      36.377  22.941  23.466  1.00  0.00     0.145 C 
BRANCH  15  20
ATOM     20  C   UNL A   1      33.016  20.796  24.904  1.00  0.00     0.096 C 
ATOM     21  N   UNL A   1      32.160  20.007  24.948  1.00  0.00    -0.195 NA
ENDBRANCH  15  20
ENDBRANCH   8  14
BRANCH  13  22
ATOM     22  N   UNL A   1      41.267  22.412  27.624  1.00  0.00    -0.398 N 
ATOM     23  H   UNL A   1      41.426  21.859  28.422  1.00  0.00     0.156 HD
ATOM     24  H   UNL A   1      41.939  23.071  27.340  1.00  0.00     0.156 HD
ENDBRANCH  13  22
ENDBRANCH   5   7
ENDBRANCH   4   5
ENDBRANCH   3   4
ENDBRANCH   2   3
ENDBRANCH   1   2
BRANCH   1  25
ATOM     25  C   UNL A   1      44.783  21.933  23.925  1.00  0.00     0.202 C 
BRANCH  25  26
ATOM     26  C   UNL A   1      44.740  22.779  25.206  1.00  0.00     0.261 C 
BRANCH  26  27
ATOM     27  O   UNL A   1      43.834  23.892  25.139  1.00  0.00    -0.460 OA
BRANCH  27  28
ATOM     28  C   UNL A   1      44.420  25.103  25.320  1.00  0.00     0.338 C 
ATOM     29  O   UNL A   1      45.300  25.612  24.648  1.00  0.00    -0.246 OA
BRANCH  28  30
ATOM     30  C   UNL A   1      43.700  25.839  26.373  1.00  0.00     0.060 A 
ATOM     31  C   UNL A   1      44.134  27.132  26.694  1.00  0.00     0.016 A 
ATOM     32  C   UNL A   1      42.654  25.242  27.076  1.00  0.00     0.016 A 
ATOM     33  C   UNL A   1      43.532  27.831  27.736  1.00  0.00     0.010 A 
ATOM     34  C   UNL A   1      42.058  25.941  28.127  1.00  0.00     0.010 A 
ATOM     35  C   UNL A   1      42.507  27.228  28.476  1.00  0.00    -0.014 A 
BRANCH  35  36
ATOM     36  C   UNL A   1      41.954  27.901  29.675  1.00  0.00     0.031 A 
ATOM     37  C   UNL A   1      40.715  28.739  29.549  1.00  0.00     0.074 A 
ATOM     38  C   UNL A   1      42.568  27.776  30.864  1.00  0.00     0.049 A 
ATOM     39  N   UNL A   1      40.118  29.481  30.446  1.00  0.00    -0.248 NA
ATOM     40  C   UNL A   1      40.070  28.748  28.228  1.00  0.00     0.031 C 
ATOM     41  C   UNL A   1      43.748  26.955  31.123  1.00  0.00     0.029 A 
ATOM     42  N   UNL A   1      42.284  28.355  32.075  1.00  0.00    -0.354 N 
ATOM     43  C   UNL A   1      39.032  30.054  29.798  1.00  0.00     0.074 A 
ATOM     44  C   UNL A   1      39.081  29.608  28.421  1.00  0.00     0.031 C 
ATOM     45  C   UNL A   1      44.090  27.080  32.416  1.00  0.00     0.029 A 
ATOM     46  C   UNL A   1      43.182  28.027  33.060  1.00  0.00     0.049 A 
ATOM     47  H   UNL A   1      41.513  28.947  32.223  1.00  0.00     0.167 HD
ATOM     48  C   UNL A   1      38.079  30.873  30.306  1.00  0.00     0.037 A 
ATOM     49  C   UNL A   1      43.274  28.462  34.331  1.00  0.00     0.037 A 
ATOM     50  C   UNL A   1      38.053  31.328  31.673  1.00  0.00     0.049 A 
ATOM     51  C   UNL A   1      42.272  29.460  34.844  1.00  0.00     0.074 A 
ATOM     52  C   UNL A   1      37.124  32.146  32.294  1.00  0.00     0.029 A 
ATOM     53  N   UNL A   1      39.013  31.022  32.628  1.00  0.00    -0.354 N 
ATOM     54  N   UNL A   1      41.232  29.977  34.236  1.00  0.00    -0.248 NA
ATOM     55  C   UNL A   1      42.462  29.938  36.221  1.00  0.00     0.031 C 
ATOM     56  C   UNL A   1      37.563  32.395  33.599  1.00  0.00     0.029 A 
ATOM     57  C   UNL A   1      38.723  31.670  33.819  1.00  0.00     0.049 A 
ATOM     58  H   UNL A   1      39.786  30.431  32.482  1.00  0.00     0.167 HD
ATOM     59  C   UNL A   1      40.623  30.814  35.165  1.00  0.00     0.074 A 
ATOM     60  C   UNL A   1      41.408  30.727  36.380  1.00  0.00     0.031 C 
ATOM     61  C   UNL A   1      39.513  31.580  35.024  1.00  0.00     0.037 A 
BRANCH  48  62
ATOM     62  C   UNL A   1      37.019  31.363  29.357  1.00  0.00     0.057 A 
ATOM     63  C   UNL A   1      37.035  32.659  28.823  1.00  0.00     0.134 A 
ATOM     64  C   UNL A   1      35.958  30.529  28.982  1.00  0.00     0.134 A 
ATOM     65  F   UNL A   1      38.017  33.516  29.143  1.00  0.00    -0.206 F 
ATOM     66  C   UNL A   1      36.007  33.125  28.000  1.00  0.00     0.040 A 
ATOM     67  C   UNL A   1      34.945  30.970  28.128  1.00  0.00     0.040 A 
ATOM     68  F   UNL A   1      35.883  29.271  29.441  1.00  0.00    -0.206 F 
ATOM     69  C   UNL A   1      34.959  32.278  27.648  1.00  0.00     0.006 A 
ENDBRANCH  48  62
BRANCH  49  70
ATOM     70  C   UNL A   1      44.349  27.941  35.212  1.00  0.00     0.057 A 
ATOM     71  C   UNL A   1      44.134  26.813  36.013  1.00  0.00     0.134 A 
ATOM     72  C   UNL A   1      45.614  28.542  35.268  1.00  0.00     0.134 A 
ATOM     73  F   UNL A   1      42.939  26.208  36.017  1.00  0.00    -0.206 F 
ATOM     74  C   UNL A   1      45.134  26.308  36.845  1.00  0.00     0.040 A 
ATOM     75  C   UNL A   1      46.631  28.029  36.074  1.00  0.00     0.040 A 
ATOM     76  F   UNL A   1      45.885  29.623  34.521  1.00  0.00    -0.206 F 
ATOM     77  C   UNL A   1      46.389  26.911  36.870  1.00  0.00     0.006 A 
ENDBRANCH  49  70
BRANCH  61  78
ATOM     78  C   UNL A   1      39.054  32.363  36.223  1.00  0.00     0.057 A 
ATOM     79  C   UNL A   1      39.458  33.685  36.451  1.00  0.00     0.134 A 
ATOM     80  C   UNL A   1      38.155  31.800  37.140  1.00  0.00     0.134 A 
ATOM     81  F   UNL A   1      40.327  34.283  35.621  1.00  0.00    -0.206 F 
ATOM     82  C   UNL A   1      39.004  34.409  37.556  1.00  0.00     0.040 A 
ATOM     83  C   UNL A   1      37.669  32.524  38.230  1.00  0.00     0.040 A 
ATOM     84  F   UNL A   1      37.719  30.541  36.981  1.00  0.00    -0.206 F 
ATOM     85  C   UNL A   1      38.098  33.831  38.444  1.00  0.00     0.006 A 
ENDBRANCH  61  78
ENDBRANCH  35  36
ENDBRANCH  28  30
ENDBRANCH  27  28
ENDBRANCH  26  27
ENDBRANCH  25  26
ENDBRANCH   1  25
TORSDOF 17
ENDMDL
MODEL 2
REMARK VINA RESULT:     -10.7      2.367      7.018
REMARK SMILES N#C[C@H]1CN(c2cc(C(=O)OCCOCCOC(=O)c3ccc(-c4c5nc(c(-c6c(F)cccc6F)c6ccc([nH]6)c(-c6c(F)cccc6F)c6nc(c(-c7c(F)cccc7F)c7ccc4[nH]7)C=C6)C=C5)cc3)c(N)cc2F)CCO1
REMARK SMILES IDX 14 1 13 2 12 3 11 4 9 5 10 6 8 7 6 8 7 9 77 10 76 11 78 12
REMARK SMILES IDX 74 13 5 14 3 15 4 16 81 17 80 18 79 19 2 20 1 21 75 22 15 25
REMARK SMILES IDX 16 26 17 27 18 28 19 29 20 30 21 31 73 32 22 33 72 34 23 35
REMARK SMILES IDX 24 36 25 37 66 38 26 39 71 40 65 41 67 42 27 43 70 44 64 45
REMARK SMILES IDX 63 46 28 48 54 49 37 50 53 51 38 52 41 53 52 54 68 55 39 56
REMARK SMILES IDX 40 57 51 59 69 60 42 61 29 62 30 63 35 64 31 65 32 66 34 67
REMARK SMILES IDX 36 68 33 69 55 70 56 71 61 72 57 73 58 74 60 75 62 76 59 77
REMARK SMILES IDX 43 78 44 79 49 80 45 81 46 82 48 83 50 84 47 85
REMARK H PARENT 75 23 75 24 67 47 41 58
REMARK Flexibility Score: inf
ROOT
ATOM      1  O   UNL A   1      40.389  21.283  27.010  1.00  0.00    -0.374 OA
ENDROOT
BRANCH   1   2
ATOM      2  C   UNL A   1      39.287  21.579  26.159  1.00  0.00     0.202 C 
BRANCH   2   3
ATOM      3  C   UNL A   1      38.757  23.014  26.112  1.00  0.00     0.261 C 
BRANCH   3   4
ATOM      4  O   UNL A   1      37.345  23.073  26.366  1.00  0.00    -0.460 OA
BRANCH   4   5
ATOM      5  C   UNL A   1      36.594  23.370  25.274  1.00  0.00     0.340 C 
ATOM      6  O   UNL A   1      36.959  23.307  24.110  1.00  0.00    -0.246 OA
BRANCH   5   7
ATOM      7  C   UNL A   1      35.178  23.614  25.647  1.00  0.00     0.085 A 
ATOM      8  C   UNL A   1      33.395  25.283  25.626  1.00  0.00     0.074 A 
ATOM      9  C   UNL A   1      34.664  24.865  25.241  1.00  0.00     0.047 A 
ATOM     10  C   UNL A   1      32.648  24.411  26.429  1.00  0.00     0.148 A 
ATOM     11  C   UNL A   1      33.117  23.146  26.782  1.00  0.00     0.067 A 
ATOM     12  F   UNL A   1      31.439  24.792  26.872  1.00  0.00    -0.205 F 
ATOM     13  C   UNL A   1      34.373  22.703  26.355  1.00  0.00     0.049 A 
BRANCH   8  14
ATOM     14  N   UNL A   1      32.933  26.532  25.293  1.00  0.00    -0.363 N 
ATOM     15  C   UNL A   1      31.004  27.676  24.293  1.00  0.00     0.240 C 
ATOM     16  C   UNL A   1      32.286  26.849  24.018  1.00  0.00     0.164 C 
ATOM     17  O   UNL A   1      31.298  28.829  25.123  1.00  0.00    -0.360 OA
ATOM     18  C   UNL A   1      31.852  28.421  26.387  1.00  0.00     0.183 C 
ATOM     19  C   UNL A   1      33.168  27.656  26.200  1.00  0.00     0.145 C 
BRANCH  15  20
ATOM     20  C   UNL A   1      30.402  28.111  23.021  1.00  0.00     0.096 C 
ATOM     21  N   UNL A   1      29.949  28.471  22.011  1.00  0.00    -0.195 NA
ENDBRANCH  15  20
ENDBRANCH   8  14
BRANCH  13  22
ATOM     22  N   UNL A   1      34.817  21.455  26.783  1.00  0.00    -0.398 N 
ATOM     23  H   UNL A   1      35.757  21.196  26.652  1.00  0.00     0.156 HD
ATOM     24  H   UNL A   1      34.191  20.831  27.216  1.00  0.00     0.156 HD
ENDBRANCH  13  22
ENDBRANCH   5   7
ENDBRANCH   4   5
ENDBRANCH   3   4
ENDBRANCH   2   3
ENDBRANCH   1   2
BRANCH   1  25
ATOM     25  C   UNL A   1      41.489  20.550  26.475  1.00  0.00     0.202 C 
BRANCH  25  26
ATOM     26  C   UNL A   1      42.662  21.313  25.843  1.00  0.00     0.261 C 
BRANCH  26  27
ATOM     27  O   UNL A   1      42.296  22.581  25.278  1.00  0.00    -0.460 OA
BRANCH  27  28
ATOM     28  C   UNL A   1      43.222  23.559  25.447  1.00  0.00     0.338 C 
ATOM     29  O   UNL A   1      44.269  23.704  24.841  1.00  0.00    -0.246 OA
BRANCH  28  30
ATOM     30  C   UNL A   1      42.694  24.576  26.372  1.00  0.00     0.060 A 
ATOM     31  C   UNL A   1      43.243  25.863  26.327  1.00  0.00     0.016 A 
ATOM     32  C   UNL A   1      41.716  24.249  27.312  1.00  0.00     0.016 A 
ATOM     33  C   UNL A   1      42.829  26.831  27.238  1.00  0.00     0.010 A 
ATOM     34  C   UNL A   1      41.309  25.218  28.231  1.00  0.00     0.010 A 
ATOM     35  C   UNL A   1      41.877  26.505  28.212  1.00  0.00    -0.014 A 
BRANCH  35  36
ATOM     36  C   UNL A   1      41.530  27.478  29.274  1.00  0.00     0.031 A 
ATOM     37  C   UNL A   1      42.309  27.484  30.557  1.00  0.00     0.074 A 
ATOM     38  C   UNL A   1      40.512  28.338  29.097  1.00  0.00     0.049 A 
ATOM     39  N   UNL A   1      42.116  28.187  31.643  1.00  0.00    -0.248 NA
ATOM     40  C   UNL A   1      43.453  26.564  30.624  1.00  0.00     0.031 C 
ATOM     41  C   UNL A   1      39.713  28.462  27.881  1.00  0.00     0.029 A 
ATOM     42  N   UNL A   1      39.973  29.265  29.953  1.00  0.00    -0.354 N 
ATOM     43  C   UNL A   1      43.109  27.788  32.530  1.00  0.00     0.074 A 
ATOM     44  C   UNL A   1      43.871  26.751  31.867  1.00  0.00     0.031 C 
ATOM     45  C   UNL A   1      38.782  29.412  28.067  1.00  0.00     0.029 A 
ATOM     46  C   UNL A   1      38.891  29.927  29.429  1.00  0.00     0.049 A 
ATOM     47  H   UNL A   1      40.327  29.438  30.854  1.00  0.00     0.167 HD
ATOM     48  C   UNL A   1      43.363  28.249  33.779  1.00  0.00     0.037 A 
ATOM     49  C   UNL A   1      38.068  30.830  29.996  1.00  0.00     0.037 A 
ATOM     50  C   UNL A   1      42.583  29.268  34.436  1.00  0.00     0.049 A 
ATOM     51  C   UNL A   1      38.298  31.245  31.423  1.00  0.00     0.074 A 
ATOM     52  C   UNL A   1      42.766  29.819  35.693  1.00  0.00     0.029 A 
ATOM     53  N   UNL A   1      41.458  29.875  33.895  1.00  0.00    -0.354 N 
ATOM     54  N   UNL A   1      39.253  30.887  32.247  1.00  0.00    -0.248 NA
ATOM     55  C   UNL A   1      37.331  32.189  32.001  1.00  0.00     0.031 C 
ATOM     56  C   UNL A   1      41.708  30.700  35.942  1.00  0.00     0.029 A 
ATOM     57  C   UNL A   1      40.909  30.761  34.811  1.00  0.00     0.049 A 
ATOM     58  H   UNL A   1      41.101  29.703  32.995  1.00  0.00     0.167 HD
ATOM     59  C   UNL A   1      39.023  31.586  33.427  1.00  0.00     0.074 A 
ATOM     60  C   UNL A   1      37.842  32.396  33.206  1.00  0.00     0.031 C 
ATOM     61  C   UNL A   1      39.730  31.561  34.584  1.00  0.00     0.037 A 
BRANCH  48  62
ATOM     62  C   UNL A   1      44.504  27.614  34.525  1.00  0.00     0.057 A 
ATOM     63  C   UNL A   1      45.810  28.119  34.465  1.00  0.00     0.134 A 
ATOM     64  C   UNL A   1      44.296  26.468  35.304  1.00  0.00     0.134 A 
ATOM     65  F   UNL A   1      46.085  29.210  33.734  1.00  0.00    -0.206 F 
ATOM     66  C   UNL A   1      46.874  27.479  35.105  1.00  0.00     0.040 A 
ATOM     67  C   UNL A   1      45.345  25.841  35.980  1.00  0.00     0.040 A 
ATOM     68  F   UNL A   1      43.072  25.934  35.419  1.00  0.00    -0.206 F 
ATOM     69  C   UNL A   1      46.641  26.337  35.867  1.00  0.00     0.006 A 
ENDBRANCH  48  62
BRANCH  49  70
ATOM     70  C   UNL A   1      36.957  31.413  29.203  1.00  0.00     0.057 A 
ATOM     71  C   UNL A   1      35.809  30.662  28.922  1.00  0.00     0.134 A 
ATOM     72  C   UNL A   1      37.003  32.726  28.719  1.00  0.00     0.134 A 
ATOM     73  F   UNL A   1      35.715  29.392  29.342  1.00  0.00    -0.206 F 
ATOM     74  C   UNL A   1      34.752  31.192  28.181  1.00  0.00     0.040 A 
ATOM     75  C   UNL A   1      35.942  33.278  28.001  1.00  0.00     0.040 A 
ATOM     76  F   UNL A   1      38.073  33.499  28.958  1.00  0.00    -0.206 F 
ATOM     77  C   UNL A   1      34.813  32.508  27.726  1.00  0.00     0.006 A 
ENDBRANCH  49  70
BRANCH  61  78
ATOM     78  C   UNL A   1      39.269  32.462  35.697  1.00  0.00     0.057 A 
ATOM     79  C   UNL A   1      38.408  32.017  36.709  1.00  0.00     0.134 A 
ATOM     80  C   UNL A   1      39.731  33.782  35.782  1.00  0.00     0.134 A 
ATOM     81  F   UNL A   1      37.916  30.769  36.683  1.00  0.00    -0.206 F 
ATOM     82  C   UNL A   1      38.008  32.857  37.751  1.00  0.00     0.040 A 
ATOM     83  C   UNL A   1      39.365  34.621  36.836  1.00  0.00     0.040 A 
ATOM     84  F   UNL A   1      40.565  34.274  34.853  1.00  0.00    -0.206 F 
ATOM     85  C   UNL A   1      38.495  34.161  37.821  1.00  0.00     0.006 A 
ENDBRANCH  61  78
ENDBRANCH  35  36
ENDBRANCH  28  30
ENDBRANCH  27  28
ENDBRANCH  26  27
ENDBRANCH  25  26
ENDBRANCH   1  25
TORSDOF 17
ENDMDL
MODEL 3
REMARK VINA RESULT:     -10.5      4.779     10.268
REMARK SMILES N#C[C@H]1CN(c2cc(C(=O)OCCOCCOC(=O)c3ccc(-c4c5nc(c(-c6c(F)cccc6F)c6ccc([nH]6)c(-c6c(F)cccc6F)c6nc(c(-c7c(F)cccc7F)c7ccc4[nH]7)C=C6)C=C5)cc3)c(N)cc2F)CCO1
REMARK SMILES IDX 14 1 13 2 12 3 11 4 9 5 10 6 8 7 6 8 7 9 77 10 76 11 78 12
REMARK SMILES IDX 74 13 5 14 3 15 4 16 81 17 80 18 79 19 2 20 1 21 75 22 15 25
REMARK SMILES IDX 16 26 17 27 18 28 19 29 20 30 21 31 73 32 22 33 72 34 23 35
REMARK SMILES IDX 24 36 25 37 66 38 26 39 71 40 65 41 67 42 27 43 70 44 64 45
REMARK SMILES IDX 63 46 28 48 54 49 37 50 53 51 38 52 41 53 52 54 68 55 39 56
REMARK SMILES IDX 40 57 51 59 69 60 42 61 29 62 30 63 35 64 31 65 32 66 34 67
REMARK SMILES IDX 36 68 33 69 55 70 56 71 61 72 57 73 58 74 60 75 62 76 59 77
REMARK SMILES IDX 43 78 44 79 49 80 45 81 46 82 48 83 50 84 47 85
REMARK H PARENT 75 23 75 24 67 47 41 58
REMARK Flexibility Score: inf
ROOT
ATOM      1  O   UNL A   1      33.582  33.097  28.210  1.00  0.00    -0.374 OA
ENDROOT
BRANCH   1   2
ATOM      2  C   UNL A   1      34.065  31.877  27.658  1.00  0.00     0.202 C 
BRANCH   2   3
ATOM      3  C   UNL A   1      33.063  30.768  27.330  1.00  0.00     0.261 C 
BRANCH   3   4
ATOM      4  O   UNL A   1      33.410  30.071  26.125  1.00  0.00    -0.460 OA
BRANCH   4   5
ATOM      5  C   UNL A   1      34.115  28.928  26.325  1.00  0.00     0.340 C 
ATOM      6  O   UNL A   1      34.780  28.656  27.312  1.00  0.00    -0.246 OA
BRANCH   5   7
ATOM      7  C   UNL A   1      33.836  27.932  25.259  1.00  0.00     0.085 A 
ATOM      8  C   UNL A   1      33.718  25.539  24.782  1.00  0.00     0.074 A 
ATOM      9  C   UNL A   1      33.840  26.587  25.689  1.00  0.00     0.047 A 
ATOM     10  C   UNL A   1      33.587  25.875  23.428  1.00  0.00     0.148 A 
ATOM     11  C   UNL A   1      33.516  27.200  22.998  1.00  0.00     0.067 A 
ATOM     12  F   UNL A   1      33.522  24.899  22.508  1.00  0.00    -0.205 F 
ATOM     13  C   UNL A   1      33.589  28.255  23.913  1.00  0.00     0.049 A 
BRANCH   8  14
ATOM     14  N   UNL A   1      33.801  24.234  25.198  1.00  0.00    -0.363 N 
ATOM     15  C   UNL A   1      35.425  22.532  25.906  1.00  0.00     0.240 C 
ATOM     16  C   UNL A   1      34.800  23.283  24.702  1.00  0.00     0.164 C 
ATOM     17  O   UNL A   1      34.394  21.945  26.742  1.00  0.00    -0.360 OA
ATOM     18  C   UNL A   1      33.510  22.959  27.252  1.00  0.00     0.183 C 
ATOM     19  C   UNL A   1      32.795  23.700  26.116  1.00  0.00     0.145 C 
BRANCH  15  20
ATOM     20  C   UNL A   1      36.342  21.486  25.427  1.00  0.00     0.096 C 
ATOM     21  N   UNL A   1      37.084  20.662  25.070  1.00  0.00    -0.195 NA
ENDBRANCH  15  20
ENDBRANCH   8  14
BRANCH  13  22
ATOM     22  N   UNL A   1      33.570  29.559  23.425  1.00  0.00    -0.398 N 
ATOM     23  H   UNL A   1      34.416  30.036  23.267  1.00  0.00     0.156 HD
ATOM     24  H   UNL A   1      32.712  30.003  23.238  1.00  0.00     0.156 HD
ENDBRANCH  13  22
ENDBRANCH   5   7
ENDBRANCH   4   5
ENDBRANCH   3   4
ENDBRANCH   2   3
ENDBRANCH   1   2
BRANCH   1  25
ATOM     25  C   UNL A   1      34.443  33.850  29.063  1.00  0.00     0.202 C 
BRANCH  25  26
ATOM     26  C   UNL A   1      34.300  33.711  30.585  1.00  0.00     0.261 C 
BRANCH  26  27
ATOM     27  O   UNL A   1      34.507  32.375  31.070  1.00  0.00    -0.460 OA
BRANCH  27  28
ATOM     28  C   UNL A   1      35.490  32.262  32.000  1.00  0.00     0.338 C 
ATOM     29  O   UNL A   1      35.427  32.537  33.185  1.00  0.00    -0.246 OA
BRANCH  28  30
ATOM     30  C   UNL A   1      36.642  31.561  31.408  1.00  0.00     0.060 A 
ATOM     31  C   UNL A   1      37.568  30.962  32.271  1.00  0.00     0.016 A 
ATOM     32  C   UNL A   1      36.839  31.547  30.027  1.00  0.00     0.016 A 
ATOM     33  C   UNL A   1      38.712  30.359  31.756  1.00  0.00     0.010 A 
ATOM     34  C   UNL A   1      37.992  30.950  29.514  1.00  0.00     0.010 A 
ATOM     35  C   UNL A   1      38.943  30.372  30.374  1.00  0.00    -0.014 A 
BRANCH  35  36
ATOM     36  C   UNL A   1      40.220  29.861  29.824  1.00  0.00     0.031 A 
ATOM     37  C   UNL A   1      41.398  30.783  29.707  1.00  0.00     0.074 A 
ATOM     38  C   UNL A   1      40.317  28.584  29.415  1.00  0.00     0.049 A 
ATOM     39  N   UNL A   1      42.574  30.566  29.176  1.00  0.00    -0.248 NA
ATOM     40  C   UNL A   1      41.220  32.135  30.255  1.00  0.00     0.031 C 
ATOM     41  C   UNL A   1      39.261  27.581  29.520  1.00  0.00     0.029 A 
ATOM     42  N   UNL A   1      41.358  27.920  28.817  1.00  0.00    -0.354 N 
ATOM     43  C   UNL A   1      43.275  31.757  29.315  1.00  0.00     0.074 A 
ATOM     44  C   UNL A   1      42.375  32.703  29.941  1.00  0.00     0.031 C 
ATOM     45  C   UNL A   1      39.706  26.424  29.004  1.00  0.00     0.029 A 
ATOM     46  C   UNL A   1      41.060  26.621  28.490  1.00  0.00     0.049 A 
ATOM     47  H   UNL A   1      42.232  28.334  28.641  1.00  0.00     0.167 HD
ATOM     48  C   UNL A   1      44.553  32.034  28.959  1.00  0.00     0.037 A 
ATOM     49  C   UNL A   1      41.790  25.703  27.829  1.00  0.00     0.037 A 
ATOM     50  C   UNL A   1      45.433  31.091  28.317  1.00  0.00     0.049 A 
ATOM     51  C   UNL A   1      43.165  26.065  27.340  1.00  0.00     0.074 A 
ATOM     52  C   UNL A   1      46.751  31.264  27.930  1.00  0.00     0.029 A 
ATOM     53  N   UNL A   1      45.076  29.801  27.948  1.00  0.00    -0.354 N 
ATOM     54  N   UNL A   1      43.833  27.182  27.499  1.00  0.00    -0.248 NA
ATOM     55  C   UNL A   1      43.887  25.038  26.575  1.00  0.00     0.031 C 
ATOM     56  C   UNL A   1      47.165  30.107  27.259  1.00  0.00     0.029 A 
ATOM     57  C   UNL A   1      46.134  29.183  27.297  1.00  0.00     0.049 A 
ATOM     58  H   UNL A   1      44.202  29.385  28.123  1.00  0.00     0.167 HD
ATOM     59  C   UNL A   1      45.065  26.982  26.885  1.00  0.00     0.074 A 
ATOM     60  C   UNL A   1      45.052  25.632  26.359  1.00  0.00     0.031 C 
ATOM     61  C   UNL A   1      46.111  27.839  26.773  1.00  0.00     0.037 A 
BRANCH  48  62
ATOM     62  C   UNL A   1      45.049  33.431  29.216  1.00  0.00     0.057 A 
ATOM     63  C   UNL A   1      44.875  34.469  28.290  1.00  0.00     0.134 A 
ATOM     64  C   UNL A   1      45.725  33.740  30.404  1.00  0.00     0.134 A 
ATOM     65  F   UNL A   1      44.242  34.245  27.127  1.00  0.00    -0.206 F 
ATOM     66  C   UNL A   1      45.402  35.743  28.509  1.00  0.00     0.040 A 
ATOM     67  C   UNL A   1      46.223  35.021  30.652  1.00  0.00     0.040 A 
ATOM     68  F   UNL A   1      45.918  32.803  31.343  1.00  0.00    -0.206 F 
ATOM     69  C   UNL A   1      46.077  36.022  29.695  1.00  0.00     0.006 A 
ENDBRANCH  48  62
BRANCH  49  70
ATOM     70  C   UNL A   1      41.236  24.344  27.604  1.00  0.00     0.057 A 
ATOM     71  C   UNL A   1      41.702  23.250  28.343  1.00  0.00     0.134 A 
ATOM     72  C   UNL A   1      40.226  24.104  26.663  1.00  0.00     0.134 A 
ATOM     73  F   UNL A   1      42.680  23.414  29.244  1.00  0.00    -0.206 F 
ATOM     74  C   UNL A   1      41.192  21.966  28.148  1.00  0.00     0.040 A 
ATOM     75  C   UNL A   1      39.688  22.830  26.478  1.00  0.00     0.040 A 
ATOM     76  F   UNL A   1      39.734  25.111  25.925  1.00  0.00    -0.206 F 
ATOM     77  C   UNL A   1      40.175  21.755  27.219  1.00  0.00     0.006 A 
ENDBRANCH  49  70
BRANCH  61  78
ATOM     78  C   UNL A   1      47.349  27.333  26.084  1.00  0.00     0.057 A 
ATOM     79  C   UNL A   1      48.367  26.664  26.775  1.00  0.00     0.134 A 
ATOM     80  C   UNL A   1      47.502  27.479  24.698  1.00  0.00     0.134 A 
ATOM     81  F   UNL A   1      48.293  26.501  28.105  1.00  0.00    -0.206 F 
ATOM     82  C   UNL A   1      49.500  26.177  26.118  1.00  0.00     0.040 A 
ATOM     83  C   UNL A   1      48.614  26.968  24.025  1.00  0.00     0.040 A 
ATOM     84  F   UNL A   1      46.563  28.102  23.970  1.00  0.00    -0.206 F 
ATOM     85  C   UNL A   1      49.620  26.320  24.737  1.00  0.00     0.006 A 
ENDBRANCH  61  78
ENDBRANCH  35  36
ENDBRANCH  28  30
ENDBRANCH  27  28
ENDBRANCH  26  27
ENDBRANCH  25  26
ENDBRANCH   1  25
TORSDOF 17
ENDMDL
