MODEL 1
REMARK VINA RESULT:     -10.5      0.000      0.000
REMARK SMILES CCn1cccc1C(=O)N(C)c1snc(C)c1C(=O)OCCOCCOC(=O)c1ccc(-c2c3nc(c(-c4c(F)cccc4F)c4ccc([nH]4)c(-c4c(F)cccc4F)c4nc(c(-c5c(F)cccc5F)c5ccc2[nH]5)C=C4)C=C3)cc1
REMARK SMILES IDX 22 1 21 2 20 3 18 4 19 5 17 6 12 7 13 8 14 9 15 10 16 11
REMARK SMILES IDX 10 12 11 13 8 14 9 15 7 16 3 17 4 18 5 19 6 20 2 21 1 22
REMARK SMILES IDX 23 23 24 24 25 25 26 26 27 27 28 28 29 29 30 30 82 31 31 32
REMARK SMILES IDX 81 33 32 34 33 35 34 36 75 37 35 38 80 39 74 40 76 41 36 42
REMARK SMILES IDX 79 43 73 44 72 45 37 47 63 48 46 49 62 50 47 51 50 52 61 53
REMARK SMILES IDX 77 54 48 55 49 56 60 58 78 59 51 60 38 61 39 62 44 63 40 64
REMARK SMILES IDX 41 65 43 66 45 67 42 68 64 69 65 70 70 71 66 72 67 73 69 74
REMARK SMILES IDX 71 75 68 76 52 77 53 78 58 79 54 80 55 81 57 82 59 83 56 84
REMARK H PARENT 76 46 50 57
REMARK Flexibility Score: inf
ROOT
ATOM      1  C   UNL A   1      37.549  22.814  25.391  1.00  0.00     0.202 C 
ENDROOT
BRANCH   1   2
ATOM      2  C   UNL A   1      36.039  22.976  25.565  1.00  0.00     0.261 C 
BRANCH   2   3
ATOM      3  O   UNL A   1      35.652  24.354  25.452  1.00  0.00    -0.460 OA
BRANCH   3   4
ATOM      4  C   UNL A   1      34.651  24.608  24.561  1.00  0.00     0.343 C 
ATOM      5  O   UNL A   1      34.600  24.154  23.415  1.00  0.00    -0.246 OA
BRANCH   4   6
ATOM      6  C   UNL A   1      33.510  25.255  25.188  1.00  0.00     0.117 A 
ATOM      7  C   UNL A   1      32.540  24.673  26.008  1.00  0.00     0.133 A 
ATOM      8  S   UNL A   1      31.378  25.896  26.357  1.00  0.00    -0.017 S 
ATOM      9  N   UNL A   1      32.099  27.119  25.537  1.00  0.00    -0.195 NA
ATOM     10  C   UNL A   1      33.207  26.661  24.962  1.00  0.00     0.068 A 
ATOM     11  C   UNL A   1      33.965  27.622  24.098  1.00  0.00     0.069 C 
BRANCH   7  12
ATOM     12  N   UNL A   1      32.326  23.378  26.568  1.00  0.00    -0.300 N 
ATOM     13  C   UNL A   1      33.215  22.824  27.579  1.00  0.00     0.154 C 
BRANCH  12  14
ATOM     14  C   UNL A   1      31.457  22.515  25.879  1.00  0.00     0.275 C 
ATOM     15  O   UNL A   1      30.289  22.420  26.276  1.00  0.00    -0.267 OA
BRANCH  14  16
ATOM     16  C   UNL A   1      31.849  21.736  24.683  1.00  0.00     0.107 A 
ATOM     17  N   UNL A   1      32.333  20.454  24.430  1.00  0.00    -0.344 N 
ATOM     18  C   UNL A   1      32.579  20.312  23.073  1.00  0.00     0.086 A 
ATOM     19  C   UNL A   1      32.130  21.423  22.417  1.00  0.00     0.020 A 
ATOM     20  C   UNL A   1      31.665  22.297  23.410  1.00  0.00     0.033 A 
BRANCH  17  21
ATOM     21  C   UNL A   1      32.600  19.329  25.311  1.00  0.00     0.119 C 
ATOM     22  C   UNL A   1      33.317  18.165  24.656  1.00  0.00     0.027 C 
ENDBRANCH  17  21
ENDBRANCH  14  16
ENDBRANCH  12  14
ENDBRANCH   7  12
ENDBRANCH   4   6
ENDBRANCH   3   4
ENDBRANCH   2   3
ENDBRANCH   1   2
BRANCH   1  23
ATOM     23  O   UNL A   1      38.060  21.496  25.176  1.00  0.00    -0.374 OA
BRANCH  23  24
ATOM     24  C   UNL A   1      39.231  21.065  25.857  1.00  0.00     0.202 C 
BRANCH  24  25
ATOM     25  C   UNL A   1      39.762  19.647  25.673  1.00  0.00     0.261 C 
BRANCH  25  26
ATOM     26  O   UNL A   1      40.634  19.201  26.697  1.00  0.00    -0.460 OA
BRANCH  26  27
ATOM     27  C   UNL A   1      41.887  19.072  26.211  1.00  0.00     0.338 C 
ATOM     28  O   UNL A   1      42.429  18.067  25.775  1.00  0.00    -0.246 OA
BRANCH  27  29
ATOM     29  C   UNL A   1      42.649  20.279  26.457  1.00  0.00     0.060 A 
ATOM     30  C   UNL A   1      42.475  20.859  27.716  1.00  0.00     0.016 A 
ATOM     31  C   UNL A   1      43.124  20.981  25.342  1.00  0.00     0.016 A 
ATOM     32  C   UNL A   1      42.638  22.216  27.830  1.00  0.00     0.010 A 
ATOM     33  C   UNL A   1      43.255  22.344  25.448  1.00  0.00     0.010 A 
ATOM     34  C   UNL A   1      42.981  22.945  26.686  1.00  0.00    -0.014 A 
BRANCH  34  35
ATOM     35  C   UNL A   1      43.286  24.360  26.865  1.00  0.00     0.031 A 
ATOM     36  C   UNL A   1      41.967  25.152  26.955  1.00  0.00     0.074 A 
ATOM     37  C   UNL A   1      44.619  24.669  26.904  1.00  0.00     0.049 A 
ATOM     38  N   UNL A   1      41.753  26.422  26.842  1.00  0.00    -0.248 NA
ATOM     39  C   UNL A   1      40.676  24.424  27.176  1.00  0.00     0.031 C 
ATOM     40  C   UNL A   1      45.729  23.688  26.804  1.00  0.00     0.029 A 
ATOM     41  N   UNL A   1      45.320  25.848  27.027  1.00  0.00    -0.354 N 
ATOM     42  C   UNL A   1      40.421  26.660  27.246  1.00  0.00     0.074 A 
ATOM     43  C   UNL A   1      39.773  25.393  27.311  1.00  0.00     0.031 C 
ATOM     44  C   UNL A   1      46.929  24.311  26.780  1.00  0.00     0.029 A 
ATOM     45  C   UNL A   1      46.736  25.742  26.903  1.00  0.00     0.049 A 
ATOM     46  H   UNL A   1      44.872  26.709  27.190  1.00  0.00     0.167 HD
ATOM     47  C   UNL A   1      39.997  27.883  27.673  1.00  0.00     0.037 A 
ATOM     48  C   UNL A   1      47.668  26.749  26.879  1.00  0.00     0.037 A 
ATOM     49  C   UNL A   1      41.037  28.835  27.491  1.00  0.00     0.049 A 
ATOM     50  C   UNL A   1      46.920  27.940  27.293  1.00  0.00     0.074 A 
ATOM     51  C   UNL A   1      41.592  29.358  26.352  1.00  0.00     0.029 A 
ATOM     52  N   UNL A   1      41.899  29.014  28.546  1.00  0.00    -0.354 N 
ATOM     53  N   UNL A   1      46.520  28.158  28.509  1.00  0.00    -0.248 NA
ATOM     54  C   UNL A   1      46.501  28.908  26.276  1.00  0.00     0.031 C 
ATOM     55  C   UNL A   1      42.966  29.380  26.656  1.00  0.00     0.029 A 
ATOM     56  C   UNL A   1      43.159  29.142  28.022  1.00  0.00     0.049 A 
ATOM     57  H   UNL A   1      41.657  29.044  29.499  1.00  0.00     0.167 HD
ATOM     58  C   UNL A   1      45.513  29.070  28.316  1.00  0.00     0.074 A 
ATOM     59  C   UNL A   1      45.784  29.720  27.050  1.00  0.00     0.031 C 
ATOM     60  C   UNL A   1      44.292  28.834  28.862  1.00  0.00     0.037 A 
BRANCH  47  61
ATOM     61  C   UNL A   1      38.822  28.297  28.504  1.00  0.00     0.057 A 
ATOM     62  C   UNL A   1      38.064  29.403  28.058  1.00  0.00     0.134 A 
ATOM     63  C   UNL A   1      38.658  27.943  29.848  1.00  0.00     0.134 A 
ATOM     64  F   UNL A   1      38.100  29.793  26.774  1.00  0.00    -0.206 F 
ATOM     65  C   UNL A   1      37.328  30.207  28.929  1.00  0.00     0.040 A 
ATOM     66  C   UNL A   1      37.880  28.713  30.721  1.00  0.00     0.040 A 
ATOM     67  F   UNL A   1      39.317  26.908  30.388  1.00  0.00    -0.206 F 
ATOM     68  C   UNL A   1      37.255  29.875  30.274  1.00  0.00     0.006 A 
ENDBRANCH  47  61
BRANCH  48  69
ATOM     69  C   UNL A   1      49.127  26.978  26.553  1.00  0.00     0.057 A 
ATOM     70  C   UNL A   1      50.091  27.530  27.396  1.00  0.00     0.134 A 
ATOM     71  C   UNL A   1      49.657  26.511  25.313  1.00  0.00     0.134 A 
ATOM     72  F   UNL A   1      49.754  28.116  28.550  1.00  0.00    -0.206 F 
ATOM     73  C   UNL A   1      51.470  27.512  27.082  1.00  0.00     0.040 A 
ATOM     74  C   UNL A   1      51.020  26.438  25.011  1.00  0.00     0.040 A 
ATOM     75  F   UNL A   1      48.871  26.084  24.315  1.00  0.00    -0.206 F 
ATOM     76  C   UNL A   1      51.941  26.926  25.911  1.00  0.00     0.006 A 
ENDBRANCH  48  69
BRANCH  60  77
ATOM     77  C   UNL A   1      44.309  27.920  30.081  1.00  0.00     0.057 A 
ATOM     78  C   UNL A   1      45.018  28.296  31.232  1.00  0.00     0.134 A 
ATOM     79  C   UNL A   1      43.763  26.626  30.119  1.00  0.00     0.134 A 
ATOM     80  F   UNL A   1      45.544  29.527  31.325  1.00  0.00    -0.206 F 
ATOM     81  C   UNL A   1      45.215  27.428  32.317  1.00  0.00     0.040 A 
ATOM     82  C   UNL A   1      43.950  25.743  31.193  1.00  0.00     0.040 A 
ATOM     83  F   UNL A   1      43.017  26.169  29.118  1.00  0.00    -0.206 F 
ATOM     84  C   UNL A   1      44.692  26.140  32.296  1.00  0.00     0.006 A 
ENDBRANCH  60  77
ENDBRANCH  34  35
ENDBRANCH  27  29
ENDBRANCH  26  27
ENDBRANCH  25  26
ENDBRANCH  24  25
ENDBRANCH  23  24
ENDBRANCH   1  23
TORSDOF 18
ENDMDL
MODEL 2
REMARK VINA RESULT:     -10.4      5.168     10.462
REMARK SMILES CCn1cccc1C(=O)N(C)c1snc(C)c1C(=O)OCCOCCOC(=O)c1ccc(-c2c3nc(c(-c4c(F)cccc4F)c4ccc([nH]4)c(-c4c(F)cccc4F)c4nc(c(-c5c(F)cccc5F)c5ccc2[nH]5)C=C4)C=C3)cc1
REMARK SMILES IDX 22 1 21 2 20 3 18 4 19 5 17 6 12 7 13 8 14 9 15 10 16 11
REMARK SMILES IDX 10 12 11 13 8 14 9 15 7 16 3 17 4 18 5 19 6 20 2 21 1 22
REMARK SMILES IDX 23 23 24 24 25 25 26 26 27 27 28 28 29 29 30 30 82 31 31 32
REMARK SMILES IDX 81 33 32 34 33 35 34 36 75 37 35 38 80 39 74 40 76 41 36 42
REMARK SMILES IDX 79 43 73 44 72 45 37 47 63 48 46 49 62 50 47 51 50 52 61 53
REMARK SMILES IDX 77 54 48 55 49 56 60 58 78 59 51 60 38 61 39 62 44 63 40 64
REMARK SMILES IDX 41 65 43 66 45 67 42 68 64 69 65 70 70 71 66 72 67 73 69 74
REMARK SMILES IDX 71 75 68 76 52 77 53 78 58 79 54 80 55 81 57 82 59 83 56 84
REMARK H PARENT 76 46 50 57
REMARK Flexibility Score: inf
ROOT
ATOM      1  C   UNL A   1      32.464  30.032  27.109  1.00  0.00     0.202 C 
ENDROOT
BRANCH   1   2
ATOM      2  C   UNL A   1      31.766  28.678  27.232  1.00  0.00     0.261 C 
BRANCH   2   3
ATOM      3  O   UNL A   1      32.619  27.615  26.783  1.00  0.00    -0.460 OA
BRANCH   3   4
ATOM      4  C   UNL A   1      31.976  26.486  26.365  1.00  0.00     0.343 C 
ATOM      5  O   UNL A   1      30.803  26.209  26.630  1.00  0.00    -0.246 OA
BRANCH   4   6
ATOM      6  C   UNL A   1      32.731  25.769  25.350  1.00  0.00     0.117 A 
ATOM      7  C   UNL A   1      32.931  26.133  24.016  1.00  0.00     0.133 A 
ATOM      8  S   UNL A   1      33.802  24.848  23.271  1.00  0.00    -0.017 S 
ATOM      9  N   UNL A   1      33.953  23.893  24.595  1.00  0.00    -0.195 NA
ATOM     10  C   UNL A   1      33.347  24.479  25.623  1.00  0.00     0.068 A 
ATOM     11  C   UNL A   1      33.312  23.715  26.911  1.00  0.00     0.069 C 
BRANCH   7  12
ATOM     12  N   UNL A   1      32.587  27.256  23.206  1.00  0.00    -0.300 N 
ATOM     13  C   UNL A   1      33.126  28.583  23.468  1.00  0.00     0.154 C 
BRANCH  12  14
ATOM     14  C   UNL A   1      31.458  27.131  22.378  1.00  0.00     0.275 C 
ATOM     15  O   UNL A   1      31.613  26.662  21.244  1.00  0.00    -0.267 OA
BRANCH  14  16
ATOM     16  C   UNL A   1      30.086  27.497  22.797  1.00  0.00     0.107 A 
ATOM     17  N   UNL A   1      29.247  28.598  22.646  1.00  0.00    -0.344 N 
ATOM     18  C   UNL A   1      28.063  28.376  23.332  1.00  0.00     0.086 A 
ATOM     19  C   UNL A   1      28.054  27.094  23.807  1.00  0.00     0.020 A 
ATOM     20  C   UNL A   1      29.297  26.546  23.463  1.00  0.00     0.033 A 
BRANCH  17  21
ATOM     21  C   UNL A   1      29.416  29.854  21.932  1.00  0.00     0.119 C 
ATOM     22  C   UNL A   1      28.123  30.532  21.524  1.00  0.00     0.027 C 
ENDBRANCH  17  21
ENDBRANCH  14  16
ENDBRANCH  12  14
ENDBRANCH   7  12
ENDBRANCH   4   6
ENDBRANCH   3   4
ENDBRANCH   2   3
ENDBRANCH   1   2
BRANCH   1  23
ATOM     23  O   UNL A   1      31.837  31.040  26.313  1.00  0.00    -0.374 OA
BRANCH  23  24
ATOM     24  C   UNL A   1      31.630  32.342  26.843  1.00  0.00     0.202 C 
BRANCH  24  25
ATOM     25  C   UNL A   1      32.669  32.989  27.753  1.00  0.00     0.261 C 
BRANCH  25  26
ATOM     26  O   UNL A   1      33.000  34.326  27.422  1.00  0.00    -0.460 OA
BRANCH  26  27
ATOM     27  C   UNL A   1      32.983  35.093  28.532  1.00  0.00     0.338 C 
ATOM     28  O   UNL A   1      32.281  36.064  28.770  1.00  0.00    -0.246 OA
BRANCH  27  29
ATOM     29  C   UNL A   1      34.094  34.750  29.397  1.00  0.00     0.060 A 
ATOM     30  C   UNL A   1      35.329  34.596  28.764  1.00  0.00     0.016 A 
ATOM     31  C   UNL A   1      33.791  34.194  30.646  1.00  0.00     0.016 A 
ATOM     32  C   UNL A   1      36.240  33.738  29.324  1.00  0.00     0.010 A 
ATOM     33  C   UNL A   1      34.691  33.309  31.191  1.00  0.00     0.010 A 
ATOM     34  C   UNL A   1      35.891  33.072  30.505  1.00  0.00    -0.014 A 
BRANCH  34  35
ATOM     35  C   UNL A   1      36.928  32.278  31.153  1.00  0.00     0.031 A 
ATOM     36  C   UNL A   1      37.131  30.972  30.360  1.00  0.00     0.074 A 
ATOM     37  C   UNL A   1      37.469  32.833  32.281  1.00  0.00     0.049 A 
ATOM     38  N   UNL A   1      37.729  29.878  30.704  1.00  0.00    -0.248 NA
ATOM     39  C   UNL A   1      36.558  30.842  28.981  1.00  0.00     0.031 C 
ATOM     40  C   UNL A   1      37.097  34.154  32.849  1.00  0.00     0.029 A 
ATOM     41  N   UNL A   1      38.424  32.419  33.183  1.00  0.00    -0.354 N 
ATOM     42  C   UNL A   1      37.850  29.084  29.542  1.00  0.00     0.074 A 
ATOM     43  C   UNL A   1      37.002  29.662  28.553  1.00  0.00     0.031 C 
ATOM     44  C   UNL A   1      37.738  34.380  34.018  1.00  0.00     0.029 A 
ATOM     45  C   UNL A   1      38.618  33.266  34.312  1.00  0.00     0.049 A 
ATOM     46  H   UNL A   1      38.940  31.591  33.056  1.00  0.00     0.167 HD
ATOM     47  C   UNL A   1      38.786  28.101  29.426  1.00  0.00     0.037 A 
ATOM     48  C   UNL A   1      39.415  33.058  35.408  1.00  0.00     0.037 A 
ATOM     49  C   UNL A   1      39.457  27.936  30.669  1.00  0.00     0.049 A 
ATOM     50  C   UNL A   1      40.243  31.907  35.036  1.00  0.00     0.074 A 
ATOM     51  C   UNL A   1      39.017  27.458  31.875  1.00  0.00     0.029 A 
ATOM     52  N   UNL A   1      40.593  28.686  30.859  1.00  0.00    -0.354 N 
ATOM     53  N   UNL A   1      41.213  31.960  34.174  1.00  0.00    -0.248 NA
ATOM     54  C   UNL A   1      39.915  30.586  35.578  1.00  0.00     0.031 C 
ATOM     55  C   UNL A   1      39.606  28.343  32.796  1.00  0.00     0.029 A 
ATOM     56  C   UNL A   1      40.573  29.128  32.156  1.00  0.00     0.049 A 
ATOM     57  H   UNL A   1      41.289  28.873  30.188  1.00  0.00     0.167 HD
ATOM     58  C   UNL A   1      41.344  30.643  33.813  1.00  0.00     0.074 A 
ATOM     59  C   UNL A   1      40.809  29.862  34.909  1.00  0.00     0.031 C 
ATOM     60  C   UNL A   1      41.327  30.312  32.495  1.00  0.00     0.037 A 
BRANCH  47  61
ATOM     61  C   UNL A   1      39.379  27.425  28.228  1.00  0.00     0.057 A 
ATOM     62  C   UNL A   1      39.582  26.028  28.301  1.00  0.00     0.134 A 
ATOM     63  C   UNL A   1      40.096  28.097  27.232  1.00  0.00     0.134 A 
ATOM     64  F   UNL A   1      38.902  25.276  29.181  1.00  0.00    -0.206 F 
ATOM     65  C   UNL A   1      40.558  25.373  27.550  1.00  0.00     0.040 A 
ATOM     66  C   UNL A   1      41.041  27.439  26.436  1.00  0.00     0.040 A 
ATOM     67  F   UNL A   1      39.984  29.421  27.059  1.00  0.00    -0.206 F 
ATOM     68  C   UNL A   1      41.310  26.086  26.629  1.00  0.00     0.006 A 
ENDBRANCH  47  61
BRANCH  48  69
ATOM     69  C   UNL A   1      39.658  33.611  36.795  1.00  0.00     0.057 A 
ATOM     70  C   UNL A   1      40.692  34.465  37.181  1.00  0.00     0.134 A 
ATOM     71  C   UNL A   1      38.714  33.357  37.835  1.00  0.00     0.134 A 
ATOM     72  F   UNL A   1      41.722  34.723  36.369  1.00  0.00    -0.206 F 
ATOM     73  C   UNL A   1      40.718  35.097  38.446  1.00  0.00     0.040 A 
ATOM     74  C   UNL A   1      38.698  34.013  39.068  1.00  0.00     0.040 A 
ATOM     75  F   UNL A   1      37.735  32.450  37.704  1.00  0.00    -0.206 F 
ATOM     76  C   UNL A   1      39.698  34.908  39.374  1.00  0.00     0.006 A 
ENDBRANCH  48  69
BRANCH  60  77
ATOM     77  C   UNL A   1      41.744  31.435  31.555  1.00  0.00     0.057 A 
ATOM     78  C   UNL A   1      43.027  31.993  31.651  1.00  0.00     0.134 A 
ATOM     79  C   UNL A   1      40.888  32.076  30.645  1.00  0.00     0.134 A 
ATOM     80  F   UNL A   1      43.945  31.434  32.456  1.00  0.00    -0.206 F 
ATOM     81  C   UNL A   1      43.411  33.138  30.935  1.00  0.00     0.040 A 
ATOM     82  C   UNL A   1      41.251  33.222  29.921  1.00  0.00     0.040 A 
ATOM     83  F   UNL A   1      39.663  31.611  30.412  1.00  0.00    -0.206 F 
ATOM     84  C   UNL A   1      42.518  33.766  30.076  1.00  0.00     0.006 A 
ENDBRANCH  60  77
ENDBRANCH  34  35
ENDBRANCH  27  29
ENDBRANCH  26  27
ENDBRANCH  25  26
ENDBRANCH  24  25
ENDBRANCH  23  24
ENDBRANCH   1  23
TORSDOF 18
ENDMDL
MODEL 3
REMARK VINA RESULT:     -10.3      4.969     10.002
REMARK SMILES CCn1cccc1C(=O)N(C)c1snc(C)c1C(=O)OCCOCCOC(=O)c1ccc(-c2c3nc(c(-c4c(F)cccc4F)c4ccc([nH]4)c(-c4c(F)cccc4F)c4nc(c(-c5c(F)cccc5F)c5ccc2[nH]5)C=C4)C=C3)cc1
REMARK SMILES IDX 22 1 21 2 20 3 18 4 19 5 17 6 12 7 13 8 14 9 15 10 16 11
REMARK SMILES IDX 10 12 11 13 8 14 9 15 7 16 3 17 4 18 5 19 6 20 2 21 1 22
REMARK SMILES IDX 23 23 24 24 25 25 26 26 27 27 28 28 29 29 30 30 82 31 31 32
REMARK SMILES IDX 81 33 32 34 33 35 34 36 75 37 35 38 80 39 74 40 76 41 36 42
REMARK SMILES IDX 79 43 73 44 72 45 37 47 63 48 46 49 62 50 47 51 50 52 61 53
REMARK SMILES IDX 77 54 48 55 49 56 60 58 78 59 51 60 38 61 39 62 44 63 40 64
REMARK SMILES IDX 41 65 43 66 45 67 42 68 64 69 65 70 70 71 66 72 67 73 69 74
REMARK SMILES IDX 71 75 68 76 52 77 53 78 58 79 54 80 55 81 57 82 59 83 56 84
REMARK H PARENT 76 46 50 57
REMARK Flexibility Score: inf
ROOT
ATOM      1  C   UNL A   1      33.518  29.624  27.267  1.00  0.00     0.202 C 
ENDROOT
BRANCH   1   2
ATOM      2  C   UNL A   1      32.479  28.511  27.396  1.00  0.00     0.261 C 
BRANCH   2   3
ATOM      3  O   UNL A   1      32.655  27.519  26.374  1.00  0.00    -0.460 OA
BRANCH   3   4
ATOM      4  C   UNL A   1      31.564  26.740  26.121  1.00  0.00     0.343 C 
ATOM      5  O   UNL A   1      30.597  26.621  26.878  1.00  0.00    -0.246 OA
BRANCH   4   6
ATOM      6  C   UNL A   1      31.531  26.273  24.744  1.00  0.00     0.117 A 
ATOM      7  C   UNL A   1      31.898  25.015  24.258  1.00  0.00     0.133 A 
ATOM      8  S   UNL A   1      31.759  25.081  22.543  1.00  0.00    -0.017 S 
ATOM      9  N   UNL A   1      31.219  26.624  22.428  1.00  0.00    -0.195 NA
ATOM     10  C   UNL A   1      31.143  27.148  23.648  1.00  0.00     0.068 A 
ATOM     11  C   UNL A   1      30.739  28.588  23.739  1.00  0.00     0.069 C 
BRANCH   7  12
ATOM     12  N   UNL A   1      32.333  23.788  24.841  1.00  0.00    -0.300 N 
ATOM     13  C   UNL A   1      31.399  22.720  25.166  1.00  0.00     0.154 C 
BRANCH  12  14
ATOM     14  C   UNL A   1      33.617  23.767  25.413  1.00  0.00     0.275 C 
ATOM     15  O   UNL A   1      33.772  24.289  26.524  1.00  0.00    -0.267 OA
BRANCH  14  16
ATOM     16  C   UNL A   1      34.790  23.128  24.777  1.00  0.00     0.107 A 
ATOM     17  N   UNL A   1      35.373  21.863  24.779  1.00  0.00    -0.344 N 
ATOM     18  C   UNL A   1      36.530  21.884  24.015  1.00  0.00     0.086 A 
ATOM     19  C   UNL A   1      36.636  23.098  23.398  1.00  0.00     0.020 A 
ATOM     20  C   UNL A   1      35.554  23.862  23.856  1.00  0.00     0.033 A 
BRANCH  17  21
ATOM     21  C   UNL A   1      34.979  20.616  25.417  1.00  0.00     0.119 C 
ATOM     22  C   UNL A   1      33.873  19.861  24.708  1.00  0.00     0.027 C 
ENDBRANCH  17  21
ENDBRANCH  14  16
ENDBRANCH  12  14
ENDBRANCH   7  12
ENDBRANCH   4   6
ENDBRANCH   3   4
ENDBRANCH   2   3
ENDBRANCH   1   2
BRANCH   1  23
ATOM     23  O   UNL A   1      33.064  30.922  26.875  1.00  0.00    -0.374 OA
BRANCH  23  24
ATOM     24  C   UNL A   1      33.401  32.061  27.653  1.00  0.00     0.202 C 
BRANCH  24  25
ATOM     25  C   UNL A   1      32.521  33.307  27.635  1.00  0.00     0.261 C 
BRANCH  25  26
ATOM     26  O   UNL A   1      33.225  34.533  27.547  1.00  0.00    -0.460 OA
BRANCH  26  27
ATOM     27  C   UNL A   1      33.135  35.200  28.717  1.00  0.00     0.338 C 
ATOM     28  O   UNL A   1      32.381  36.117  29.008  1.00  0.00    -0.246 OA
BRANCH  27  29
ATOM     29  C   UNL A   1      34.230  34.833  29.591  1.00  0.00     0.060 A 
ATOM     30  C   UNL A   1      35.488  34.760  28.987  1.00  0.00     0.016 A 
ATOM     31  C   UNL A   1      33.910  34.184  30.790  1.00  0.00     0.016 A 
ATOM     32  C   UNL A   1      36.409  33.893  29.517  1.00  0.00     0.010 A 
ATOM     33  C   UNL A   1      34.821  33.292  31.302  1.00  0.00     0.010 A 
ATOM     34  C   UNL A   1      36.047  33.138  30.639  1.00  0.00    -0.014 A 
BRANCH  34  35
ATOM     35  C   UNL A   1      37.090  32.333  31.264  1.00  0.00     0.031 A 
ATOM     36  C   UNL A   1      37.249  31.017  30.479  1.00  0.00     0.074 A 
ATOM     37  C   UNL A   1      37.673  32.890  32.371  1.00  0.00     0.049 A 
ATOM     38  N   UNL A   1      37.839  29.916  30.815  1.00  0.00    -0.248 NA
ATOM     39  C   UNL A   1      36.634  30.883  29.118  1.00  0.00     0.031 C 
ATOM     40  C   UNL A   1      37.338  34.222  32.936  1.00  0.00     0.029 A 
ATOM     41  N   UNL A   1      38.647  32.469  33.248  1.00  0.00    -0.354 N 
ATOM     42  C   UNL A   1      37.913  29.110  29.658  1.00  0.00     0.074 A 
ATOM     43  C   UNL A   1      37.047  29.693  28.688  1.00  0.00     0.031 C 
ATOM     44  C   UNL A   1      38.017  34.448  34.084  1.00  0.00     0.029 A 
ATOM     45  C   UNL A   1      38.887  33.323  34.363  1.00  0.00     0.049 A 
ATOM     46  H   UNL A   1      39.145  31.631  33.114  1.00  0.00     0.167 HD
ATOM     47  C   UNL A   1      38.830  28.111  29.524  1.00  0.00     0.037 A 
ATOM     48  C   UNL A   1      39.713  33.111  35.438  1.00  0.00     0.037 A 
ATOM     49  C   UNL A   1      39.534  27.947  30.749  1.00  0.00     0.049 A 
ATOM     50  C   UNL A   1      40.511  31.944  35.053  1.00  0.00     0.074 A 
ATOM     51  C   UNL A   1      39.121  27.487  31.972  1.00  0.00     0.029 A 
ATOM     52  N   UNL A   1      40.686  28.680  30.899  1.00  0.00    -0.354 N 
ATOM     53  N   UNL A   1      41.456  31.973  34.162  1.00  0.00    -0.248 NA
ATOM     54  C   UNL A   1      40.177  30.633  35.617  1.00  0.00     0.031 C 
ATOM     55  C   UNL A   1      39.751  28.371  32.867  1.00  0.00     0.029 A 
ATOM     56  C   UNL A   1      40.712  29.133  32.192  1.00  0.00     0.049 A 
ATOM     57  H   UNL A   1      41.365  28.848  30.206  1.00  0.00     0.167 HD
ATOM     58  C   UNL A   1      41.555  30.651  33.811  1.00  0.00     0.074 A 
ATOM     59  C   UNL A   1      41.039  29.888  34.929  1.00  0.00     0.031 C 
ATOM     60  C   UNL A   1      41.494  30.308  32.497  1.00  0.00     0.037 A 
BRANCH  47  61
ATOM     61  C   UNL A   1      39.377  27.414  28.316  1.00  0.00     0.057 A 
ATOM     62  C   UNL A   1      39.513  26.008  28.379  1.00  0.00     0.134 A 
ATOM     63  C   UNL A   1      40.113  28.057  27.316  1.00  0.00     0.134 A 
ATOM     64  F   UNL A   1      38.807  25.285  29.264  1.00  0.00    -0.206 F 
ATOM     65  C   UNL A   1      40.448  25.312  27.614  1.00  0.00     0.040 A 
ATOM     66  C   UNL A   1      41.018  27.359  26.506  1.00  0.00     0.040 A 
ATOM     67  F   UNL A   1      40.064  29.386  27.151  1.00  0.00    -0.206 F 
ATOM     68  C   UNL A   1      41.224  25.994  26.689  1.00  0.00     0.006 A 
ENDBRANCH  47  61
BRANCH  48  69
ATOM     69  C   UNL A   1      40.005  33.674  36.812  1.00  0.00     0.057 A 
ATOM     70  C   UNL A   1      41.251  34.066  37.303  1.00  0.00     0.134 A 
ATOM     71  C   UNL A   1      38.928  33.951  37.707  1.00  0.00     0.134 A 
ATOM     72  F   UNL A   1      42.379  33.781  36.645  1.00  0.00    -0.206 F 
ATOM     73  C   UNL A   1      41.395  34.774  38.519  1.00  0.00     0.040 A 
ATOM     74  C   UNL A   1      39.049  34.696  38.883  1.00  0.00     0.040 A 
ATOM     75  F   UNL A   1      37.681  33.518  37.479  1.00  0.00    -0.206 F 
ATOM     76  C   UNL A   1      40.291  35.129  39.288  1.00  0.00     0.006 A 
ENDBRANCH  48  69
BRANCH  60  77
ATOM     77  C   UNL A   1      41.902  31.416  31.534  1.00  0.00     0.057 A 
ATOM     78  C   UNL A   1      43.200  31.944  31.579  1.00  0.00     0.134 A 
ATOM     79  C   UNL A   1      41.027  32.071  30.652  1.00  0.00     0.134 A 
ATOM     80  F   UNL A   1      44.133  31.369  32.353  1.00  0.00    -0.206 F 
ATOM     81  C   UNL A   1      43.583  33.075  30.842  1.00  0.00     0.040 A 
ATOM     82  C   UNL A   1      41.390  33.203  29.908  1.00  0.00     0.040 A 
ATOM     83  F   UNL A   1      39.784  31.632  30.468  1.00  0.00    -0.206 F 
ATOM     84  C   UNL A   1      42.673  33.719  30.011  1.00  0.00     0.006 A 
ENDBRANCH  60  77
ENDBRANCH  34  35
ENDBRANCH  27  29
ENDBRANCH  26  27
ENDBRANCH  25  26
ENDBRANCH  24  25
ENDBRANCH  23  24
ENDBRANCH   1  23
TORSDOF 18
ENDMDL
