MODEL 1
REMARK VINA RESULT:     -10.2      0.000      0.000
REMARK SMILES O=C(CCCN1C(=O)C(=O)/C(=C(\[O-])c2ccccc2)[C@H]1c1ccc([N+](=O)[O-])cc1)OCCOCCOC(=O)c1ccc(-c2c3nc(c(-c4c(F)cccc4F)c4ccc([nH]4)c(-c4c(F)cccc4F)c4nc(c(-c5c(F)cccc5F)c5ccc2[nH]5)C=C4)C=C3)cc1
REMARK SMILES IDX 31 1 30 2 2 3 1 4 3 5 4 6 5 7 6 8 7 9 20 10 8 11 9 12 11 13
REMARK SMILES IDX 10 14 12 15 13 16 21 17 22 18 29 19 23 20 28 21 24 22 25 23
REMARK SMILES IDX 26 24 27 25 14 26 15 27 19 28 16 29 18 30 17 31 32 32 33 33
REMARK SMILES IDX 34 34 35 35 36 36 37 37 38 38 39 39 40 40 92 41 41 42 91 43
REMARK SMILES IDX 42 44 43 45 44 46 85 47 45 48 90 49 84 50 86 51 46 52 89 53
REMARK SMILES IDX 83 54 82 55 47 57 73 58 56 59 72 60 57 61 60 62 71 63 87 64
REMARK SMILES IDX 58 65 59 66 70 68 88 69 61 70 48 71 49 72 54 73 50 74 51 75
REMARK SMILES IDX 53 76 55 77 52 78 74 79 75 80 80 81 76 82 77 83 79 84 81 85
REMARK SMILES IDX 78 86 62 87 63 88 68 89 64 90 65 91 67 92 69 93 66 94
REMARK H PARENT 86 56 60 67
REMARK Flexibility Score: inf
ROOT
ATOM      1  C   UNL A   1      42.324  22.583  27.817  1.00  0.00     0.261 C 
ENDROOT
BRANCH   1   2
ATOM      2  O   UNL A   1      41.036  23.163  28.071  1.00  0.00    -0.463 OA
BRANCH   2   3
ATOM      3  C   UNL A   1      40.011  23.311  27.217  1.00  0.00     0.305 C 
ATOM      4  O   UNL A   1      39.873  22.496  26.306  1.00  0.00    -0.252 OA
BRANCH   3   5
ATOM      5  C   UNL A   1      39.051  24.469  27.345  1.00  0.00     0.124 C 
BRANCH   5   6
ATOM      6  C   UNL A   1      37.616  24.230  26.899  1.00  0.00     0.033 C 
BRANCH   6   7
ATOM      7  C   UNL A   1      37.261  23.599  25.539  1.00  0.00     0.121 C 
BRANCH   7   8
ATOM      8  N   UNL A   1      35.934  23.054  25.221  1.00  0.00    -0.325 N 
ATOM      9  C   UNL A   1      35.831  21.670  25.046  1.00  0.00     0.295 C 
ATOM     10  C   UNL A   1      34.847  23.761  24.500  1.00  0.00     0.150 C 
ATOM     11  O   UNL A   1      36.641  20.803  25.289  1.00  0.00    -0.265 OA
ATOM     12  C   UNL A   1      34.484  21.373  24.428  1.00  0.00     0.248 C 
ATOM     13  C   UNL A   1      33.928  22.653  23.988  1.00  0.00     0.025 C 
ATOM     14  O   UNL A   1      33.981  20.279  24.299  1.00  0.00    -0.283 OA
ATOM     15  C   UNL A   1      32.826  22.654  23.216  1.00  0.00    -0.092 C 
ATOM     16  O   UNL A   1      32.069  21.533  22.932  1.00  0.00    -0.872 OA
BRANCH  10  17
ATOM     17  C   UNL A   1      34.137  24.860  25.293  1.00  0.00    -0.020 A 
ATOM     18  C   UNL A   1      33.099  24.604  26.214  1.00  0.00     0.013 A 
ATOM     19  C   UNL A   1      34.438  26.205  25.014  1.00  0.00     0.013 A 
ATOM     20  C   UNL A   1      32.330  25.645  26.755  1.00  0.00     0.086 A 
ATOM     21  C   UNL A   1      33.728  27.255  25.606  1.00  0.00     0.086 A 
ATOM     22  C   UNL A   1      32.648  26.968  26.442  1.00  0.00     0.269 A 
BRANCH  22  23
ATOM     23  N   UNL A   1      31.815  28.061  26.948  1.00  0.00     0.062 N 
ATOM     24  O   UNL A   1      31.539  28.983  26.167  1.00  0.00    -0.258 OA
ATOM     25  O   UNL A   1      31.454  28.007  28.132  1.00  0.00    -0.258 OA
ENDBRANCH  22  23
ENDBRANCH  10  17
BRANCH  15  26
ATOM     26  C   UNL A   1      32.327  23.873  22.577  1.00  0.00    -0.033 A 
ATOM     27  C   UNL A   1      31.254  24.589  23.119  1.00  0.00     0.007 A 
ATOM     28  C   UNL A   1      32.930  24.325  21.395  1.00  0.00     0.007 A 
ATOM     29  C   UNL A   1      30.835  25.777  22.520  1.00  0.00     0.001 A 
ATOM     30  C   UNL A   1      32.513  25.513  20.802  1.00  0.00     0.001 A 
ATOM     31  C   UNL A   1      31.473  26.244  21.371  1.00  0.00     0.000 A 
ENDBRANCH  15  26
ENDBRANCH   7   8
ENDBRANCH   6   7
ENDBRANCH   5   6
ENDBRANCH   3   5
ENDBRANCH   2   3
ENDBRANCH   1   2
BRANCH   1  32
ATOM     32  C   UNL A   1      42.412  21.065  27.934  1.00  0.00     0.202 C 
BRANCH  32  33
ATOM     33  O   UNL A   1      42.137  20.317  26.761  1.00  0.00    -0.374 OA
BRANCH  33  34
ATOM     34  C   UNL A   1      42.355  18.912  26.821  1.00  0.00     0.202 C 
BRANCH  34  35
ATOM     35  C   UNL A   1      43.217  18.373  25.682  1.00  0.00     0.261 C 
BRANCH  35  36
ATOM     36  O   UNL A   1      44.433  19.132  25.566  1.00  0.00    -0.460 OA
BRANCH  36  37
ATOM     37  C   UNL A   1      44.671  19.714  24.367  1.00  0.00     0.338 C 
ATOM     38  O   UNL A   1      44.459  19.255  23.260  1.00  0.00    -0.246 OA
BRANCH  37  39
ATOM     39  C   UNL A   1      45.093  21.103  24.610  1.00  0.00     0.060 A 
ATOM     40  C   UNL A   1      45.599  21.455  25.866  1.00  0.00     0.016 A 
ATOM     41  C   UNL A   1      44.926  22.063  23.614  1.00  0.00     0.016 A 
ATOM     42  C   UNL A   1      45.886  22.787  26.158  1.00  0.00     0.010 A 
ATOM     43  C   UNL A   1      45.209  23.393  23.904  1.00  0.00     0.010 A 
ATOM     44  C   UNL A   1      45.646  23.764  25.188  1.00  0.00    -0.014 A 
BRANCH  44  45
ATOM     45  C   UNL A   1      45.656  25.203  25.521  1.00  0.00     0.031 A 
ATOM     46  C   UNL A   1      46.977  25.913  25.514  1.00  0.00     0.074 A 
ATOM     47  C   UNL A   1      44.537  25.827  25.915  1.00  0.00     0.049 A 
ATOM     48  N   UNL A   1      47.307  27.065  26.033  1.00  0.00    -0.248 NA
ATOM     49  C   UNL A   1      48.084  25.204  24.853  1.00  0.00     0.031 C 
ATOM     50  C   UNL A   1      43.196  25.248  25.902  1.00  0.00     0.029 A 
ATOM     51  N   UNL A   1      44.366  27.078  26.451  1.00  0.00    -0.354 N 
ATOM     52  C   UNL A   1      48.668  27.202  25.798  1.00  0.00     0.074 A 
ATOM     53  C   UNL A   1      49.104  26.010  25.104  1.00  0.00     0.031 C 
ATOM     54  C   UNL A   1      42.341  26.130  26.447  1.00  0.00     0.029 A 
ATOM     55  C   UNL A   1      43.088  27.302  26.896  1.00  0.00     0.049 A 
ATOM     56  H   UNL A   1      45.087  27.745  26.510  1.00  0.00     0.167 HD
ATOM     57  C   UNL A   1      49.479  28.230  26.142  1.00  0.00     0.037 A 
ATOM     58  C   UNL A   1      42.596  28.316  27.633  1.00  0.00     0.037 A 
ATOM     59  C   UNL A   1      49.020  29.403  26.837  1.00  0.00     0.049 A 
ATOM     60  C   UNL A   1      43.521  29.422  28.066  1.00  0.00     0.074 A 
ATOM     61  C   UNL A   1      49.742  30.516  27.227  1.00  0.00     0.029 A 
ATOM     62  N   UNL A   1      47.710  29.606  27.255  1.00  0.00    -0.354 N 
ATOM     63  N   UNL A   1      44.809  29.554  27.851  1.00  0.00    -0.248 NA
ATOM     64  C   UNL A   1      42.928  30.517  28.844  1.00  0.00     0.031 C 
ATOM     65  C   UNL A   1      48.881  31.365  27.932  1.00  0.00     0.029 A 
ATOM     66  C   UNL A   1      47.609  30.814  27.921  1.00  0.00     0.049 A 
ATOM     67  H   UNL A   1      46.965  28.981  27.100  1.00  0.00     0.167 HD
ATOM     68  C   UNL A   1      45.175  30.760  28.436  1.00  0.00     0.074 A 
ATOM     69  C   UNL A   1      43.971  31.320  29.017  1.00  0.00     0.031 C 
ATOM     70  C   UNL A   1      46.393  31.356  28.480  1.00  0.00     0.037 A 
BRANCH  57  71
ATOM     71  C   UNL A   1      50.940  28.091  25.823  1.00  0.00     0.057 A 
ATOM     72  C   UNL A   1      51.891  27.747  26.794  1.00  0.00     0.134 A 
ATOM     73  C   UNL A   1      51.408  28.329  24.523  1.00  0.00     0.134 A 
ATOM     74  F   UNL A   1      51.516  27.521  28.062  1.00  0.00    -0.206 F 
ATOM     75  C   UNL A   1      53.254  27.690  26.496  1.00  0.00     0.040 A 
ATOM     76  C   UNL A   1      52.765  28.242  24.205  1.00  0.00     0.040 A 
ATOM     77  F   UNL A   1      50.556  28.659  23.541  1.00  0.00    -0.206 F 
ATOM     78  C   UNL A   1      53.693  27.934  25.195  1.00  0.00     0.006 A 
ENDBRANCH  57  71
BRANCH  58  79
ATOM     79  C   UNL A   1      41.163  28.310  28.020  1.00  0.00     0.057 A 
ATOM     80  C   UNL A   1      40.749  27.791  29.251  1.00  0.00     0.134 A 
ATOM     81  C   UNL A   1      40.179  28.856  27.185  1.00  0.00     0.134 A 
ATOM     82  F   UNL A   1      41.642  27.238  30.083  1.00  0.00    -0.206 F 
ATOM     83  C   UNL A   1      39.409  27.813  29.639  1.00  0.00     0.040 A 
ATOM     84  C   UNL A   1      38.839  28.908  27.572  1.00  0.00     0.040 A 
ATOM     85  F   UNL A   1      40.511  29.374  25.994  1.00  0.00    -0.206 F 
ATOM     86  C   UNL A   1      38.450  28.382  28.803  1.00  0.00     0.006 A 
ENDBRANCH  58  79
BRANCH  70  87
ATOM     87  C   UNL A   1      46.480  32.709  29.124  1.00  0.00     0.057 A 
ATOM     88  C   UNL A   1      46.746  32.870  30.488  1.00  0.00     0.134 A 
ATOM     89  C   UNL A   1      46.371  33.868  28.343  1.00  0.00     0.134 A 
ATOM     90  F   UNL A   1      46.852  31.802  31.293  1.00  0.00    -0.206 F 
ATOM     91  C   UNL A   1      46.890  34.138  31.056  1.00  0.00     0.040 A 
ATOM     92  C   UNL A   1      46.540  35.138  28.894  1.00  0.00     0.040 A 
ATOM     93  F   UNL A   1      46.127  33.781  27.027  1.00  0.00    -0.206 F 
ATOM     94  C   UNL A   1      46.797  35.276  30.255  1.00  0.00     0.006 A 
ENDBRANCH  70  87
ENDBRANCH  44  45
ENDBRANCH  37  39
ENDBRANCH  36  37
ENDBRANCH  35  36
ENDBRANCH  34  35
ENDBRANCH  33  34
ENDBRANCH  32  33
ENDBRANCH   1  32
TORSDOF 20
ENDMDL
MODEL 2
REMARK VINA RESULT:     -10.1      6.841     12.077
REMARK SMILES O=C(CCCN1C(=O)C(=O)/C(=C(\[O-])c2ccccc2)[C@H]1c1ccc([N+](=O)[O-])cc1)OCCOCCOC(=O)c1ccc(-c2c3nc(c(-c4c(F)cccc4F)c4ccc([nH]4)c(-c4c(F)cccc4F)c4nc(c(-c5c(F)cccc5F)c5ccc2[nH]5)C=C4)C=C3)cc1
REMARK SMILES IDX 31 1 30 2 2 3 1 4 3 5 4 6 5 7 6 8 7 9 20 10 8 11 9 12 11 13
REMARK SMILES IDX 10 14 12 15 13 16 21 17 22 18 29 19 23 20 28 21 24 22 25 23
REMARK SMILES IDX 26 24 27 25 14 26 15 27 19 28 16 29 18 30 17 31 32 32 33 33
REMARK SMILES IDX 34 34 35 35 36 36 37 37 38 38 39 39 40 40 92 41 41 42 91 43
REMARK SMILES IDX 42 44 43 45 44 46 85 47 45 48 90 49 84 50 86 51 46 52 89 53
REMARK SMILES IDX 83 54 82 55 47 57 73 58 56 59 72 60 57 61 60 62 71 63 87 64
REMARK SMILES IDX 58 65 59 66 70 68 88 69 61 70 48 71 49 72 54 73 50 74 51 75
REMARK SMILES IDX 53 76 55 77 52 78 74 79 75 80 80 81 76 82 77 83 79 84 81 85
REMARK SMILES IDX 78 86 62 87 63 88 68 89 64 90 65 91 67 92 69 93 66 94
REMARK H PARENT 86 56 60 67
REMARK Flexibility Score: inf
ROOT
ATOM      1  C   UNL A   1      40.390  36.491  37.559  1.00  0.00     0.261 C 
ENDROOT
BRANCH   1   2
ATOM      2  O   UNL A   1      40.556  36.765  36.160  1.00  0.00    -0.463 OA
BRANCH   2   3
ATOM      3  C   UNL A   1      41.579  36.419  35.363  1.00  0.00     0.305 C 
ATOM      4  O   UNL A   1      42.446  37.256  35.109  1.00  0.00    -0.252 OA
BRANCH   3   5
ATOM      5  C   UNL A   1      41.664  35.039  34.758  1.00  0.00     0.124 C 
BRANCH   5   6
ATOM      6  C   UNL A   1      40.678  34.711  33.646  1.00  0.00     0.033 C 
BRANCH   6   7
ATOM      7  C   UNL A   1      39.170  34.526  33.896  1.00  0.00     0.121 C 
BRANCH   7   8
ATOM      8  N   UNL A   1      38.498  33.220  33.864  1.00  0.00    -0.325 N 
ATOM      9  C   UNL A   1      38.675  32.376  34.965  1.00  0.00     0.295 C 
ATOM     10  C   UNL A   1      38.161  32.439  32.648  1.00  0.00     0.150 C 
ATOM     11  O   UNL A   1      39.162  32.618  36.047  1.00  0.00    -0.265 OA
ATOM     12  C   UNL A   1      38.174  31.000  34.589  1.00  0.00     0.248 C 
ATOM     13  C   UNL A   1      37.967  31.007  33.141  1.00  0.00     0.025 C 
ATOM     14  O   UNL A   1      38.007  30.068  35.344  1.00  0.00    -0.283 OA
ATOM     15  C   UNL A   1      37.720  29.842  32.513  1.00  0.00    -0.092 C 
ATOM     16  O   UNL A   1      37.483  28.642  33.156  1.00  0.00    -0.872 OA
BRANCH  10  17
ATOM     17  C   UNL A   1      37.003  32.988  31.813  1.00  0.00    -0.020 A 
ATOM     18  C   UNL A   1      35.666  33.015  32.266  1.00  0.00     0.013 A 
ATOM     19  C   UNL A   1      37.243  33.375  30.483  1.00  0.00     0.013 A 
ATOM     20  C   UNL A   1      34.607  33.319  31.398  1.00  0.00     0.086 A 
ATOM     21  C   UNL A   1      36.202  33.756  29.628  1.00  0.00     0.086 A 
ATOM     22  C   UNL A   1      34.883  33.684  30.079  1.00  0.00     0.269 A 
BRANCH  22  23
ATOM     23  N   UNL A   1      33.786  33.943  29.145  1.00  0.00     0.062 N 
ATOM     24  O   UNL A   1      32.781  34.522  29.584  1.00  0.00    -0.258 OA
ATOM     25  O   UNL A   1      33.921  33.549  27.979  1.00  0.00    -0.258 OA
ENDBRANCH  22  23
ENDBRANCH  10  17
BRANCH  15  26
ATOM     26  C   UNL A   1      37.697  29.737  31.053  1.00  0.00    -0.033 A 
ATOM     27  C   UNL A   1      36.490  29.705  30.347  1.00  0.00     0.007 A 
ATOM     28  C   UNL A   1      38.907  29.657  30.351  1.00  0.00     0.007 A 
ATOM     29  C   UNL A   1      36.498  29.660  28.953  1.00  0.00     0.001 A 
ATOM     30  C   UNL A   1      38.913  29.617  28.960  1.00  0.00     0.001 A 
ATOM     31  C   UNL A   1      37.709  29.629  28.261  1.00  0.00     0.000 A 
ENDBRANCH  15  26
ENDBRANCH   7   8
ENDBRANCH   6   7
ENDBRANCH   5   6
ENDBRANCH   3   5
ENDBRANCH   2   3
ENDBRANCH   1   2
BRANCH   1  32
ATOM     32  C   UNL A   1      39.307  35.480  37.921  1.00  0.00     0.202 C 
BRANCH  32  33
ATOM     33  O   UNL A   1      39.233  35.083  39.280  1.00  0.00    -0.374 OA
BRANCH  33  34
ATOM     34  C   UNL A   1      39.845  33.846  39.631  1.00  0.00     0.202 C 
BRANCH  34  35
ATOM     35  C   UNL A   1      41.259  33.994  40.184  1.00  0.00     0.261 C 
BRANCH  35  36
ATOM     36  O   UNL A   1      42.230  33.865  39.131  1.00  0.00    -0.460 OA
BRANCH  36  37
ATOM     37  C   UNL A   1      43.379  33.222  39.442  1.00  0.00     0.338 C 
ATOM     38  O   UNL A   1      44.041  33.327  40.459  1.00  0.00    -0.246 OA
BRANCH  37  39
ATOM     39  C   UNL A   1      43.638  32.217  38.398  1.00  0.00     0.060 A 
ATOM     40  C   UNL A   1      44.952  32.001  37.968  1.00  0.00     0.016 A 
ATOM     41  C   UNL A   1      42.573  31.542  37.805  1.00  0.00     0.016 A 
ATOM     42  C   UNL A   1      45.206  31.148  36.895  1.00  0.00     0.010 A 
ATOM     43  C   UNL A   1      42.824  30.694  36.733  1.00  0.00     0.010 A 
ATOM     44  C   UNL A   1      44.134  30.530  36.247  1.00  0.00    -0.014 A 
BRANCH  44  45
ATOM     45  C   UNL A   1      44.304  29.852  34.946  1.00  0.00     0.031 A 
ATOM     46  C   UNL A   1      43.938  30.615  33.707  1.00  0.00     0.074 A 
ATOM     47  C   UNL A   1      44.675  28.565  34.881  1.00  0.00     0.049 A 
ATOM     48  N   UNL A   1      43.718  30.182  32.496  1.00  0.00    -0.248 NA
ATOM     49  C   UNL A   1      43.769  32.067  33.874  1.00  0.00     0.031 C 
ATOM     50  C   UNL A   1      45.107  27.751  36.014  1.00  0.00     0.029 A 
ATOM     51  N   UNL A   1      44.697  27.705  33.813  1.00  0.00    -0.354 N 
ATOM     52  C   UNL A   1      43.345  31.301  31.763  1.00  0.00     0.074 A 
ATOM     53  C   UNL A   1      43.354  32.427  32.669  1.00  0.00     0.031 C 
ATOM     54  C   UNL A   1      45.314  26.495  35.588  1.00  0.00     0.029 A 
ATOM     55  C   UNL A   1      44.971  26.410  34.170  1.00  0.00     0.049 A 
ATOM     56  H   UNL A   1      44.533  27.990  32.885  1.00  0.00     0.167 HD
ATOM     57  C   UNL A   1      43.016  31.372  30.451  1.00  0.00     0.037 A 
ATOM     58  C   UNL A   1      44.895  25.279  33.443  1.00  0.00     0.037 A 
ATOM     59  C   UNL A   1      43.010  30.233  29.572  1.00  0.00     0.049 A 
ATOM     60  C   UNL A   1      44.465  25.362  32.003  1.00  0.00     0.074 A 
ATOM     61  C   UNL A   1      42.709  30.183  28.224  1.00  0.00     0.029 A 
ATOM     62  N   UNL A   1      43.314  28.936  29.966  1.00  0.00    -0.354 N 
ATOM     63  N   UNL A   1      44.106  26.416  31.307  1.00  0.00    -0.248 NA
ATOM     64  C   UNL A   1      44.426  24.104  31.248  1.00  0.00     0.031 C 
ATOM     65  C   UNL A   1      42.774  28.846  27.815  1.00  0.00     0.029 A 
ATOM     66  C   UNL A   1      43.183  28.074  28.893  1.00  0.00     0.049 A 
ATOM     67  H   UNL A   1      43.583  28.670  30.875  1.00  0.00     0.167 HD
ATOM     68  C   UNL A   1      43.832  25.955  30.026  1.00  0.00     0.074 A 
ATOM     69  C   UNL A   1      44.064  24.525  30.042  1.00  0.00     0.031 C 
ATOM     70  C   UNL A   1      43.434  26.652  28.932  1.00  0.00     0.037 A 
BRANCH  57  71
ATOM     71  C   UNL A   1      42.581  32.710  29.924  1.00  0.00     0.057 A 
ATOM     72  C   UNL A   1      43.440  33.544  29.196  1.00  0.00     0.134 A 
ATOM     73  C   UNL A   1      41.284  33.181  30.170  1.00  0.00     0.134 A 
ATOM     74  F   UNL A   1      44.700  33.164  28.937  1.00  0.00    -0.206 F 
ATOM     75  C   UNL A   1      43.041  34.814  28.772  1.00  0.00     0.040 A 
ATOM     76  C   UNL A   1      40.863  34.435  29.723  1.00  0.00     0.040 A 
ATOM     77  F   UNL A   1      40.406  32.436  30.857  1.00  0.00    -0.206 F 
ATOM     78  C   UNL A   1      41.747  35.260  29.033  1.00  0.00     0.006 A 
ENDBRANCH  57  71
BRANCH  58  79
ATOM     79  C   UNL A   1      45.215  23.978  34.081  1.00  0.00     0.057 A 
ATOM     80  C   UNL A   1      44.201  23.110  34.500  1.00  0.00     0.134 A 
ATOM     81  C   UNL A   1      46.540  23.554  34.252  1.00  0.00     0.134 A 
ATOM     82  F   UNL A   1      42.916  23.468  34.381  1.00  0.00    -0.206 F 
ATOM     83  C   UNL A   1      44.492  21.868  35.068  1.00  0.00     0.040 A 
ATOM     84  C   UNL A   1      46.844  22.305  34.796  1.00  0.00     0.040 A 
ATOM     85  F   UNL A   1      47.557  24.338  33.867  1.00  0.00    -0.206 F 
ATOM     86  C   UNL A   1      45.817  21.458  35.208  1.00  0.00     0.006 A 
ENDBRANCH  58  79
BRANCH  70  87
ATOM     87  C   UNL A   1      43.282  25.895  27.645  1.00  0.00     0.057 A 
ATOM     88  C   UNL A   1      42.084  25.267  27.286  1.00  0.00     0.134 A 
ATOM     89  C   UNL A   1      44.334  25.864  26.719  1.00  0.00     0.134 A 
ATOM     90  F   UNL A   1      41.043  25.252  28.131  1.00  0.00    -0.206 F 
ATOM     91  C   UNL A   1      41.941  24.624  26.054  1.00  0.00     0.040 A 
ATOM     92  C   UNL A   1      44.193  25.249  25.475  1.00  0.00     0.040 A 
ATOM     93  F   UNL A   1      45.504  26.456  26.998  1.00  0.00    -0.206 F 
ATOM     94  C   UNL A   1      42.995  24.624  25.141  1.00  0.00     0.006 A 
ENDBRANCH  70  87
ENDBRANCH  44  45
ENDBRANCH  37  39
ENDBRANCH  36  37
ENDBRANCH  35  36
ENDBRANCH  34  35
ENDBRANCH  33  34
ENDBRANCH  32  33
ENDBRANCH   1  32
TORSDOF 20
ENDMDL
MODEL 3
REMARK VINA RESULT:     -10.0      4.334      7.478
REMARK SMILES O=C(CCCN1C(=O)C(=O)/C(=C(\[O-])c2ccccc2)[C@H]1c1ccc([N+](=O)[O-])cc1)OCCOCCOC(=O)c1ccc(-c2c3nc(c(-c4c(F)cccc4F)c4ccc([nH]4)c(-c4c(F)cccc4F)c4nc(c(-c5c(F)cccc5F)c5ccc2[nH]5)C=C4)C=C3)cc1
REMARK SMILES IDX 31 1 30 2 2 3 1 4 3 5 4 6 5 7 6 8 7 9 20 10 8 11 9 12 11 13
REMARK SMILES IDX 10 14 12 15 13 16 21 17 22 18 29 19 23 20 28 21 24 22 25 23
REMARK SMILES IDX 26 24 27 25 14 26 15 27 19 28 16 29 18 30 17 31 32 32 33 33
REMARK SMILES IDX 34 34 35 35 36 36 37 37 38 38 39 39 40 40 92 41 41 42 91 43
REMARK SMILES IDX 42 44 43 45 44 46 85 47 45 48 90 49 84 50 86 51 46 52 89 53
REMARK SMILES IDX 83 54 82 55 47 57 73 58 56 59 72 60 57 61 60 62 71 63 87 64
REMARK SMILES IDX 58 65 59 66 70 68 88 69 61 70 48 71 49 72 54 73 50 74 51 75
REMARK SMILES IDX 53 76 55 77 52 78 74 79 75 80 80 81 76 82 77 83 79 84 81 85
REMARK SMILES IDX 78 86 62 87 63 88 68 89 64 90 65 91 67 92 69 93 66 94
REMARK H PARENT 86 56 60 67
REMARK Flexibility Score: inf
ROOT
ATOM      1  C   UNL A   1      41.448  20.649  26.418  1.00  0.00     0.261 C 
ENDROOT
BRANCH   1   2
ATOM      2  O   UNL A   1      40.796  21.900  26.147  1.00  0.00    -0.463 OA
BRANCH   2   3
ATOM      3  C   UNL A   1      40.631  22.944  26.973  1.00  0.00     0.305 C 
ATOM      4  O   UNL A   1      41.396  23.074  27.928  1.00  0.00    -0.252 OA
BRANCH   3   5
ATOM      5  C   UNL A   1      39.513  23.936  26.761  1.00  0.00     0.124 C 
BRANCH   5   6
ATOM      6  C   UNL A   1      39.805  25.390  27.105  1.00  0.00     0.033 C 
BRANCH   6   7
ATOM      7  C   UNL A   1      40.623  26.315  26.185  1.00  0.00     0.121 C 
BRANCH   7   8
ATOM      8  N   UNL A   1      41.123  27.633  26.600  1.00  0.00    -0.325 N 
ATOM      9  C   UNL A   1      42.085  28.242  25.787  1.00  0.00     0.295 C 
ATOM     10  C   UNL A   1      41.211  28.137  27.992  1.00  0.00     0.150 C 
ATOM     11  O   UNL A   1      42.458  27.934  24.677  1.00  0.00    -0.265 OA
ATOM     12  C   UNL A   1      42.675  29.407  26.549  1.00  0.00     0.248 C 
ATOM     13  C   UNL A   1      42.227  29.276  27.936  1.00  0.00     0.025 C 
ATOM     14  O   UNL A   1      43.403  30.263  26.097  1.00  0.00    -0.283 OA
ATOM     15  C   UNL A   1      42.777  30.067  28.875  1.00  0.00    -0.092 C 
ATOM     16  O   UNL A   1      43.629  31.122  28.608  1.00  0.00    -0.872 OA
BRANCH  10  17
ATOM     17  C   UNL A   1      39.877  28.507  28.644  1.00  0.00    -0.020 A 
ATOM     18  C   UNL A   1      39.028  29.521  28.150  1.00  0.00     0.013 A 
ATOM     19  C   UNL A   1      39.522  27.902  29.863  1.00  0.00     0.013 A 
ATOM     20  C   UNL A   1      37.928  29.977  28.892  1.00  0.00     0.086 A 
ATOM     21  C   UNL A   1      38.384  28.296  30.575  1.00  0.00     0.086 A 
ATOM     22  C   UNL A   1      37.616  29.363  30.106  1.00  0.00     0.269 A 
BRANCH  22  23
ATOM     23  N   UNL A   1      36.510  29.870  30.921  1.00  0.00     0.062 N 
ATOM     24  O   UNL A   1      35.732  30.679  30.395  1.00  0.00    -0.258 OA
ATOM     25  O   UNL A   1      36.433  29.475  32.092  1.00  0.00    -0.258 OA
ENDBRANCH  22  23
ENDBRANCH  10  17
BRANCH  15  26
ATOM     26  C   UNL A   1      42.529  29.864  30.304  1.00  0.00    -0.033 A 
ATOM     27  C   UNL A   1      43.078  28.773  30.986  1.00  0.00     0.007 A 
ATOM     28  C   UNL A   1      41.720  30.773  30.997  1.00  0.00     0.007 A 
ATOM     29  C   UNL A   1      42.872  28.633  32.359  1.00  0.00     0.001 A 
ATOM     30  C   UNL A   1      41.519  30.635  32.367  1.00  0.00     0.001 A 
ATOM     31  C   UNL A   1      42.104  29.571  33.049  1.00  0.00     0.000 A 
ENDBRANCH  15  26
ENDBRANCH   7   8
ENDBRANCH   6   7
ENDBRANCH   5   6
ENDBRANCH   3   5
ENDBRANCH   2   3
ENDBRANCH   1   2
BRANCH   1  32
ATOM     32  C   UNL A   1      42.936  20.584  26.094  1.00  0.00     0.202 C 
BRANCH  32  33
ATOM     33  O   UNL A   1      43.309  19.838  24.947  1.00  0.00    -0.374 OA
BRANCH  33  34
ATOM     34  C   UNL A   1      44.701  19.670  24.705  1.00  0.00     0.202 C 
BRANCH  34  35
ATOM     35  C   UNL A   1      45.576  20.715  25.390  1.00  0.00     0.261 C 
BRANCH  35  36
ATOM     36  O   UNL A   1      46.082  21.659  24.430  1.00  0.00    -0.460 OA
BRANCH  36  37
ATOM     37  C   UNL A   1      45.224  22.622  24.018  1.00  0.00     0.338 C 
ATOM     38  O   UNL A   1      44.378  22.543  23.147  1.00  0.00    -0.246 OA
BRANCH  37  39
ATOM     39  C   UNL A   1      45.363  23.774  24.923  1.00  0.00     0.060 A 
ATOM     40  C   UNL A   1      46.631  24.119  25.402  1.00  0.00     0.016 A 
ATOM     41  C   UNL A   1      44.228  24.467  25.343  1.00  0.00     0.016 A 
ATOM     42  C   UNL A   1      46.770  25.126  26.356  1.00  0.00     0.010 A 
ATOM     43  C   UNL A   1      44.364  25.469  26.297  1.00  0.00     0.010 A 
ATOM     44  C   UNL A   1      45.628  25.770  26.838  1.00  0.00    -0.014 A 
BRANCH  44  45
ATOM     45  C   UNL A   1      45.673  26.630  28.038  1.00  0.00     0.031 A 
ATOM     46  C   UNL A   1      46.195  28.027  27.877  1.00  0.00     0.074 A 
ATOM     47  C   UNL A   1      45.355  26.145  29.247  1.00  0.00     0.049 A 
ATOM     48  N   UNL A   1      46.606  28.873  28.783  1.00  0.00    -0.248 NA
ATOM     49  C   UNL A   1      46.294  28.521  26.494  1.00  0.00     0.031 C 
ATOM     50  C   UNL A   1      44.784  24.826  29.506  1.00  0.00     0.029 A 
ATOM     51  N   UNL A   1      45.518  26.700  30.491  1.00  0.00    -0.354 N 
ATOM     52  C   UNL A   1      47.049  29.985  28.079  1.00  0.00     0.074 A 
ATOM     53  C   UNL A   1      46.872  29.698  26.672  1.00  0.00     0.031 C 
ATOM     54  C   UNL A   1      44.681  24.655  30.834  1.00  0.00     0.029 A 
ATOM     55  C   UNL A   1      45.233  25.827  31.510  1.00  0.00     0.049 A 
ATOM     56  H   UNL A   1      45.809  27.629  30.636  1.00  0.00     0.167 HD
ATOM     57  C   UNL A   1      47.567  31.136  28.569  1.00  0.00     0.037 A 
ATOM     58  C   UNL A   1      45.450  25.945  32.834  1.00  0.00     0.037 A 
ATOM     59  C   UNL A   1      47.737  31.393  29.974  1.00  0.00     0.049 A 
ATOM     60  C   UNL A   1      46.085  27.203  33.362  1.00  0.00     0.074 A 
ATOM     61  C   UNL A   1      48.236  32.524  30.593  1.00  0.00     0.029 A 
ATOM     62  N   UNL A   1      47.417  30.491  30.982  1.00  0.00    -0.354 N 
ATOM     63  N   UNL A   1      46.512  28.254  32.700  1.00  0.00    -0.248 NA
ATOM     64  C   UNL A   1      46.275  27.293  34.815  1.00  0.00     0.031 C 
ATOM     65  C   UNL A   1      48.272  32.284  31.971  1.00  0.00     0.029 A 
ATOM     66  C   UNL A   1      47.732  31.030  32.216  1.00  0.00     0.049 A 
ATOM     67  H   UNL A   1      47.025  29.600  30.838  1.00  0.00     0.167 HD
ATOM     68  C   UNL A   1      46.987  29.143  33.657  1.00  0.00     0.074 A 
ATOM     69  C   UNL A   1      46.798  28.505  34.944  1.00  0.00     0.031 C 
ATOM     70  C   UNL A   1      47.521  30.379  33.487  1.00  0.00     0.037 A 
BRANCH  57  71
ATOM     71  C   UNL A   1      48.034  32.159  27.574  1.00  0.00     0.057 A 
ATOM     72  C   UNL A   1      49.356  32.205  27.110  1.00  0.00     0.134 A 
ATOM     73  C   UNL A   1      47.150  33.131  27.088  1.00  0.00     0.134 A 
ATOM     74  F   UNL A   1      50.261  31.315  27.545  1.00  0.00    -0.206 F 
ATOM     75  C   UNL A   1      49.792  33.205  26.238  1.00  0.00     0.040 A 
ATOM     76  C   UNL A   1      47.565  34.117  26.190  1.00  0.00     0.040 A 
ATOM     77  F   UNL A   1      45.869  33.147  27.485  1.00  0.00    -0.206 F 
ATOM     78  C   UNL A   1      48.892  34.162  25.772  1.00  0.00     0.006 A 
ENDBRANCH  57  71
BRANCH  58  79
ATOM     79  C   UNL A   1      45.078  24.828  33.737  1.00  0.00     0.057 A 
ATOM     80  C   UNL A   1      43.776  24.702  34.233  1.00  0.00     0.134 A 
ATOM     81  C   UNL A   1      46.004  23.839  34.096  1.00  0.00     0.134 A 
ATOM     82  F   UNL A   1      42.852  25.627  33.940  1.00  0.00    -0.206 F 
ATOM     83  C   UNL A   1      43.407  23.635  35.054  1.00  0.00     0.040 A 
ATOM     84  C   UNL A   1      45.642  22.754  34.896  1.00  0.00     0.040 A 
ATOM     85  F   UNL A   1      47.268  23.900  33.650  1.00  0.00    -0.206 F 
ATOM     86  C   UNL A   1      44.339  22.651  35.380  1.00  0.00     0.006 A 
ENDBRANCH  58  79
BRANCH  70  87
ATOM     87  C   UNL A   1      47.885  31.152  34.721  1.00  0.00     0.057 A 
ATOM     88  C   UNL A   1      46.961  31.955  35.399  1.00  0.00     0.134 A 
ATOM     89  C   UNL A   1      49.166  31.026  35.277  1.00  0.00     0.134 A 
ATOM     90  F   UNL A   1      45.722  32.126  34.913  1.00  0.00    -0.206 F 
ATOM     91  C   UNL A   1      47.300  32.614  36.582  1.00  0.00     0.040 A 
ATOM     92  C   UNL A   1      49.507  31.657  36.473  1.00  0.00     0.040 A 
ATOM     93  F   UNL A   1      50.095  30.264  34.682  1.00  0.00    -0.206 F 
ATOM     94  C   UNL A   1      48.574  32.457  37.127  1.00  0.00     0.006 A 
ENDBRANCH  70  87
ENDBRANCH  44  45
ENDBRANCH  37  39
ENDBRANCH  36  37
ENDBRANCH  35  36
ENDBRANCH  34  35
ENDBRANCH  33  34
ENDBRANCH  32  33
ENDBRANCH   1  32
TORSDOF 20
ENDMDL
