MODEL 1
REMARK VINA RESULT:     -10.6      0.000      0.000
REMARK SMILES COC(=O)c1cncc(N2CC[C@H](C(=O)OCCOCCOC(=O)c3ccc(-c4c5nc(c(-c6c(F)cccc6F)c6ccc([nH]6)c(-c6c(F)cccc6F)c6nc(c(-c7c(F)cccc7F)c7ccc4[nH]7)C=C6)C=C5)cc3)C2)n1
REMARK SMILES IDX 18 1 17 2 16 3 14 4 15 5 13 6 10 7 11 8 79 9 12 10 9 11 5 12
REMARK SMILES IDX 6 13 80 14 7 15 8 16 3 17 4 18 2 19 1 20 19 21 20 22 21 23
REMARK SMILES IDX 22 24 23 25 24 26 25 27 26 28 78 29 27 30 77 31 28 32 29 33
REMARK SMILES IDX 30 34 71 35 31 36 76 37 70 38 72 39 32 40 75 41 69 42 68 43
REMARK SMILES IDX 33 45 59 46 42 47 58 48 43 49 46 50 57 51 73 52 44 53 45 54
REMARK SMILES IDX 56 56 74 57 47 58 34 59 35 60 40 61 36 62 37 63 39 64 41 65
REMARK SMILES IDX 38 66 60 67 61 68 66 69 62 70 63 71 65 72 67 73 64 74 48 75
REMARK SMILES IDX 49 76 54 77 50 78 51 79 53 80 55 81 52 82
REMARK H PARENT 72 44 46 55
REMARK Flexibility Score: inf
ROOT
ATOM      1  C   UNL A   1      33.785  33.314  28.407  1.00  0.00     0.202 C 
ENDROOT
BRANCH   1   2
ATOM      2  C   UNL A   1      34.719  32.111  28.259  1.00  0.00     0.261 C 
BRANCH   2   3
ATOM      3  O   UNL A   1      34.113  31.138  27.390  1.00  0.00    -0.463 OA
BRANCH   3   4
ATOM      4  C   UNL A   1      34.792  29.980  27.207  1.00  0.00     0.310 C 
ATOM      5  O   UNL A   1      36.009  29.860  27.261  1.00  0.00    -0.252 OA
BRANCH   4   6
ATOM      6  C   UNL A   1      33.876  28.815  26.927  1.00  0.00     0.120 C 
ATOM      7  N   UNL A   1      32.202  28.136  25.419  1.00  0.00    -0.354 N 
ATOM      8  C   UNL A   1      31.664  27.910  26.756  1.00  0.00     0.119 C 
ATOM      9  C   UNL A   1      33.472  28.858  25.460  1.00  0.00     0.133 C 
ATOM     10  C   UNL A   1      32.534  28.776  27.659  1.00  0.00     0.038 C 
BRANCH   7  11
ATOM     11  C   UNL A   1      31.361  28.393  24.358  1.00  0.00     0.148 A 
ATOM     12  C   UNL A   1      29.807  29.739  23.302  1.00  0.00     0.169 A 
ATOM     13  C   UNL A   1      29.804  28.900  22.198  1.00  0.00     0.147 A 
ATOM     14  N   UNL A   1      30.576  29.488  24.395  1.00  0.00    -0.221 NA
ATOM     15  N   UNL A   1      30.568  27.785  22.133  1.00  0.00    -0.258 NA
ATOM     16  C   UNL A   1      31.338  27.565  23.229  1.00  0.00     0.157 A 
BRANCH  12  17
ATOM     17  C   UNL A   1      29.020  30.999  23.321  1.00  0.00     0.358 C 
ATOM     18  O   UNL A   1      29.133  31.875  24.168  1.00  0.00    -0.244 OA
BRANCH  17  19
ATOM     19  O   UNL A   1      28.163  31.026  22.268  1.00  0.00    -0.464 OA
ATOM     20  C   UNL A   1      28.422  32.062  21.318  1.00  0.00     0.282 C 
ENDBRANCH  17  19
ENDBRANCH  12  17
ENDBRANCH   7  11
ENDBRANCH   4   6
ENDBRANCH   3   4
ENDBRANCH   2   3
ENDBRANCH   1   2
BRANCH   1  21
ATOM     21  O   UNL A   1      33.638  33.807  29.742  1.00  0.00    -0.374 OA
BRANCH  21  22
ATOM     22  C   UNL A   1      34.822  33.949  30.524  1.00  0.00     0.202 C 
BRANCH  22  23
ATOM     23  C   UNL A   1      34.669  33.700  32.028  1.00  0.00     0.261 C 
BRANCH  23  24
ATOM     24  O   UNL A   1      34.927  32.331  32.387  1.00  0.00    -0.460 OA
BRANCH  24  25
ATOM     25  C   UNL A   1      36.085  32.138  33.060  1.00  0.00     0.338 C 
ATOM     26  O   UNL A   1      36.328  32.458  34.218  1.00  0.00    -0.246 OA
BRANCH  25  27
ATOM     27  C   UNL A   1      37.032  31.331  32.269  1.00  0.00     0.060 A 
ATOM     28  C   UNL A   1      38.267  31.042  32.861  1.00  0.00     0.016 A 
ATOM     29  C   UNL A   1      36.775  30.954  30.949  1.00  0.00     0.016 A 
ATOM     30  C   UNL A   1      39.273  30.433  32.116  1.00  0.00     0.010 A 
ATOM     31  C   UNL A   1      37.789  30.343  30.199  1.00  0.00     0.010 A 
ATOM     32  C   UNL A   1      39.057  30.120  30.766  1.00  0.00    -0.014 A 
BRANCH  32  33
ATOM     33  C   UNL A   1      40.217  29.695  29.944  1.00  0.00     0.031 A 
ATOM     34  C   UNL A   1      41.352  30.655  29.718  1.00  0.00     0.074 A 
ATOM     35  C   UNL A   1      40.300  28.436  29.478  1.00  0.00     0.049 A 
ATOM     36  N   UNL A   1      42.506  30.454  29.132  1.00  0.00    -0.248 NA
ATOM     37  C   UNL A   1      41.167  32.023  30.225  1.00  0.00     0.031 C 
ATOM     38  C   UNL A   1      39.277  27.405  29.642  1.00  0.00     0.029 A 
ATOM     39  N   UNL A   1      41.304  27.809  28.783  1.00  0.00    -0.354 N 
ATOM     40  C   UNL A   1      43.186  31.663  29.208  1.00  0.00     0.074 A 
ATOM     41  C   UNL A   1      42.301  32.604  29.862  1.00  0.00     0.031 C 
ATOM     42  C   UNL A   1      39.710  26.268  29.070  1.00  0.00     0.029 A 
ATOM     43  C   UNL A   1      41.034  26.495  28.493  1.00  0.00     0.049 A 
ATOM     44  H   UNL A   1      42.138  28.259  28.518  1.00  0.00     0.167 HD
ATOM     45  C   UNL A   1      44.438  31.961  28.786  1.00  0.00     0.037 A 
ATOM     46  C   UNL A   1      41.774  25.578  27.843  1.00  0.00     0.037 A 
ATOM     47  C   UNL A   1      45.321  31.031  28.133  1.00  0.00     0.049 A 
ATOM     48  C   UNL A   1      43.149  25.942  27.354  1.00  0.00     0.074 A 
ATOM     49  C   UNL A   1      46.613  31.238  27.681  1.00  0.00     0.029 A 
ATOM     50  N   UNL A   1      44.999  29.715  27.834  1.00  0.00    -0.354 N 
ATOM     51  N   UNL A   1      43.797  27.076  27.470  1.00  0.00    -0.248 NA
ATOM     52  C   UNL A   1      43.904  24.890  26.657  1.00  0.00     0.031 C 
ATOM     53  C   UNL A   1      47.060  30.058  27.075  1.00  0.00     0.029 A 
ATOM     54  C   UNL A   1      46.062  29.104  27.188  1.00  0.00     0.049 A 
ATOM     55  H   UNL A   1      44.142  29.281  28.048  1.00  0.00     0.167 HD
ATOM     56  C   UNL A   1      45.040  26.867  26.886  1.00  0.00     0.074 A 
ATOM     57  C   UNL A   1      45.062  25.494  26.429  1.00  0.00     0.031 C 
ATOM     58  C   UNL A   1      46.072  27.735  26.744  1.00  0.00     0.037 A 
BRANCH  45  59
ATOM     59  C   UNL A   1      44.922  33.362  29.011  1.00  0.00     0.057 A 
ATOM     60  C   UNL A   1      45.642  33.717  30.159  1.00  0.00     0.134 A 
ATOM     61  C   UNL A   1      44.692  34.361  28.057  1.00  0.00     0.134 A 
ATOM     62  F   UNL A   1      45.884  32.810  31.117  1.00  0.00    -0.206 F 
ATOM     63  C   UNL A   1      46.098  35.021  30.361  1.00  0.00     0.040 A 
ATOM     64  C   UNL A   1      45.161  35.663  28.237  1.00  0.00     0.040 A 
ATOM     65  F   UNL A   1      44.012  34.086  26.934  1.00  0.00    -0.206 F 
ATOM     66  C   UNL A   1      45.862  35.998  29.394  1.00  0.00     0.006 A 
ENDBRANCH  45  59
BRANCH  46  67
ATOM     67  C   UNL A   1      41.239  24.211  27.630  1.00  0.00     0.057 A 
ATOM     68  C   UNL A   1      41.713  23.121  28.369  1.00  0.00     0.134 A 
ATOM     69  C   UNL A   1      40.255  23.960  26.667  1.00  0.00     0.134 A 
ATOM     70  F   UNL A   1      42.672  23.296  29.289  1.00  0.00    -0.206 F 
ATOM     71  C   UNL A   1      41.239  21.827  28.148  1.00  0.00     0.040 A 
ATOM     72  C   UNL A   1      39.756  22.675  26.450  1.00  0.00     0.040 A 
ATOM     73  F   UNL A   1      39.761  24.963  25.925  1.00  0.00    -0.206 F 
ATOM     74  C   UNL A   1      40.254  21.603  27.187  1.00  0.00     0.006 A 
ENDBRANCH  46  67
BRANCH  58  75
ATOM     75  C   UNL A   1      47.320  27.212  26.095  1.00  0.00     0.057 A 
ATOM     76  C   UNL A   1      47.531  27.305  24.713  1.00  0.00     0.134 A 
ATOM     77  C   UNL A   1      48.330  26.623  26.865  1.00  0.00     0.134 A 
ATOM     78  F   UNL A   1      46.596  27.848  23.918  1.00  0.00    -0.206 F 
ATOM     79  C   UNL A   1      48.690  26.805  24.117  1.00  0.00     0.040 A 
ATOM     80  C   UNL A   1      49.504  26.141  26.285  1.00  0.00     0.040 A 
ATOM     81  F   UNL A   1      48.195  26.511  28.195  1.00  0.00    -0.206 F 
ATOM     82  C   UNL A   1      49.683  26.224  24.905  1.00  0.00     0.006 A 
ENDBRANCH  58  75
ENDBRANCH  32  33
ENDBRANCH  25  27
ENDBRANCH  24  25
ENDBRANCH  23  24
ENDBRANCH  22  23
ENDBRANCH  21  22
ENDBRANCH   1  21
TORSDOF 17
ENDMDL
MODEL 2
REMARK VINA RESULT:     -10.5      1.677      2.879
REMARK SMILES COC(=O)c1cncc(N2CC[C@H](C(=O)OCCOCCOC(=O)c3ccc(-c4c5nc(c(-c6c(F)cccc6F)c6ccc([nH]6)c(-c6c(F)cccc6F)c6nc(c(-c7c(F)cccc7F)c7ccc4[nH]7)C=C6)C=C5)cc3)C2)n1
REMARK SMILES IDX 18 1 17 2 16 3 14 4 15 5 13 6 10 7 11 8 79 9 12 10 9 11 5 12
REMARK SMILES IDX 6 13 80 14 7 15 8 16 3 17 4 18 2 19 1 20 19 21 20 22 21 23
REMARK SMILES IDX 22 24 23 25 24 26 25 27 26 28 78 29 27 30 77 31 28 32 29 33
REMARK SMILES IDX 30 34 71 35 31 36 76 37 70 38 72 39 32 40 75 41 69 42 68 43
REMARK SMILES IDX 33 45 59 46 42 47 58 48 43 49 46 50 57 51 73 52 44 53 45 54
REMARK SMILES IDX 56 56 74 57 47 58 34 59 35 60 40 61 36 62 37 63 39 64 41 65
REMARK SMILES IDX 38 66 60 67 61 68 66 69 62 70 63 71 65 72 67 73 64 74 48 75
REMARK SMILES IDX 49 76 54 77 50 78 51 79 53 80 55 81 52 82
REMARK H PARENT 72 44 46 55
REMARK Flexibility Score: inf
ROOT
ATOM      1  C   UNL A   1      33.960  34.058  28.954  1.00  0.00     0.202 C 
ENDROOT
BRANCH   1   2
ATOM      2  C   UNL A   1      34.661  32.734  28.638  1.00  0.00     0.261 C 
BRANCH   2   3
ATOM      3  O   UNL A   1      33.693  31.776  28.181  1.00  0.00    -0.463 OA
BRANCH   3   4
ATOM      4  C   UNL A   1      34.176  30.643  27.618  1.00  0.00     0.310 C 
ATOM      5  O   UNL A   1      35.363  30.374  27.484  1.00  0.00    -0.252 OA
BRANCH   4   6
ATOM      6  C   UNL A   1      33.080  29.713  27.162  1.00  0.00     0.120 C 
ATOM      7  N   UNL A   1      32.762  27.750  25.905  1.00  0.00    -0.354 N 
ATOM      8  C   UNL A   1      31.803  28.722  25.394  1.00  0.00     0.119 C 
ATOM      9  C   UNL A   1      33.693  28.354  26.857  1.00  0.00     0.133 C 
ATOM     10  C   UNL A   1      32.345  30.066  25.869  1.00  0.00     0.038 C 
BRANCH   7  11
ATOM     11  C   UNL A   1      33.248  26.748  25.092  1.00  0.00     0.148 A 
ATOM     12  C   UNL A   1      34.534  24.852  24.785  1.00  0.00     0.169 A 
ATOM     13  C   UNL A   1      34.089  24.741  23.476  1.00  0.00     0.147 A 
ATOM     14  N   UNL A   1      34.127  25.861  25.601  1.00  0.00    -0.221 NA
ATOM     15  N   UNL A   1      33.219  25.621  22.929  1.00  0.00    -0.258 NA
ATOM     16  C   UNL A   1      32.815  26.610  23.768  1.00  0.00     0.157 A 
BRANCH  12  17
ATOM     17  C   UNL A   1      35.428  23.832  25.390  1.00  0.00     0.358 C 
ATOM     18  O   UNL A   1      35.111  23.090  26.311  1.00  0.00    -0.244 OA
BRANCH  17  19
ATOM     19  O   UNL A   1      36.637  23.852  24.774  1.00  0.00    -0.464 OA
ATOM     20  C   UNL A   1      36.864  22.764  23.875  1.00  0.00     0.282 C 
ENDBRANCH  17  19
ENDBRANCH  12  17
ENDBRANCH   7  11
ENDBRANCH   4   6
ENDBRANCH   3   4
ENDBRANCH   2   3
ENDBRANCH   1   2
BRANCH   1  21
ATOM     21  O   UNL A   1      33.700  34.291  30.341  1.00  0.00    -0.374 OA
BRANCH  21  22
ATOM     22  C   UNL A   1      34.814  34.266  31.231  1.00  0.00     0.202 C 
BRANCH  22  23
ATOM     23  C   UNL A   1      34.551  33.674  32.620  1.00  0.00     0.261 C 
BRANCH  23  24
ATOM     24  O   UNL A   1      34.997  32.310  32.728  1.00  0.00    -0.460 OA
BRANCH  24  25
ATOM     25  C   UNL A   1      36.220  32.164  33.289  1.00  0.00     0.338 C 
ATOM     26  O   UNL A   1      36.562  32.510  34.415  1.00  0.00    -0.246 OA
BRANCH  25  27
ATOM     27  C   UNL A   1      37.113  31.376  32.420  1.00  0.00     0.060 A 
ATOM     28  C   UNL A   1      38.309  30.920  32.986  1.00  0.00     0.016 A 
ATOM     29  C   UNL A   1      36.851  31.173  31.063  1.00  0.00     0.016 A 
ATOM     30  C   UNL A   1      39.275  30.318  32.186  1.00  0.00     0.010 A 
ATOM     31  C   UNL A   1      37.826  30.568  30.258  1.00  0.00     0.010 A 
ATOM     32  C   UNL A   1      39.060  30.179  30.808  1.00  0.00    -0.014 A 
BRANCH  32  33
ATOM     33  C   UNL A   1      40.197  29.754  29.953  1.00  0.00     0.031 A 
ATOM     34  C   UNL A   1      41.329  30.712  29.703  1.00  0.00     0.074 A 
ATOM     35  C   UNL A   1      40.264  28.497  29.479  1.00  0.00     0.049 A 
ATOM     36  N   UNL A   1      42.466  30.510  29.086  1.00  0.00    -0.248 NA
ATOM     37  C   UNL A   1      41.160  32.078  30.220  1.00  0.00     0.031 C 
ATOM     38  C   UNL A   1      39.243  27.468  29.666  1.00  0.00     0.029 A 
ATOM     39  N   UNL A   1      41.248  27.871  28.756  1.00  0.00    -0.354 N 
ATOM     40  C   UNL A   1      43.151  31.717  29.149  1.00  0.00     0.074 A 
ATOM     41  C   UNL A   1      42.287  32.657  29.830  1.00  0.00     0.031 C 
ATOM     42  C   UNL A   1      39.657  26.333  29.078  1.00  0.00     0.029 A 
ATOM     43  C   UNL A   1      40.966  26.558  28.467  1.00  0.00     0.049 A 
ATOM     44  H   UNL A   1      42.076  28.319  28.471  1.00  0.00     0.167 HD
ATOM     45  C   UNL A   1      44.392  32.014  28.695  1.00  0.00     0.037 A 
ATOM     46  C   UNL A   1      41.686  25.642  27.793  1.00  0.00     0.037 A 
ATOM     47  C   UNL A   1      45.255  31.084  28.015  1.00  0.00     0.049 A 
ATOM     48  C   UNL A   1      43.049  26.005  27.270  1.00  0.00     0.074 A 
ATOM     49  C   UNL A   1      46.536  31.289  27.530  1.00  0.00     0.029 A 
ATOM     50  N   UNL A   1      44.922  29.771  27.718  1.00  0.00    -0.354 N 
ATOM     51  N   UNL A   1      43.702  27.137  27.374  1.00  0.00    -0.248 NA
ATOM     52  C   UNL A   1      43.782  24.954  26.548  1.00  0.00     0.031 C 
ATOM     53  C   UNL A   1      46.963  30.111  26.907  1.00  0.00     0.029 A 
ATOM     54  C   UNL A   1      45.966  29.160  27.042  1.00  0.00     0.049 A 
ATOM     55  H   UNL A   1      44.069  29.338  27.953  1.00  0.00     0.167 HD
ATOM     56  C   UNL A   1      44.930  26.927  26.757  1.00  0.00     0.074 A 
ATOM     57  C   UNL A   1      44.935  25.555  26.294  1.00  0.00     0.031 C 
ATOM     58  C   UNL A   1      45.960  27.792  26.591  1.00  0.00     0.037 A 
BRANCH  45  59
ATOM     59  C   UNL A   1      44.886  33.412  28.914  1.00  0.00     0.057 A 
ATOM     60  C   UNL A   1      45.649  33.756  30.038  1.00  0.00     0.134 A 
ATOM     61  C   UNL A   1      44.623  34.420  27.978  1.00  0.00     0.134 A 
ATOM     62  F   UNL A   1      45.925  32.841  30.978  1.00  0.00    -0.206 F 
ATOM     63  C   UNL A   1      46.114  35.058  30.233  1.00  0.00     0.040 A 
ATOM     64  C   UNL A   1      45.100  35.719  28.151  1.00  0.00     0.040 A 
ATOM     65  F   UNL A   1      43.901  34.154  26.878  1.00  0.00    -0.206 F 
ATOM     66  C   UNL A   1      45.844  36.044  29.284  1.00  0.00     0.006 A 
ENDBRANCH  45  59
BRANCH  46  67
ATOM     67  C   UNL A   1      41.141  24.278  27.588  1.00  0.00     0.057 A 
ATOM     68  C   UNL A   1      41.620  23.186  28.321  1.00  0.00     0.134 A 
ATOM     69  C   UNL A   1      40.143  24.032  26.639  1.00  0.00     0.134 A 
ATOM     70  F   UNL A   1      42.594  23.357  29.228  1.00  0.00    -0.206 F 
ATOM     71  C   UNL A   1      41.137  21.895  28.107  1.00  0.00     0.040 A 
ATOM     72  C   UNL A   1      39.635  22.749  26.429  1.00  0.00     0.040 A 
ATOM     73  F   UNL A   1      39.643  25.037  25.904  1.00  0.00    -0.206 F 
ATOM     74  C   UNL A   1      40.138  21.674  27.160  1.00  0.00     0.006 A 
ENDBRANCH  46  67
BRANCH  58  75
ATOM     75  C   UNL A   1      47.189  27.269  25.907  1.00  0.00     0.057 A 
ATOM     76  C   UNL A   1      47.385  27.410  24.528  1.00  0.00     0.134 A 
ATOM     77  C   UNL A   1      48.196  26.630  26.642  1.00  0.00     0.134 A 
ATOM     78  F   UNL A   1      46.452  28.001  23.765  1.00  0.00    -0.206 F 
ATOM     79  C   UNL A   1      48.526  26.909  23.899  1.00  0.00     0.040 A 
ATOM     80  C   UNL A   1      49.352  26.147  26.029  1.00  0.00     0.040 A 
ATOM     81  F   UNL A   1      48.075  26.471  27.969  1.00  0.00    -0.206 F 
ATOM     82  C   UNL A   1      49.516  26.279  24.651  1.00  0.00     0.006 A 
ENDBRANCH  58  75
ENDBRANCH  32  33
ENDBRANCH  25  27
ENDBRANCH  24  25
ENDBRANCH  23  24
ENDBRANCH  22  23
ENDBRANCH  21  22
ENDBRANCH   1  21
TORSDOF 17
ENDMDL
MODEL 3
REMARK VINA RESULT:     -10.4      3.174      8.076
REMARK SMILES COC(=O)c1cncc(N2CC[C@H](C(=O)OCCOCCOC(=O)c3ccc(-c4c5nc(c(-c6c(F)cccc6F)c6ccc([nH]6)c(-c6c(F)cccc6F)c6nc(c(-c7c(F)cccc7F)c7ccc4[nH]7)C=C6)C=C5)cc3)C2)n1
REMARK SMILES IDX 18 1 17 2 16 3 14 4 15 5 13 6 10 7 11 8 79 9 12 10 9 11 5 12
REMARK SMILES IDX 6 13 80 14 7 15 8 16 3 17 4 18 2 19 1 20 19 21 20 22 21 23
REMARK SMILES IDX 22 24 23 25 24 26 25 27 26 28 78 29 27 30 77 31 28 32 29 33
REMARK SMILES IDX 30 34 71 35 31 36 76 37 70 38 72 39 32 40 75 41 69 42 68 43
REMARK SMILES IDX 33 45 59 46 42 47 58 48 43 49 46 50 57 51 73 52 44 53 45 54
REMARK SMILES IDX 56 56 74 57 47 58 34 59 35 60 40 61 36 62 37 63 39 64 41 65
REMARK SMILES IDX 38 66 60 67 61 68 66 69 62 70 63 71 65 72 67 73 64 74 48 75
REMARK SMILES IDX 49 76 54 77 50 78 51 79 53 80 55 81 52 82
REMARK H PARENT 72 44 46 55
REMARK Flexibility Score: inf
ROOT
ATOM      1  C   UNL A   1      34.517  22.516  27.075  1.00  0.00     0.202 C 
ENDROOT
BRANCH   1   2
ATOM      2  C   UNL A   1      33.030  22.513  27.440  1.00  0.00     0.261 C 
BRANCH   2   3
ATOM      3  O   UNL A   1      32.267  23.048  26.347  1.00  0.00    -0.463 OA
BRANCH   3   4
ATOM      4  C   UNL A   1      31.991  22.202  25.325  1.00  0.00     0.310 C 
ATOM      5  O   UNL A   1      31.805  20.997  25.439  1.00  0.00    -0.252 OA
BRANCH   4   6
ATOM      6  C   UNL A   1      31.930  22.907  23.994  1.00  0.00     0.120 C 
ATOM      7  N   UNL A   1      32.527  24.947  22.984  1.00  0.00    -0.354 N 
ATOM      8  C   UNL A   1      31.129  24.714  22.639  1.00  0.00     0.119 C 
ATOM      9  C   UNL A   1      33.015  23.974  23.960  1.00  0.00     0.133 C 
ATOM     10  C   UNL A   1      30.658  23.690  23.665  1.00  0.00     0.038 C 
BRANCH   7  11
ATOM     11  C   UNL A   1      33.027  26.229  23.062  1.00  0.00     0.148 A 
ATOM     12  C   UNL A   1      33.614  28.087  24.305  1.00  0.00     0.169 A 
ATOM     13  C   UNL A   1      34.116  28.709  23.172  1.00  0.00     0.147 A 
ATOM     14  N   UNL A   1      33.055  26.848  24.260  1.00  0.00    -0.221 NA
ATOM     15  N   UNL A   1      34.091  28.123  21.953  1.00  0.00    -0.258 NA
ATOM     16  C   UNL A   1      33.543  26.881  21.936  1.00  0.00     0.157 A 
BRANCH  12  17
ATOM     17  C   UNL A   1      33.722  28.715  25.647  1.00  0.00     0.358 C 
ATOM     18  O   UNL A   1      34.246  28.187  26.620  1.00  0.00    -0.244 OA
BRANCH  17  19
ATOM     19  O   UNL A   1      33.154  29.947  25.629  1.00  0.00    -0.464 OA
ATOM     20  C   UNL A   1      31.724  29.942  25.600  1.00  0.00     0.282 C 
ENDBRANCH  17  19
ENDBRANCH  12  17
ENDBRANCH   7  11
ENDBRANCH   4   6
ENDBRANCH   3   4
ENDBRANCH   2   3
ENDBRANCH   1   2
BRANCH   1  21
ATOM     21  O   UNL A   1      35.007  21.295  26.515  1.00  0.00    -0.374 OA
BRANCH  21  22
ATOM     22  C   UNL A   1      35.622  21.362  25.230  1.00  0.00     0.202 C 
BRANCH  22  23
ATOM     23  C   UNL A   1      36.929  20.579  25.068  1.00  0.00     0.261 C 
BRANCH  23  24
ATOM     24  O   UNL A   1      38.081  21.439  25.008  1.00  0.00    -0.460 OA
BRANCH  24  25
ATOM     25  C   UNL A   1      39.080  21.096  25.854  1.00  0.00     0.338 C 
ATOM     26  O   UNL A   1      39.635  20.007  25.937  1.00  0.00    -0.246 OA
BRANCH  25  27
ATOM     27  C   UNL A   1      39.559  22.267  26.611  1.00  0.00     0.060 A 
ATOM     28  C   UNL A   1      38.955  23.497  26.326  1.00  0.00     0.016 A 
ATOM     29  C   UNL A   1      40.636  22.197  27.497  1.00  0.00     0.016 A 
ATOM     30  C   UNL A   1      39.466  24.670  26.874  1.00  0.00     0.010 A 
ATOM     31  C   UNL A   1      41.152  23.379  28.047  1.00  0.00     0.010 A 
ATOM     32  C   UNL A   1      40.596  24.624  27.703  1.00  0.00    -0.014 A 
BRANCH  32  33
ATOM     33  C   UNL A   1      41.253  25.903  28.075  1.00  0.00     0.031 A 
ATOM     34  C   UNL A   1      42.652  26.179  27.596  1.00  0.00     0.074 A 
ATOM     35  C   UNL A   1      40.577  26.846  28.756  1.00  0.00     0.049 A 
ATOM     36  N   UNL A   1      43.367  27.271  27.707  1.00  0.00    -0.248 NA
ATOM     37  C   UNL A   1      43.335  25.083  26.894  1.00  0.00     0.031 C 
ATOM     38  C   UNL A   1      39.213  26.709  29.261  1.00  0.00     0.029 A 
ATOM     39  N   UNL A   1      40.949  28.114  29.123  1.00  0.00    -0.354 N 
ATOM     40  C   UNL A   1      44.576  26.997  27.083  1.00  0.00     0.074 A 
ATOM     41  C   UNL A   1      44.515  25.624  26.628  1.00  0.00     0.031 C 
ATOM     42  C   UNL A   1      38.857  27.854  29.868  1.00  0.00     0.029 A 
ATOM     43  C   UNL A   1      39.971  28.798  29.802  1.00  0.00     0.049 A 
ATOM     44  H   UNL A   1      41.833  28.497  28.921  1.00  0.00     0.167 HD
ATOM     45  C   UNL A   1      45.638  27.816  26.891  1.00  0.00     0.037 A 
ATOM     46  C   UNL A   1      39.972  30.047  30.304  1.00  0.00     0.037 A 
ATOM     47  C   UNL A   1      45.706  29.181  27.343  1.00  0.00     0.049 A 
ATOM     48  C   UNL A   1      41.175  30.928  30.107  1.00  0.00     0.074 A 
ATOM     49  C   UNL A   1      46.735  30.094  27.183  1.00  0.00     0.029 A 
ATOM     50  N   UNL A   1      44.704  29.829  28.049  1.00  0.00    -0.354 N 
ATOM     51  N   UNL A   1      42.296  30.671  29.478  1.00  0.00    -0.248 NA
ATOM     52  C   UNL A   1      41.106  32.281  30.678  1.00  0.00     0.031 C 
ATOM     53  C   UNL A   1      46.369  31.283  27.825  1.00  0.00     0.029 A 
ATOM     54  C   UNL A   1      45.097  31.123  28.347  1.00  0.00     0.049 A 
ATOM     55  H   UNL A   1      43.841  29.427  28.302  1.00  0.00     0.167 HD
ATOM     56  C   UNL A   1      43.052  31.834  29.554  1.00  0.00     0.074 A 
ATOM     57  C   UNL A   1      42.257  32.803  30.278  1.00  0.00     0.031 C 
ATOM     58  C   UNL A   1      44.293  32.079  29.064  1.00  0.00     0.037 A 
BRANCH  45  59
ATOM     59  C   UNL A   1      46.821  27.248  26.165  1.00  0.00     0.057 A 
ATOM     60  C   UNL A   1      47.847  26.576  26.843  1.00  0.00     0.134 A 
ATOM     61  C   UNL A   1      46.923  27.348  24.773  1.00  0.00     0.134 A 
ATOM     62  F   UNL A   1      47.815  26.458  28.179  1.00  0.00    -0.206 F 
ATOM     63  C   UNL A   1      48.942  26.042  26.163  1.00  0.00     0.040 A 
ATOM     64  C   UNL A   1      48.002  26.799  24.079  1.00  0.00     0.040 A 
ATOM     65  F   UNL A   1      45.972  27.976  24.064  1.00  0.00    -0.206 F 
ATOM     66  C   UNL A   1      49.019  26.148  24.775  1.00  0.00     0.006 A 
ENDBRANCH  45  59
BRANCH  46  67
ATOM     67  C   UNL A   1      38.782  30.553  31.032  1.00  0.00     0.057 A 
ATOM     68  C   UNL A   1      37.774  31.264  30.370  1.00  0.00     0.134 A 
ATOM     69  C   UNL A   1      38.636  30.354  32.409  1.00  0.00     0.134 A 
ATOM     70  F   UNL A   1      37.871  31.505  29.055  1.00  0.00    -0.206 F 
ATOM     71  C   UNL A   1      36.670  31.773  31.055  1.00  0.00     0.040 A 
ATOM     72  C   UNL A   1      37.527  30.840  33.103  1.00  0.00     0.040 A 
ATOM     73  F   UNL A   1      39.569  29.681  33.100  1.00  0.00    -0.206 F 
ATOM     74  C   UNL A   1      36.543  31.557  32.427  1.00  0.00     0.006 A 
ENDBRANCH  46  67
BRANCH  58  75
ATOM     75  C   UNL A   1      44.850  33.457  29.271  1.00  0.00     0.057 A 
ATOM     76  C   UNL A   1      45.635  33.779  30.385  1.00  0.00     0.134 A 
ATOM     77  C   UNL A   1      44.610  34.470  28.334  1.00  0.00     0.134 A 
ATOM     78  F   UNL A   1      45.891  32.856  31.326  1.00  0.00    -0.206 F 
ATOM     79  C   UNL A   1      46.138  35.067  30.575  1.00  0.00     0.040 A 
ATOM     80  C   UNL A   1      45.128  35.754  28.500  1.00  0.00     0.040 A 
ATOM     81  F   UNL A   1      43.873  34.226  27.240  1.00  0.00    -0.206 F 
ATOM     82  C   UNL A   1      45.889  36.058  29.627  1.00  0.00     0.006 A 
ENDBRANCH  58  75
ENDBRANCH  32  33
ENDBRANCH  25  27
ENDBRANCH  24  25
ENDBRANCH  23  24
ENDBRANCH  22  23
ENDBRANCH  21  22
ENDBRANCH   1  21
TORSDOF 17
ENDMDL
