MODEL 1
REMARK VINA RESULT:     -11.1      0.000      0.000
REMARK SMILES O=C(OCCOCCOC(=O)c1ccc(-c2c3nc(c(-c4c(F)cccc4F)c4ccc([nH]4)c(-c4c(F)cccc4F)c4nc(c(-c5c(F)cccc5F)c5ccc2[nH]5)C=C4)C=C3)cc1)C1=C[C@H]2C(=N1)C=CC(Cl)=C2Cl
REMARK SMILES IDX 7 1 6 2 5 3 4 4 3 5 2 6 1 7 66 8 67 9 70 10 68 11 69 12
REMARK SMILES IDX 75 13 71 14 73 15 76 16 72 17 74 18 8 19 9 20 10 21 11 22
REMARK SMILES IDX 12 23 13 24 65 25 14 26 64 27 15 28 16 29 17 30 58 31 18 32
REMARK SMILES IDX 63 33 57 34 59 35 19 36 62 37 56 38 55 39 20 41 46 42 29 43
REMARK SMILES IDX 45 44 30 45 33 46 44 47 60 48 31 49 32 50 43 52 61 53 34 54
REMARK SMILES IDX 21 55 22 56 27 57 23 58 24 59 26 60 28 61 25 62 47 63 48 64
REMARK SMILES IDX 53 65 49 66 50 67 52 68 54 69 51 70 35 71 36 72 41 73 37 74
REMARK SMILES IDX 38 75 40 76 42 77 39 78
REMARK H PARENT 59 40 33 51
REMARK Flexibility Score: inf
ROOT
ATOM      1  C   UNL A   1      42.722  20.204  26.228  1.00  0.00     0.202 C 
ENDROOT
BRANCH   1   2
ATOM      2  O   UNL A   1      41.675  19.634  25.436  1.00  0.00    -0.374 OA
BRANCH   2   3
ATOM      3  C   UNL A   1      40.380  19.645  26.032  1.00  0.00     0.202 C 
BRANCH   3   4
ATOM      4  C   UNL A   1      40.065  20.931  26.793  1.00  0.00     0.261 C 
BRANCH   4   5
ATOM      5  O   UNL A   1      39.620  21.938  25.867  1.00  0.00    -0.459 OA
BRANCH   5   6
ATOM      6  C   UNL A   1      38.453  22.608  25.972  1.00  0.00     0.356 C 
ATOM      7  O   UNL A   1      38.378  23.620  26.668  1.00  0.00    -0.244 OA
BRANCH   6   8
ATOM      8  C   UNL A   1      37.281  22.162  25.186  1.00  0.00     0.145 C 
ATOM      9  C   UNL A   1      36.656  23.069  24.425  1.00  0.00     0.024 C 
ATOM     10  N   UNL A   1      36.569  20.994  25.370  1.00  0.00    -0.245 NA
ATOM     11  C   UNL A   1      35.349  22.517  23.999  1.00  0.00     0.107 C 
ATOM     12  C   UNL A   1      35.434  21.220  24.783  1.00  0.00     0.054 C 
ATOM     13  C   UNL A   1      34.075  23.199  24.411  1.00  0.00     0.050 C 
ATOM     14  C   UNL A   1      34.223  20.372  24.858  1.00  0.00     0.026 C 
ATOM     15  C   UNL A   1      32.962  22.435  24.364  1.00  0.00     0.056 C 
ATOM     16  Cl  UNL A   1      34.194  24.207  25.853  1.00  0.00    -0.086 Cl
ATOM     17  C   UNL A   1      33.058  20.997  24.610  1.00  0.00     0.023 C 
ATOM     18  Cl  UNL A   1      31.820  22.856  23.108  1.00  0.00    -0.083 Cl
ENDBRANCH   6   8
ENDBRANCH   5   6
ENDBRANCH   4   5
ENDBRANCH   3   4
ENDBRANCH   2   3
ENDBRANCH   1   2
BRANCH   1  19
ATOM     19  C   UNL A   1      43.531  21.253  25.465  1.00  0.00     0.261 C 
BRANCH  19  20
ATOM     20  O   UNL A   1      42.747  22.443  25.277  1.00  0.00    -0.460 OA
BRANCH  20  21
ATOM     21  C   UNL A   1      43.460  23.586  25.140  1.00  0.00     0.338 C 
ATOM     22  O   UNL A   1      44.376  23.809  24.373  1.00  0.00    -0.246 OA
BRANCH  21  23
ATOM     23  C   UNL A   1      42.830  24.625  25.975  1.00  0.00     0.060 A 
ATOM     24  C   UNL A   1      43.217  25.957  25.776  1.00  0.00     0.016 A 
ATOM     25  C   UNL A   1      41.895  24.289  26.956  1.00  0.00     0.016 A 
ATOM     26  C   UNL A   1      42.715  26.958  26.604  1.00  0.00     0.010 A 
ATOM     27  C   UNL A   1      41.398  25.288  27.787  1.00  0.00     0.010 A 
ATOM     28  C   UNL A   1      41.843  26.615  27.643  1.00  0.00    -0.014 A 
BRANCH  28  29
ATOM     29  C   UNL A   1      41.546  27.575  28.724  1.00  0.00     0.031 A 
ATOM     30  C   UNL A   1      42.343  27.469  29.991  1.00  0.00     0.074 A 
ATOM     31  C   UNL A   1      40.555  28.471  28.602  1.00  0.00     0.049 A 
ATOM     32  N   UNL A   1      42.155  28.053  31.144  1.00  0.00    -0.248 NA
ATOM     33  C   UNL A   1      43.499  26.558  29.955  1.00  0.00     0.031 C 
ATOM     34  C   UNL A   1      39.748  28.681  27.403  1.00  0.00     0.029 A 
ATOM     35  N   UNL A   1      40.040  29.347  29.521  1.00  0.00    -0.354 N 
ATOM     36  C   UNL A   1      43.148  27.556  31.980  1.00  0.00     0.074 A 
ATOM     37  C   UNL A   1      43.919  26.606  31.209  1.00  0.00     0.031 C 
ATOM     38  C   UNL A   1      38.811  29.606  27.671  1.00  0.00     0.029 A 
ATOM     39  C   UNL A   1      38.928  30.014  29.069  1.00  0.00     0.049 A 
ATOM     40  H   UNL A   1      40.428  29.485  30.415  1.00  0.00     0.167 HD
ATOM     41  C   UNL A   1      43.390  27.867  33.274  1.00  0.00     0.037 A 
ATOM     42  C   UNL A   1      38.081  30.826  29.730  1.00  0.00     0.037 A 
ATOM     43  C   UNL A   1      42.607  28.811  34.025  1.00  0.00     0.049 A 
ATOM     44  C   UNL A   1      38.330  31.115  31.185  1.00  0.00     0.074 A 
ATOM     45  C   UNL A   1      42.774  29.227  35.333  1.00  0.00     0.029 A 
ATOM     46  N   UNL A   1      41.495  29.479  33.529  1.00  0.00    -0.354 N 
ATOM     47  N   UNL A   1      39.280  30.663  31.969  1.00  0.00    -0.248 NA
ATOM     48  C   UNL A   1      37.392  32.032  31.849  1.00  0.00     0.031 C 
ATOM     49  C   UNL A   1      41.729  30.101  35.647  1.00  0.00     0.029 A 
ATOM     50  C   UNL A   1      40.952  30.285  34.513  1.00  0.00     0.049 A 
ATOM     51  H   UNL A   1      41.146  29.392  32.613  1.00  0.00     0.167 HD
ATOM     52  C   UNL A   1      39.077  31.264  33.205  1.00  0.00     0.074 A 
ATOM     53  C   UNL A   1      37.911  32.114  33.066  1.00  0.00     0.031 C 
ATOM     54  C   UNL A   1      39.797  31.134  34.347  1.00  0.00     0.037 A 
BRANCH  41  55
ATOM     55  C   UNL A   1      44.513  27.141  33.959  1.00  0.00     0.057 A 
ATOM     56  C   UNL A   1      45.822  27.642  33.983  1.00  0.00     0.134 A 
ATOM     57  C   UNL A   1      44.283  25.915  34.597  1.00  0.00     0.134 A 
ATOM     58  F   UNL A   1      46.118  28.803  33.377  1.00  0.00    -0.206 F 
ATOM     59  C   UNL A   1      46.867  26.933  34.580  1.00  0.00     0.040 A 
ATOM     60  C   UNL A   1      45.311  25.213  35.226  1.00  0.00     0.040 A 
ATOM     61  F   UNL A   1      43.054  25.377  34.616  1.00  0.00    -0.206 F 
ATOM     62  C   UNL A   1      46.610  25.716  35.208  1.00  0.00     0.006 A 
ENDBRANCH  41  55
BRANCH  42  63
ATOM     63  C   UNL A   1      36.919  31.407  29.014  1.00  0.00     0.057 A 
ATOM     64  C   UNL A   1      35.771  30.649  28.766  1.00  0.00     0.134 A 
ATOM     65  C   UNL A   1      36.916  32.742  28.589  1.00  0.00     0.134 A 
ATOM     66  F   UNL A   1      35.721  29.360  29.133  1.00  0.00    -0.206 F 
ATOM     67  C   UNL A   1      34.662  31.193  28.116  1.00  0.00     0.040 A 
ATOM     68  C   UNL A   1      35.805  33.307  27.960  1.00  0.00     0.040 A 
ATOM     69  F   UNL A   1      37.984  33.524  28.802  1.00  0.00    -0.206 F 
ATOM     70  C   UNL A   1      34.674  32.528  27.719  1.00  0.00     0.006 A 
ENDBRANCH  42  63
BRANCH  54  71
ATOM     71  C   UNL A   1      39.389  31.973  35.524  1.00  0.00     0.057 A 
ATOM     72  C   UNL A   1      39.816  33.297  35.681  1.00  0.00     0.134 A 
ATOM     73  C   UNL A   1      38.492  31.464  36.474  1.00  0.00     0.134 A 
ATOM     74  F   UNL A   1      40.682  33.841  34.814  1.00  0.00    -0.206 F 
ATOM     75  C   UNL A   1      39.377  34.080  36.751  1.00  0.00     0.040 A 
ATOM     76  C   UNL A   1      38.023  32.247  37.529  1.00  0.00     0.040 A 
ATOM     77  F   UNL A   1      38.035  30.207  36.374  1.00  0.00    -0.206 F 
ATOM     78  C   UNL A   1      38.469  33.559  37.672  1.00  0.00     0.006 A 
ENDBRANCH  54  71
ENDBRANCH  28  29
ENDBRANCH  21  23
ENDBRANCH  20  21
ENDBRANCH  19  20
ENDBRANCH   1  19
TORSDOF 14
ENDMDL
MODEL 2
REMARK VINA RESULT:     -10.8      5.511     11.205
REMARK SMILES O=C(OCCOCCOC(=O)c1ccc(-c2c3nc(c(-c4c(F)cccc4F)c4ccc([nH]4)c(-c4c(F)cccc4F)c4nc(c(-c5c(F)cccc5F)c5ccc2[nH]5)C=C4)C=C3)cc1)C1=C[C@H]2C(=N1)C=CC(Cl)=C2Cl
REMARK SMILES IDX 7 1 6 2 5 3 4 4 3 5 2 6 1 7 66 8 67 9 70 10 68 11 69 12
REMARK SMILES IDX 75 13 71 14 73 15 76 16 72 17 74 18 8 19 9 20 10 21 11 22
REMARK SMILES IDX 12 23 13 24 65 25 14 26 64 27 15 28 16 29 17 30 58 31 18 32
REMARK SMILES IDX 63 33 57 34 59 35 19 36 62 37 56 38 55 39 20 41 46 42 29 43
REMARK SMILES IDX 45 44 30 45 33 46 44 47 60 48 31 49 32 50 43 52 61 53 34 54
REMARK SMILES IDX 21 55 22 56 27 57 23 58 24 59 26 60 28 61 25 62 47 63 48 64
REMARK SMILES IDX 53 65 49 66 50 67 52 68 54 69 51 70 35 71 36 72 41 73 37 74
REMARK SMILES IDX 38 75 40 76 42 77 39 78
REMARK H PARENT 59 40 33 51
REMARK Flexibility Score: inf
ROOT
ATOM      1  C   UNL A   1      33.284  34.004  28.270  1.00  0.00     0.202 C 
ENDROOT
BRANCH   1   2
ATOM      2  O   UNL A   1      33.135  34.849  29.416  1.00  0.00    -0.374 OA
BRANCH   2   3
ATOM      3  C   UNL A   1      33.084  36.247  29.143  1.00  0.00     0.202 C 
BRANCH   3   4
ATOM      4  C   UNL A   1      33.305  37.122  30.374  1.00  0.00     0.261 C 
BRANCH   4   5
ATOM      5  O   UNL A   1      33.021  36.360  31.560  1.00  0.00    -0.459 OA
BRANCH   5   6
ATOM      6  C   UNL A   1      33.863  36.235  32.608  1.00  0.00     0.356 C 
ATOM      7  O   UNL A   1      34.225  37.230  33.235  1.00  0.00    -0.244 OA
BRANCH   6   8
ATOM      8  C   UNL A   1      34.292  34.887  33.045  1.00  0.00     0.145 C 
ATOM      9  C   UNL A   1      35.017  34.795  34.166  1.00  0.00     0.024 C 
ATOM     10  N   UNL A   1      34.290  33.740  32.279  1.00  0.00    -0.245 NA
ATOM     11  C   UNL A   1      35.612  33.441  34.241  1.00  0.00     0.107 C 
ATOM     12  C   UNL A   1      35.110  32.947  32.895  1.00  0.00     0.054 C 
ATOM     13  C   UNL A   1      37.106  33.274  34.242  1.00  0.00     0.050 C 
ATOM     14  C   UNL A   1      35.634  31.658  32.388  1.00  0.00     0.026 C 
ATOM     15  C   UNL A   1      37.558  32.054  33.883  1.00  0.00     0.056 C 
ATOM     16  Cl  UNL A   1      38.011  34.613  33.537  1.00  0.00    -0.086 Cl
ATOM     17  C   UNL A   1      36.799  31.252  32.924  1.00  0.00     0.023 C 
ATOM     18  Cl  UNL A   1      38.271  31.113  35.173  1.00  0.00    -0.083 Cl
ENDBRANCH   6   8
ENDBRANCH   5   6
ENDBRANCH   4   5
ENDBRANCH   3   4
ENDBRANCH   2   3
ENDBRANCH   1   2
BRANCH   1  19
ATOM     19  C   UNL A   1      34.655  33.330  28.211  1.00  0.00     0.261 C 
BRANCH  19  20
ATOM     20  O   UNL A   1      34.647  32.122  28.988  1.00  0.00    -0.460 OA
BRANCH  20  21
ATOM     21  C   UNL A   1      34.564  30.977  28.270  1.00  0.00     0.338 C 
ATOM     22  O   UNL A   1      33.672  30.623  27.524  1.00  0.00    -0.246 OA
BRANCH  21  23
ATOM     23  C   UNL A   1      35.847  30.260  28.396  1.00  0.00     0.060 A 
ATOM     24  C   UNL A   1      36.149  29.658  29.625  1.00  0.00     0.016 A 
ATOM     25  C   UNL A   1      36.750  30.208  27.332  1.00  0.00     0.016 A 
ATOM     26  C   UNL A   1      37.387  29.050  29.816  1.00  0.00     0.010 A 
ATOM     27  C   UNL A   1      37.989  29.606  27.525  1.00  0.00     0.010 A 
ATOM     28  C   UNL A   1      38.327  29.069  28.780  1.00  0.00    -0.014 A 
BRANCH  28  29
ATOM     29  C   UNL A   1      39.740  28.731  29.041  1.00  0.00     0.031 A 
ATOM     30  C   UNL A   1      40.627  29.810  29.590  1.00  0.00     0.074 A 
ATOM     31  C   UNL A   1      40.230  27.519  28.737  1.00  0.00     0.049 A 
ATOM     32  N   UNL A   1      41.926  29.831  29.723  1.00  0.00    -0.248 NA
ATOM     33  C   UNL A   1      39.952  31.043  30.026  1.00  0.00     0.031 C 
ATOM     34  C   UNL A   1      39.447  26.393  28.235  1.00  0.00     0.029 A 
ATOM     35  N   UNL A   1      41.518  27.053  28.775  1.00  0.00    -0.354 N 
ATOM     36  C   UNL A   1      42.228  31.091  30.228  1.00  0.00     0.074 A 
ATOM     37  C   UNL A   1      40.980  31.811  30.353  1.00  0.00     0.031 C 
ATOM     38  C   UNL A   1      40.280  25.370  27.978  1.00  0.00     0.029 A 
ATOM     39  C   UNL A   1      41.652  25.790  28.255  1.00  0.00     0.049 A 
ATOM     40  H   UNL A   1      42.271  27.572  29.140  1.00  0.00     0.167 HD
ATOM     41  C   UNL A   1      43.439  31.596  30.556  1.00  0.00     0.037 A 
ATOM     42  C   UNL A   1      42.765  25.079  27.993  1.00  0.00     0.037 A 
ATOM     43  C   UNL A   1      44.669  30.865  30.418  1.00  0.00     0.049 A 
ATOM     44  C   UNL A   1      44.108  25.678  28.309  1.00  0.00     0.074 A 
ATOM     45  C   UNL A   1      45.953  31.263  30.744  1.00  0.00     0.029 A 
ATOM     46  N   UNL A   1      44.766  29.580  29.900  1.00  0.00    -0.354 N 
ATOM     47  N   UNL A   1      44.392  26.859  28.805  1.00  0.00    -0.248 NA
ATOM     48  C   UNL A   1      45.288  24.846  28.031  1.00  0.00     0.031 C 
ATOM     49  C   UNL A   1      46.832  30.243  30.367  1.00  0.00     0.029 A 
ATOM     50  C   UNL A   1      46.090  29.181  29.873  1.00  0.00     0.049 A 
ATOM     51  H   UNL A   1      44.005  29.035  29.598  1.00  0.00     0.167 HD
ATOM     52  C   UNL A   1      45.775  26.900  28.934  1.00  0.00     0.074 A 
ATOM     53  C   UNL A   1      46.272  25.623  28.461  1.00  0.00     0.031 C 
ATOM     54  C   UNL A   1      46.560  27.897  29.410  1.00  0.00     0.037 A 
BRANCH  41  55
ATOM     55  C   UNL A   1      43.484  33.016  31.044  1.00  0.00     0.057 A 
ATOM     56  C   UNL A   1      43.621  34.103  30.170  1.00  0.00     0.134 A 
ATOM     57  C   UNL A   1      43.399  33.300  32.413  1.00  0.00     0.134 A 
ATOM     58  F   UNL A   1      43.725  33.904  28.847  1.00  0.00    -0.206 F 
ATOM     59  C   UNL A   1      43.712  35.415  30.641  1.00  0.00     0.040 A 
ATOM     60  C   UNL A   1      43.454  34.608  32.895  1.00  0.00     0.040 A 
ATOM     61  F   UNL A   1      43.264  32.309  33.307  1.00  0.00    -0.206 F 
ATOM     62  C   UNL A   1      43.624  35.670  32.008  1.00  0.00     0.006 A 
ENDBRANCH  41  55
BRANCH  42  63
ATOM     63  C   UNL A   1      42.644  23.728  27.393  1.00  0.00     0.057 A 
ATOM     64  C   UNL A   1      42.748  23.540  26.011  1.00  0.00     0.134 A 
ATOM     65  C   UNL A   1      42.453  22.590  28.186  1.00  0.00     0.134 A 
ATOM     66  F   UNL A   1      42.914  24.593  25.197  1.00  0.00    -0.206 F 
ATOM     67  C   UNL A   1      42.662  22.270  25.437  1.00  0.00     0.040 A 
ATOM     68  C   UNL A   1      42.389  21.311  27.629  1.00  0.00     0.040 A 
ATOM     69  F   UNL A   1      42.351  22.701  29.519  1.00  0.00    -0.206 F 
ATOM     70  C   UNL A   1      42.490  21.151  26.248  1.00  0.00     0.006 A 
ENDBRANCH  42  63
BRANCH  54  71
ATOM     71  C   UNL A   1      48.036  27.634  29.506  1.00  0.00     0.057 A 
ATOM     72  C   UNL A   1      48.618  27.052  30.639  1.00  0.00     0.134 A 
ATOM     73  C   UNL A   1      48.871  27.901  28.413  1.00  0.00     0.134 A 
ATOM     74  F   UNL A   1      47.876  26.780  31.723  1.00  0.00    -0.206 F 
ATOM     75  C   UNL A   1      49.982  26.759  30.685  1.00  0.00     0.040 A 
ATOM     76  C   UNL A   1      50.229  27.586  28.437  1.00  0.00     0.040 A 
ATOM     77  F   UNL A   1      48.374  28.448  27.293  1.00  0.00    -0.206 F 
ATOM     78  C   UNL A   1      50.790  27.016  29.578  1.00  0.00     0.006 A 
ENDBRANCH  54  71
ENDBRANCH  28  29
ENDBRANCH  21  23
ENDBRANCH  20  21
ENDBRANCH  19  20
ENDBRANCH   1  19
TORSDOF 14
ENDMDL
MODEL 3
REMARK VINA RESULT:     -10.7      4.113      7.907
REMARK SMILES O=C(OCCOCCOC(=O)c1ccc(-c2c3nc(c(-c4c(F)cccc4F)c4ccc([nH]4)c(-c4c(F)cccc4F)c4nc(c(-c5c(F)cccc5F)c5ccc2[nH]5)C=C4)C=C3)cc1)C1=C[C@H]2C(=N1)C=CC(Cl)=C2Cl
REMARK SMILES IDX 7 1 6 2 5 3 4 4 3 5 2 6 1 7 66 8 67 9 70 10 68 11 69 12
REMARK SMILES IDX 75 13 71 14 73 15 76 16 72 17 74 18 8 19 9 20 10 21 11 22
REMARK SMILES IDX 12 23 13 24 65 25 14 26 64 27 15 28 16 29 17 30 58 31 18 32
REMARK SMILES IDX 63 33 57 34 59 35 19 36 62 37 56 38 55 39 20 41 46 42 29 43
REMARK SMILES IDX 45 44 30 45 33 46 44 47 60 48 31 49 32 50 43 52 61 53 34 54
REMARK SMILES IDX 21 55 22 56 27 57 23 58 24 59 26 60 28 61 25 62 47 63 48 64
REMARK SMILES IDX 53 65 49 66 50 67 52 68 54 69 51 70 35 71 36 72 41 73 37 74
REMARK SMILES IDX 38 75 40 76 42 77 39 78
REMARK H PARENT 59 40 33 51
REMARK Flexibility Score: inf
ROOT
ATOM      1  C   UNL A   1      35.563  21.662  25.973  1.00  0.00     0.202 C 
ENDROOT
BRANCH   1   2
ATOM      2  O   UNL A   1      34.297  20.997  26.033  1.00  0.00    -0.374 OA
BRANCH   2   3
ATOM      3  C   UNL A   1      33.695  20.712  24.773  1.00  0.00     0.202 C 
BRANCH   3   4
ATOM      4  C   UNL A   1      32.936  21.894  24.174  1.00  0.00     0.261 C 
BRANCH   4   5
ATOM      5  O   UNL A   1      33.680  22.426  23.064  1.00  0.00    -0.459 OA
BRANCH   5   6
ATOM      6  C   UNL A   1      34.563  23.444  23.154  1.00  0.00     0.356 C 
ATOM      7  O   UNL A   1      35.722  23.295  22.770  1.00  0.00    -0.244 OA
BRANCH   6   8
ATOM      8  C   UNL A   1      34.110  24.763  23.650  1.00  0.00     0.145 C 
ATOM      9  C   UNL A   1      34.316  25.050  24.941  1.00  0.00     0.024 C 
ATOM     10  N   UNL A   1      33.232  25.618  23.016  1.00  0.00    -0.245 NA
ATOM     11  C   UNL A   1      33.512  26.240  25.301  1.00  0.00     0.107 C 
ATOM     12  C   UNL A   1      32.813  26.399  23.963  1.00  0.00     0.054 C 
ATOM     13  C   UNL A   1      32.440  26.133  26.349  1.00  0.00     0.050 C 
ATOM     14  C   UNL A   1      31.698  27.369  23.872  1.00  0.00     0.026 C 
ATOM     15  C   UNL A   1      31.494  27.096  26.316  1.00  0.00     0.056 C 
ATOM     16  Cl  UNL A   1      31.805  24.510  26.612  1.00  0.00    -0.086 Cl
ATOM     17  C   UNL A   1      31.120  27.703  25.039  1.00  0.00     0.023 C 
ATOM     18  Cl  UNL A   1      31.539  28.232  27.645  1.00  0.00    -0.083 Cl
ENDBRANCH   6   8
ENDBRANCH   5   6
ENDBRANCH   4   5
ENDBRANCH   3   4
ENDBRANCH   2   3
ENDBRANCH   1   2
BRANCH   1  19
ATOM     19  C   UNL A   1      36.617  20.854  25.217  1.00  0.00     0.261 C 
BRANCH  19  20
ATOM     20  O   UNL A   1      37.814  21.630  25.054  1.00  0.00    -0.460 OA
BRANCH  20  21
ATOM     21  C   UNL A   1      38.867  21.228  25.805  1.00  0.00     0.338 C 
ATOM     22  O   UNL A   1      39.397  20.135  25.827  1.00  0.00    -0.246 OA
BRANCH  21  23
ATOM     23  C   UNL A   1      39.412  22.407  26.503  1.00  0.00     0.060 A 
ATOM     24  C   UNL A   1      38.897  23.668  26.171  1.00  0.00     0.016 A 
ATOM     25  C   UNL A   1      40.432  22.276  27.447  1.00  0.00     0.016 A 
ATOM     26  C   UNL A   1      39.446  24.814  26.739  1.00  0.00     0.010 A 
ATOM     27  C   UNL A   1      40.984  23.422  28.011  1.00  0.00     0.010 A 
ATOM     28  C   UNL A   1      40.524  24.693  27.622  1.00  0.00    -0.014 A 
BRANCH  28  29
ATOM     29  C   UNL A   1      41.331  25.873  27.990  1.00  0.00     0.031 A 
ATOM     30  C   UNL A   1      40.650  26.980  28.741  1.00  0.00     0.074 A 
ATOM     31  C   UNL A   1      42.613  25.981  27.611  1.00  0.00     0.049 A 
ATOM     32  N   UNL A   1      41.072  28.186  29.011  1.00  0.00    -0.248 NA
ATOM     33  C   UNL A   1      39.294  26.688  29.235  1.00  0.00     0.031 C 
ATOM     34  C   UNL A   1      43.378  24.951  26.913  1.00  0.00     0.029 A 
ATOM     35  N   UNL A   1      43.484  27.032  27.733  1.00  0.00    -0.354 N 
ATOM     36  C   UNL A   1      40.022  28.808  29.677  1.00  0.00     0.074 A 
ATOM     37  C   UNL A   1      38.937  27.855  29.747  1.00  0.00     0.031 C 
ATOM     38  C   UNL A   1      44.600  25.435  26.636  1.00  0.00     0.029 A 
ATOM     39  C   UNL A   1      44.682  26.819  27.097  1.00  0.00     0.049 A 
ATOM     40  H   UNL A   1      43.272  27.856  28.227  1.00  0.00     0.167 HD
ATOM     41  C   UNL A   1      39.973  30.062  30.181  1.00  0.00     0.037 A 
ATOM     42  C   UNL A   1      45.705  27.667  26.878  1.00  0.00     0.037 A 
ATOM     43  C   UNL A   1      41.062  30.997  30.094  1.00  0.00     0.049 A 
ATOM     44  C   UNL A   1      45.611  29.077  27.394  1.00  0.00     0.074 A 
ATOM     45  C   UNL A   1      41.138  32.285  30.593  1.00  0.00     0.029 A 
ATOM     46  N   UNL A   1      42.268  30.741  29.454  1.00  0.00    -0.354 N 
ATOM     47  N   UNL A   1      44.628  29.658  28.041  1.00  0.00    -0.248 NA
ATOM     48  C   UNL A   1      46.768  29.951  27.153  1.00  0.00     0.031 C 
ATOM     49  C   UNL A   1      42.366  32.829  30.202  1.00  0.00     0.029 A 
ATOM     50  C   UNL A   1      43.084  31.856  29.523  1.00  0.00     0.049 A 
ATOM     51  H   UNL A   1      42.506  29.892  29.017  1.00  0.00     0.167 HD
ATOM     52  C   UNL A   1      45.061  30.950  28.316  1.00  0.00     0.074 A 
ATOM     53  C   UNL A   1      46.395  31.066  27.763  1.00  0.00     0.031 C 
ATOM     54  C   UNL A   1      44.417  31.944  28.976  1.00  0.00     0.037 A 
BRANCH  41  55
ATOM     55  C   UNL A   1      38.686  30.498  30.820  1.00  0.00     0.057 A 
ATOM     56  C   UNL A   1      37.677  31.153  30.100  1.00  0.00     0.134 A 
ATOM     57  C   UNL A   1      38.455  30.267  32.183  1.00  0.00     0.134 A 
ATOM     58  F   UNL A   1      37.837  31.421  28.795  1.00  0.00    -0.206 F 
ATOM     59  C   UNL A   1      36.507  31.598  30.719  1.00  0.00     0.040 A 
ATOM     60  C   UNL A   1      37.275  30.676  32.806  1.00  0.00     0.040 A 
ATOM     61  F   UNL A   1      39.376  29.643  32.933  1.00  0.00    -0.206 F 
ATOM     62  C   UNL A   1      36.302  31.354  32.075  1.00  0.00     0.006 A 
ENDBRANCH  41  55
BRANCH  42  63
ATOM     63  C   UNL A   1      46.895  27.197  26.127  1.00  0.00     0.057 A 
ATOM     64  C   UNL A   1      47.952  26.553  26.778  1.00  0.00     0.134 A 
ATOM     65  C   UNL A   1      46.990  27.352  24.738  1.00  0.00     0.134 A 
ATOM     66  F   UNL A   1      47.926  26.391  28.108  1.00  0.00    -0.206 F 
ATOM     67  C   UNL A   1      49.065  26.085  26.078  1.00  0.00     0.040 A 
ATOM     68  C   UNL A   1      48.086  26.866  24.021  1.00  0.00     0.040 A 
ATOM     69  F   UNL A   1      46.007  27.955  24.054  1.00  0.00    -0.206 F 
ATOM     70  C   UNL A   1      49.129  26.233  24.694  1.00  0.00     0.006 A 
ENDBRANCH  42  63
BRANCH  54  71
ATOM     71  C   UNL A   1      45.163  33.228  29.196  1.00  0.00     0.057 A 
ATOM     72  C   UNL A   1      46.003  33.424  30.300  1.00  0.00     0.134 A 
ATOM     73  C   UNL A   1      45.095  34.255  28.244  1.00  0.00     0.134 A 
ATOM     74  F   UNL A   1      46.105  32.486  31.252  1.00  0.00    -0.206 F 
ATOM     75  C   UNL A   1      46.736  34.602  30.455  1.00  0.00     0.040 A 
ATOM     76  C   UNL A   1      45.845  35.423  28.373  1.00  0.00     0.040 A 
ATOM     77  F   UNL A   1      44.318  34.125  27.157  1.00  0.00    -0.206 F 
ATOM     78  C   UNL A   1      46.667  35.601  29.485  1.00  0.00     0.006 A 
ENDBRANCH  54  71
ENDBRANCH  28  29
ENDBRANCH  21  23
ENDBRANCH  20  21
ENDBRANCH  19  20
ENDBRANCH   1  19
TORSDOF 14
ENDMDL
