MODEL 1
REMARK VINA RESULT:     -10.5      0.000      0.000
REMARK SMILES C[C@H](CNS(=O)(=O)c1ccc(C(=O)OCCOCCOC(=O)c2ccc(-c3c4nc(c(-c5c(F)cccc5F)c5ccc([nH]5)c(-c5c(F)cccc5F)c5nc(c(-c6c(F)cccc6F)c6ccc3[nH]6)C=C5)C=C4)cc2)cc1F)[NH+](C)C
REMARK SMILES IDX 15 1 14 2 12 3 13 4 11 5 8 6 9 7 78 8 10 9 77 10 79 11 5 12
REMARK SMILES IDX 6 13 7 14 4 15 3 17 2 18 1 19 80 20 81 21 82 22 16 24 17 25
REMARK SMILES IDX 18 26 19 27 20 28 21 29 22 30 23 31 24 32 76 33 25 34 75 35
REMARK SMILES IDX 26 36 27 37 28 38 69 39 29 40 74 41 68 42 70 43 30 44 73 45
REMARK SMILES IDX 67 46 66 47 31 49 57 50 40 51 56 52 41 53 44 54 55 55 71 56
REMARK SMILES IDX 42 57 43 58 54 60 72 61 45 62 32 63 33 64 38 65 34 66 35 67
REMARK SMILES IDX 37 68 39 69 36 70 58 71 59 72 64 73 60 74 61 75 63 76 65 77
REMARK SMILES IDX 62 78 46 79 47 80 52 81 48 82 49 83 51 84 53 85 50 86
REMARK H PARENT 4 16 80 23 70 48 44 59
REMARK Flexibility Score: inf
ROOT
ATOM      1  C   UNL A   1      39.027  22.159  26.440  1.00  0.00     0.261 C 
ENDROOT
BRANCH   1   2
ATOM      2  O   UNL A   1      38.324  22.108  25.185  1.00  0.00    -0.460 OA
BRANCH   2   3
ATOM      3  C   UNL A   1      37.350  21.169  25.124  1.00  0.00     0.338 C 
ATOM      4  O   UNL A   1      37.492  19.979  24.896  1.00  0.00    -0.246 OA
BRANCH   3   5
ATOM      5  C   UNL A   1      36.044  21.745  25.515  1.00  0.00     0.063 A 
ATOM      6  C   UNL A   1      33.486  22.731  26.016  1.00  0.00     0.118 A 
ATOM      7  C   UNL A   1      33.658  21.371  25.745  1.00  0.00     0.026 A 
ATOM      8  C   UNL A   1      34.588  23.577  26.095  1.00  0.00     0.144 A 
ATOM      9  C   UNL A   1      34.938  20.883  25.488  1.00  0.00     0.017 A 
ATOM     10  C   UNL A   1      35.876  23.090  25.859  1.00  0.00     0.056 A 
ATOM     11  F   UNL A   1      34.441  24.880  26.368  1.00  0.00    -0.205 F 
BRANCH   6  12
ATOM     12  S   UNL A   1      31.859  23.403  26.055  1.00  0.00     0.243 S 
ATOM     13  O   UNL A   1      31.569  23.809  27.410  1.00  0.00    -0.207 OA
ATOM     14  O   UNL A   1      30.999  22.470  25.354  1.00  0.00    -0.207 OA
BRANCH  12  15
ATOM     15  N   UNL A   1      31.935  24.779  25.103  1.00  0.00    -0.205 NA
ATOM     16  H   UNL A   1      31.211  25.414  25.438  1.00  0.00     0.141 HD
BRANCH  15  17
ATOM     17  C   UNL A   1      31.756  24.653  23.645  1.00  0.00     0.163 C 
BRANCH  17  18
ATOM     18  C   UNL A   1      33.122  24.770  22.907  1.00  0.00     0.195 C 
ATOM     19  C   UNL A   1      33.600  23.382  22.440  1.00  0.00     0.076 C 
BRANCH  18  20
ATOM     20  N   UNL A   1      33.078  25.790  21.831  1.00  0.00    -0.337 N 
ATOM     21  C   UNL A   1      31.740  25.927  21.250  1.00  0.00     0.332 C 
ATOM     22  C   UNL A   1      33.597  27.103  22.213  1.00  0.00     0.332 C 
ATOM     23  H   UNL A   1      33.712  25.425  21.121  1.00  0.00     0.347 HD
ENDBRANCH  18  20
ENDBRANCH  17  18
ENDBRANCH  15  17
ENDBRANCH  12  15
ENDBRANCH   6  12
ENDBRANCH   3   5
ENDBRANCH   2   3
ENDBRANCH   1   2
BRANCH   1  24
ATOM     24  C   UNL A   1      40.146  21.116  26.479  1.00  0.00     0.202 C 
BRANCH  24  25
ATOM     25  O   UNL A   1      41.209  21.334  25.550  1.00  0.00    -0.374 OA
BRANCH  25  26
ATOM     26  C   UNL A   1      42.522  20.981  25.992  1.00  0.00     0.202 C 
BRANCH  26  27
ATOM     27  C   UNL A   1      43.664  21.758  25.327  1.00  0.00     0.261 C 
BRANCH  27  28
ATOM     28  O   UNL A   1      43.179  22.982  24.741  1.00  0.00    -0.460 OA
BRANCH  28  29
ATOM     29  C   UNL A   1      43.940  24.075  24.988  1.00  0.00     0.338 C 
ATOM     30  O   UNL A   1      44.988  24.386  24.449  1.00  0.00    -0.246 OA
BRANCH  29  31
ATOM     31  C   UNL A   1      43.225  24.980  25.910  1.00  0.00     0.060 A 
ATOM     32  C   UNL A   1      43.765  26.259  26.102  1.00  0.00     0.016 A 
ATOM     33  C   UNL A   1      42.088  24.579  26.616  1.00  0.00     0.016 A 
ATOM     34  C   UNL A   1      43.202  27.122  27.039  1.00  0.00     0.010 A 
ATOM     35  C   UNL A   1      41.530  25.443  27.565  1.00  0.00     0.010 A 
ATOM     36  C   UNL A   1      42.105  26.704  27.805  1.00  0.00    -0.014 A 
BRANCH  36  37
ATOM     37  C   UNL A   1      41.660  27.531  28.951  1.00  0.00     0.031 A 
ATOM     38  C   UNL A   1      42.419  27.448  30.246  1.00  0.00     0.074 A 
ATOM     39  C   UNL A   1      40.620  28.375  28.830  1.00  0.00     0.049 A 
ATOM     40  N   UNL A   1      42.192  28.061  31.380  1.00  0.00    -0.248 NA
ATOM     41  C   UNL A   1      43.593  26.559  30.268  1.00  0.00     0.031 C 
ATOM     42  C   UNL A   1      39.835  28.580  27.615  1.00  0.00     0.029 A 
ATOM     43  N   UNL A   1      40.047  29.219  29.749  1.00  0.00    -0.354 N 
ATOM     44  C   UNL A   1      43.191  27.635  32.245  1.00  0.00     0.074 A 
ATOM     45  C   UNL A   1      44.012  26.692  31.517  1.00  0.00     0.031 C 
ATOM     46  C   UNL A   1      38.876  29.489  27.864  1.00  0.00     0.029 A 
ATOM     47  C   UNL A   1      38.964  29.907  29.263  1.00  0.00     0.049 A 
ATOM     48  H   UNL A   1      40.382  29.322  30.669  1.00  0.00     0.167 HD
ATOM     49  C   UNL A   1      43.410  28.004  33.528  1.00  0.00     0.037 A 
ATOM     50  C   UNL A   1      38.128  30.764  29.880  1.00  0.00     0.037 A 
ATOM     51  C   UNL A   1      42.600  28.947  34.251  1.00  0.00     0.049 A 
ATOM     52  C   UNL A   1      38.350  31.104  31.329  1.00  0.00     0.074 A 
ATOM     53  C   UNL A   1      42.753  29.391  35.553  1.00  0.00     0.029 A 
ATOM     54  N   UNL A   1      41.487  29.589  33.736  1.00  0.00    -0.354 N 
ATOM     55  N   UNL A   1      39.302  30.699  32.136  1.00  0.00    -0.248 NA
ATOM     56  C   UNL A   1      37.383  32.018  31.957  1.00  0.00     0.031 C 
ATOM     57  C   UNL A   1      41.708  30.273  35.839  1.00  0.00     0.029 A 
ATOM     58  C   UNL A   1      40.930  30.412  34.701  1.00  0.00     0.049 A 
ATOM     59  H   UNL A   1      41.143  29.479  32.820  1.00  0.00     0.167 HD
ATOM     60  C   UNL A   1      39.061  31.323  33.354  1.00  0.00     0.074 A 
ATOM     61  C   UNL A   1      37.880  32.142  33.180  1.00  0.00     0.031 C 
ATOM     62  C   UNL A   1      39.759  31.227  34.512  1.00  0.00     0.037 A 
BRANCH  49  63
ATOM     63  C   UNL A   1      44.571  27.385  34.245  1.00  0.00     0.057 A 
ATOM     64  C   UNL A   1      45.821  28.014  34.255  1.00  0.00     0.134 A 
ATOM     65  C   UNL A   1      44.469  26.130  34.858  1.00  0.00     0.134 A 
ATOM     66  F   UNL A   1      45.984  29.216  33.682  1.00  0.00    -0.206 F 
ATOM     67  C   UNL A   1      46.936  27.409  34.837  1.00  0.00     0.040 A 
ATOM     68  C   UNL A   1      45.573  25.525  35.461  1.00  0.00     0.040 A 
ATOM     69  F   UNL A   1      43.294  25.483  34.892  1.00  0.00    -0.206 F 
ATOM     70  C   UNL A   1      46.813  26.160  35.442  1.00  0.00     0.006 A 
ENDBRANCH  49  63
BRANCH  50  71
ATOM     71  C   UNL A   1      36.991  31.357  29.133  1.00  0.00     0.057 A 
ATOM     72  C   UNL A   1      35.828  30.620  28.874  1.00  0.00     0.134 A 
ATOM     73  C   UNL A   1      37.038  32.674  28.666  1.00  0.00     0.134 A 
ATOM     74  F   UNL A   1      35.722  29.352  29.298  1.00  0.00    -0.206 F 
ATOM     75  C   UNL A   1      34.758  31.169  28.167  1.00  0.00     0.040 A 
ATOM     76  C   UNL A   1      35.966  33.244  27.976  1.00  0.00     0.040 A 
ATOM     77  F   UNL A   1      38.115  33.436  28.904  1.00  0.00    -0.206 F 
ATOM     78  C   UNL A   1      34.823  32.487  27.719  1.00  0.00     0.006 A 
ENDBRANCH  50  71
BRANCH  62  79
ATOM     79  C   UNL A   1      39.287  32.038  35.681  1.00  0.00     0.057 A 
ATOM     80  C   UNL A   1      38.359  31.507  36.587  1.00  0.00     0.134 A 
ATOM     81  C   UNL A   1      39.685  33.367  35.861  1.00  0.00     0.134 A 
ATOM     82  F   UNL A   1      37.929  30.243  36.461  1.00  0.00    -0.206 F 
ATOM     83  C   UNL A   1      37.830  32.279  37.622  1.00  0.00     0.040 A 
ATOM     84  C   UNL A   1      39.178  34.141  36.906  1.00  0.00     0.040 A 
ATOM     85  F   UNL A   1      40.577  33.928  35.031  1.00  0.00    -0.206 F 
ATOM     86  C   UNL A   1      38.241  33.600  37.785  1.00  0.00     0.006 A 
ENDBRANCH  62  79
ENDBRANCH  36  37
ENDBRANCH  29  31
ENDBRANCH  28  29
ENDBRANCH  27  28
ENDBRANCH  26  27
ENDBRANCH  25  26
ENDBRANCH  24  25
ENDBRANCH   1  24
TORSDOF 19
ENDMDL
MODEL 2
REMARK VINA RESULT:     -10.5      1.298      2.250
REMARK SMILES C[C@H](CNS(=O)(=O)c1ccc(C(=O)OCCOCCOC(=O)c2ccc(-c3c4nc(c(-c5c(F)cccc5F)c5ccc([nH]5)c(-c5c(F)cccc5F)c5nc(c(-c6c(F)cccc6F)c6ccc3[nH]6)C=C5)C=C4)cc2)cc1F)[NH+](C)C
REMARK SMILES IDX 15 1 14 2 12 3 13 4 11 5 8 6 9 7 78 8 10 9 77 10 79 11 5 12
REMARK SMILES IDX 6 13 7 14 4 15 3 17 2 18 1 19 80 20 81 21 82 22 16 24 17 25
REMARK SMILES IDX 18 26 19 27 20 28 21 29 22 30 23 31 24 32 76 33 25 34 75 35
REMARK SMILES IDX 26 36 27 37 28 38 69 39 29 40 74 41 68 42 70 43 30 44 73 45
REMARK SMILES IDX 67 46 66 47 31 49 57 50 40 51 56 52 41 53 44 54 55 55 71 56
REMARK SMILES IDX 42 57 43 58 54 60 72 61 45 62 32 63 33 64 38 65 34 66 35 67
REMARK SMILES IDX 37 68 39 69 36 70 58 71 59 72 64 73 60 74 61 75 63 76 65 77
REMARK SMILES IDX 62 78 46 79 47 80 52 81 48 82 49 83 51 84 53 85 50 86
REMARK H PARENT 4 16 80 23 70 48 44 59
REMARK Flexibility Score: inf
ROOT
ATOM      1  C   UNL A   1      39.669  20.915  26.322  1.00  0.00     0.261 C 
ENDROOT
BRANCH   1   2
ATOM      2  O   UNL A   1      38.685  21.643  25.565  1.00  0.00    -0.460 OA
BRANCH   2   3
ATOM      3  C   UNL A   1      37.739  20.870  24.983  1.00  0.00     0.338 C 
ATOM      4  O   UNL A   1      37.826  19.684  24.710  1.00  0.00    -0.246 OA
BRANCH   3   5
ATOM      5  C   UNL A   1      36.473  21.622  24.827  1.00  0.00     0.063 A 
ATOM      6  C   UNL A   1      34.241  23.266  24.546  1.00  0.00     0.118 A 
ATOM      7  C   UNL A   1      35.311  23.401  23.657  1.00  0.00     0.026 A 
ATOM      8  C   UNL A   1      34.261  22.279  25.527  1.00  0.00     0.144 A 
ATOM      9  C   UNL A   1      36.428  22.581  23.805  1.00  0.00     0.017 A 
ATOM     10  C   UNL A   1      35.371  21.441  25.667  1.00  0.00     0.056 A 
ATOM     11  F   UNL A   1      33.238  22.127  26.377  1.00  0.00    -0.205 F 
BRANCH   6  12
ATOM     12  S   UNL A   1      32.963  24.477  24.547  1.00  0.00     0.243 S 
ATOM     13  O   UNL A   1      31.693  23.797  24.459  1.00  0.00    -0.207 OA
ATOM     14  O   UNL A   1      33.338  25.489  23.579  1.00  0.00    -0.207 OA
BRANCH  12  15
ATOM     15  N   UNL A   1      33.059  25.209  26.051  1.00  0.00    -0.205 NA
ATOM     16  H   UNL A   1      32.200  24.979  26.550  1.00  0.00     0.141 HD
BRANCH  15  17
ATOM     17  C   UNL A   1      33.226  26.671  26.128  1.00  0.00     0.163 C 
BRANCH  17  18
ATOM     18  C   UNL A   1      31.843  27.388  26.112  1.00  0.00     0.195 C 
ATOM     19  C   UNL A   1      31.790  28.473  27.204  1.00  0.00     0.076 C 
BRANCH  18  20
ATOM     20  N   UNL A   1      31.495  27.876  24.755  1.00  0.00    -0.337 N 
ATOM     21  C   UNL A   1      30.289  27.234  24.227  1.00  0.00     0.332 C 
ATOM     22  C   UNL A   1      31.383  29.330  24.640  1.00  0.00     0.332 C 
ATOM     23  H   UNL A   1      32.294  27.602  24.183  1.00  0.00     0.347 HD
ENDBRANCH  18  20
ENDBRANCH  17  18
ENDBRANCH  15  17
ENDBRANCH  12  15
ENDBRANCH   6  12
ENDBRANCH   3   5
ENDBRANCH   2   3
ENDBRANCH   1   2
BRANCH   1  24
ATOM     24  C   UNL A   1      40.978  21.701  26.410  1.00  0.00     0.202 C 
BRANCH  24  25
ATOM     25  O   UNL A   1      41.923  21.421  25.377  1.00  0.00    -0.374 OA
BRANCH  25  26
ATOM     26  C   UNL A   1      43.292  21.314  25.778  1.00  0.00     0.202 C 
BRANCH  26  27
ATOM     27  C   UNL A   1      44.266  22.225  25.022  1.00  0.00     0.261 C 
BRANCH  27  28
ATOM     28  O   UNL A   1      43.644  23.484  24.697  1.00  0.00    -0.460 OA
BRANCH  28  29
ATOM     29  C   UNL A   1      44.345  24.582  25.072  1.00  0.00     0.338 C 
ATOM     30  O   UNL A   1      45.411  24.967  24.627  1.00  0.00    -0.246 OA
BRANCH  29  31
ATOM     31  C   UNL A   1      43.538  25.391  26.006  1.00  0.00     0.060 A 
ATOM     32  C   UNL A   1      43.868  26.747  26.131  1.00  0.00     0.016 A 
ATOM     33  C   UNL A   1      42.520  24.835  26.786  1.00  0.00     0.016 A 
ATOM     34  C   UNL A   1      43.218  27.541  27.074  1.00  0.00     0.010 A 
ATOM     35  C   UNL A   1      41.876  25.631  27.741  1.00  0.00     0.010 A 
ATOM     36  C   UNL A   1      42.246  26.977  27.911  1.00  0.00    -0.014 A 
BRANCH  36  37
ATOM     37  C   UNL A   1      41.730  27.762  29.057  1.00  0.00     0.031 A 
ATOM     38  C   UNL A   1      42.444  27.680  30.377  1.00  0.00     0.074 A 
ATOM     39  C   UNL A   1      40.664  28.570  28.915  1.00  0.00     0.049 A 
ATOM     40  N   UNL A   1      42.154  28.259  31.514  1.00  0.00    -0.248 NA
ATOM     41  C   UNL A   1      43.649  26.834  30.424  1.00  0.00     0.031 C 
ATOM     42  C   UNL A   1      39.916  28.772  27.676  1.00  0.00     0.029 A 
ATOM     43  N   UNL A   1      40.027  29.373  29.829  1.00  0.00    -0.354 N 
ATOM     44  C   UNL A   1      43.136  27.852  32.407  1.00  0.00     0.074 A 
ATOM     45  C   UNL A   1      44.017  26.955  31.690  1.00  0.00     0.031 C 
ATOM     46  C   UNL A   1      38.915  29.640  27.908  1.00  0.00     0.029 A 
ATOM     47  C   UNL A   1      38.937  30.031  29.317  1.00  0.00     0.049 A 
ATOM     48  H   UNL A   1      40.325  29.468  30.763  1.00  0.00     0.167 HD
ATOM     49  C   UNL A   1      43.295  28.201  33.704  1.00  0.00     0.037 A 
ATOM     50  C   UNL A   1      38.047  30.844  29.921  1.00  0.00     0.037 A 
ATOM     51  C   UNL A   1      42.425  29.097  34.416  1.00  0.00     0.049 A 
ATOM     52  C   UNL A   1      38.205  31.160  31.384  1.00  0.00     0.074 A 
ATOM     53  C   UNL A   1      42.514  29.519  35.731  1.00  0.00     0.029 A 
ATOM     54  N   UNL A   1      41.307  29.710  33.873  1.00  0.00    -0.354 N 
ATOM     55  N   UNL A   1      39.141  30.773  32.217  1.00  0.00    -0.248 NA
ATOM     56  C   UNL A   1      37.182  32.024  31.994  1.00  0.00     0.031 C 
ATOM     57  C   UNL A   1      41.427  30.356  35.996  1.00  0.00     0.029 A 
ATOM     58  C   UNL A   1      40.685  30.490  34.834  1.00  0.00     0.049 A 
ATOM     59  H   UNL A   1      41.001  29.607  32.943  1.00  0.00     0.167 HD
ATOM     60  C   UNL A   1      38.834  31.361  33.437  1.00  0.00     0.074 A 
ATOM     61  C   UNL A   1      37.630  32.139  33.236  1.00  0.00     0.031 C 
ATOM     62  C   UNL A   1      39.493  31.266  34.618  1.00  0.00     0.037 A 
BRANCH  49  63
ATOM     63  C   UNL A   1      44.451  27.609  34.451  1.00  0.00     0.057 A 
ATOM     64  C   UNL A   1      44.294  26.433  35.194  1.00  0.00     0.134 A 
ATOM     65  C   UNL A   1      45.697  28.246  34.496  1.00  0.00     0.134 A 
ATOM     66  F   UNL A   1      43.122  25.779  35.194  1.00  0.00    -0.206 F 
ATOM     67  C   UNL A   1      45.332  25.919  35.971  1.00  0.00     0.040 A 
ATOM     68  C   UNL A   1      46.750  27.729  35.254  1.00  0.00     0.040 A 
ATOM     69  F   UNL A   1      45.913  29.369  33.795  1.00  0.00    -0.206 F 
ATOM     70  C   UNL A   1      46.565  26.568  36.002  1.00  0.00     0.006 A 
ENDBRANCH  49  63
BRANCH  50  71
ATOM     71  C   UNL A   1      36.917  31.410  29.144  1.00  0.00     0.057 A 
ATOM     72  C   UNL A   1      36.918  32.747  28.728  1.00  0.00     0.134 A 
ATOM     73  C   UNL A   1      35.813  30.626  28.794  1.00  0.00     0.134 A 
ATOM     74  F   UNL A   1      37.950  33.549  29.031  1.00  0.00    -0.206 F 
ATOM     75  C   UNL A   1      35.857  33.288  28.002  1.00  0.00     0.040 A 
ATOM     76  C   UNL A   1      34.753  31.147  28.049  1.00  0.00     0.040 A 
ATOM     77  F   UNL A   1      35.766  29.333  29.144  1.00  0.00    -0.206 F 
ATOM     78  C   UNL A   1      34.771  32.485  27.657  1.00  0.00     0.006 A 
ENDBRANCH  50  71
BRANCH  62  79
ATOM     79  C   UNL A   1      38.949  32.033  35.785  1.00  0.00     0.057 A 
ATOM     80  C   UNL A   1      39.296  33.377  35.978  1.00  0.00     0.134 A 
ATOM     81  C   UNL A   1      38.153  31.421  36.760  1.00  0.00     0.134 A 
ATOM     82  F   UNL A   1      40.065  34.017  35.085  1.00  0.00    -0.206 F 
ATOM     83  C   UNL A   1      38.883  34.080  37.110  1.00  0.00     0.040 A 
ATOM     84  C   UNL A   1      37.717  32.120  37.886  1.00  0.00     0.040 A 
ATOM     85  F   UNL A   1      37.781  30.139  36.626  1.00  0.00    -0.206 F 
ATOM     86  C   UNL A   1      38.089  33.451  38.068  1.00  0.00     0.006 A 
ENDBRANCH  62  79
ENDBRANCH  36  37
ENDBRANCH  29  31
ENDBRANCH  28  29
ENDBRANCH  27  28
ENDBRANCH  26  27
ENDBRANCH  25  26
ENDBRANCH  24  25
ENDBRANCH   1  24
TORSDOF 19
ENDMDL
MODEL 3
REMARK VINA RESULT:     -10.4      1.387      6.352
REMARK SMILES C[C@H](CNS(=O)(=O)c1ccc(C(=O)OCCOCCOC(=O)c2ccc(-c3c4nc(c(-c5c(F)cccc5F)c5ccc([nH]5)c(-c5c(F)cccc5F)c5nc(c(-c6c(F)cccc6F)c6ccc3[nH]6)C=C5)C=C4)cc2)cc1F)[NH+](C)C
REMARK SMILES IDX 15 1 14 2 12 3 13 4 11 5 8 6 9 7 78 8 10 9 77 10 79 11 5 12
REMARK SMILES IDX 6 13 7 14 4 15 3 17 2 18 1 19 80 20 81 21 82 22 16 24 17 25
REMARK SMILES IDX 18 26 19 27 20 28 21 29 22 30 23 31 24 32 76 33 25 34 75 35
REMARK SMILES IDX 26 36 27 37 28 38 69 39 29 40 74 41 68 42 70 43 30 44 73 45
REMARK SMILES IDX 67 46 66 47 31 49 57 50 40 51 56 52 41 53 44 54 55 55 71 56
REMARK SMILES IDX 42 57 43 58 54 60 72 61 45 62 32 63 33 64 38 65 34 66 35 67
REMARK SMILES IDX 37 68 39 69 36 70 58 71 59 72 64 73 60 74 61 75 63 76 65 77
REMARK SMILES IDX 62 78 46 79 47 80 52 81 48 82 49 83 51 84 53 85 50 86
REMARK H PARENT 4 16 80 23 70 48 44 59
REMARK Flexibility Score: inf
ROOT
ATOM      1  C   UNL A   1      39.104  22.141  26.504  1.00  0.00     0.261 C 
ENDROOT
BRANCH   1   2
ATOM      2  O   UNL A   1      38.673  21.899  25.153  1.00  0.00    -0.460 OA
BRANCH   2   3
ATOM      3  C   UNL A   1      37.569  21.123  25.045  1.00  0.00     0.338 C 
ATOM      4  O   UNL A   1      37.521  19.904  25.098  1.00  0.00    -0.246 OA
BRANCH   3   5
ATOM      5  C   UNL A   1      36.347  21.956  24.989  1.00  0.00     0.063 A 
ATOM      6  C   UNL A   1      34.208  23.731  24.804  1.00  0.00     0.118 A 
ATOM      7  C   UNL A   1      35.032  23.529  23.694  1.00  0.00     0.026 A 
ATOM      8  C   UNL A   1      34.415  23.008  25.975  1.00  0.00     0.144 A 
ATOM      9  C   UNL A   1      36.105  22.645  23.793  1.00  0.00     0.017 A 
ATOM     10  C   UNL A   1      35.477  22.105  26.074  1.00  0.00     0.056 A 
ATOM     11  F   UNL A   1      33.625  23.180  27.043  1.00  0.00    -0.205 F 
BRANCH   6  12
ATOM     12  S   UNL A   1      33.038  25.047  24.780  1.00  0.00     0.243 S 
ATOM     13  O   UNL A   1      31.749  24.514  25.155  1.00  0.00    -0.207 OA
ATOM     14  O   UNL A   1      33.220  25.752  23.528  1.00  0.00    -0.207 OA
BRANCH  12  15
ATOM     15  N   UNL A   1      33.539  26.095  25.987  1.00  0.00    -0.205 NA
ATOM     16  H   UNL A   1      33.040  25.834  26.837  1.00  0.00     0.141 HD
BRANCH  15  17
ATOM     17  C   UNL A   1      33.347  27.545  25.802  1.00  0.00     0.163 C 
BRANCH  17  18
ATOM     18  C   UNL A   1      31.874  27.952  26.105  1.00  0.00     0.195 C 
ATOM     19  C   UNL A   1      31.689  28.207  27.613  1.00  0.00     0.076 C 
BRANCH  18  20
ATOM     20  N   UNL A   1      31.426  29.071  25.240  1.00  0.00    -0.337 N 
ATOM     21  C   UNL A   1      31.784  30.379  25.793  1.00  0.00     0.332 C 
ATOM     22  C   UNL A   1      31.864  28.978  23.847  1.00  0.00     0.332 C 
ATOM     23  H   UNL A   1      30.411  28.981  25.230  1.00  0.00     0.347 HD
ENDBRANCH  18  20
ENDBRANCH  17  18
ENDBRANCH  15  17
ENDBRANCH  12  15
ENDBRANCH   6  12
ENDBRANCH   3   5
ENDBRANCH   2   3
ENDBRANCH   1   2
BRANCH   1  24
ATOM     24  C   UNL A   1      40.435  21.442  26.784  1.00  0.00     0.202 C 
BRANCH  24  25
ATOM     25  O   UNL A   1      41.349  21.417  25.686  1.00  0.00    -0.374 OA
BRANCH  25  26
ATOM     26  C   UNL A   1      42.707  21.097  25.996  1.00  0.00     0.202 C 
BRANCH  26  27
ATOM     27  C   UNL A   1      43.750  22.072  25.436  1.00  0.00     0.261 C 
BRANCH  27  28
ATOM     28  O   UNL A   1      43.127  23.297  25.003  1.00  0.00    -0.460 OA
BRANCH  28  29
ATOM     29  C   UNL A   1      43.858  24.417  25.221  1.00  0.00     0.338 C 
ATOM     30  O   UNL A   1      44.855  24.779  24.621  1.00  0.00    -0.246 OA
BRANCH  29  31
ATOM     31  C   UNL A   1      43.168  25.278  26.202  1.00  0.00     0.060 A 
ATOM     32  C   UNL A   1      43.711  26.548  26.436  1.00  0.00     0.016 A 
ATOM     33  C   UNL A   1      42.051  24.842  26.921  1.00  0.00     0.016 A 
ATOM     34  C   UNL A   1      43.173  27.367  27.427  1.00  0.00     0.010 A 
ATOM     35  C   UNL A   1      41.519  25.661  27.923  1.00  0.00     0.010 A 
ATOM     36  C   UNL A   1      42.099  26.911  28.203  1.00  0.00    -0.014 A 
BRANCH  36  37
ATOM     37  C   UNL A   1      41.685  27.685  29.398  1.00  0.00     0.031 A 
ATOM     38  C   UNL A   1      40.494  28.596  29.298  1.00  0.00     0.074 A 
ATOM     39  C   UNL A   1      42.335  27.547  30.567  1.00  0.00     0.049 A 
ATOM     40  N   UNL A   1      39.973  29.381  30.207  1.00  0.00    -0.248 NA
ATOM     41  C   UNL A   1      39.792  28.626  28.004  1.00  0.00     0.031 C 
ATOM     42  C   UNL A   1      43.473  26.661  30.802  1.00  0.00     0.029 A 
ATOM     43  N   UNL A   1      42.126  28.157  31.779  1.00  0.00    -0.354 N 
ATOM     44  C   UNL A   1      38.886  29.994  29.597  1.00  0.00     0.074 A 
ATOM     45  C   UNL A   1      38.835  29.512  28.234  1.00  0.00     0.031 C 
ATOM     46  C   UNL A   1      43.867  26.789  32.081  1.00  0.00     0.029 A 
ATOM     47  C   UNL A   1      43.027  27.786  32.745  1.00  0.00     0.049 A 
ATOM     48  H   UNL A   1      41.398  28.800  31.940  1.00  0.00     0.167 HD
ATOM     49  C   UNL A   1      38.005  30.871  30.129  1.00  0.00     0.037 A 
ATOM     50  C   UNL A   1      43.169  28.213  34.015  1.00  0.00     0.037 A 
ATOM     51  C   UNL A   1      38.050  31.346  31.486  1.00  0.00     0.049 A 
ATOM     52  C   UNL A   1      42.219  29.244  34.561  1.00  0.00     0.074 A 
ATOM     53  C   UNL A   1      37.191  32.229  32.117  1.00  0.00     0.029 A 
ATOM     54  N   UNL A   1      39.005  30.977  32.420  1.00  0.00    -0.354 N 
ATOM     55  N   UNL A   1      41.192  29.813  33.977  1.00  0.00    -0.248 NA
ATOM     56  C   UNL A   1      42.448  29.697  35.943  1.00  0.00     0.031 C 
ATOM     57  C   UNL A   1      37.649  32.425  33.423  1.00  0.00     0.029 A 
ATOM     58  C   UNL A   1      38.768  31.631  33.618  1.00  0.00     0.049 A 
ATOM     59  H   UNL A   1      39.741  30.344  32.257  1.00  0.00     0.167 HD
ATOM     60  C   UNL A   1      40.641  30.669  34.923  1.00  0.00     0.074 A 
ATOM     61  C   UNL A   1      41.441  30.540  36.122  1.00  0.00     0.031 C 
ATOM     62  C   UNL A   1      39.567  31.487  34.806  1.00  0.00     0.037 A 
BRANCH  49  63
ATOM     63  C   UNL A   1      36.913  31.389  29.244  1.00  0.00     0.057 A 
ATOM     64  C   UNL A   1      36.961  32.695  28.741  1.00  0.00     0.134 A 
ATOM     65  C   UNL A   1      35.779  30.621  28.954  1.00  0.00     0.134 A 
ATOM     66  F   UNL A   1      38.019  33.481  28.987  1.00  0.00    -0.206 F 
ATOM     67  C   UNL A   1      35.909  33.226  27.993  1.00  0.00     0.040 A 
ATOM     68  C   UNL A   1      34.730  31.135  28.190  1.00  0.00     0.040 A 
ATOM     69  F   UNL A   1      35.680  29.358  29.397  1.00  0.00    -0.206 F 
ATOM     70  C   UNL A   1      34.789  32.445  27.716  1.00  0.00     0.006 A 
ENDBRANCH  49  63
BRANCH  50  71
ATOM     71  C   UNL A   1      44.264  27.673  34.859  1.00  0.00     0.057 A 
ATOM     72  C   UNL A   1      45.509  28.310  34.929  1.00  0.00     0.134 A 
ATOM     73  C   UNL A   1      44.089  26.514  35.619  1.00  0.00     0.134 A 
ATOM     74  F   UNL A   1      45.738  29.428  34.224  1.00  0.00    -0.206 F 
ATOM     75  C   UNL A   1      46.545  27.806  35.716  1.00  0.00     0.040 A 
ATOM     76  C   UNL A   1      45.109  26.009  36.429  1.00  0.00     0.040 A 
ATOM     77  F   UNL A   1      42.911  25.873  35.612  1.00  0.00    -0.206 F 
ATOM     78  C   UNL A   1      46.345  26.654  36.473  1.00  0.00     0.006 A 
ENDBRANCH  50  71
BRANCH  62  79
ATOM     79  C   UNL A   1      39.171  32.295  36.005  1.00  0.00     0.057 A 
ATOM     80  C   UNL A   1      38.242  31.794  36.926  1.00  0.00     0.134 A 
ATOM     81  C   UNL A   1      39.643  33.598  36.201  1.00  0.00     0.134 A 
ATOM     82  F   UNL A   1      37.743  30.557  36.787  1.00  0.00    -0.206 F 
ATOM     83  C   UNL A   1      37.784  32.569  37.993  1.00  0.00     0.040 A 
ATOM     84  C   UNL A   1      39.208  34.374  37.276  1.00  0.00     0.040 A 
ATOM     85  F   UNL A   1      40.540  34.130  35.357  1.00  0.00    -0.206 F 
ATOM     86  C   UNL A   1      38.269  33.863  38.171  1.00  0.00     0.006 A 
ENDBRANCH  62  79
ENDBRANCH  36  37
ENDBRANCH  29  31
ENDBRANCH  28  29
ENDBRANCH  27  28
ENDBRANCH  26  27
ENDBRANCH  25  26
ENDBRANCH  24  25
ENDBRANCH   1  24
TORSDOF 19
ENDMDL
