MODEL 1
REMARK VINA RESULT:     -12.3      0.000      0.000
REMARK SMILES O=C(OCCOCCOC(=O)[C@@]12CN(CC3CC3)C(=O)[C@@H]1CN(c1nc3ccccc3o1)C2)c1ccc(-c2c3nc(c(-c4c(F)cccc4F)c4ccc([nH]4)c(-c4c(F)cccc4F)c4nc(c(-c5c(F)cccc5F)c5ccc2[nH]5)C=C4)C=C3)cc1
REMARK SMILES IDX 6 1 5 2 4 3 3 4 2 5 1 6 34 7 35 8 87 9 36 10 86 11 37 12
REMARK SMILES IDX 38 13 39 14 80 15 40 16 85 17 79 18 81 19 41 20 84 21 78 22
REMARK SMILES IDX 77 23 42 25 68 26 51 27 67 28 52 29 55 30 66 31 82 32 53 33
REMARK SMILES IDX 54 34 65 36 83 37 56 38 43 39 44 40 49 41 45 42 46 43 48 44
REMARK SMILES IDX 50 45 47 46 69 47 70 48 75 49 71 50 72 51 74 52 76 53 73 54
REMARK SMILES IDX 57 55 58 56 63 57 59 58 60 59 62 60 64 61 61 62 7 63 8 64
REMARK SMILES IDX 9 65 10 66 11 67 12 68 13 69 21 70 33 71 14 72 19 73 22 74
REMARK SMILES IDX 23 75 20 76 15 77 16 78 17 79 18 80 24 81 25 82 32 83 26 84
REMARK SMILES IDX 31 85 27 86 30 87 28 88 29 89
REMARK H PARENT 81 24 55 35
REMARK Flexibility Score: inf
ROOT
ATOM      1  O   UNL A   1      32.141  30.695  26.971  1.00  0.00    -0.374 OA
ENDROOT
BRANCH   1   2
ATOM      2  C   UNL A   1      31.404  31.759  26.384  1.00  0.00     0.202 C 
BRANCH   2   3
ATOM      3  C   UNL A   1      31.758  33.227  26.642  1.00  0.00     0.261 C 
BRANCH   3   4
ATOM      4  O   UNL A   1      32.189  33.554  27.979  1.00  0.00    -0.460 OA
BRANCH   4   5
ATOM      5  C   UNL A   1      33.277  34.309  28.289  1.00  0.00     0.338 C 
ATOM      6  O   UNL A   1      33.314  35.509  28.058  1.00  0.00    -0.246 OA
BRANCH   5   7
ATOM      7  C   UNL A   1      34.449  33.627  28.872  1.00  0.00     0.060 A 
ATOM      8  C   UNL A   1      34.327  32.318  29.295  1.00  0.00     0.016 A 
ATOM      9  C   UNL A   1      35.696  34.228  28.949  1.00  0.00     0.016 A 
ATOM     10  C   UNL A   1      35.253  31.710  30.085  1.00  0.00     0.010 A 
ATOM     11  C   UNL A   1      36.758  33.499  29.497  1.00  0.00     0.010 A 
ATOM     12  C   UNL A   1      36.522  32.239  30.079  1.00  0.00    -0.014 A 
BRANCH  12  13
ATOM     13  C   UNL A   1      37.553  31.399  30.691  1.00  0.00     0.031 A 
ATOM     14  C   UNL A   1      37.761  31.526  32.155  1.00  0.00     0.074 A 
ATOM     15  C   UNL A   1      38.175  30.463  29.941  1.00  0.00     0.049 A 
ATOM     16  N   UNL A   1      38.742  31.081  32.878  1.00  0.00    -0.248 NA
ATOM     17  C   UNL A   1      36.729  32.264  32.907  1.00  0.00     0.031 C 
ATOM     18  C   UNL A   1      37.881  30.158  28.530  1.00  0.00     0.029 A 
ATOM     19  N   UNL A   1      39.159  29.571  30.259  1.00  0.00    -0.354 N 
ATOM     20  C   UNL A   1      38.503  31.566  34.153  1.00  0.00     0.074 A 
ATOM     21  C   UNL A   1      37.259  32.300  34.119  1.00  0.00     0.031 C 
ATOM     22  C   UNL A   1      38.643  29.134  28.123  1.00  0.00     0.029 A 
ATOM     23  C   UNL A   1      39.580  28.821  29.184  1.00  0.00     0.049 A 
ATOM     24  H   UNL A   1      39.531  29.474  31.166  1.00  0.00     0.167 HD
ATOM     25  C   UNL A   1      39.302  31.427  35.230  1.00  0.00     0.037 A 
ATOM     26  C   UNL A   1      40.674  28.051  29.051  1.00  0.00     0.037 A 
ATOM     27  C   UNL A   1      40.509  30.652  35.189  1.00  0.00     0.049 A 
ATOM     28  C   UNL A   1      41.591  27.989  30.238  1.00  0.00     0.074 A 
ATOM     29  C   UNL A   1      41.436  30.440  36.189  1.00  0.00     0.029 A 
ATOM     30  N   UNL A   1      40.948  29.952  34.069  1.00  0.00    -0.354 N 
ATOM     31  N   UNL A   1      41.430  28.519  31.429  1.00  0.00    -0.248 NA
ATOM     32  C   UNL A   1      42.854  27.269  30.061  1.00  0.00     0.031 C 
ATOM     33  C   UNL A   1      42.465  29.658  35.653  1.00  0.00     0.029 A 
ATOM     34  C   UNL A   1      42.153  29.336  34.340  1.00  0.00     0.049 A 
ATOM     35  H   UNL A   1      40.470  29.905  33.210  1.00  0.00     0.167 HD
ATOM     36  C   UNL A   1      42.568  28.197  32.147  1.00  0.00     0.074 A 
ATOM     37  C   UNL A   1      43.397  27.396  31.264  1.00  0.00     0.031 C 
ATOM     38  C   UNL A   1      42.916  28.538  33.412  1.00  0.00     0.037 A 
BRANCH  25  39
ATOM     39  C   UNL A   1      38.950  32.212  36.451  1.00  0.00     0.057 A 
ATOM     40  C   UNL A   1      38.097  31.724  37.449  1.00  0.00     0.134 A 
ATOM     41  C   UNL A   1      39.458  33.508  36.611  1.00  0.00     0.134 A 
ATOM     42  F   UNL A   1      37.541  30.509  37.334  1.00  0.00    -0.206 F 
ATOM     43  C   UNL A   1      37.755  32.504  38.557  1.00  0.00     0.040 A 
ATOM     44  C   UNL A   1      39.143  34.286  37.725  1.00  0.00     0.040 A 
ATOM     45  F   UNL A   1      40.260  34.044  35.678  1.00  0.00    -0.206 F 
ATOM     46  C   UNL A   1      38.285  33.784  38.700  1.00  0.00     0.006 A 
ENDBRANCH  25  39
BRANCH  26  47
ATOM     47  C   UNL A   1      41.023  27.426  27.747  1.00  0.00     0.057 A 
ATOM     48  C   UNL A   1      40.665  26.106  27.450  1.00  0.00     0.134 A 
ATOM     49  C   UNL A   1      41.759  28.118  26.771  1.00  0.00     0.134 A 
ATOM     50  F   UNL A   1      39.974  25.380  28.341  1.00  0.00    -0.206 F 
ATOM     51  C   UNL A   1      41.046  25.492  26.255  1.00  0.00     0.040 A 
ATOM     52  C   UNL A   1      42.116  27.529  25.558  1.00  0.00     0.040 A 
ATOM     53  F   UNL A   1      42.138  29.388  26.979  1.00  0.00    -0.206 F 
ATOM     54  C   UNL A   1      41.771  26.205  25.302  1.00  0.00     0.006 A 
ENDBRANCH  26  47
BRANCH  38  55
ATOM     55  C   UNL A   1      44.228  28.017  33.903  1.00  0.00     0.057 A 
ATOM     56  C   UNL A   1      44.341  26.748  34.480  1.00  0.00     0.134 A 
ATOM     57  C   UNL A   1      45.395  28.766  33.721  1.00  0.00     0.134 A 
ATOM     58  F   UNL A   1      43.250  25.997  34.693  1.00  0.00    -0.206 F 
ATOM     59  C   UNL A   1      45.579  26.241  34.868  1.00  0.00     0.040 A 
ATOM     60  C   UNL A   1      46.641  28.257  34.077  1.00  0.00     0.040 A 
ATOM     61  F   UNL A   1      45.343  29.986  33.166  1.00  0.00    -0.206 F 
ATOM     62  C   UNL A   1      46.734  26.992  34.654  1.00  0.00     0.006 A 
ENDBRANCH  38  55
ENDBRANCH  12  13
ENDBRANCH   5   7
ENDBRANCH   4   5
ENDBRANCH   3   4
ENDBRANCH   2   3
ENDBRANCH   1   2
BRANCH   1  63
ATOM     63  C   UNL A   1      32.955  29.778  26.240  1.00  0.00     0.202 C 
BRANCH  63  64
ATOM     64  C   UNL A   1      33.219  28.587  27.167  1.00  0.00     0.261 C 
BRANCH  64  65
ATOM     65  O   UNL A   1      33.411  27.429  26.346  1.00  0.00    -0.463 OA
BRANCH  65  66
ATOM     66  C   UNL A   1      32.281  26.692  26.143  1.00  0.00     0.316 C 
ATOM     67  O   UNL A   1      31.471  26.354  26.999  1.00  0.00    -0.251 OA
BRANCH  66  68
ATOM     68  C   UNL A   1      32.185  26.392  24.668  1.00  0.00     0.116 C 
ATOM     69  C   UNL A   1      32.633  24.937  25.143  1.00  0.00     0.141 C 
ATOM     70  C   UNL A   1      31.970  25.779  23.259  1.00  0.00     0.119 C 
ATOM     71  C   UNL A   1      30.872  27.226  24.565  1.00  0.00     0.142 C 
ATOM     72  N   UNL A   1      33.704  24.709  24.206  1.00  0.00    -0.341 N 
ATOM     73  C   UNL A   1      33.348  25.254  22.980  1.00  0.00     0.228 C 
ATOM     74  C   UNL A   1      31.469  26.844  22.303  1.00  0.00     0.136 C 
ATOM     75  N   UNL A   1      30.887  27.773  23.223  1.00  0.00    -0.324 N 
ATOM     76  O   UNL A   1      33.986  25.332  21.965  1.00  0.00    -0.274 OA
BRANCH  72  77
ATOM     77  C   UNL A   1      35.056  24.426  24.636  1.00  0.00     0.123 C 
BRANCH  77  78
ATOM     78  C   UNL A   1      35.529  23.100  24.145  1.00  0.00     0.008 C 
ATOM     79  C   UNL A   1      36.653  22.919  23.150  1.00  0.00     0.006 C 
ATOM     80  C   UNL A   1      36.878  22.612  24.604  1.00  0.00     0.006 C 
ENDBRANCH  77  78
ENDBRANCH  72  77
BRANCH  75  81
ATOM     81  C   UNL A   1      30.186  28.853  22.850  1.00  0.00     0.298 A 
ATOM     82  N   UNL A   1      29.753  29.187  21.654  1.00  0.00    -0.193 NA
ATOM     83  O   UNL A   1      29.921  29.777  23.831  1.00  0.00    -0.423 OA
ATOM     84  C   UNL A   1      29.166  30.414  21.846  1.00  0.00     0.111 A 
ATOM     85  C   UNL A   1      29.306  30.802  23.167  1.00  0.00     0.156 A 
ATOM     86  C   UNL A   1      28.508  31.273  20.955  1.00  0.00     0.032 A 
ATOM     87  C   UNL A   1      28.885  32.026  23.681  1.00  0.00     0.049 A 
ATOM     88  C   UNL A   1      28.060  32.515  21.433  1.00  0.00     0.003 A 
ATOM     89  C   UNL A   1      28.261  32.888  22.768  1.00  0.00     0.004 A 
ENDBRANCH  75  81
ENDBRANCH  66  68
ENDBRANCH  65  66
ENDBRANCH  64  65
ENDBRANCH  63  64
ENDBRANCH   1  63
TORSDOF 17
ENDMDL
MODEL 2
REMARK VINA RESULT:     -12.1      1.283      6.041
REMARK SMILES O=C(OCCOCCOC(=O)[C@@]12CN(CC3CC3)C(=O)[C@@H]1CN(c1nc3ccccc3o1)C2)c1ccc(-c2c3nc(c(-c4c(F)cccc4F)c4ccc([nH]4)c(-c4c(F)cccc4F)c4nc(c(-c5c(F)cccc5F)c5ccc2[nH]5)C=C4)C=C3)cc1
REMARK SMILES IDX 6 1 5 2 4 3 3 4 2 5 1 6 34 7 35 8 87 9 36 10 86 11 37 12
REMARK SMILES IDX 38 13 39 14 80 15 40 16 85 17 79 18 81 19 41 20 84 21 78 22
REMARK SMILES IDX 77 23 42 25 68 26 51 27 67 28 52 29 55 30 66 31 82 32 53 33
REMARK SMILES IDX 54 34 65 36 83 37 56 38 43 39 44 40 49 41 45 42 46 43 48 44
REMARK SMILES IDX 50 45 47 46 69 47 70 48 75 49 71 50 72 51 74 52 76 53 73 54
REMARK SMILES IDX 57 55 58 56 63 57 59 58 60 59 62 60 64 61 61 62 7 63 8 64
REMARK SMILES IDX 9 65 10 66 11 67 12 68 13 69 21 70 33 71 14 72 19 73 22 74
REMARK SMILES IDX 23 75 20 76 15 77 16 78 17 79 18 80 24 81 25 82 32 83 26 84
REMARK SMILES IDX 31 85 27 86 30 87 28 88 29 89
REMARK H PARENT 81 24 55 35
REMARK Flexibility Score: inf
ROOT
ATOM      1  O   UNL A   1      32.126  29.930  26.143  1.00  0.00    -0.374 OA
ENDROOT
BRANCH   1   2
ATOM      2  C   UNL A   1      31.827  31.284  26.457  1.00  0.00     0.202 C 
BRANCH   2   3
ATOM      3  C   UNL A   1      32.799  32.164  27.251  1.00  0.00     0.261 C 
BRANCH   3   4
ATOM      4  O   UNL A   1      32.258  33.386  27.790  1.00  0.00    -0.460 OA
BRANCH   4   5
ATOM      5  C   UNL A   1      32.945  34.278  28.552  1.00  0.00     0.338 C 
ATOM      6  O   UNL A   1      32.529  35.410  28.752  1.00  0.00    -0.246 OA
BRANCH   5   7
ATOM      7  C   UNL A   1      34.250  33.859  29.099  1.00  0.00     0.060 A 
ATOM      8  C   UNL A   1      34.295  32.852  30.044  1.00  0.00     0.016 A 
ATOM      9  C   UNL A   1      35.450  34.391  28.650  1.00  0.00     0.016 A 
ATOM     10  C   UNL A   1      35.400  32.596  30.796  1.00  0.00     0.010 A 
ATOM     11  C   UNL A   1      36.643  33.918  29.208  1.00  0.00     0.010 A 
ATOM     12  C   UNL A   1      36.607  33.027  30.298  1.00  0.00    -0.014 A 
BRANCH  12  13
ATOM     13  C   UNL A   1      37.790  32.481  30.966  1.00  0.00     0.031 A 
ATOM     14  C   UNL A   1      38.517  31.381  30.283  1.00  0.00     0.074 A 
ATOM     15  C   UNL A   1      38.246  33.073  32.090  1.00  0.00     0.049 A 
ATOM     16  N   UNL A   1      39.427  30.590  30.761  1.00  0.00    -0.248 NA
ATOM     17  C   UNL A   1      38.162  31.130  28.874  1.00  0.00     0.031 C 
ATOM     18  C   UNL A   1      37.683  34.284  32.714  1.00  0.00     0.029 A 
ATOM     19  N   UNL A   1      39.304  32.766  32.898  1.00  0.00    -0.354 N 
ATOM     20  C   UNL A   1      39.687  29.683  29.748  1.00  0.00     0.074 A 
ATOM     21  C   UNL A   1      38.875  30.047  28.611  1.00  0.00     0.031 C 
ATOM     22  C   UNL A   1      38.420  34.626  33.779  1.00  0.00     0.029 A 
ATOM     23  C   UNL A   1      39.400  33.581  34.003  1.00  0.00     0.049 A 
ATOM     24  H   UNL A   1      39.936  32.035  32.709  1.00  0.00     0.167 HD
ATOM     25  C   UNL A   1      40.512  28.618  29.814  1.00  0.00     0.037 A 
ATOM     26  C   UNL A   1      40.128  33.427  35.122  1.00  0.00     0.037 A 
ATOM     27  C   UNL A   1      41.311  28.342  30.973  1.00  0.00     0.049 A 
ATOM     28  C   UNL A   1      40.966  32.184  35.203  1.00  0.00     0.074 A 
ATOM     29  C   UNL A   1      42.172  27.289  31.200  1.00  0.00     0.029 A 
ATOM     30  N   UNL A   1      41.343  29.149  32.107  1.00  0.00    -0.354 N 
ATOM     31  N   UNL A   1      41.155  31.260  34.290  1.00  0.00    -0.248 NA
ATOM     32  C   UNL A   1      41.656  31.933  36.472  1.00  0.00     0.031 C 
ATOM     33  C   UNL A   1      42.681  27.430  32.496  1.00  0.00     0.029 A 
ATOM     34  C   UNL A   1      42.182  28.599  33.054  1.00  0.00     0.049 A 
ATOM     35  H   UNL A   1      40.840  29.988  32.217  1.00  0.00     0.167 HD
ATOM     36  C   UNL A   1      41.986  30.316  34.868  1.00  0.00     0.074 A 
ATOM     37  C   UNL A   1      42.290  30.800  36.203  1.00  0.00     0.031 C 
ATOM     38  C   UNL A   1      42.449  29.147  34.361  1.00  0.00     0.037 A 
BRANCH  25  39
ATOM     39  C   UNL A   1      40.478  27.653  28.674  1.00  0.00     0.057 A 
ATOM     40  C   UNL A   1      39.680  26.503  28.673  1.00  0.00     0.134 A 
ATOM     41  C   UNL A   1      41.299  27.871  27.559  1.00  0.00     0.134 A 
ATOM     42  F   UNL A   1      38.905  26.212  29.729  1.00  0.00    -0.206 F 
ATOM     43  C   UNL A   1      39.707  25.600  27.608  1.00  0.00     0.040 A 
ATOM     44  C   UNL A   1      41.316  26.989  26.478  1.00  0.00     0.040 A 
ATOM     45  F   UNL A   1      42.107  28.941  27.508  1.00  0.00    -0.206 F 
ATOM     46  C   UNL A   1      40.520  25.847  26.504  1.00  0.00     0.006 A 
ENDBRANCH  25  39
BRANCH  26  47
ATOM     47  C   UNL A   1      39.984  34.362  36.271  1.00  0.00     0.057 A 
ATOM     48  C   UNL A   1      39.093  34.102  37.318  1.00  0.00     0.134 A 
ATOM     49  C   UNL A   1      40.709  35.563  36.338  1.00  0.00     0.134 A 
ATOM     50  F   UNL A   1      38.357  32.981  37.313  1.00  0.00    -0.206 F 
ATOM     51  C   UNL A   1      38.906  35.006  38.366  1.00  0.00     0.040 A 
ATOM     52  C   UNL A   1      40.558  36.460  37.397  1.00  0.00     0.040 A 
ATOM     53  F   UNL A   1      41.585  35.884  35.374  1.00  0.00    -0.206 F 
ATOM     54  C   UNL A   1      39.643  36.188  38.409  1.00  0.00     0.006 A 
ENDBRANCH  26  47
BRANCH  38  55
ATOM     55  C   UNL A   1      43.346  28.348  35.250  1.00  0.00     0.057 A 
ATOM     56  C   UNL A   1      42.834  27.415  36.158  1.00  0.00     0.134 A 
ATOM     57  C   UNL A   1      44.735  28.463  35.134  1.00  0.00     0.134 A 
ATOM     58  F   UNL A   1      41.509  27.279  36.321  1.00  0.00    -0.206 F 
ATOM     59  C   UNL A   1      43.680  26.623  36.930  1.00  0.00     0.040 A 
ATOM     60  C   UNL A   1      45.590  27.654  35.878  1.00  0.00     0.040 A 
ATOM     61  F   UNL A   1      45.279  29.336  34.273  1.00  0.00    -0.206 F 
ATOM     62  C   UNL A   1      45.061  26.733  36.781  1.00  0.00     0.006 A 
ENDBRANCH  38  55
ENDBRANCH  12  13
ENDBRANCH   5   7
ENDBRANCH   4   5
ENDBRANCH   3   4
ENDBRANCH   2   3
ENDBRANCH   1   2
BRANCH   1  63
ATOM     63  C   UNL A   1      33.447  29.419  25.958  1.00  0.00     0.202 C 
BRANCH  63  64
ATOM     64  C   UNL A   1      33.564  28.175  26.845  1.00  0.00     0.261 C 
BRANCH  64  65
ATOM     65  O   UNL A   1      33.570  27.027  25.988  1.00  0.00    -0.463 OA
BRANCH  65  66
ATOM     66  C   UNL A   1      32.354  26.424  25.849  1.00  0.00     0.316 C 
ATOM     67  O   UNL A   1      31.570  26.154  26.753  1.00  0.00    -0.251 OA
BRANCH  66  68
ATOM     68  C   UNL A   1      32.125  26.178  24.379  1.00  0.00     0.116 C 
ATOM     69  C   UNL A   1      32.529  24.686  24.776  1.00  0.00     0.141 C 
ATOM     70  C   UNL A   1      31.768  25.622  22.976  1.00  0.00     0.119 C 
ATOM     71  C   UNL A   1      30.856  27.082  24.406  1.00  0.00     0.142 C 
ATOM     72  N   UNL A   1      33.509  24.433  23.750  1.00  0.00    -0.341 N 
ATOM     73  C   UNL A   1      33.088  25.035  22.572  1.00  0.00     0.228 C 
ATOM     74  C   UNL A   1      31.251  26.742  22.093  1.00  0.00     0.136 C 
ATOM     75  N   UNL A   1      30.795  27.671  23.083  1.00  0.00    -0.324 N 
ATOM     76  O   UNL A   1      33.648  25.113  21.512  1.00  0.00    -0.274 OA
BRANCH  72  77
ATOM     77  C   UNL A   1      34.873  24.066  24.061  1.00  0.00     0.123 C 
BRANCH  77  78
ATOM     78  C   UNL A   1      35.088  23.920  25.529  1.00  0.00     0.008 C 
ATOM     79  C   UNL A   1      35.508  22.629  26.196  1.00  0.00     0.006 C 
ATOM     80  C   UNL A   1      36.499  23.745  26.027  1.00  0.00     0.006 C 
ENDBRANCH  77  78
ENDBRANCH  72  77
BRANCH  75  81
ATOM     81  C   UNL A   1      30.127  28.797  22.797  1.00  0.00     0.298 A 
ATOM     82  N   UNL A   1      29.663  29.214  21.640  1.00  0.00    -0.193 NA
ATOM     83  O   UNL A   1      29.940  29.675  23.837  1.00  0.00    -0.423 OA
ATOM     84  C   UNL A   1      29.137  30.452  21.922  1.00  0.00     0.111 A 
ATOM     85  C   UNL A   1      29.344  30.759  23.256  1.00  0.00     0.156 A 
ATOM     86  C   UNL A   1      28.482  31.385  21.106  1.00  0.00     0.032 A 
ATOM     87  C   UNL A   1      28.996  31.969  23.851  1.00  0.00     0.049 A 
ATOM     88  C   UNL A   1      28.106  32.615  21.669  1.00  0.00     0.003 A 
ATOM     89  C   UNL A   1      28.375  32.906  23.013  1.00  0.00     0.004 A 
ENDBRANCH  75  81
ENDBRANCH  66  68
ENDBRANCH  65  66
ENDBRANCH  64  65
ENDBRANCH  63  64
ENDBRANCH   1  63
TORSDOF 17
ENDMDL
MODEL 3
REMARK VINA RESULT:     -12.0      4.778     10.481
REMARK SMILES O=C(OCCOCCOC(=O)[C@@]12CN(CC3CC3)C(=O)[C@@H]1CN(c1nc3ccccc3o1)C2)c1ccc(-c2c3nc(c(-c4c(F)cccc4F)c4ccc([nH]4)c(-c4c(F)cccc4F)c4nc(c(-c5c(F)cccc5F)c5ccc2[nH]5)C=C4)C=C3)cc1
REMARK SMILES IDX 6 1 5 2 4 3 3 4 2 5 1 6 34 7 35 8 87 9 36 10 86 11 37 12
REMARK SMILES IDX 38 13 39 14 80 15 40 16 85 17 79 18 81 19 41 20 84 21 78 22
REMARK SMILES IDX 77 23 42 25 68 26 51 27 67 28 52 29 55 30 66 31 82 32 53 33
REMARK SMILES IDX 54 34 65 36 83 37 56 38 43 39 44 40 49 41 45 42 46 43 48 44
REMARK SMILES IDX 50 45 47 46 69 47 70 48 75 49 71 50 72 51 74 52 76 53 73 54
REMARK SMILES IDX 57 55 58 56 63 57 59 58 60 59 62 60 64 61 61 62 7 63 8 64
REMARK SMILES IDX 9 65 10 66 11 67 12 68 13 69 21 70 33 71 14 72 19 73 22 74
REMARK SMILES IDX 23 75 20 76 15 77 16 78 17 79 18 80 24 81 25 82 32 83 26 84
REMARK SMILES IDX 31 85 27 86 30 87 28 88 29 89
REMARK H PARENT 81 24 55 35
REMARK Flexibility Score: inf
ROOT
ATOM      1  O   UNL A   1      37.134  20.953  24.853  1.00  0.00    -0.374 OA
ENDROOT
BRANCH   1   2
ATOM      2  C   UNL A   1      38.075  19.892  24.953  1.00  0.00     0.202 C 
BRANCH   2   3
ATOM      3  C   UNL A   1      39.240  19.936  25.947  1.00  0.00     0.261 C 
BRANCH   3   4
ATOM      4  O   UNL A   1      40.335  19.035  25.686  1.00  0.00    -0.460 OA
BRANCH   4   5
ATOM      5  C   UNL A   1      41.643  19.294  25.952  1.00  0.00     0.338 C 
ATOM      6  O   UNL A   1      42.500  18.426  25.876  1.00  0.00    -0.246 OA
BRANCH   5   7
ATOM      7  C   UNL A   1      42.003  20.657  26.390  1.00  0.00     0.060 A 
ATOM      8  C   UNL A   1      42.027  21.681  25.462  1.00  0.00     0.016 A 
ATOM      9  C   UNL A   1      42.252  20.969  27.718  1.00  0.00     0.016 A 
ATOM     10  C   UNL A   1      42.606  22.887  25.712  1.00  0.00     0.010 A 
ATOM     11  C   UNL A   1      42.564  22.293  28.048  1.00  0.00     0.010 A 
ATOM     12  C   UNL A   1      42.755  23.247  27.030  1.00  0.00    -0.014 A 
BRANCH  12  13
ATOM     13  C   UNL A   1      43.096  24.652  27.260  1.00  0.00     0.031 A 
ATOM     14  C   UNL A   1      44.498  25.068  27.005  1.00  0.00     0.074 A 
ATOM     15  C   UNL A   1      42.115  25.530  27.561  1.00  0.00     0.049 A 
ATOM     16  N   UNL A   1      45.094  26.168  27.349  1.00  0.00    -0.248 NA
ATOM     17  C   UNL A   1      45.349  24.109  26.276  1.00  0.00     0.031 C 
ATOM     18  C   UNL A   1      40.677  25.219  27.641  1.00  0.00     0.029 A 
ATOM     19  N   UNL A   1      42.163  26.870  27.825  1.00  0.00    -0.354 N 
ATOM     20  C   UNL A   1      46.414  25.999  26.967  1.00  0.00     0.074 A 
ATOM     21  C   UNL A   1      46.526  24.711  26.323  1.00  0.00     0.031 C 
ATOM     22  C   UNL A   1      39.988  26.338  27.900  1.00  0.00     0.029 A 
ATOM     23  C   UNL A   1      40.938  27.401  28.160  1.00  0.00     0.049 A 
ATOM     24  H   UNL A   1      42.990  27.402  27.780  1.00  0.00     0.167 HD
ATOM     25  C   UNL A   1      47.432  26.854  27.193  1.00  0.00     0.037 A 
ATOM     26  C   UNL A   1      40.642  28.587  28.721  1.00  0.00     0.037 A 
ATOM     27  C   UNL A   1      47.233  28.132  27.812  1.00  0.00     0.049 A 
ATOM     28  C   UNL A   1      41.806  29.478  29.043  1.00  0.00     0.074 A 
ATOM     29  C   UNL A   1      48.167  29.095  28.132  1.00  0.00     0.029 A 
ATOM     30  N   UNL A   1      45.990  28.623  28.201  1.00  0.00    -0.354 N 
ATOM     31  N   UNL A   1      43.079  29.297  28.775  1.00  0.00    -0.248 NA
ATOM     32  C   UNL A   1      41.512  30.710  29.779  1.00  0.00     0.031 C 
ATOM     33  C   UNL A   1      47.494  30.144  28.767  1.00  0.00     0.029 A 
ATOM     34  C   UNL A   1      46.135  29.862  28.792  1.00  0.00     0.049 A 
ATOM     35  H   UNL A   1      45.133  28.155  28.074  1.00  0.00     0.167 HD
ATOM     36  C   UNL A   1      43.740  30.390  29.305  1.00  0.00     0.074 A 
ATOM     37  C   UNL A   1      42.720  31.246  29.884  1.00  0.00     0.031 C 
ATOM     38  C   UNL A   1      45.067  30.666  29.334  1.00  0.00     0.037 A 
BRANCH  25  39
ATOM     39  C   UNL A   1      48.813  26.373  26.881  1.00  0.00     0.057 A 
ATOM     40  C   UNL A   1      49.565  25.595  27.768  1.00  0.00     0.134 A 
ATOM     41  C   UNL A   1      49.413  26.734  25.667  1.00  0.00     0.134 A 
ATOM     42  F   UNL A   1      49.066  25.254  28.966  1.00  0.00    -0.206 F 
ATOM     43  C   UNL A   1      50.870  25.200  27.462  1.00  0.00     0.040 A 
ATOM     44  C   UNL A   1      50.706  26.325  25.340  1.00  0.00     0.040 A 
ATOM     45  F   UNL A   1      48.755  27.500  24.784  1.00  0.00    -0.206 F 
ATOM     46  C   UNL A   1      51.439  25.558  26.242  1.00  0.00     0.006 A 
ENDBRANCH  25  39
BRANCH  26  47
ATOM     47  C   UNL A   1      39.252  28.919  29.134  1.00  0.00     0.057 A 
ATOM     48  C   UNL A   1      38.792  28.659  30.429  1.00  0.00     0.134 A 
ATOM     49  C   UNL A   1      38.329  29.475  28.233  1.00  0.00     0.134 A 
ATOM     50  F   UNL A   1      39.614  28.115  31.339  1.00  0.00    -0.206 F 
ATOM     51  C   UNL A   1      37.470  28.908  30.805  1.00  0.00     0.040 A 
ATOM     52  C   UNL A   1      37.014  29.763  28.604  1.00  0.00     0.040 A 
ATOM     53  F   UNL A   1      38.693  29.756  26.973  1.00  0.00    -0.206 F 
ATOM     54  C   UNL A   1      36.577  29.466  29.891  1.00  0.00     0.006 A 
ENDBRANCH  26  47
BRANCH  38  55
ATOM     55  C   UNL A   1      45.464  31.951  29.985  1.00  0.00     0.057 A 
ATOM     56  C   UNL A   1      45.832  32.005  31.333  1.00  0.00     0.134 A 
ATOM     57  C   UNL A   1      45.551  33.125  29.229  1.00  0.00     0.134 A 
ATOM     58  F   UNL A   1      45.749  30.911  32.106  1.00  0.00    -0.206 F 
ATOM     59  C   UNL A   1      46.270  33.193  31.913  1.00  0.00     0.040 A 
ATOM     60  C   UNL A   1      46.017  34.311  29.791  1.00  0.00     0.040 A 
ATOM     61  F   UNL A   1      45.218  33.127  27.930  1.00  0.00    -0.206 F 
ATOM     62  C   UNL A   1      46.376  34.346  31.137  1.00  0.00     0.006 A 
ENDBRANCH  38  55
ENDBRANCH  12  13
ENDBRANCH   5   7
ENDBRANCH   4   5
ENDBRANCH   3   4
ENDBRANCH   2   3
ENDBRANCH   1   2
BRANCH   1  63
ATOM     63  C   UNL A   1      37.354  22.275  25.346  1.00  0.00     0.202 C 
BRANCH  63  64
ATOM     64  C   UNL A   1      36.798  23.236  24.290  1.00  0.00     0.261 C 
BRANCH  64  65
ATOM     65  O   UNL A   1      35.578  23.787  24.802  1.00  0.00    -0.463 OA
BRANCH  65  66
ATOM     66  C   UNL A   1      34.566  23.853  23.889  1.00  0.00     0.316 C 
ATOM     67  O   UNL A   1      34.674  24.152  22.705  1.00  0.00    -0.251 OA
BRANCH  66  68
ATOM     68  C   UNL A   1      33.289  23.457  24.587  1.00  0.00     0.116 C 
ATOM     69  C   UNL A   1      32.856  24.941  24.195  1.00  0.00     0.141 C 
ATOM     70  C   UNL A   1      31.828  23.242  25.061  1.00  0.00     0.119 C 
ATOM     71  C   UNL A   1      33.340  22.048  23.922  1.00  0.00     0.142 C 
ATOM     72  N   UNL A   1      32.364  25.384  25.475  1.00  0.00    -0.341 N 
ATOM     73  C   UNL A   1      31.716  24.324  26.094  1.00  0.00     0.228 C 
ATOM     74  C   UNL A   1      31.655  21.825  25.575  1.00  0.00     0.136 C 
ATOM     75  N   UNL A   1      32.722  21.162  24.888  1.00  0.00    -0.324 N 
ATOM     76  O   UNL A   1      31.228  24.263  27.191  1.00  0.00    -0.274 OA
BRANCH  72  77
ATOM     77  C   UNL A   1      32.905  26.543  26.149  1.00  0.00     0.123 C 
BRANCH  77  78
ATOM     78  C   UNL A   1      31.882  27.614  26.320  1.00  0.00     0.008 C 
ATOM     79  C   UNL A   1      31.584  28.294  27.637  1.00  0.00     0.006 C 
ATOM     80  C   UNL A   1      32.361  29.019  26.575  1.00  0.00     0.006 C 
ENDBRANCH  77  78
ENDBRANCH  72  77
BRANCH  75  81
ATOM     81  C   UNL A   1      32.917  19.836  24.915  1.00  0.00     0.298 A 
ATOM     82  N   UNL A   1      32.096  18.886  25.307  1.00  0.00    -0.193 NA
ATOM     83  O   UNL A   1      34.160  19.395  24.536  1.00  0.00    -0.423 OA
ATOM     84  C   UNL A   1      32.841  17.738  25.188  1.00  0.00     0.111 A 
ATOM     85  C   UNL A   1      34.120  18.047  24.760  1.00  0.00     0.156 A 
ATOM     86  C   UNL A   1      32.515  16.396  25.435  1.00  0.00     0.032 A 
ATOM     87  C   UNL A   1      35.147  17.120  24.605  1.00  0.00     0.049 A 
ATOM     88  C   UNL A   1      33.520  15.428  25.283  1.00  0.00     0.003 A 
ATOM     89  C   UNL A   1      34.815  15.788  24.891  1.00  0.00     0.004 A 
ENDBRANCH  75  81
ENDBRANCH  66  68
ENDBRANCH  65  66
ENDBRANCH  64  65
ENDBRANCH  63  64
ENDBRANCH   1  63
TORSDOF 17
ENDMDL
