MODEL 1
REMARK VINA RESULT:      -9.1      0.000      0.000
REMARK SMILES O=C(OCCOCCOC(=O)[C@@H](Cc1cccc(F)c1)[C@H]1CCOC2(CCC2)C1)c1ccc(-c2c3nc(c(-c4c(F)cccc4F)c4ccc([nH]4)c(-c4c(F)cccc4F)c4nc(c(-c5c(F)cccc5F)c5ccc2[nH]5)C=C4)C=C3)cc1
REMARK SMILES IDX 6 1 5 2 4 3 3 4 2 5 1 6 30 7 31 8 83 9 32 10 82 11 33 12
REMARK SMILES IDX 34 13 35 14 76 15 36 16 81 17 75 18 77 19 37 20 80 21 74 22
REMARK SMILES IDX 73 23 38 25 64 26 47 27 63 28 48 29 51 30 62 31 78 32 49 33
REMARK SMILES IDX 50 34 61 36 79 37 52 38 39 39 40 40 45 41 41 42 42 43 44 44
REMARK SMILES IDX 46 45 43 46 65 47 66 48 71 49 67 50 68 51 70 52 72 53 69 54
REMARK SMILES IDX 53 55 54 56 59 57 55 58 56 59 58 60 60 61 57 62 7 63 8 64
REMARK SMILES IDX 9 65 10 66 11 67 12 68 13 69 14 70 15 71 20 72 16 73 18 74
REMARK SMILES IDX 17 75 19 76 21 77 22 78 29 79 23 80 25 81 24 82 26 83 28 84
REMARK SMILES IDX 27 85
REMARK H PARENT 77 24 51 35
REMARK Flexibility Score: inf
ROOT
ATOM      1  O   UNL A   1      33.121  34.928  32.015  1.00  0.00    -0.374 OA
ENDROOT
BRANCH   1   2
ATOM      2  C   UNL A   1      32.712  36.175  31.476  1.00  0.00     0.202 C 
BRANCH   2   3
ATOM      3  C   UNL A   1      32.828  36.211  29.956  1.00  0.00     0.261 C 
BRANCH   3   4
ATOM      4  O   UNL A   1      32.417  34.950  29.403  1.00  0.00    -0.460 OA
BRANCH   4   5
ATOM      5  C   UNL A   1      33.128  34.041  28.701  1.00  0.00     0.338 C 
ATOM      6  O   UNL A   1      32.635  33.606  27.660  1.00  0.00    -0.246 OA
BRANCH   5   7
ATOM      7  C   UNL A   1      34.478  33.517  29.089  1.00  0.00     0.060 A 
ATOM      8  C   UNL A   1      34.746  32.600  30.108  1.00  0.00     0.016 A 
ATOM      9  C   UNL A   1      35.550  33.906  28.264  1.00  0.00     0.016 A 
ATOM     10  C   UNL A   1      36.015  32.068  30.298  1.00  0.00     0.010 A 
ATOM     11  C   UNL A   1      36.836  33.398  28.459  1.00  0.00     0.010 A 
ATOM     12  C   UNL A   1      37.064  32.476  29.482  1.00  0.00    -0.014 A 
BRANCH  12  13
ATOM     13  C   UNL A   1      38.417  32.019  29.820  1.00  0.00     0.031 A 
ATOM     14  C   UNL A   1      38.852  30.689  29.296  1.00  0.00     0.074 A 
ATOM     15  C   UNL A   1      39.256  32.839  30.475  1.00  0.00     0.049 A 
ATOM     16  N   UNL A   1      39.949  30.029  29.533  1.00  0.00    -0.248 NA
ATOM     17  C   UNL A   1      37.932  30.021  28.357  1.00  0.00     0.031 C 
ATOM     18  C   UNL A   1      38.948  34.213  30.875  1.00  0.00     0.029 A 
ATOM     19  N   UNL A   1      40.542  32.645  30.900  1.00  0.00    -0.354 N 
ATOM     20  C   UNL A   1      39.843  28.858  28.796  1.00  0.00     0.074 A 
ATOM     21  C   UNL A   1      38.587  28.902  28.084  1.00  0.00     0.031 C 
ATOM     22  C   UNL A   1      40.021  34.739  31.490  1.00  0.00     0.029 A 
ATOM     23  C   UNL A   1      41.058  33.717  31.587  1.00  0.00     0.049 A 
ATOM     24  H   UNL A   1      41.049  31.819  30.729  1.00  0.00     0.167 HD
ATOM     25  C   UNL A   1      40.719  27.832  28.747  1.00  0.00     0.037 A 
ATOM     26  C   UNL A   1      42.221  33.824  32.258  1.00  0.00     0.037 A 
ATOM     27  C   UNL A   1      41.951  27.822  29.481  1.00  0.00     0.049 A 
ATOM     28  C   UNL A   1      43.123  32.618  32.290  1.00  0.00     0.074 A 
ATOM     29  C   UNL A   1      42.888  26.814  29.586  1.00  0.00     0.029 A 
ATOM     30  N   UNL A   1      42.411  28.890  30.241  1.00  0.00    -0.354 N 
ATOM     31  N   UNL A   1      42.986  31.471  31.665  1.00  0.00    -0.248 NA
ATOM     32  C   UNL A   1      44.317  32.698  33.143  1.00  0.00     0.031 C 
ATOM     33  C   UNL A   1      43.897  27.257  30.447  1.00  0.00     0.029 A 
ATOM     34  C   UNL A   1      43.606  28.556  30.845  1.00  0.00     0.049 A 
ATOM     35  H   UNL A   1      41.952  29.755  30.336  1.00  0.00     0.167 HD
ATOM     36  C   UNL A   1      44.065  30.690  32.054  1.00  0.00     0.074 A 
ATOM     37  C   UNL A   1      44.865  31.506  32.947  1.00  0.00     0.031 C 
ATOM     38  C   UNL A   1      44.363  29.411  31.723  1.00  0.00     0.037 A 
BRANCH  25  39
ATOM     39  C   UNL A   1      40.328  26.630  27.948  1.00  0.00     0.057 A 
ATOM     40  C   UNL A   1      39.447  25.683  28.487  1.00  0.00     0.134 A 
ATOM     41  C   UNL A   1      40.812  26.405  26.655  1.00  0.00     0.134 A 
ATOM     42  F   UNL A   1      38.937  25.851  29.716  1.00  0.00    -0.206 F 
ATOM     43  C   UNL A   1      39.071  24.547  27.771  1.00  0.00     0.040 A 
ATOM     44  C   UNL A   1      40.431  25.279  25.923  1.00  0.00     0.040 A 
ATOM     45  F   UNL A   1      41.632  27.292  26.072  1.00  0.00    -0.206 F 
ATOM     46  C   UNL A   1      39.563  24.342  26.484  1.00  0.00     0.006 A 
ENDBRANCH  25  39
BRANCH  26  47
ATOM     47  C   UNL A   1      42.544  35.061  33.017  1.00  0.00     0.057 A 
ATOM     48  C   UNL A   1      43.400  36.037  32.487  1.00  0.00     0.134 A 
ATOM     49  C   UNL A   1      42.002  35.308  34.283  1.00  0.00     0.134 A 
ATOM     50  F   UNL A   1      43.951  35.871  31.276  1.00  0.00    -0.206 F 
ATOM     51  C   UNL A   1      43.723  37.197  33.194  1.00  0.00     0.040 A 
ATOM     52  C   UNL A   1      42.296  36.477  34.991  1.00  0.00     0.040 A 
ATOM     53  F   UNL A   1      41.156  34.428  34.839  1.00  0.00    -0.206 F 
ATOM     54  C   UNL A   1      43.165  37.422  34.450  1.00  0.00     0.006 A 
ENDBRANCH  26  47
BRANCH  38  55
ATOM     55  C   UNL A   1      45.591  28.815  32.334  1.00  0.00     0.057 A 
ATOM     56  C   UNL A   1      46.820  28.872  31.668  1.00  0.00     0.134 A 
ATOM     57  C   UNL A   1      45.521  28.081  33.524  1.00  0.00     0.134 A 
ATOM     58  F   UNL A   1      46.939  29.551  30.516  1.00  0.00    -0.206 F 
ATOM     59  C   UNL A   1      47.936  28.195  32.151  1.00  0.00     0.040 A 
ATOM     60  C   UNL A   1      46.637  27.417  34.028  1.00  0.00     0.040 A 
ATOM     61  F   UNL A   1      44.369  28.000  34.207  1.00  0.00    -0.206 F 
ATOM     62  C   UNL A   1      47.846  27.461  33.334  1.00  0.00     0.006 A 
ENDBRANCH  38  55
ENDBRANCH  12  13
ENDBRANCH   5   7
ENDBRANCH   4   5
ENDBRANCH   3   4
ENDBRANCH   2   3
ENDBRANCH   1   2
BRANCH   1  63
ATOM     63  C   UNL A   1      34.340  34.896  32.750  1.00  0.00     0.202 C 
BRANCH  63  64
ATOM     64  C   UNL A   1      34.392  33.542  33.447  1.00  0.00     0.261 C 
BRANCH  64  65
ATOM     65  O   UNL A   1      35.766  33.251  33.729  1.00  0.00    -0.463 OA
BRANCH  65  66
ATOM     66  C   UNL A   1      36.206  33.434  35.004  1.00  0.00     0.309 C 
ATOM     67  O   UNL A   1      35.848  34.306  35.782  1.00  0.00    -0.252 OA
BRANCH  66  68
ATOM     68  C   UNL A   1      37.300  32.434  35.306  1.00  0.00     0.107 C 
BRANCH  68  69
ATOM     69  C   UNL A   1      38.203  32.190  34.060  1.00  0.00     0.051 C 
BRANCH  69  70
ATOM     70  C   UNL A   1      38.502  30.814  33.472  1.00  0.00    -0.044 A 
ATOM     71  C   UNL A   1      37.577  29.996  32.807  1.00  0.00     0.004 A 
ATOM     72  C   UNL A   1      39.822  30.332  33.563  1.00  0.00     0.043 A 
ATOM     73  C   UNL A   1      37.924  28.722  32.331  1.00  0.00     0.003 A 
ATOM     74  C   UNL A   1      40.167  29.070  33.075  1.00  0.00     0.123 A 
ATOM     75  C   UNL A   1      39.223  28.253  32.473  1.00  0.00     0.039 A 
ATOM     76  F   UNL A   1      41.428  28.636  33.200  1.00  0.00    -0.207 F 
ENDBRANCH  69  70
ENDBRANCH  68  69
BRANCH  68  77
ATOM     77  C   UNL A   1      38.028  32.801  36.615  1.00  0.00     0.009 C 
ATOM     78  C   UNL A   1      37.506  32.052  37.865  1.00  0.00     0.033 C 
ATOM     79  C   UNL A   1      39.546  32.559  36.554  1.00  0.00     0.040 C 
ATOM     80  C   UNL A   1      38.131  32.682  39.099  1.00  0.00     0.161 C 
ATOM     81  C   UNL A   1      40.166  33.170  37.816  1.00  0.00     0.069 C 
ATOM     82  O   UNL A   1      39.547  32.612  39.008  1.00  0.00    -0.375 OA
ATOM     83  C   UNL A   1      41.717  33.144  37.879  1.00  0.00     0.035 C 
ATOM     84  C   UNL A   1      40.287  34.723  37.754  1.00  0.00     0.035 C 
ATOM     85  C   UNL A   1      41.649  34.577  38.449  1.00  0.00     0.006 C 
ENDBRANCH  68  77
ENDBRANCH  66  68
ENDBRANCH  65  66
ENDBRANCH  64  65
ENDBRANCH  63  64
ENDBRANCH   1  63
TORSDOF 17
ENDMDL
MODEL 2
REMARK VINA RESULT:      -8.8      4.491      8.365
REMARK SMILES O=C(OCCOCCOC(=O)[C@@H](Cc1cccc(F)c1)[C@H]1CCOC2(CCC2)C1)c1ccc(-c2c3nc(c(-c4c(F)cccc4F)c4ccc([nH]4)c(-c4c(F)cccc4F)c4nc(c(-c5c(F)cccc5F)c5ccc2[nH]5)C=C4)C=C3)cc1
REMARK SMILES IDX 6 1 5 2 4 3 3 4 2 5 1 6 30 7 31 8 83 9 32 10 82 11 33 12
REMARK SMILES IDX 34 13 35 14 76 15 36 16 81 17 75 18 77 19 37 20 80 21 74 22
REMARK SMILES IDX 73 23 38 25 64 26 47 27 63 28 48 29 51 30 62 31 78 32 49 33
REMARK SMILES IDX 50 34 61 36 79 37 52 38 39 39 40 40 45 41 41 42 42 43 44 44
REMARK SMILES IDX 46 45 43 46 65 47 66 48 71 49 67 50 68 51 70 52 72 53 69 54
REMARK SMILES IDX 53 55 54 56 59 57 55 58 56 59 58 60 60 61 57 62 7 63 8 64
REMARK SMILES IDX 9 65 10 66 11 67 12 68 13 69 14 70 15 71 20 72 16 73 18 74
REMARK SMILES IDX 17 75 19 76 21 77 22 78 29 79 23 80 25 81 24 82 26 83 28 84
REMARK SMILES IDX 27 85
REMARK H PARENT 77 24 51 35
REMARK Flexibility Score: inf
ROOT
ATOM      1  O   UNL A   1      32.960  30.429  26.973  1.00  0.00    -0.374 OA
ENDROOT
BRANCH   1   2
ATOM      2  C   UNL A   1      31.855  31.051  26.339  1.00  0.00     0.202 C 
BRANCH   2   3
ATOM      3  C   UNL A   1      31.326  32.239  27.137  1.00  0.00     0.261 C 
BRANCH   3   4
ATOM      4  O   UNL A   1      32.242  33.342  27.039  1.00  0.00    -0.460 OA
BRANCH   4   5
ATOM      5  C   UNL A   1      32.912  33.998  28.010  1.00  0.00     0.338 C 
ATOM      6  O   UNL A   1      32.419  35.039  28.446  1.00  0.00    -0.246 OA
BRANCH   5   7
ATOM      7  C   UNL A   1      34.215  33.558  28.606  1.00  0.00     0.060 A 
ATOM      8  C   UNL A   1      35.477  34.080  28.311  1.00  0.00     0.016 A 
ATOM      9  C   UNL A   1      34.130  32.610  29.644  1.00  0.00     0.016 A 
ATOM     10  C   UNL A   1      36.610  33.702  29.020  1.00  0.00     0.010 A 
ATOM     11  C   UNL A   1      35.264  32.203  30.349  1.00  0.00     0.010 A 
ATOM     12  C   UNL A   1      36.507  32.754  30.032  1.00  0.00    -0.014 A 
BRANCH  12  13
ATOM     13  C   UNL A   1      37.747  32.261  30.641  1.00  0.00     0.031 A 
ATOM     14  C   UNL A   1      38.446  31.124  29.968  1.00  0.00     0.074 A 
ATOM     15  C   UNL A   1      38.278  32.903  31.694  1.00  0.00     0.049 A 
ATOM     16  N   UNL A   1      39.493  30.454  30.357  1.00  0.00    -0.248 NA
ATOM     17  C   UNL A   1      37.903  30.699  28.665  1.00  0.00     0.031 C 
ATOM     18  C   UNL A   1      37.731  34.118  32.302  1.00  0.00     0.029 A 
ATOM     19  N   UNL A   1      39.404  32.640  32.426  1.00  0.00    -0.354 N 
ATOM     20  C   UNL A   1      39.719  29.512  29.364  1.00  0.00     0.074 A 
ATOM     21  C   UNL A   1      38.720  29.707  28.340  1.00  0.00     0.031 C 
ATOM     22  C   UNL A   1      38.527  34.494  33.317  1.00  0.00     0.029 A 
ATOM     23  C   UNL A   1      39.592  33.509  33.473  1.00  0.00     0.049 A 
ATOM     24  H   UNL A   1      40.020  31.899  32.221  1.00  0.00     0.167 HD
ATOM     25  C   UNL A   1      40.673  28.557  29.334  1.00  0.00     0.037 A 
ATOM     26  C   UNL A   1      40.499  33.468  34.467  1.00  0.00     0.037 A 
ATOM     27  C   UNL A   1      41.641  28.389  30.380  1.00  0.00     0.049 A 
ATOM     28  C   UNL A   1      41.474  32.319  34.477  1.00  0.00     0.074 A 
ATOM     29  C   UNL A   1      42.607  27.412  30.516  1.00  0.00     0.029 A 
ATOM     30  N   UNL A   1      41.755  29.234  31.476  1.00  0.00    -0.354 N 
ATOM     31  N   UNL A   1      41.636  31.371  33.584  1.00  0.00    -0.248 NA
ATOM     32  C   UNL A   1      42.362  32.206  35.642  1.00  0.00     0.031 C 
ATOM     33  C   UNL A   1      43.280  27.643  31.719  1.00  0.00     0.029 A 
ATOM     34  C   UNL A   1      42.758  28.786  32.311  1.00  0.00     0.049 A 
ATOM     35  H   UNL A   1      41.203  30.033  31.634  1.00  0.00     0.167 HD
ATOM     36  C   UNL A   1      42.634  30.544  34.079  1.00  0.00     0.074 A 
ATOM     37  C   UNL A   1      43.062  31.121  35.339  1.00  0.00     0.031 C 
ATOM     38  C   UNL A   1      43.143  29.403  33.555  1.00  0.00     0.037 A 
BRANCH  25  39
ATOM     39  C   UNL A   1      40.649  27.594  28.191  1.00  0.00     0.057 A 
ATOM     40  C   UNL A   1      39.902  26.413  28.281  1.00  0.00     0.134 A 
ATOM     41  C   UNL A   1      41.355  27.828  27.006  1.00  0.00     0.134 A 
ATOM     42  F   UNL A   1      39.191  26.140  29.386  1.00  0.00    -0.206 F 
ATOM     43  C   UNL A   1      39.867  25.490  27.236  1.00  0.00     0.040 A 
ATOM     44  C   UNL A   1      41.316  26.918  25.947  1.00  0.00     0.040 A 
ATOM     45  F   UNL A   1      42.062  28.956  26.846  1.00  0.00    -0.206 F 
ATOM     46  C   UNL A   1      40.576  25.742  26.063  1.00  0.00     0.006 A 
ENDBRANCH  25  39
BRANCH  26  47
ATOM     47  C   UNL A   1      40.466  34.474  35.562  1.00  0.00     0.057 A 
ATOM     48  C   UNL A   1      41.198  35.666  35.477  1.00  0.00     0.134 A 
ATOM     49  C   UNL A   1      39.698  34.278  36.715  1.00  0.00     0.134 A 
ATOM     50  F   UNL A   1      41.952  35.924  34.398  1.00  0.00    -0.206 F 
ATOM     51  C   UNL A   1      41.188  36.613  36.503  1.00  0.00     0.040 A 
ATOM     52  C   UNL A   1      39.657  35.229  37.739  1.00  0.00     0.040 A 
ATOM     53  F   UNL A   1      38.953  33.171  36.850  1.00  0.00    -0.206 F 
ATOM     54  C   UNL A   1      40.409  36.398  37.638  1.00  0.00     0.006 A 
ENDBRANCH  26  47
BRANCH  38  55
ATOM     55  C   UNL A   1      44.202  28.701  34.345  1.00  0.00     0.057 A 
ATOM     56  C   UNL A   1      45.556  28.970  34.121  1.00  0.00     0.134 A 
ATOM     57  C   UNL A   1      43.874  27.673  35.236  1.00  0.00     0.134 A 
ATOM     58  F   UNL A   1      45.926  29.936  33.266  1.00  0.00    -0.206 F 
ATOM     59  C   UNL A   1      46.554  28.220  34.739  1.00  0.00     0.040 A 
ATOM     60  C   UNL A   1      44.864  26.930  35.876  1.00  0.00     0.040 A 
ATOM     61  F   UNL A   1      42.591  27.377  35.493  1.00  0.00    -0.206 F 
ATOM     62  C   UNL A   1      46.209  27.194  35.617  1.00  0.00     0.006 A 
ENDBRANCH  38  55
ENDBRANCH  12  13
ENDBRANCH   5   7
ENDBRANCH   4   5
ENDBRANCH   3   4
ENDBRANCH   2   3
ENDBRANCH   1   2
BRANCH   1  63
ATOM     63  C   UNL A   1      33.592  29.352  26.289  1.00  0.00     0.202 C 
BRANCH  63  64
ATOM     64  C   UNL A   1      32.768  29.091  25.034  1.00  0.00     0.261 C 
BRANCH  64  65
ATOM     65  O   UNL A   1      33.675  28.987  23.931  1.00  0.00    -0.463 OA
BRANCH  65  66
ATOM     66  C   UNL A   1      33.399  28.071  22.963  1.00  0.00     0.309 C 
ATOM     67  O   UNL A   1      33.943  27.973  21.874  1.00  0.00    -0.252 OA
BRANCH  66  68
ATOM     68  C   UNL A   1      32.229  27.218  23.398  1.00  0.00     0.107 C 
BRANCH  68  69
ATOM     69  C   UNL A   1      31.031  27.356  22.411  1.00  0.00     0.051 C 
BRANCH  69  70
ATOM     70  C   UNL A   1      29.913  28.385  22.554  1.00  0.00    -0.044 A 
ATOM     71  C   UNL A   1      30.012  29.743  22.218  1.00  0.00     0.004 A 
ATOM     72  C   UNL A   1      28.663  27.938  23.023  1.00  0.00     0.043 A 
ATOM     73  C   UNL A   1      28.947  30.634  22.420  1.00  0.00     0.003 A 
ATOM     74  C   UNL A   1      27.600  28.825  23.208  1.00  0.00     0.123 A 
ATOM     75  C   UNL A   1      27.738  30.175  22.925  1.00  0.00     0.039 A 
ATOM     76  F   UNL A   1      26.433  28.367  23.678  1.00  0.00    -0.207 F 
ENDBRANCH  69  70
ENDBRANCH  68  69
BRANCH  68  77
ATOM     77  C   UNL A   1      32.689  25.781  23.716  1.00  0.00     0.009 C 
ATOM     78  C   UNL A   1      32.678  24.824  22.500  1.00  0.00     0.033 C 
ATOM     79  C   UNL A   1      34.101  25.715  24.321  1.00  0.00     0.040 C 
ATOM     80  C   UNL A   1      32.908  23.407  22.999  1.00  0.00     0.161 C 
ATOM     81  C   UNL A   1      34.338  24.276  24.795  1.00  0.00     0.069 C 
ATOM     82  O   UNL A   1      34.143  23.341  23.699  1.00  0.00    -0.375 OA
ATOM     83  C   UNL A   1      35.669  24.034  25.559  1.00  0.00     0.035 C 
ATOM     84  C   UNL A   1      33.616  23.942  26.136  1.00  0.00     0.035 C 
ATOM     85  C   UNL A   1      34.867  23.144  26.532  1.00  0.00     0.006 C 
ENDBRANCH  68  77
ENDBRANCH  66  68
ENDBRANCH  65  66
ENDBRANCH  64  65
ENDBRANCH  63  64
ENDBRANCH   1  63
TORSDOF 17
ENDMDL
MODEL 3
REMARK VINA RESULT:      -8.8      4.739      8.464
REMARK SMILES O=C(OCCOCCOC(=O)[C@@H](Cc1cccc(F)c1)[C@H]1CCOC2(CCC2)C1)c1ccc(-c2c3nc(c(-c4c(F)cccc4F)c4ccc([nH]4)c(-c4c(F)cccc4F)c4nc(c(-c5c(F)cccc5F)c5ccc2[nH]5)C=C4)C=C3)cc1
REMARK SMILES IDX 6 1 5 2 4 3 3 4 2 5 1 6 30 7 31 8 83 9 32 10 82 11 33 12
REMARK SMILES IDX 34 13 35 14 76 15 36 16 81 17 75 18 77 19 37 20 80 21 74 22
REMARK SMILES IDX 73 23 38 25 64 26 47 27 63 28 48 29 51 30 62 31 78 32 49 33
REMARK SMILES IDX 50 34 61 36 79 37 52 38 39 39 40 40 45 41 41 42 42 43 44 44
REMARK SMILES IDX 46 45 43 46 65 47 66 48 71 49 67 50 68 51 70 52 72 53 69 54
REMARK SMILES IDX 53 55 54 56 59 57 55 58 56 59 58 60 60 61 57 62 7 63 8 64
REMARK SMILES IDX 9 65 10 66 11 67 12 68 13 69 14 70 15 71 20 72 16 73 18 74
REMARK SMILES IDX 17 75 19 76 21 77 22 78 29 79 23 80 25 81 24 82 26 83 28 84
REMARK SMILES IDX 27 85
REMARK H PARENT 77 24 51 35
REMARK Flexibility Score: inf
ROOT
ATOM      1  O   UNL A   1      32.924  30.511  27.231  1.00  0.00    -0.374 OA
ENDROOT
BRANCH   1   2
ATOM      2  C   UNL A   1      31.858  31.112  26.514  1.00  0.00     0.202 C 
BRANCH   2   3
ATOM      3  C   UNL A   1      31.320  32.355  27.216  1.00  0.00     0.261 C 
BRANCH   3   4
ATOM      4  O   UNL A   1      32.271  33.427  27.111  1.00  0.00    -0.460 OA
BRANCH   4   5
ATOM      5  C   UNL A   1      32.944  34.083  28.080  1.00  0.00     0.338 C 
ATOM      6  O   UNL A   1      32.458  35.129  28.511  1.00  0.00    -0.246 OA
BRANCH   5   7
ATOM      7  C   UNL A   1      34.244  33.637  28.680  1.00  0.00     0.060 A 
ATOM      8  C   UNL A   1      35.509  34.154  28.389  1.00  0.00     0.016 A 
ATOM      9  C   UNL A   1      34.151  32.689  29.716  1.00  0.00     0.016 A 
ATOM     10  C   UNL A   1      36.637  33.770  29.101  1.00  0.00     0.010 A 
ATOM     11  C   UNL A   1      35.281  32.276  30.425  1.00  0.00     0.010 A 
ATOM     12  C   UNL A   1      36.527  32.822  30.112  1.00  0.00    -0.014 A 
BRANCH  12  13
ATOM     13  C   UNL A   1      37.763  32.322  30.724  1.00  0.00     0.031 A 
ATOM     14  C   UNL A   1      38.467  31.192  30.045  1.00  0.00     0.074 A 
ATOM     15  C   UNL A   1      38.288  32.954  31.787  1.00  0.00     0.049 A 
ATOM     16  N   UNL A   1      39.511  30.518  30.434  1.00  0.00    -0.248 NA
ATOM     17  C   UNL A   1      37.933  30.780  28.734  1.00  0.00     0.031 C 
ATOM     18  C   UNL A   1      37.737  34.164  32.403  1.00  0.00     0.029 A 
ATOM     19  N   UNL A   1      39.409  32.684  32.523  1.00  0.00    -0.354 N 
ATOM     20  C   UNL A   1      39.744  29.586  29.433  1.00  0.00     0.074 A 
ATOM     21  C   UNL A   1      38.751  29.791  28.405  1.00  0.00     0.031 C 
ATOM     22  C   UNL A   1      38.525  34.529  33.427  1.00  0.00     0.029 A 
ATOM     23  C   UNL A   1      39.590  33.542  33.580  1.00  0.00     0.049 A 
ATOM     24  H   UNL A   1      40.025  31.945  32.316  1.00  0.00     0.167 HD
ATOM     25  C   UNL A   1      40.698  28.631  29.401  1.00  0.00     0.037 A 
ATOM     26  C   UNL A   1      40.490  33.492  34.580  1.00  0.00     0.037 A 
ATOM     27  C   UNL A   1      41.659  28.453  30.451  1.00  0.00     0.049 A 
ATOM     28  C   UNL A   1      41.465  32.343  34.585  1.00  0.00     0.074 A 
ATOM     29  C   UNL A   1      42.624  27.475  30.584  1.00  0.00     0.029 A 
ATOM     30  N   UNL A   1      41.766  29.287  31.556  1.00  0.00    -0.354 N 
ATOM     31  N   UNL A   1      41.633  31.403  33.683  1.00  0.00    -0.248 NA
ATOM     32  C   UNL A   1      42.345  32.218  35.755  1.00  0.00     0.031 C 
ATOM     33  C   UNL A   1      43.289  27.694  31.794  1.00  0.00     0.029 A 
ATOM     34  C   UNL A   1      42.763  28.831  32.394  1.00  0.00     0.049 A 
ATOM     35  H   UNL A   1      41.212  30.085  31.718  1.00  0.00     0.167 HD
ATOM     36  C   UNL A   1      42.628  30.572  34.177  1.00  0.00     0.074 A 
ATOM     37  C   UNL A   1      43.047  31.136  35.446  1.00  0.00     0.031 C 
ATOM     38  C   UNL A   1      43.140  29.435  33.646  1.00  0.00     0.037 A 
BRANCH  25  39
ATOM     39  C   UNL A   1      40.681  27.679  28.248  1.00  0.00     0.057 A 
ATOM     40  C   UNL A   1      39.924  26.504  28.317  1.00  0.00     0.134 A 
ATOM     41  C   UNL A   1      41.405  27.918  27.074  1.00  0.00     0.134 A 
ATOM     42  F   UNL A   1      39.196  26.226  29.410  1.00  0.00    -0.206 F 
ATOM     43  C   UNL A   1      39.895  25.591  27.263  1.00  0.00     0.040 A 
ATOM     44  C   UNL A   1      41.372  27.020  26.006  1.00  0.00     0.040 A 
ATOM     45  F   UNL A   1      42.123  29.042  26.935  1.00  0.00    -0.206 F 
ATOM     46  C   UNL A   1      40.621  25.848  26.101  1.00  0.00     0.006 A 
ENDBRANCH  25  39
BRANCH  26  47
ATOM     47  C   UNL A   1      40.450  34.487  35.684  1.00  0.00     0.057 A 
ATOM     48  C   UNL A   1      41.175  35.685  35.611  1.00  0.00     0.134 A 
ATOM     49  C   UNL A   1      39.683  34.275  36.835  1.00  0.00     0.134 A 
ATOM     50  F   UNL A   1      41.927  35.958  34.535  1.00  0.00    -0.206 F 
ATOM     51  C   UNL A   1      41.158  36.622  36.646  1.00  0.00     0.040 A 
ATOM     52  C   UNL A   1      39.635  35.217  37.867  1.00  0.00     0.040 A 
ATOM     53  F   UNL A   1      38.945  33.162  36.959  1.00  0.00    -0.206 F 
ATOM     54  C   UNL A   1      40.380  36.391  37.778  1.00  0.00     0.006 A 
ENDBRANCH  26  47
BRANCH  38  55
ATOM     55  C   UNL A   1      44.193  28.726  34.436  1.00  0.00     0.057 A 
ATOM     56  C   UNL A   1      43.843  27.807  35.431  1.00  0.00     0.134 A 
ATOM     57  C   UNL A   1      45.546  29.050  34.287  1.00  0.00     0.134 A 
ATOM     58  F   UNL A   1      42.558  27.471  35.625  1.00  0.00    -0.206 F 
ATOM     59  C   UNL A   1      44.803  27.253  36.273  1.00  0.00     0.040 A 
ATOM     60  C   UNL A   1      46.519  28.485  35.111  1.00  0.00     0.040 A 
ATOM     61  F   UNL A   1      45.939  29.919  33.344  1.00  0.00    -0.206 F 
ATOM     62  C   UNL A   1      46.146  27.594  36.116  1.00  0.00     0.006 A 
ENDBRANCH  38  55
ENDBRANCH  12  13
ENDBRANCH   5   7
ENDBRANCH   4   5
ENDBRANCH   3   4
ENDBRANCH   2   3
ENDBRANCH   1   2
BRANCH   1  63
ATOM     63  C   UNL A   1      33.863  29.738  26.491  1.00  0.00     0.202 C 
BRANCH  63  64
ATOM     64  C   UNL A   1      33.718  28.300  26.973  1.00  0.00     0.261 C 
BRANCH  64  65
ATOM     65  O   UNL A   1      32.845  27.621  26.063  1.00  0.00    -0.463 OA
BRANCH  65  66
ATOM     66  C   UNL A   1      31.571  27.370  26.470  1.00  0.00     0.309 C 
ATOM     67  O   UNL A   1      31.073  27.677  27.543  1.00  0.00    -0.252 OA
BRANCH  66  68
ATOM     68  C   UNL A   1      30.858  26.553  25.416  1.00  0.00     0.107 C 
BRANCH  68  69
ATOM     69  C   UNL A   1      31.081  27.149  23.993  1.00  0.00     0.051 C 
BRANCH  69  70
ATOM     70  C   UNL A   1      30.114  28.104  23.300  1.00  0.00    -0.044 A 
ATOM     71  C   UNL A   1      30.482  29.163  22.457  1.00  0.00     0.004 A 
ATOM     72  C   UNL A   1      28.733  27.891  23.483  1.00  0.00     0.043 A 
ATOM     73  C   UNL A   1      29.529  30.024  21.892  1.00  0.00     0.003 A 
ATOM     74  C   UNL A   1      27.787  28.741  22.905  1.00  0.00     0.123 A 
ATOM     75  C   UNL A   1      28.175  29.817  22.123  1.00  0.00     0.039 A 
ATOM     76  F   UNL A   1      26.484  28.519  23.121  1.00  0.00    -0.207 F 
ENDBRANCH  69  70
ENDBRANCH  68  69
BRANCH  68  77
ATOM     77  C   UNL A   1      31.170  25.053  25.584  1.00  0.00     0.009 C 
ATOM     78  C   UNL A   1      30.142  24.280  26.445  1.00  0.00     0.033 C 
ATOM     79  C   UNL A   1      31.283  24.302  24.246  1.00  0.00     0.040 C 
ATOM     80  C   UNL A   1      30.697  22.895  26.730  1.00  0.00     0.161 C 
ATOM     81  C   UNL A   1      31.814  22.895  24.545  1.00  0.00     0.069 C 
ATOM     82  O   UNL A   1      30.956  22.221  25.506  1.00  0.00    -0.375 OA
ATOM     83  C   UNL A   1      32.122  22.018  23.301  1.00  0.00     0.035 C 
ATOM     84  C   UNL A   1      33.346  22.862  24.832  1.00  0.00     0.035 C 
ATOM     85  C   UNL A   1      33.399  21.552  24.032  1.00  0.00     0.006 C 
ENDBRANCH  68  77
ENDBRANCH  66  68
ENDBRANCH  65  66
ENDBRANCH  64  65
ENDBRANCH  63  64
ENDBRANCH   1  63
TORSDOF 17
ENDMDL
