MODEL 1
REMARK VINA RESULT:     -10.6      0.000      0.000
REMARK SMILES CC[C@H](C)[C@H](NC(=O)N1CCc2cc(OC)c(OC)cc2[C@@H]1c1ccc(F)cc1)C(=O)OCCOCCOC(=O)c1ccc(-c2c3nc(c(-c4c(F)cccc4F)c4ccc([nH]4)c(-c4c(F)cccc4F)c4nc(c(-c5c(F)cccc5F)c5ccc2[nH]5)C=C4)C=C3)cc1
REMARK SMILES IDX 34 1 33 2 32 3 30 4 31 5 5 6 3 7 4 8 2 9 1 10 6 11 7 12 8 14
REMARK SMILES IDX 9 15 10 16 22 17 11 18 21 19 12 20 20 21 13 22 17 23 14 24
REMARK SMILES IDX 23 25 24 26 29 27 25 28 28 29 26 30 27 31 18 32 19 33 15 34
REMARK SMILES IDX 16 35 35 36 36 37 37 38 38 39 39 40 40 41 41 42 42 43 94 44
REMARK SMILES IDX 43 45 93 46 44 47 45 48 46 49 87 50 47 51 92 52 86 53 88 54
REMARK SMILES IDX 48 55 91 56 85 57 84 58 49 60 75 61 58 62 74 63 59 64 62 65
REMARK SMILES IDX 73 66 89 67 60 68 61 69 72 71 90 72 63 73 50 74 51 75 56 76
REMARK SMILES IDX 52 77 53 78 55 79 57 80 54 81 76 82 77 83 82 84 78 85 79 86
REMARK SMILES IDX 81 87 83 88 80 89 64 90 65 91 70 92 66 93 67 94 69 95 71 96
REMARK SMILES IDX 68 97
REMARK H PARENT 6 13 88 59 62 70
REMARK Flexibility Score: inf
ROOT
ATOM      1  C   UNL A   1      49.794  22.628  39.431  1.00  0.00     0.202 C 
ENDROOT
BRANCH   1   2
ATOM      2  C   UNL A   1      49.581  22.061  38.027  1.00  0.00     0.261 C 
BRANCH   2   3
ATOM      3  O   UNL A   1      49.089  20.751  38.132  1.00  0.00    -0.462 OA
BRANCH   3   4
ATOM      4  C   UNL A   1      48.574  20.318  36.960  1.00  0.00     0.329 C 
ATOM      5  O   UNL A   1      49.136  20.354  35.885  1.00  0.00    -0.250 OA
BRANCH   4   6
ATOM      6  C   UNL A   1      47.131  19.915  37.185  1.00  0.00     0.196 C 
BRANCH   6   7
ATOM      7  C   UNL A   1      46.274  20.052  35.887  1.00  0.00     0.019 C 
ATOM      8  C   UNL A   1      45.433  18.810  35.553  1.00  0.00     0.010 C 
BRANCH   7   9
ATOM      9  C   UNL A   1      45.588  21.433  35.754  1.00  0.00     0.002 C 
ATOM     10  C   UNL A   1      46.073  22.356  34.656  1.00  0.00     0.004 C 
ENDBRANCH   7   9
ENDBRANCH   6   7
BRANCH   6  11
ATOM     11  N   UNL A   1      46.492  20.353  38.469  1.00  0.00    -0.324 N 
ATOM     12  C   UNL A   1      46.377  20.106  39.789  1.00  0.00     0.318 C 
ATOM     13  H   UNL A   1      45.931  21.136  38.266  1.00  0.00     0.166 HD
ATOM     14  O   UNL A   1      46.449  21.167  40.423  1.00  0.00    -0.249 OA
BRANCH  12  15
ATOM     15  N   UNL A   1      46.299  18.826  40.404  1.00  0.00    -0.313 N 
ATOM     16  C   UNL A   1      47.643  18.758  40.988  1.00  0.00     0.127 C 
ATOM     17  C   UNL A   1      45.058  18.200  41.454  1.00  0.00     0.148 C 
ATOM     18  C   UNL A   1      47.929  17.600  41.900  1.00  0.00     0.057 C 
ATOM     19  C   UNL A   1      45.650  18.035  42.873  1.00  0.00    -0.014 A 
ATOM     20  C   UNL A   1      46.988  17.683  43.062  1.00  0.00    -0.037 A 
ATOM     21  C   UNL A   1      44.818  18.228  43.999  1.00  0.00     0.057 A 
ATOM     22  C   UNL A   1      47.463  17.481  44.355  1.00  0.00     0.054 A 
ATOM     23  C   UNL A   1      45.316  18.095  45.300  1.00  0.00     0.161 A 
ATOM     24  C   UNL A   1      46.647  17.690  45.472  1.00  0.00     0.161 A 
BRANCH  17  25
ATOM     25  C   UNL A   1      44.044  16.892  41.211  1.00  0.00    -0.021 A 
ATOM     26  C   UNL A   1      43.565  16.554  39.920  1.00  0.00     0.009 A 
ATOM     27  C   UNL A   1      43.667  15.914  42.161  1.00  0.00     0.009 A 
ATOM     28  C   UNL A   1      42.686  15.468  39.667  1.00  0.00     0.039 A 
ATOM     29  C   UNL A   1      42.695  14.909  41.963  1.00  0.00     0.039 A 
ATOM     30  C   UNL A   1      42.197  14.704  40.706  1.00  0.00     0.123 A 
ATOM     31  F   UNL A   1      41.278  13.753  40.493  1.00  0.00    -0.207 F 
ENDBRANCH  17  25
BRANCH  23  32
ATOM     32  O   UNL A   1      44.528  18.299  46.399  1.00  0.00    -0.493 OA
ATOM     33  C   UNL A   1      44.894  19.395  47.236  1.00  0.00     0.278 C 
ENDBRANCH  23  32
BRANCH  24  34
ATOM     34  O   UNL A   1      47.303  17.439  46.646  1.00  0.00    -0.493 OA
ATOM     35  C   UNL A   1      48.626  16.935  46.543  1.00  0.00     0.278 C 
ENDBRANCH  24  34
ENDBRANCH  12  15
ENDBRANCH   6  11
ENDBRANCH   4   6
ENDBRANCH   3   4
ENDBRANCH   2   3
ENDBRANCH   1   2
BRANCH   1  36
ATOM     36  O   UNL A   1      49.858  24.036  39.742  1.00  0.00    -0.374 OA
BRANCH  36  37
ATOM     37  C   UNL A   1      48.916  25.109  40.065  1.00  0.00     0.202 C 
BRANCH  37  38
ATOM     38  C   UNL A   1      47.336  25.568  39.573  1.00  0.00     0.261 C 
BRANCH  38  39
ATOM     39  O   UNL A   1      46.870  25.502  38.156  1.00  0.00    -0.460 OA
BRANCH  39  40
ATOM     40  C   UNL A   1      45.746  24.815  37.717  1.00  0.00     0.338 C 
ATOM     41  O   UNL A   1      45.318  23.812  38.273  1.00  0.00    -0.246 OA
BRANCH  40  42
ATOM     42  C   UNL A   1      44.949  25.459  36.547  1.00  0.00     0.060 A 
ATOM     43  C   UNL A   1      45.433  26.582  35.879  1.00  0.00     0.016 A 
ATOM     44  C   UNL A   1      43.648  25.117  36.177  1.00  0.00     0.016 A 
ATOM     45  C   UNL A   1      44.748  27.359  34.927  1.00  0.00     0.010 A 
ATOM     46  C   UNL A   1      42.942  25.852  35.159  1.00  0.00     0.010 A 
ATOM     47  C   UNL A   1      43.481  26.997  34.521  1.00  0.00    -0.014 A 
BRANCH  47  48
ATOM     48  C   UNL A   1      42.714  27.865  33.556  1.00  0.00     0.031 A 
ATOM     49  C   UNL A   1      41.899  29.006  34.105  1.00  0.00     0.074 A 
ATOM     50  C   UNL A   1      42.777  27.756  32.206  1.00  0.00     0.049 A 
ATOM     51  N   UNL A   1      40.914  29.678  33.565  1.00  0.00    -0.248 NA
ATOM     52  C   UNL A   1      42.267  29.463  35.453  1.00  0.00     0.031 C 
ATOM     53  C   UNL A   1      43.679  26.887  31.449  1.00  0.00     0.029 A 
ATOM     54  N   UNL A   1      42.040  28.388  31.219  1.00  0.00    -0.354 N 
ATOM     55  C   UNL A   1      40.492  30.577  34.539  1.00  0.00     0.074 A 
ATOM     56  C   UNL A   1      41.353  30.391  35.687  1.00  0.00     0.031 C 
ATOM     57  C   UNL A   1      43.428  27.020  30.134  1.00  0.00     0.029 A 
ATOM     58  C   UNL A   1      42.277  27.900  29.950  1.00  0.00     0.049 A 
ATOM     59  H   UNL A   1      41.406  29.118  31.405  1.00  0.00     0.167 HD
ATOM     60  C   UNL A   1      39.458  31.451  34.487  1.00  0.00     0.037 A 
ATOM     61  C   UNL A   1      41.602  28.069  28.789  1.00  0.00     0.037 A 
ATOM     62  C   UNL A   1      38.631  31.653  33.326  1.00  0.00     0.049 A 
ATOM     63  C   UNL A   1      40.354  28.919  28.773  1.00  0.00     0.074 A 
ATOM     64  C   UNL A   1      37.512  32.456  33.191  1.00  0.00     0.029 A 
ATOM     65  N   UNL A   1      38.848  31.058  32.093  1.00  0.00    -0.354 N 
ATOM     66  N   UNL A   1      39.831  29.633  29.742  1.00  0.00    -0.248 NA
ATOM     67  C   UNL A   1      39.582  28.961  27.520  1.00  0.00     0.031 C 
ATOM     68  C   UNL A   1      37.019  32.303  31.891  1.00  0.00     0.029 A 
ATOM     69  C   UNL A   1      37.871  31.458  31.197  1.00  0.00     0.049 A 
ATOM     70  H   UNL A   1      39.587  30.443  31.885  1.00  0.00     0.167 HD
ATOM     71  C   UNL A   1      38.687  30.221  29.212  1.00  0.00     0.074 A 
ATOM     72  C   UNL A   1      38.594  29.790  27.834  1.00  0.00     0.031 C 
ATOM     73  C   UNL A   1      37.794  31.040  29.820  1.00  0.00     0.037 A 
BRANCH  60  74
ATOM     74  C   UNL A   1      39.104  32.184  35.749  1.00  0.00     0.057 A 
ATOM     75  C   UNL A   1      38.252  31.585  36.689  1.00  0.00     0.134 A 
ATOM     76  C   UNL A   1      39.573  33.471  36.036  1.00  0.00     0.134 A 
ATOM     77  F   UNL A   1      37.762  30.353  36.477  1.00  0.00    -0.206 F 
ATOM     78  C   UNL A   1      37.875  32.240  37.862  1.00  0.00     0.040 A 
ATOM     79  C   UNL A   1      39.226  34.126  37.221  1.00  0.00     0.040 A 
ATOM     80  F   UNL A   1      40.408  34.094  35.192  1.00  0.00    -0.206 F 
ATOM     81  C   UNL A   1      38.368  33.513  38.134  1.00  0.00     0.006 A 
ENDBRANCH  60  74
BRANCH  61  82
ATOM     82  C   UNL A   1      42.029  27.339  27.557  1.00  0.00     0.057 A 
ATOM     83  C   UNL A   1      41.652  26.007  27.329  1.00  0.00     0.134 A 
ATOM     84  C   UNL A   1      42.809  27.954  26.569  1.00  0.00     0.134 A 
ATOM     85  F   UNL A   1      40.881  25.360  28.215  1.00  0.00    -0.206 F 
ATOM     86  C   UNL A   1      42.071  25.304  26.195  1.00  0.00     0.040 A 
ATOM     87  C   UNL A   1      43.210  27.272  25.415  1.00  0.00     0.040 A 
ATOM     88  F   UNL A   1      43.164  29.241  26.694  1.00  0.00    -0.206 F 
ATOM     89  C   UNL A   1      42.852  25.937  25.234  1.00  0.00     0.006 A 
ENDBRANCH  61  82
BRANCH  73  90
ATOM     90  C   UNL A   1      36.652  31.573  29.004  1.00  0.00     0.057 A 
ATOM     91  C   UNL A   1      36.626  32.919  28.614  1.00  0.00     0.134 A 
ATOM     92  C   UNL A   1      35.532  30.791  28.697  1.00  0.00     0.134 A 
ATOM     93  F   UNL A   1      37.662  33.727  28.888  1.00  0.00    -0.206 F 
ATOM     94  C   UNL A   1      35.520  33.474  27.970  1.00  0.00     0.040 A 
ATOM     95  C   UNL A   1      34.429  31.329  28.029  1.00  0.00     0.040 A 
ATOM     96  F   UNL A   1      35.494  29.493  29.034  1.00  0.00    -0.206 F 
ATOM     97  C   UNL A   1      34.416  32.677  27.676  1.00  0.00     0.006 A 
ENDBRANCH  73  90
ENDBRANCH  47  48
ENDBRANCH  40  42
ENDBRANCH  39  40
ENDBRANCH  38  39
ENDBRANCH  37  38
ENDBRANCH  36  37
ENDBRANCH   1  36
TORSDOF 21
ENDMDL
MODEL 2
REMARK VINA RESULT:     -10.1      8.410     14.552
REMARK SMILES CC[C@H](C)[C@H](NC(=O)N1CCc2cc(OC)c(OC)cc2[C@@H]1c1ccc(F)cc1)C(=O)OCCOCCOC(=O)c1ccc(-c2c3nc(c(-c4c(F)cccc4F)c4ccc([nH]4)c(-c4c(F)cccc4F)c4nc(c(-c5c(F)cccc5F)c5ccc2[nH]5)C=C4)C=C3)cc1
REMARK SMILES IDX 34 1 33 2 32 3 30 4 31 5 5 6 3 7 4 8 2 9 1 10 6 11 7 12 8 14
REMARK SMILES IDX 9 15 10 16 22 17 11 18 21 19 12 20 20 21 13 22 17 23 14 24
REMARK SMILES IDX 23 25 24 26 29 27 25 28 28 29 26 30 27 31 18 32 19 33 15 34
REMARK SMILES IDX 16 35 35 36 36 37 37 38 38 39 39 40 40 41 41 42 42 43 94 44
REMARK SMILES IDX 43 45 93 46 44 47 45 48 46 49 87 50 47 51 92 52 86 53 88 54
REMARK SMILES IDX 48 55 91 56 85 57 84 58 49 60 75 61 58 62 74 63 59 64 62 65
REMARK SMILES IDX 73 66 89 67 60 68 61 69 72 71 90 72 63 73 50 74 51 75 56 76
REMARK SMILES IDX 52 77 53 78 55 79 57 80 54 81 76 82 77 83 82 84 78 85 79 86
REMARK SMILES IDX 81 87 83 88 80 89 64 90 65 91 70 92 66 93 67 94 69 95 71 96
REMARK SMILES IDX 68 97
REMARK H PARENT 6 13 88 59 62 70
REMARK Flexibility Score: inf
ROOT
ATOM      1  C   UNL A   1      47.653  37.078  30.423  1.00  0.00     0.202 C 
ENDROOT
BRANCH   1   2
ATOM      2  C   UNL A   1      46.392  37.925  30.601  1.00  0.00     0.261 C 
BRANCH   2   3
ATOM      3  O   UNL A   1      45.587  37.344  31.592  1.00  0.00    -0.462 OA
BRANCH   3   4
ATOM      4  C   UNL A   1      45.332  38.211  32.598  1.00  0.00     0.329 C 
ATOM      5  O   UNL A   1      46.131  38.574  33.436  1.00  0.00    -0.250 OA
BRANCH   4   6
ATOM      6  C   UNL A   1      43.853  38.540  32.591  1.00  0.00     0.196 C 
BRANCH   6   7
ATOM      7  C   UNL A   1      43.594  40.069  32.411  1.00  0.00     0.019 C 
ATOM      8  C   UNL A   1      42.971  40.448  31.058  1.00  0.00     0.010 C 
BRANCH   7   9
ATOM      9  C   UNL A   1      43.007  40.740  33.677  1.00  0.00     0.002 C 
ATOM     10  C   UNL A   1      43.934  41.603  34.508  1.00  0.00     0.004 C 
ENDBRANCH   7   9
ENDBRANCH   6   7
BRANCH   6  11
ATOM     11  N   UNL A   1      42.988  37.817  33.579  1.00  0.00    -0.324 N 
ATOM     12  C   UNL A   1      42.569  36.610  34.010  1.00  0.00     0.318 C 
ATOM     13  H   UNL A   1      42.549  38.497  34.140  1.00  0.00     0.166 HD
ATOM     14  O   UNL A   1      42.588  36.575  35.247  1.00  0.00    -0.249 OA
BRANCH  12  15
ATOM     15  N   UNL A   1      42.257  35.486  33.196  1.00  0.00    -0.313 N 
ATOM     16  C   UNL A   1      43.431  34.653  33.476  1.00  0.00     0.127 C 
ATOM     17  C   UNL A   1      40.770  34.581  33.119  1.00  0.00     0.148 C 
ATOM     18  C   UNL A   1      43.417  33.255  32.928  1.00  0.00     0.057 C 
ATOM     19  C   UNL A   1      41.023  33.169  33.697  1.00  0.00    -0.014 A 
ATOM     20  C   UNL A   1      42.255  32.532  33.535  1.00  0.00    -0.037 A 
ATOM     21  C   UNL A   1      39.983  32.505  34.386  1.00  0.00     0.057 A 
ATOM     22  C   UNL A   1      42.418  31.234  34.014  1.00  0.00     0.054 A 
ATOM     23  C   UNL A   1      40.173  31.230  34.929  1.00  0.00     0.161 A 
ATOM     24  C   UNL A   1      41.397  30.582  34.714  1.00  0.00     0.161 A 
BRANCH  17  25
ATOM     25  C   UNL A   1      39.733  34.383  31.822  1.00  0.00    -0.021 A 
ATOM     26  C   UNL A   1      38.454  33.791  31.977  1.00  0.00     0.009 A 
ATOM     27  C   UNL A   1      39.904  34.878  30.507  1.00  0.00     0.009 A 
ATOM     28  C   UNL A   1      37.550  33.582  30.904  1.00  0.00     0.039 A 
ATOM     29  C   UNL A   1      39.083  34.568  29.401  1.00  0.00     0.039 A 
ATOM     30  C   UNL A   1      37.907  33.901  29.610  1.00  0.00     0.123 A 
ATOM     31  F   UNL A   1      37.110  33.601  28.577  1.00  0.00    -0.207 F 
ENDBRANCH  17  25
BRANCH  23  32
ATOM     32  O   UNL A   1      39.182  30.583  35.617  1.00  0.00    -0.493 OA
ATOM     33  C   UNL A   1      38.362  31.402  36.448  1.00  0.00     0.278 C 
ENDBRANCH  23  32
BRANCH  24  34
ATOM     34  O   UNL A   1      41.759  29.320  35.097  1.00  0.00    -0.493 OA
ATOM     35  C   UNL A   1      42.564  29.211  36.261  1.00  0.00     0.278 C 
ENDBRANCH  24  34
ENDBRANCH  12  15
ENDBRANCH   6  11
ENDBRANCH   4   6
ENDBRANCH   3   4
ENDBRANCH   2   3
ENDBRANCH   1   2
BRANCH   1  36
ATOM     36  O   UNL A   1      48.647  37.298  29.400  1.00  0.00    -0.374 OA
BRANCH  36  37
ATOM     37  C   UNL A   1      49.065  36.655  28.153  1.00  0.00     0.202 C 
BRANCH  37  38
ATOM     38  C   UNL A   1      48.409  36.445  26.580  1.00  0.00     0.261 C 
BRANCH  38  39
ATOM     39  O   UNL A   1      47.126  37.070  26.140  1.00  0.00    -0.460 OA
BRANCH  39  40
ATOM     40  C   UNL A   1      45.954  37.094  26.885  1.00  0.00     0.338 C 
ATOM     41  O   UNL A   1      45.409  38.131  27.235  1.00  0.00    -0.246 OA
BRANCH  40  42
ATOM     42  C   UNL A   1      45.267  35.723  27.146  1.00  0.00     0.060 A 
ATOM     43  C   UNL A   1      45.454  35.043  28.347  1.00  0.00     0.016 A 
ATOM     44  C   UNL A   1      44.575  34.977  26.192  1.00  0.00     0.016 A 
ATOM     45  C   UNL A   1      45.035  33.734  28.650  1.00  0.00     0.010 A 
ATOM     46  C   UNL A   1      44.076  33.659  26.492  1.00  0.00     0.010 A 
ATOM     47  C   UNL A   1      44.308  33.010  27.730  1.00  0.00    -0.014 A 
BRANCH  47  48
ATOM     48  C   UNL A   1      43.918  31.583  28.020  1.00  0.00     0.031 A 
ATOM     49  C   UNL A   1      44.802  30.476  27.505  1.00  0.00     0.074 A 
ATOM     50  C   UNL A   1      42.872  31.214  28.800  1.00  0.00     0.049 A 
ATOM     51  N   UNL A   1      44.546  29.206  27.322  1.00  0.00    -0.248 NA
ATOM     52  C   UNL A   1      46.179  30.864  27.168  1.00  0.00     0.031 C 
ATOM     53  C   UNL A   1      42.028  32.107  29.594  1.00  0.00     0.029 A 
ATOM     54  N   UNL A   1      42.330  29.963  29.042  1.00  0.00    -0.354 N 
ATOM     55  C   UNL A   1      45.701  28.664  26.770  1.00  0.00     0.074 A 
ATOM     56  C   UNL A   1      46.671  29.734  26.686  1.00  0.00     0.031 C 
ATOM     57  C   UNL A   1      41.070  31.388  30.207  1.00  0.00     0.029 A 
ATOM     58  C   UNL A   1      41.159  29.997  29.771  1.00  0.00     0.049 A 
ATOM     59  H   UNL A   1      42.742  29.127  28.724  1.00  0.00     0.167 HD
ATOM     60  C   UNL A   1      45.916  27.396  26.343  1.00  0.00     0.037 A 
ATOM     61  C   UNL A   1      40.220  29.048  29.995  1.00  0.00     0.037 A 
ATOM     62  C   UNL A   1      44.956  26.331  26.466  1.00  0.00     0.049 A 
ATOM     63  C   UNL A   1      40.387  27.679  29.380  1.00  0.00     0.074 A 
ATOM     64  C   UNL A   1      45.041  25.031  25.997  1.00  0.00     0.029 A 
ATOM     65  N   UNL A   1      43.739  26.440  27.121  1.00  0.00    -0.354 N 
ATOM     66  N   UNL A   1      41.398  27.203  28.691  1.00  0.00    -0.248 NA
ATOM     67  C   UNL A   1      39.276  26.726  29.539  1.00  0.00     0.031 C 
ATOM     68  C   UNL A   1      43.852  24.371  26.322  1.00  0.00     0.029 A 
ATOM     69  C   UNL A   1      43.054  25.238  27.051  1.00  0.00     0.049 A 
ATOM     70  H   UNL A   1      43.410  27.252  27.570  1.00  0.00     0.167 HD
ATOM     71  C   UNL A   1      41.053  25.898  28.353  1.00  0.00     0.074 A 
ATOM     72  C   UNL A   1      39.745  25.650  28.921  1.00  0.00     0.031 C 
ATOM     73  C   UNL A   1      41.760  24.993  27.634  1.00  0.00     0.037 A 
BRANCH  60  74
ATOM     74  C   UNL A   1      47.201  27.116  25.617  1.00  0.00     0.057 A 
ATOM     75  C   UNL A   1      47.312  27.417  24.252  1.00  0.00     0.134 A 
ATOM     76  C   UNL A   1      48.313  26.538  26.241  1.00  0.00     0.134 A 
ATOM     77  F   UNL A   1      46.283  27.969  23.590  1.00  0.00    -0.206 F 
ATOM     78  C   UNL A   1      48.477  27.148  23.533  1.00  0.00     0.040 A 
ATOM     79  C   UNL A   1      49.495  26.291  25.538  1.00  0.00     0.040 A 
ATOM     80  F   UNL A   1      48.283  26.244  27.549  1.00  0.00    -0.206 F 
ATOM     81  C   UNL A   1      49.577  26.589  24.178  1.00  0.00     0.006 A 
ENDBRANCH  60  74
BRANCH  61  82
ATOM     82  C   UNL A   1      38.979  29.381  30.757  1.00  0.00     0.057 A 
ATOM     83  C   UNL A   1      38.857  29.084  32.122  1.00  0.00     0.134 A 
ATOM     84  C   UNL A   1      37.890  30.019  30.149  1.00  0.00     0.134 A 
ATOM     85  F   UNL A   1      39.869  28.499  32.781  1.00  0.00    -0.206 F 
ATOM     86  C   UNL A   1      37.689  29.362  32.839  1.00  0.00     0.040 A 
ATOM     87  C   UNL A   1      36.727  30.331  30.861  1.00  0.00     0.040 A 
ATOM     88  F   UNL A   1      37.954  30.380  28.859  1.00  0.00    -0.206 F 
ATOM     89  C   UNL A   1      36.619  29.989  32.207  1.00  0.00     0.006 A 
ENDBRANCH  61  82
BRANCH  73  90
ATOM     90  C   UNL A   1      41.171  23.625  27.442  1.00  0.00     0.057 A 
ATOM     91  C   UNL A   1      41.690  22.525  28.140  1.00  0.00     0.134 A 
ATOM     92  C   UNL A   1      40.169  23.374  26.497  1.00  0.00     0.134 A 
ATOM     93  F   UNL A   1      42.661  22.693  29.051  1.00  0.00    -0.206 F 
ATOM     94  C   UNL A   1      41.253  21.224  27.887  1.00  0.00     0.040 A 
ATOM     95  C   UNL A   1      39.704  22.079  26.254  1.00  0.00     0.040 A 
ATOM     96  F   UNL A   1      39.622  24.382  25.801  1.00  0.00    -0.206 F 
ATOM     97  C   UNL A   1      40.255  20.999  26.940  1.00  0.00     0.006 A 
ENDBRANCH  73  90
ENDBRANCH  47  48
ENDBRANCH  40  42
ENDBRANCH  39  40
ENDBRANCH  38  39
ENDBRANCH  37  38
ENDBRANCH  36  37
ENDBRANCH   1  36
TORSDOF 21
ENDMDL
MODEL 3
REMARK VINA RESULT:     -10.0      5.686      9.701
REMARK SMILES CC[C@H](C)[C@H](NC(=O)N1CCc2cc(OC)c(OC)cc2[C@@H]1c1ccc(F)cc1)C(=O)OCCOCCOC(=O)c1ccc(-c2c3nc(c(-c4c(F)cccc4F)c4ccc([nH]4)c(-c4c(F)cccc4F)c4nc(c(-c5c(F)cccc5F)c5ccc2[nH]5)C=C4)C=C3)cc1
REMARK SMILES IDX 34 1 33 2 32 3 30 4 31 5 5 6 3 7 4 8 2 9 1 10 6 11 7 12 8 14
REMARK SMILES IDX 9 15 10 16 22 17 11 18 21 19 12 20 20 21 13 22 17 23 14 24
REMARK SMILES IDX 23 25 24 26 29 27 25 28 28 29 26 30 27 31 18 32 19 33 15 34
REMARK SMILES IDX 16 35 35 36 36 37 37 38 38 39 39 40 40 41 41 42 42 43 94 44
REMARK SMILES IDX 43 45 93 46 44 47 45 48 46 49 87 50 47 51 92 52 86 53 88 54
REMARK SMILES IDX 48 55 91 56 85 57 84 58 49 60 75 61 58 62 74 63 59 64 62 65
REMARK SMILES IDX 73 66 89 67 60 68 61 69 72 71 90 72 63 73 50 74 51 75 56 76
REMARK SMILES IDX 52 77 53 78 55 79 57 80 54 81 76 82 77 83 82 84 78 85 79 86
REMARK SMILES IDX 81 87 83 88 80 89 64 90 65 91 70 92 66 93 67 94 69 95 71 96
REMARK SMILES IDX 68 97
REMARK H PARENT 6 13 88 59 62 70
REMARK Flexibility Score: inf
ROOT
ATOM      1  C   UNL A   1      48.666  25.781  36.119  1.00  0.00     0.202 C 
ENDROOT
BRANCH   1   2
ATOM      2  C   UNL A   1      47.550  26.771  35.783  1.00  0.00     0.261 C 
BRANCH   2   3
ATOM      3  O   UNL A   1      46.398  26.056  35.424  1.00  0.00    -0.462 OA
BRANCH   3   4
ATOM      4  C   UNL A   1      45.401  26.235  36.320  1.00  0.00     0.329 C 
ATOM      5  O   UNL A   1      45.413  27.024  37.241  1.00  0.00    -0.250 OA
BRANCH   4   6
ATOM      6  C   UNL A   1      44.333  25.190  36.071  1.00  0.00     0.196 C 
BRANCH   6   7
ATOM      7  C   UNL A   1      44.670  24.287  34.843  1.00  0.00     0.019 C 
ATOM      8  C   UNL A   1      44.544  22.779  35.116  1.00  0.00     0.010 C 
BRANCH   7   9
ATOM      9  C   UNL A   1      44.081  24.820  33.515  1.00  0.00     0.002 C 
ATOM     10  C   UNL A   1      44.538  24.162  32.229  1.00  0.00     0.004 C 
ENDBRANCH   7   9
ENDBRANCH   6   7
BRANCH   6  11
ATOM     11  N   UNL A   1      42.905  25.623  36.222  1.00  0.00    -0.324 N 
ATOM     12  C   UNL A   1      41.929  26.410  35.727  1.00  0.00     0.318 C 
ATOM     13  H   UNL A   1      42.530  25.139  36.993  1.00  0.00     0.166 HD
ATOM     14  O   UNL A   1      40.867  25.776  35.670  1.00  0.00    -0.249 OA
BRANCH  12  15
ATOM     15  N   UNL A   1      42.083  27.733  35.228  1.00  0.00    -0.313 N 
ATOM     16  C   UNL A   1      41.451  27.569  33.914  1.00  0.00     0.127 C 
ATOM     17  C   UNL A   1      41.680  29.240  36.004  1.00  0.00     0.148 C 
ATOM     18  C   UNL A   1      41.244  28.813  33.100  1.00  0.00     0.057 C 
ATOM     19  C   UNL A   1      40.490  29.878  35.252  1.00  0.00    -0.014 A 
ATOM     20  C   UNL A   1      40.341  29.725  33.872  1.00  0.00    -0.037 A 
ATOM     21  C   UNL A   1      39.546  30.646  35.971  1.00  0.00     0.057 A 
ATOM     22  C   UNL A   1      39.291  30.372  33.224  1.00  0.00     0.054 A 
ATOM     23  C   UNL A   1      38.451  31.235  35.329  1.00  0.00     0.161 A 
ATOM     24  C   UNL A   1      38.344  31.116  33.936  1.00  0.00     0.161 A 
BRANCH  17  25
ATOM     25  C   UNL A   1      42.695  30.496  36.436  1.00  0.00    -0.021 A 
ATOM     26  C   UNL A   1      42.189  31.768  36.805  1.00  0.00     0.009 A 
ATOM     27  C   UNL A   1      44.096  30.435  36.632  1.00  0.00     0.009 A 
ATOM     28  C   UNL A   1      43.011  32.869  37.158  1.00  0.00     0.039 A 
ATOM     29  C   UNL A   1      44.943  31.544  36.852  1.00  0.00     0.039 A 
ATOM     30  C   UNL A   1      44.386  32.768  37.101  1.00  0.00     0.123 A 
ATOM     31  F   UNL A   1      45.168  33.832  37.318  1.00  0.00    -0.207 F 
ENDBRANCH  17  25
BRANCH  23  32
ATOM     32  O   UNL A   1      37.518  31.963  36.015  1.00  0.00    -0.493 OA
ATOM     33  C   UNL A   1      37.881  33.306  36.330  1.00  0.00     0.278 C 
ENDBRANCH  23  32
BRANCH  24  34
ATOM     34  O   UNL A   1      37.398  31.667  33.117  1.00  0.00    -0.493 OA
ATOM     35  C   UNL A   1      37.668  32.966  32.612  1.00  0.00     0.278 C 
ENDBRANCH  24  34
ENDBRANCH  12  15
ENDBRANCH   6  11
ENDBRANCH   4   6
ENDBRANCH   3   4
ENDBRANCH   2   3
ENDBRANCH   1   2
BRANCH   1  36
ATOM     36  O   UNL A   1      50.008  26.159  36.494  1.00  0.00    -0.374 OA
BRANCH  36  37
ATOM     37  C   UNL A   1      51.320  26.239  35.851  1.00  0.00     0.202 C 
BRANCH  37  38
ATOM     38  C   UNL A   1      52.348  25.172  34.981  1.00  0.00     0.261 C 
BRANCH  38  39
ATOM     39  O   UNL A   1      52.501  25.216  33.496  1.00  0.00    -0.460 OA
BRANCH  39  40
ATOM     40  C   UNL A   1      51.765  24.458  32.596  1.00  0.00     0.338 C 
ATOM     41  O   UNL A   1      51.964  23.266  32.408  1.00  0.00    -0.246 OA
BRANCH  40  42
ATOM     42  C   UNL A   1      50.555  25.164  31.917  1.00  0.00     0.060 A 
ATOM     43  C   UNL A   1      49.367  25.381  32.612  1.00  0.00     0.016 A 
ATOM     44  C   UNL A   1      50.464  25.475  30.560  1.00  0.00     0.016 A 
ATOM     45  C   UNL A   1      48.152  25.850  32.080  1.00  0.00     0.010 A 
ATOM     46  C   UNL A   1      49.255  26.017  29.997  1.00  0.00     0.010 A 
ATOM     47  C   UNL A   1      48.070  26.205  30.751  1.00  0.00    -0.014 A 
BRANCH  47  48
ATOM     48  C   UNL A   1      46.753  26.639  30.159  1.00  0.00     0.031 A 
ATOM     49  C   UNL A   1      46.322  28.072  30.333  1.00  0.00     0.074 A 
ATOM     50  C   UNL A   1      45.959  25.854  29.389  1.00  0.00     0.049 A 
ATOM     51  N   UNL A   1      45.137  28.617  30.227  1.00  0.00    -0.248 NA
ATOM     52  C   UNL A   1      47.393  29.026  30.654  1.00  0.00     0.031 C 
ATOM     53  C   UNL A   1      46.286  24.517  28.891  1.00  0.00     0.029 A 
ATOM     54  N   UNL A   1      44.684  26.075  28.896  1.00  0.00    -0.354 N 
ATOM     55  C   UNL A   1      45.308  29.958  30.553  1.00  0.00     0.074 A 
ATOM     56  C   UNL A   1      46.716  30.151  30.820  1.00  0.00     0.031 C 
ATOM     57  C   UNL A   1      45.243  24.033  28.194  1.00  0.00     0.029 A 
ATOM     58  C   UNL A   1      44.128  24.972  28.280  1.00  0.00     0.049 A 
ATOM     59  H   UNL A   1      44.218  26.938  28.977  1.00  0.00     0.167 HD
ATOM     60  C   UNL A   1      44.367  30.928  30.651  1.00  0.00     0.037 A 
ATOM     61  C   UNL A   1      42.855  24.709  27.905  1.00  0.00     0.037 A 
ATOM     62  C   UNL A   1      42.973  30.732  30.347  1.00  0.00     0.049 A 
ATOM     63  C   UNL A   1      41.777  25.734  28.164  1.00  0.00     0.074 A 
ATOM     64  C   UNL A   1      41.924  31.624  30.487  1.00  0.00     0.029 A 
ATOM     65  N   UNL A   1      42.438  29.565  29.824  1.00  0.00    -0.354 N 
ATOM     66  N   UNL A   1      41.894  26.948  28.648  1.00  0.00    -0.248 NA
ATOM     67  C   UNL A   1      40.389  25.346  27.863  1.00  0.00     0.031 C 
ATOM     68  C   UNL A   1      40.746  30.977  30.100  1.00  0.00     0.029 A 
ATOM     69  C   UNL A   1      41.071  29.705  29.655  1.00  0.00     0.049 A 
ATOM     70  H   UNL A   1      42.955  28.756  29.604  1.00  0.00     0.167 HD
ATOM     71  C   UNL A   1      40.606  27.472  28.691  1.00  0.00     0.074 A 
ATOM     72  C   UNL A   1      39.721  26.449  28.174  1.00  0.00     0.031 C 
ATOM     73  C   UNL A   1      40.199  28.690  29.123  1.00  0.00     0.037 A 
BRANCH  60  74
ATOM     74  C   UNL A   1      44.795  32.260  31.197  1.00  0.00     0.057 A 
ATOM     75  C   UNL A   1      44.622  32.545  32.560  1.00  0.00     0.134 A 
ATOM     76  C   UNL A   1      45.355  33.263  30.398  1.00  0.00     0.134 A 
ATOM     77  F   UNL A   1      44.088  31.630  33.385  1.00  0.00    -0.206 F 
ATOM     78  C   UNL A   1      44.981  33.778  33.104  1.00  0.00     0.040 A 
ATOM     79  C   UNL A   1      45.745  34.492  30.936  1.00  0.00     0.040 A 
ATOM     80  F   UNL A   1      45.569  33.050  29.091  1.00  0.00    -0.206 F 
ATOM     81  C   UNL A   1      45.551  34.754  32.292  1.00  0.00     0.006 A 
ENDBRANCH  60  74
BRANCH  61  82
ATOM     82  C   UNL A   1      42.499  23.375  27.332  1.00  0.00     0.057 A 
ATOM     83  C   UNL A   1      42.464  23.160  25.947  1.00  0.00     0.134 A 
ATOM     84  C   UNL A   1      42.201  22.278  28.151  1.00  0.00     0.134 A 
ATOM     85  F   UNL A   1      42.765  24.154  25.099  1.00  0.00    -0.206 F 
ATOM     86  C   UNL A   1      42.102  21.925  25.399  1.00  0.00     0.040 A 
ATOM     87  C   UNL A   1      41.867  21.029  27.617  1.00  0.00     0.040 A 
ATOM     88  F   UNL A   1      42.264  22.395  29.485  1.00  0.00    -0.206 F 
ATOM     89  C   UNL A   1      41.803  20.854  26.236  1.00  0.00     0.006 A 
ENDBRANCH  61  82
BRANCH  73  90
ATOM     90  C   UNL A   1      38.738  29.024  29.026  1.00  0.00     0.057 A 
ATOM     91  C   UNL A   1      38.215  29.584  27.851  1.00  0.00     0.134 A 
ATOM     92  C   UNL A   1      37.873  28.896  30.119  1.00  0.00     0.134 A 
ATOM     93  F   UNL A   1      38.993  29.746  26.770  1.00  0.00    -0.206 F 
ATOM     94  C   UNL A   1      36.893  30.025  27.776  1.00  0.00     0.040 A 
ATOM     95  C   UNL A   1      36.541  29.310  30.047  1.00  0.00     0.040 A 
ATOM     96  F   UNL A   1      38.306  28.360  31.271  1.00  0.00    -0.206 F 
ATOM     97  C   UNL A   1      36.052  29.888  28.878  1.00  0.00     0.006 A 
ENDBRANCH  73  90
ENDBRANCH  47  48
ENDBRANCH  40  42
ENDBRANCH  39  40
ENDBRANCH  38  39
ENDBRANCH  37  38
ENDBRANCH  36  37
ENDBRANCH   1  36
TORSDOF 21
ENDMDL
