MODEL 1
REMARK VINA RESULT:      -9.9      0.000      0.000
REMARK SMILES C[C@@](NC(=O)CSCc1ccccc1)(C(=O)OCCOCCOC(=O)c1ccc(-c2c3nc(c(-c4c(F)cccc4F)c4ccc([nH]4)c(-c4c(F)cccc4F)c4nc(c(-c5c(F)cccc5F)c5ccc2[nH]5)C=C4)C=C3)cc1)C1CC1
REMARK SMILES IDX 18 1 17 2 15 3 16 4 2 5 1 6 3 7 4 8 5 10 6 11 7 12 8 13 9 14
REMARK SMILES IDX 10 15 14 16 11 17 13 18 12 19 80 20 81 21 82 22 19 23 20 24
REMARK SMILES IDX 21 25 22 26 23 27 24 28 25 29 26 30 27 31 79 32 28 33 78 34
REMARK SMILES IDX 29 35 30 36 31 37 72 38 32 39 77 40 71 41 73 42 33 43 76 44
REMARK SMILES IDX 70 45 69 46 34 48 60 49 43 50 59 51 44 52 47 53 58 54 74 55
REMARK SMILES IDX 45 56 46 57 57 59 75 60 48 61 35 62 36 63 41 64 37 65 38 66
REMARK SMILES IDX 40 67 42 68 39 69 61 70 62 71 67 72 63 73 64 74 66 75 68 76
REMARK SMILES IDX 65 77 49 78 50 79 55 80 51 81 52 82 54 83 56 84 53 85
REMARK H PARENT 3 9 73 47 47 58
REMARK Flexibility Score: inf
ROOT
ATOM      1  C   UNL A   1      35.597  22.814  23.563  1.00  0.00     0.261 C 
ENDROOT
BRANCH   1   2
ATOM      2  O   UNL A   1      34.300  23.067  24.123  1.00  0.00    -0.461 OA
BRANCH   2   3
ATOM      3  C   UNL A   1      33.385  22.085  23.921  1.00  0.00     0.331 C 
ATOM      4  O   UNL A   1      32.821  21.889  22.848  1.00  0.00    -0.249 OA
BRANCH   3   5
ATOM      5  C   UNL A   1      33.133  21.242  25.205  1.00  0.00     0.138 C 
ATOM      6  C   UNL A   1      33.909  21.665  26.467  1.00  0.00     0.048 C 
BRANCH   5   7
ATOM      7  N   UNL A   1      31.680  21.280  25.526  1.00  0.00    -0.340 N 
ATOM      8  C   UNL A   1      30.833  22.332  25.740  1.00  0.00     0.230 C 
ATOM      9  H   UNL A   1      31.254  20.394  25.598  1.00  0.00     0.164 HD
ATOM     10  O   UNL A   1      29.835  22.115  26.435  1.00  0.00    -0.274 OA
BRANCH   8  11
ATOM     11  C   UNL A   1      31.022  23.688  25.075  1.00  0.00     0.169 C 
BRANCH  11  12
ATOM     12  S   UNL A   1      31.339  25.027  26.262  1.00  0.00    -0.147 SA
BRANCH  12  13
ATOM     13  C   UNL A   1      31.111  26.477  25.200  1.00  0.00     0.105 C 
BRANCH  13  14
ATOM     14  C   UNL A   1      31.568  27.804  25.764  1.00  0.00    -0.038 A 
ATOM     15  C   UNL A   1      32.238  27.943  26.990  1.00  0.00     0.004 A 
ATOM     16  C   UNL A   1      31.251  28.969  25.046  1.00  0.00     0.004 A 
ATOM     17  C   UNL A   1      32.629  29.201  27.453  1.00  0.00     0.000 A 
ATOM     18  C   UNL A   1      31.631  30.227  25.516  1.00  0.00     0.000 A 
ATOM     19  C   UNL A   1      32.331  30.342  26.714  1.00  0.00     0.000 A 
ENDBRANCH  13  14
ENDBRANCH  12  13
ENDBRANCH  11  12
ENDBRANCH   8  11
ENDBRANCH   5   7
BRANCH   5  20
ATOM     20  C   UNL A   1      33.488  19.754  24.912  1.00  0.00     0.026 C 
ATOM     21  C   UNL A   1      32.818  18.582  25.614  1.00  0.00     0.007 C 
ATOM     22  C   UNL A   1      32.536  18.826  24.167  1.00  0.00     0.007 C 
ENDBRANCH   5  20
ENDBRANCH   3   5
ENDBRANCH   2   3
ENDBRANCH   1   2
BRANCH   1  23
ATOM     23  C   UNL A   1      36.676  23.411  24.465  1.00  0.00     0.202 C 
BRANCH  23  24
ATOM     24  O   UNL A   1      37.690  22.499  24.892  1.00  0.00    -0.374 OA
BRANCH  24  25
ATOM     25  C   UNL A   1      37.326  21.128  25.035  1.00  0.00     0.202 C 
BRANCH  25  26
ATOM     26  C   UNL A   1      38.477  20.114  25.106  1.00  0.00     0.261 C 
BRANCH  26  27
ATOM     27  O   UNL A   1      39.258  20.182  26.313  1.00  0.00    -0.460 OA
BRANCH  27  28
ATOM     28  C   UNL A   1      40.573  19.910  26.135  1.00  0.00     0.338 C 
ATOM     29  O   UNL A   1      41.053  18.935  25.570  1.00  0.00    -0.246 OA
BRANCH  28  30
ATOM     30  C   UNL A   1      41.440  20.987  26.644  1.00  0.00     0.060 A 
ATOM     31  C   UNL A   1      41.468  21.186  28.030  1.00  0.00     0.016 A 
ATOM     32  C   UNL A   1      42.014  21.926  25.783  1.00  0.00     0.016 A 
ATOM     33  C   UNL A   1      41.988  22.367  28.555  1.00  0.00     0.010 A 
ATOM     34  C   UNL A   1      42.534  23.114  26.313  1.00  0.00     0.010 A 
ATOM     35  C   UNL A   1      42.467  23.365  27.696  1.00  0.00    -0.014 A 
BRANCH  35  36
ATOM     36  C   UNL A   1      42.702  24.729  28.238  1.00  0.00     0.031 A 
ATOM     37  C   UNL A   1      44.107  25.151  28.581  1.00  0.00     0.074 A 
ATOM     38  C   UNL A   1      41.694  25.610  28.362  1.00  0.00     0.049 A 
ATOM     39  N   UNL A   1      44.545  26.303  29.024  1.00  0.00    -0.248 NA
ATOM     40  C   UNL A   1      45.160  24.139  28.400  1.00  0.00     0.031 C 
ATOM     41  C   UNL A   1      40.297  25.347  28.028  1.00  0.00     0.029 A 
ATOM     42  N   UNL A   1      41.702  26.911  28.796  1.00  0.00    -0.354 N 
ATOM     43  C   UNL A   1      45.918  26.154  29.178  1.00  0.00     0.074 A 
ATOM     44  C   UNL A   1      46.238  24.792  28.808  1.00  0.00     0.031 C 
ATOM     45  C   UNL A   1      39.579  26.458  28.266  1.00  0.00     0.029 A 
ATOM     46  C   UNL A   1      40.463  27.503  28.781  1.00  0.00     0.049 A 
ATOM     47  H   UNL A   1      42.518  27.377  29.088  1.00  0.00     0.167 HD
ATOM     48  C   UNL A   1      46.835  27.067  29.580  1.00  0.00     0.037 A 
ATOM     49  C   UNL A   1      40.088  28.743  29.143  1.00  0.00     0.037 A 
ATOM     50  C   UNL A   1      46.532  28.428  29.936  1.00  0.00     0.049 A 
ATOM     51  C   UNL A   1      41.115  29.728  29.630  1.00  0.00     0.074 A 
ATOM     52  C   UNL A   1      47.400  29.432  30.331  1.00  0.00     0.029 A 
ATOM     53  N   UNL A   1      45.258  28.975  29.942  1.00  0.00    -0.354 N 
ATOM     54  N   UNL A   1      42.413  29.583  29.746  1.00  0.00    -0.248 NA
ATOM     55  C   UNL A   1      40.624  31.056  30.031  1.00  0.00     0.031 C 
ATOM     56  C   UNL A   1      46.647  30.579  30.608  1.00  0.00     0.029 A 
ATOM     57  C   UNL A   1      45.315  30.297  30.352  1.00  0.00     0.049 A 
ATOM     58  H   UNL A   1      44.436  28.496  29.692  1.00  0.00     0.167 HD
ATOM     59  C   UNL A   1      42.896  30.803  30.201  1.00  0.00     0.074 A 
ATOM     60  C   UNL A   1      41.752  31.681  30.339  1.00  0.00     0.031 C 
ATOM     61  C   UNL A   1      44.173  31.165  30.474  1.00  0.00     0.037 A 
BRANCH  48  62
ATOM     62  C   UNL A   1      48.260  26.611  29.674  1.00  0.00     0.057 A 
ATOM     63  C   UNL A   1      48.768  26.009  30.832  1.00  0.00     0.134 A 
ATOM     64  C   UNL A   1      49.128  26.760  28.586  1.00  0.00     0.134 A 
ATOM     65  F   UNL A   1      47.989  25.851  31.913  1.00  0.00    -0.206 F 
ATOM     66  C   UNL A   1      50.097  25.592  30.912  1.00  0.00     0.040 A 
ATOM     67  C   UNL A   1      50.454  26.327  28.647  1.00  0.00     0.040 A 
ATOM     68  F   UNL A   1      48.702  27.324  27.445  1.00  0.00    -0.206 F 
ATOM     69  C   UNL A   1      50.943  25.748  29.815  1.00  0.00     0.006 A 
ENDBRANCH  48  62
BRANCH  49  70
ATOM     70  C   UNL A   1      38.661  29.137  29.042  1.00  0.00     0.057 A 
ATOM     71  C   UNL A   1      38.120  29.579  27.830  1.00  0.00     0.134 A 
ATOM     72  C   UNL A   1      37.813  29.089  30.153  1.00  0.00     0.134 A 
ATOM     73  F   UNL A   1      38.893  29.667  26.737  1.00  0.00    -0.206 F 
ATOM     74  C   UNL A   1      36.785  29.970  27.728  1.00  0.00     0.040 A 
ATOM     75  C   UNL A   1      36.471  29.460  30.062  1.00  0.00     0.040 A 
ATOM     76  F   UNL A   1      38.276  28.679  31.343  1.00  0.00    -0.206 F 
ATOM     77  C   UNL A   1      35.954  29.906  28.846  1.00  0.00     0.006 A 
ENDBRANCH  49  70
BRANCH  61  78
ATOM     78  C   UNL A   1      44.410  32.581  30.912  1.00  0.00     0.057 A 
ATOM     79  C   UNL A   1      44.630  33.611  29.991  1.00  0.00     0.134 A 
ATOM     80  C   UNL A   1      44.380  32.919  32.270  1.00  0.00     0.134 A 
ATOM     81  F   UNL A   1      44.681  33.349  28.676  1.00  0.00    -0.206 F 
ATOM     82  C   UNL A   1      44.831  34.929  30.407  1.00  0.00     0.040 A 
ATOM     83  C   UNL A   1      44.560  34.236  32.698  1.00  0.00     0.040 A 
ATOM     84  F   UNL A   1      44.166  31.980  33.203  1.00  0.00    -0.206 F 
ATOM     85  C   UNL A   1      44.791  35.245  31.764  1.00  0.00     0.006 A 
ENDBRANCH  61  78
ENDBRANCH  35  36
ENDBRANCH  28  30
ENDBRANCH  27  28
ENDBRANCH  26  27
ENDBRANCH  25  26
ENDBRANCH  24  25
ENDBRANCH  23  24
ENDBRANCH   1  23
TORSDOF 20
ENDMDL
MODEL 2
REMARK VINA RESULT:      -9.8      1.450      2.356
REMARK SMILES C[C@@](NC(=O)CSCc1ccccc1)(C(=O)OCCOCCOC(=O)c1ccc(-c2c3nc(c(-c4c(F)cccc4F)c4ccc([nH]4)c(-c4c(F)cccc4F)c4nc(c(-c5c(F)cccc5F)c5ccc2[nH]5)C=C4)C=C3)cc1)C1CC1
REMARK SMILES IDX 18 1 17 2 15 3 16 4 2 5 1 6 3 7 4 8 5 10 6 11 7 12 8 13 9 14
REMARK SMILES IDX 10 15 14 16 11 17 13 18 12 19 80 20 81 21 82 22 19 23 20 24
REMARK SMILES IDX 21 25 22 26 23 27 24 28 25 29 26 30 27 31 79 32 28 33 78 34
REMARK SMILES IDX 29 35 30 36 31 37 72 38 32 39 77 40 71 41 73 42 33 43 76 44
REMARK SMILES IDX 70 45 69 46 34 48 60 49 43 50 59 51 44 52 47 53 58 54 74 55
REMARK SMILES IDX 45 56 46 57 57 59 75 60 48 61 35 62 36 63 41 64 37 65 38 66
REMARK SMILES IDX 40 67 42 68 39 69 61 70 62 71 67 72 63 73 64 74 66 75 68 76
REMARK SMILES IDX 65 77 49 78 50 79 55 80 51 81 52 82 54 83 56 84 53 85
REMARK H PARENT 3 9 73 47 47 58
REMARK Flexibility Score: inf
ROOT
ATOM      1  C   UNL A   1      35.528  22.742  23.622  1.00  0.00     0.261 C 
ENDROOT
BRANCH   1   2
ATOM      2  O   UNL A   1      34.485  23.726  23.548  1.00  0.00    -0.461 OA
BRANCH   2   3
ATOM      3  C   UNL A   1      33.361  23.425  24.246  1.00  0.00     0.331 C 
ATOM      4  O   UNL A   1      32.499  22.646  23.848  1.00  0.00    -0.249 OA
BRANCH   3   5
ATOM      5  C   UNL A   1      33.289  24.183  25.604  1.00  0.00     0.138 C 
ATOM      6  C   UNL A   1      34.040  25.527  25.680  1.00  0.00     0.048 C 
BRANCH   5   7
ATOM      7  N   UNL A   1      31.860  24.437  25.938  1.00  0.00    -0.340 N 
ATOM      8  C   UNL A   1      31.009  25.432  25.547  1.00  0.00     0.230 C 
ATOM      9  H   UNL A   1      31.459  23.773  26.545  1.00  0.00     0.164 HD
ATOM     10  O   UNL A   1      30.064  25.690  26.301  1.00  0.00    -0.274 OA
BRANCH   8  11
ATOM     11  C   UNL A   1      31.124  26.132  24.200  1.00  0.00     0.169 C 
BRANCH  11  12
ATOM     12  S   UNL A   1      29.670  27.145  23.796  1.00  0.00    -0.147 SA
BRANCH  12  13
ATOM     13  C   UNL A   1      30.404  28.802  23.802  1.00  0.00     0.105 C 
BRANCH  13  14
ATOM     14  C   UNL A   1      29.577  29.907  23.184  1.00  0.00    -0.038 A 
ATOM     15  C   UNL A   1      29.245  31.100  23.848  1.00  0.00     0.004 A 
ATOM     16  C   UNL A   1      29.063  29.703  21.894  1.00  0.00     0.004 A 
ATOM     17  C   UNL A   1      28.474  32.079  23.218  1.00  0.00     0.000 A 
ATOM     18  C   UNL A   1      28.281  30.676  21.270  1.00  0.00     0.000 A 
ATOM     19  C   UNL A   1      27.996  31.869  21.928  1.00  0.00     0.000 A 
ENDBRANCH  13  14
ENDBRANCH  12  13
ENDBRANCH  11  12
ENDBRANCH   8  11
ENDBRANCH   5   7
BRANCH   5  20
ATOM     20  C   UNL A   1      33.855  23.266  26.728  1.00  0.00     0.026 C 
ATOM     21  C   UNL A   1      32.979  22.572  27.760  1.00  0.00     0.007 C 
ATOM     22  C   UNL A   1      33.662  21.754  26.713  1.00  0.00     0.007 C 
ENDBRANCH   5  20
ENDBRANCH   3   5
ENDBRANCH   2   3
ENDBRANCH   1   2
BRANCH   1  23
ATOM     23  C   UNL A   1      36.750  23.335  24.322  1.00  0.00     0.202 C 
BRANCH  23  24
ATOM     24  O   UNL A   1      37.744  22.388  24.722  1.00  0.00    -0.374 OA
BRANCH  24  25
ATOM     25  C   UNL A   1      37.369  21.013  24.756  1.00  0.00     0.202 C 
BRANCH  25  26
ATOM     26  C   UNL A   1      38.496  19.999  25.002  1.00  0.00     0.261 C 
BRANCH  26  27
ATOM     27  O   UNL A   1      39.248  20.224  26.208  1.00  0.00    -0.460 OA
BRANCH  27  28
ATOM     28  C   UNL A   1      40.561  19.911  26.105  1.00  0.00     0.338 C 
ATOM     29  O   UNL A   1      41.040  18.903  25.598  1.00  0.00    -0.246 OA
BRANCH  28  30
ATOM     30  C   UNL A   1      41.434  20.980  26.620  1.00  0.00     0.060 A 
ATOM     31  C   UNL A   1      41.449  21.183  28.005  1.00  0.00     0.016 A 
ATOM     32  C   UNL A   1      42.025  21.911  25.762  1.00  0.00     0.016 A 
ATOM     33  C   UNL A   1      41.975  22.361  28.533  1.00  0.00     0.010 A 
ATOM     34  C   UNL A   1      42.550  23.097  26.294  1.00  0.00     0.010 A 
ATOM     35  C   UNL A   1      42.472  23.352  27.676  1.00  0.00    -0.014 A 
BRANCH  35  36
ATOM     36  C   UNL A   1      42.714  24.715  28.217  1.00  0.00     0.031 A 
ATOM     37  C   UNL A   1      44.122  25.131  28.555  1.00  0.00     0.074 A 
ATOM     38  C   UNL A   1      41.710  25.600  28.344  1.00  0.00     0.049 A 
ATOM     39  N   UNL A   1      44.566  26.282  28.996  1.00  0.00    -0.248 NA
ATOM     40  C   UNL A   1      45.171  24.115  28.370  1.00  0.00     0.031 C 
ATOM     41  C   UNL A   1      40.311  25.342  28.015  1.00  0.00     0.029 A 
ATOM     42  N   UNL A   1      41.725  26.901  28.777  1.00  0.00    -0.354 N 
ATOM     43  C   UNL A   1      45.939  26.128  29.146  1.00  0.00     0.074 A 
ATOM     44  C   UNL A   1      46.252  24.763  28.775  1.00  0.00     0.031 C 
ATOM     45  C   UNL A   1      39.598  26.457  28.254  1.00  0.00     0.029 A 
ATOM     46  C   UNL A   1      40.489  27.498  28.766  1.00  0.00     0.049 A 
ATOM     47  H   UNL A   1      42.544  27.364  29.067  1.00  0.00     0.167 HD
ATOM     48  C   UNL A   1      46.861  27.037  29.544  1.00  0.00     0.037 A 
ATOM     49  C   UNL A   1      40.119  28.740  29.129  1.00  0.00     0.037 A 
ATOM     50  C   UNL A   1      46.565  28.399  29.901  1.00  0.00     0.049 A 
ATOM     51  C   UNL A   1      41.152  29.721  29.613  1.00  0.00     0.074 A 
ATOM     52  C   UNL A   1      47.438  29.400  30.293  1.00  0.00     0.029 A 
ATOM     53  N   UNL A   1      45.293  28.951  29.911  1.00  0.00    -0.354 N 
ATOM     54  N   UNL A   1      42.450  29.570  29.725  1.00  0.00    -0.248 NA
ATOM     55  C   UNL A   1      40.667  31.051  30.014  1.00  0.00     0.031 C 
ATOM     56  C   UNL A   1      46.690  30.549  30.572  1.00  0.00     0.029 A 
ATOM     57  C   UNL A   1      45.357  30.273  30.320  1.00  0.00     0.049 A 
ATOM     58  H   UNL A   1      44.468  28.475  29.664  1.00  0.00     0.167 HD
ATOM     59  C   UNL A   1      42.939  30.789  30.177  1.00  0.00     0.074 A 
ATOM     60  C   UNL A   1      41.799  31.671  30.319  1.00  0.00     0.031 C 
ATOM     61  C   UNL A   1      44.218  31.146  30.446  1.00  0.00     0.037 A 
BRANCH  48  62
ATOM     62  C   UNL A   1      48.284  26.575  29.634  1.00  0.00     0.057 A 
ATOM     63  C   UNL A   1      48.813  26.036  30.813  1.00  0.00     0.134 A 
ATOM     64  C   UNL A   1      49.130  26.655  28.520  1.00  0.00     0.134 A 
ATOM     65  F   UNL A   1      48.057  25.946  31.917  1.00  0.00    -0.206 F 
ATOM     66  C   UNL A   1      50.141  25.613  30.888  1.00  0.00     0.040 A 
ATOM     67  C   UNL A   1      50.454  26.215  28.578  1.00  0.00     0.040 A 
ATOM     68  F   UNL A   1      48.682  27.156  27.359  1.00  0.00    -0.206 F 
ATOM     69  C   UNL A   1      50.964  25.699  29.767  1.00  0.00     0.006 A 
ENDBRANCH  48  62
BRANCH  49  70
ATOM     70  C   UNL A   1      38.694  29.139  29.032  1.00  0.00     0.057 A 
ATOM     71  C   UNL A   1      37.842  29.044  30.138  1.00  0.00     0.134 A 
ATOM     72  C   UNL A   1      38.151  29.615  27.834  1.00  0.00     0.134 A 
ATOM     73  F   UNL A   1      38.302  28.572  31.306  1.00  0.00    -0.206 F 
ATOM     74  C   UNL A   1      36.495  29.398  30.054  1.00  0.00     0.040 A 
ATOM     75  C   UNL A   1      36.811  29.990  27.739  1.00  0.00     0.040 A 
ATOM     76  F   UNL A   1      38.917  29.725  26.739  1.00  0.00    -0.206 F 
ATOM     77  C   UNL A   1      35.978  29.878  28.851  1.00  0.00     0.006 A 
ENDBRANCH  49  70
BRANCH  61  78
ATOM     78  C   UNL A   1      44.462  32.560  30.882  1.00  0.00     0.057 A 
ATOM     79  C   UNL A   1      44.473  32.924  32.234  1.00  0.00     0.134 A 
ATOM     80  C   UNL A   1      44.726  33.561  29.938  1.00  0.00     0.134 A 
ATOM     81  F   UNL A   1      44.218  32.014  33.185  1.00  0.00    -0.206 F 
ATOM     82  C   UNL A   1      44.720  34.240  32.631  1.00  0.00     0.040 A 
ATOM     83  C   UNL A   1      44.993  34.876  30.324  1.00  0.00     0.040 A 
ATOM     84  F   UNL A   1      44.738  33.276  28.628  1.00  0.00    -0.206 F 
ATOM     85  C   UNL A   1      44.985  35.219  31.675  1.00  0.00     0.006 A 
ENDBRANCH  61  78
ENDBRANCH  35  36
ENDBRANCH  28  30
ENDBRANCH  27  28
ENDBRANCH  26  27
ENDBRANCH  25  26
ENDBRANCH  24  25
ENDBRANCH  23  24
ENDBRANCH   1  23
TORSDOF 20
ENDMDL
MODEL 3
REMARK VINA RESULT:      -9.7      4.447      9.143
REMARK SMILES C[C@@](NC(=O)CSCc1ccccc1)(C(=O)OCCOCCOC(=O)c1ccc(-c2c3nc(c(-c4c(F)cccc4F)c4ccc([nH]4)c(-c4c(F)cccc4F)c4nc(c(-c5c(F)cccc5F)c5ccc2[nH]5)C=C4)C=C3)cc1)C1CC1
REMARK SMILES IDX 18 1 17 2 15 3 16 4 2 5 1 6 3 7 4 8 5 10 6 11 7 12 8 13 9 14
REMARK SMILES IDX 10 15 14 16 11 17 13 18 12 19 80 20 81 21 82 22 19 23 20 24
REMARK SMILES IDX 21 25 22 26 23 27 24 28 25 29 26 30 27 31 79 32 28 33 78 34
REMARK SMILES IDX 29 35 30 36 31 37 72 38 32 39 77 40 71 41 73 42 33 43 76 44
REMARK SMILES IDX 70 45 69 46 34 48 60 49 43 50 59 51 44 52 47 53 58 54 74 55
REMARK SMILES IDX 45 56 46 57 57 59 75 60 48 61 35 62 36 63 41 64 37 65 38 66
REMARK SMILES IDX 40 67 42 68 39 69 61 70 62 71 67 72 63 73 64 74 66 75 68 76
REMARK SMILES IDX 65 77 49 78 50 79 55 80 51 81 52 82 54 83 56 84 53 85
REMARK H PARENT 3 9 73 47 47 58
REMARK Flexibility Score: inf
ROOT
ATOM      1  C   UNL A   1      34.080  29.314  26.786  1.00  0.00     0.261 C 
ENDROOT
BRANCH   1   2
ATOM      2  O   UNL A   1      33.613  27.957  26.806  1.00  0.00    -0.461 OA
BRANCH   2   3
ATOM      3  C   UNL A   1      33.316  27.433  25.590  1.00  0.00     0.331 C 
ATOM      4  O   UNL A   1      34.064  27.498  24.618  1.00  0.00    -0.249 OA
BRANCH   3   5
ATOM      5  C   UNL A   1      31.920  26.745  25.569  1.00  0.00     0.138 C 
ATOM      6  C   UNL A   1      31.030  26.962  26.808  1.00  0.00     0.048 C 
BRANCH   5   7
ATOM      7  N   UNL A   1      31.168  27.220  24.375  1.00  0.00    -0.340 N 
ATOM      8  C   UNL A   1      31.165  26.780  23.081  1.00  0.00     0.230 C 
ATOM      9  H   UNL A   1      30.569  27.983  24.547  1.00  0.00     0.164 HD
ATOM     10  O   UNL A   1      30.846  27.598  22.212  1.00  0.00    -0.274 OA
BRANCH   8  11
ATOM     11  C   UNL A   1      31.426  25.328  22.705  1.00  0.00     0.169 C 
BRANCH  11  12
ATOM     12  S   UNL A   1      33.009  25.088  21.844  1.00  0.00    -0.147 SA
BRANCH  12  13
ATOM     13  C   UNL A   1      33.144  23.282  21.889  1.00  0.00     0.105 C 
BRANCH  13  14
ATOM     14  C   UNL A   1      33.893  22.691  23.062  1.00  0.00    -0.038 A 
ATOM     15  C   UNL A   1      33.418  21.618  23.833  1.00  0.00     0.004 A 
ATOM     16  C   UNL A   1      35.107  23.290  23.437  1.00  0.00     0.004 A 
ATOM     17  C   UNL A   1      34.161  21.123  24.906  1.00  0.00     0.000 A 
ATOM     18  C   UNL A   1      35.843  22.803  24.519  1.00  0.00     0.000 A 
ATOM     19  C   UNL A   1      35.376  21.712  25.246  1.00  0.00     0.000 A 
ENDBRANCH  13  14
ENDBRANCH  12  13
ENDBRANCH  11  12
ENDBRANCH   8  11
ENDBRANCH   5   7
BRANCH   5  20
ATOM     20  C   UNL A   1      32.114  25.210  25.394  1.00  0.00     0.026 C 
ATOM     21  C   UNL A   1      32.935  24.357  26.350  1.00  0.00     0.007 C 
ATOM     22  C   UNL A   1      31.449  24.199  26.322  1.00  0.00     0.007 C 
ENDBRANCH   5  20
ENDBRANCH   3   5
ENDBRANCH   2   3
ENDBRANCH   1   2
BRANCH   1  23
ATOM     23  C   UNL A   1      33.058  30.202  26.077  1.00  0.00     0.202 C 
BRANCH  23  24
ATOM     24  O   UNL A   1      31.905  30.545  26.850  1.00  0.00    -0.374 OA
BRANCH  24  25
ATOM     25  C   UNL A   1      31.494  31.910  26.850  1.00  0.00     0.202 C 
BRANCH  25  26
ATOM     26  C   UNL A   1      32.592  32.960  27.074  1.00  0.00     0.261 C 
BRANCH  26  27
ATOM     27  O   UNL A   1      32.234  34.010  27.992  1.00  0.00    -0.460 OA
BRANCH  27  28
ATOM     28  C   UNL A   1      33.282  34.518  28.682  1.00  0.00     0.338 C 
ATOM     29  O   UNL A   1      33.308  35.567  29.315  1.00  0.00    -0.246 OA
BRANCH  28  30
ATOM     30  C   UNL A   1      34.448  33.617  28.673  1.00  0.00     0.060 A 
ATOM     31  C   UNL A   1      34.277  32.342  29.226  1.00  0.00     0.016 A 
ATOM     32  C   UNL A   1      35.727  34.088  28.361  1.00  0.00     0.016 A 
ATOM     33  C   UNL A   1      35.389  31.568  29.553  1.00  0.00     0.010 A 
ATOM     34  C   UNL A   1      36.843  33.309  28.694  1.00  0.00     0.010 A 
ATOM     35  C   UNL A   1      36.680  32.073  29.346  1.00  0.00    -0.014 A 
BRANCH  35  36
ATOM     36  C   UNL A   1      37.830  31.393  29.997  1.00  0.00     0.031 A 
ATOM     37  C   UNL A   1      38.125  31.674  31.447  1.00  0.00     0.074 A 
ATOM     38  C   UNL A   1      38.565  30.485  29.332  1.00  0.00     0.049 A 
ATOM     39  N   UNL A   1      39.048  31.162  32.223  1.00  0.00    -0.248 NA
ATOM     40  C   UNL A   1      37.265  32.665  32.113  1.00  0.00     0.031 C 
ATOM     41  C   UNL A   1      38.363  30.088  27.942  1.00  0.00     0.029 A 
ATOM     42  N   UNL A   1      39.628  29.725  29.753  1.00  0.00    -0.354 N 
ATOM     43  C   UNL A   1      38.883  31.769  33.462  1.00  0.00     0.074 A 
ATOM     44  C   UNL A   1      37.789  32.709  33.329  1.00  0.00     0.031 C 
ATOM     45  C   UNL A   1      39.272  29.150  27.622  1.00  0.00     0.029 A 
ATOM     46  C   UNL A   1      40.127  28.894  28.781  1.00  0.00     0.049 A 
ATOM     47  H   UNL A   1      39.995  29.769  30.664  1.00  0.00     0.167 HD
ATOM     48  C   UNL A   1      39.568  31.559  34.612  1.00  0.00     0.037 A 
ATOM     49  C   UNL A   1      41.156  28.027  28.822  1.00  0.00     0.037 A 
ATOM     50  C   UNL A   1      40.645  30.619  34.762  1.00  0.00     0.049 A 
ATOM     51  C   UNL A   1      41.933  27.843  30.097  1.00  0.00     0.074 A 
ATOM     52  C   UNL A   1      41.381  30.320  35.897  1.00  0.00     0.029 A 
ATOM     53  N   UNL A   1      41.143  29.823  33.742  1.00  0.00    -0.354 N 
ATOM     54  N   UNL A   1      41.750  28.404  31.268  1.00  0.00    -0.248 NA
ATOM     55  C   UNL A   1      43.060  26.897  30.056  1.00  0.00     0.031 C 
ATOM     56  C   UNL A   1      42.348  29.367  35.554  1.00  0.00     0.029 A 
ATOM     57  C   UNL A   1      42.189  29.048  34.216  1.00  0.00     0.049 A 
ATOM     58  H   UNL A   1      40.804  29.810  32.818  1.00  0.00     0.167 HD
ATOM     59  C   UNL A   1      42.712  27.858  32.108  1.00  0.00     0.074 A 
ATOM     60  C   UNL A   1      43.479  26.920  31.314  1.00  0.00     0.031 C 
ATOM     61  C   UNL A   1      42.937  28.109  33.421  1.00  0.00     0.037 A 
BRANCH  48  62
ATOM     62  C   UNL A   1      39.178  32.385  35.801  1.00  0.00     0.057 A 
ATOM     63  C   UNL A   1      39.666  33.684  35.990  1.00  0.00     0.134 A 
ATOM     64  C   UNL A   1      38.290  31.880  36.759  1.00  0.00     0.134 A 
ATOM     65  F   UNL A   1      40.531  34.219  35.115  1.00  0.00    -0.206 F 
ATOM     66  C   UNL A   1      39.302  34.444  37.103  1.00  0.00     0.040 A 
ATOM     67  C   UNL A   1      37.902  32.639  37.865  1.00  0.00     0.040 A 
ATOM     68  F   UNL A   1      37.782  30.644  36.633  1.00  0.00    -0.206 F 
ATOM     69  C   UNL A   1      38.414  33.922  38.042  1.00  0.00     0.006 A 
ENDBRANCH  48  62
BRANCH  49  70
ATOM     70  C   UNL A   1      41.506  27.246  27.612  1.00  0.00     0.057 A 
ATOM     71  C   UNL A   1      42.356  27.773  26.634  1.00  0.00     0.134 A 
ATOM     72  C   UNL A   1      40.992  25.961  27.401  1.00  0.00     0.134 A 
ATOM     73  F   UNL A   1      42.859  29.009  26.771  1.00  0.00    -0.206 F 
ATOM     74  C   UNL A   1      42.677  27.054  25.482  1.00  0.00     0.040 A 
ATOM     75  C   UNL A   1      41.318  25.223  26.263  1.00  0.00     0.040 A 
ATOM     76  F   UNL A   1      40.168  25.405  28.301  1.00  0.00    -0.206 F 
ATOM     77  C   UNL A   1      42.160  25.772  25.297  1.00  0.00     0.006 A 
ENDBRANCH  49  70
BRANCH  61  78
ATOM     78  C   UNL A   1      44.029  27.331  34.094  1.00  0.00     0.057 A 
ATOM     79  C   UNL A   1      43.786  26.094  34.703  1.00  0.00     0.134 A 
ATOM     80  C   UNL A   1      45.344  27.810  34.101  1.00  0.00     0.134 A 
ATOM     81  F   UNL A   1      42.546  25.585  34.739  1.00  0.00    -0.206 F 
ATOM     82  C   UNL A   1      44.813  25.368  35.310  1.00  0.00     0.040 A 
ATOM     83  C   UNL A   1      46.382  27.085  34.688  1.00  0.00     0.040 A 
ATOM     84  F   UNL A   1      45.644  28.985  33.528  1.00  0.00    -0.206 F 
ATOM     85  C   UNL A   1      46.116  25.861  35.300  1.00  0.00     0.006 A 
ENDBRANCH  61  78
ENDBRANCH  35  36
ENDBRANCH  28  30
ENDBRANCH  27  28
ENDBRANCH  26  27
ENDBRANCH  25  26
ENDBRANCH  24  25
ENDBRANCH  23  24
ENDBRANCH   1  23
TORSDOF 20
ENDMDL
