MODEL 1
REMARK VINA RESULT:     -10.6      0.000      0.000
REMARK SMILES C[C@@H](C(=O)OCCOCCOC(=O)c1ccc(-c2c3nc(c(-c4c(F)cccc4F)c4ccc([nH]4)c(-c4c(F)cccc4F)c4nc(c(-c5c(F)cccc5F)c5ccc2[nH]5)C=C4)C=C3)cc1)c1ccc(Cc2ccoc2)cc1F
REMARK SMILES IDX 7 1 6 2 5 3 3 4 4 5 2 6 1 7 68 8 69 9 79 10 70 11 78 12
REMARK SMILES IDX 80 13 71 14 72 15 73 16 74 17 77 18 75 19 76 20 8 21 9 22
REMARK SMILES IDX 10 23 11 24 12 25 13 26 14 27 15 28 67 29 16 30 66 31 17 32
REMARK SMILES IDX 18 33 19 34 60 35 20 36 65 37 59 38 61 39 21 40 64 41 58 42
REMARK SMILES IDX 57 43 22 45 48 46 31 47 47 48 32 49 35 50 46 51 62 52 33 53
REMARK SMILES IDX 34 54 45 56 63 57 36 58 23 59 24 60 29 61 25 62 26 63 28 64
REMARK SMILES IDX 30 65 27 66 49 67 50 68 55 69 51 70 52 71 54 72 56 73 53 74
REMARK SMILES IDX 37 75 38 76 43 77 39 78 40 79 42 80 44 81 41 82
REMARK H PARENT 61 44 35 55
REMARK Flexibility Score: inf
ROOT
ATOM      1  C   UNL A   1      44.023  19.183  24.649  1.00  0.00     0.202 C 
ENDROOT
BRANCH   1   2
ATOM      2  C   UNL A   1      42.939  19.060  25.723  1.00  0.00     0.261 C 
BRANCH   2   3
ATOM      3  O   UNL A   1      41.987  20.128  25.609  1.00  0.00    -0.463 OA
BRANCH   3   4
ATOM      4  C   UNL A   1      41.177  20.312  26.685  1.00  0.00     0.313 C 
ATOM      5  O   UNL A   1      40.941  19.445  27.521  1.00  0.00    -0.252 OA
BRANCH   4   6
ATOM      6  C   UNL A   1      40.648  21.751  26.786  1.00  0.00     0.129 C 
ATOM      7  C   UNL A   1      40.798  22.282  28.219  1.00  0.00     0.025 C 
BRANCH   6   8
ATOM      8  C   UNL A   1      39.275  21.944  26.129  1.00  0.00     0.002 A 
ATOM      9  C   UNL A   1      38.690  20.901  25.389  1.00  0.00     0.008 A 
ATOM     10  C   UNL A   1      38.583  23.165  26.124  1.00  0.00     0.127 A 
ATOM     11  C   UNL A   1      37.481  21.068  24.702  1.00  0.00     0.004 A 
ATOM     12  C   UNL A   1      37.389  23.349  25.413  1.00  0.00     0.043 A 
ATOM     13  F   UNL A   1      39.050  24.221  26.805  1.00  0.00    -0.207 F 
ATOM     14  C   UNL A   1      36.825  22.303  24.675  1.00  0.00    -0.041 A 
BRANCH  14  15
ATOM     15  C   UNL A   1      35.535  22.491  23.909  1.00  0.00     0.074 C 
BRANCH  15  16
ATOM     16  C   UNL A   1      34.438  21.834  24.683  1.00  0.00    -0.005 A 
ATOM     17  C   UNL A   1      33.529  20.821  24.247  1.00  0.00     0.046 A 
ATOM     18  C   UNL A   1      34.135  22.024  26.019  1.00  0.00     0.198 A 
ATOM     19  C   UNL A   1      32.734  20.506  25.321  1.00  0.00     0.195 A 
ATOM     20  O   UNL A   1      33.104  21.229  26.406  1.00  0.00    -0.472 OA
ENDBRANCH  15  16
ENDBRANCH  14  15
ENDBRANCH   6   8
ENDBRANCH   4   6
ENDBRANCH   3   4
ENDBRANCH   2   3
ENDBRANCH   1   2
BRANCH   1  21
ATOM     21  O   UNL A   1      44.457  20.508  24.342  1.00  0.00    -0.374 OA
BRANCH  21  22
ATOM     22  C   UNL A   1      45.378  21.132  25.240  1.00  0.00     0.202 C 
BRANCH  22  23
ATOM     23  C   UNL A   1      44.826  22.256  26.127  1.00  0.00     0.261 C 
BRANCH  23  24
ATOM     24  O   UNL A   1      43.941  23.145  25.418  1.00  0.00    -0.460 OA
BRANCH  24  25
ATOM     25  C   UNL A   1      44.382  24.422  25.316  1.00  0.00     0.338 C 
ATOM     26  O   UNL A   1      45.225  24.856  24.541  1.00  0.00    -0.246 OA
BRANCH  25  27
ATOM     27  C   UNL A   1      43.583  25.317  26.171  1.00  0.00     0.060 A 
ATOM     28  C   UNL A   1      44.092  26.599  26.420  1.00  0.00     0.016 A 
ATOM     29  C   UNL A   1      42.419  24.880  26.806  1.00  0.00     0.016 A 
ATOM     30  C   UNL A   1      43.464  27.432  27.344  1.00  0.00     0.010 A 
ATOM     31  C   UNL A   1      41.796  25.714  27.743  1.00  0.00     0.010 A 
ATOM     32  C   UNL A   1      42.336  26.979  28.042  1.00  0.00    -0.014 A 
BRANCH  32  33
ATOM     33  C   UNL A   1      41.819  27.774  29.184  1.00  0.00     0.031 A 
ATOM     34  C   UNL A   1      42.513  27.678  30.516  1.00  0.00     0.074 A 
ATOM     35  C   UNL A   1      40.772  28.603  29.030  1.00  0.00     0.049 A 
ATOM     36  N   UNL A   1      42.224  28.271  31.646  1.00  0.00    -0.248 NA
ATOM     37  C   UNL A   1      43.690  26.797  30.580  1.00  0.00     0.031 C 
ATOM     38  C   UNL A   1      40.039  28.815  27.784  1.00  0.00     0.029 A 
ATOM     39  N   UNL A   1      40.143  29.419  29.936  1.00  0.00    -0.354 N 
ATOM     40  C   UNL A   1      43.183  27.837  32.554  1.00  0.00     0.074 A 
ATOM     41  C   UNL A   1      44.041  26.908  31.852  1.00  0.00     0.031 C 
ATOM     42  C   UNL A   1      39.049  29.697  28.007  1.00  0.00     0.029 A 
ATOM     43  C   UNL A   1      39.064  30.090  29.414  1.00  0.00     0.049 A 
ATOM     44  H   UNL A   1      40.437  29.514  30.871  1.00  0.00     0.167 HD
ATOM     45  C   UNL A   1      43.339  28.189  33.853  1.00  0.00     0.037 A 
ATOM     46  C   UNL A   1      38.179  30.912  30.011  1.00  0.00     0.037 A 
ATOM     47  C   UNL A   1      42.485  29.110  34.556  1.00  0.00     0.049 A 
ATOM     48  C   UNL A   1      38.333  31.234  31.473  1.00  0.00     0.074 A 
ATOM     49  C   UNL A   1      42.570  29.534  35.871  1.00  0.00     0.029 A 
ATOM     50  N   UNL A   1      41.385  29.744  34.000  1.00  0.00    -0.354 N 
ATOM     51  N   UNL A   1      39.253  30.833  32.317  1.00  0.00    -0.248 NA
ATOM     52  C   UNL A   1      37.325  32.126  32.066  1.00  0.00     0.031 C 
ATOM     53  C   UNL A   1      41.496  30.396  36.122  1.00  0.00     0.029 A 
ATOM     54  C   UNL A   1      40.769  30.540  34.952  1.00  0.00     0.049 A 
ATOM     55  H   UNL A   1      41.085  29.644  33.068  1.00  0.00     0.167 HD
ATOM     56  C   UNL A   1      38.951  31.441  33.530  1.00  0.00     0.074 A 
ATOM     57  C   UNL A   1      37.768  32.248  33.310  1.00  0.00     0.031 C 
ATOM     58  C   UNL A   1      39.595  31.341  34.718  1.00  0.00     0.037 A 
BRANCH  45  59
ATOM     59  C   UNL A   1      44.472  27.556  34.605  1.00  0.00     0.057 A 
ATOM     60  C   UNL A   1      44.316  26.344  35.291  1.00  0.00     0.134 A 
ATOM     61  C   UNL A   1      45.740  28.150  34.621  1.00  0.00     0.134 A 
ATOM     62  F   UNL A   1      43.123  25.732  35.326  1.00  0.00    -0.206 F 
ATOM     63  C   UNL A   1      45.377  25.756  35.982  1.00  0.00     0.040 A 
ATOM     64  C   UNL A   1      46.813  27.561  35.290  1.00  0.00     0.040 A 
ATOM     65  F   UNL A   1      45.956  29.309  33.981  1.00  0.00    -0.206 F 
ATOM     66  C   UNL A   1      46.632  26.362  35.978  1.00  0.00     0.006 A 
ENDBRANCH  45  59
BRANCH  46  67
ATOM     67  C   UNL A   1      37.052  31.480  29.230  1.00  0.00     0.057 A 
ATOM     68  C   UNL A   1      37.089  32.793  28.750  1.00  0.00     0.134 A 
ATOM     69  C   UNL A   1      35.904  30.726  28.963  1.00  0.00     0.134 A 
ATOM     70  F   UNL A   1      38.153  33.573  28.996  1.00  0.00    -0.206 F 
ATOM     71  C   UNL A   1      36.017  33.343  28.045  1.00  0.00     0.040 A 
ATOM     72  C   UNL A   1      34.835  31.255  28.239  1.00  0.00     0.040 A 
ATOM     73  F   UNL A   1      35.808  29.461  29.396  1.00  0.00    -0.206 F 
ATOM     74  C   UNL A   1      34.887  32.571  27.783  1.00  0.00     0.006 A 
ENDBRANCH  46  67
BRANCH  58  75
ATOM     75  C   UNL A   1      39.057  32.145  35.864  1.00  0.00     0.057 A 
ATOM     76  C   UNL A   1      39.399  33.491  36.046  1.00  0.00     0.134 A 
ATOM     77  C   UNL A   1      38.153  31.578  36.771  1.00  0.00     0.134 A 
ATOM     78  F   UNL A   1      40.269  34.090  35.218  1.00  0.00    -0.206 F 
ATOM     79  C   UNL A   1      38.875  34.239  37.102  1.00  0.00     0.040 A 
ATOM     80  C   UNL A   1      37.605  32.322  37.818  1.00  0.00     0.040 A 
ATOM     81  F   UNL A   1      37.778  30.296  36.649  1.00  0.00    -0.206 F 
ATOM     82  C   UNL A   1      37.970  33.656  37.988  1.00  0.00     0.006 A 
ENDBRANCH  58  75
ENDBRANCH  32  33
ENDBRANCH  25  27
ENDBRANCH  24  25
ENDBRANCH  23  24
ENDBRANCH  22  23
ENDBRANCH  21  22
ENDBRANCH   1  21
TORSDOF 17
ENDMDL
MODEL 2
REMARK VINA RESULT:     -10.3      4.177      7.107
REMARK SMILES C[C@@H](C(=O)OCCOCCOC(=O)c1ccc(-c2c3nc(c(-c4c(F)cccc4F)c4ccc([nH]4)c(-c4c(F)cccc4F)c4nc(c(-c5c(F)cccc5F)c5ccc2[nH]5)C=C4)C=C3)cc1)c1ccc(Cc2ccoc2)cc1F
REMARK SMILES IDX 7 1 6 2 5 3 3 4 4 5 2 6 1 7 68 8 69 9 79 10 70 11 78 12
REMARK SMILES IDX 80 13 71 14 72 15 73 16 74 17 77 18 75 19 76 20 8 21 9 22
REMARK SMILES IDX 10 23 11 24 12 25 13 26 14 27 15 28 67 29 16 30 66 31 17 32
REMARK SMILES IDX 18 33 19 34 60 35 20 36 65 37 59 38 61 39 21 40 64 41 58 42
REMARK SMILES IDX 57 43 22 45 48 46 31 47 47 48 32 49 35 50 46 51 62 52 33 53
REMARK SMILES IDX 34 54 45 56 63 57 36 58 23 59 24 60 29 61 25 62 26 63 28 64
REMARK SMILES IDX 30 65 27 66 49 67 50 68 55 69 51 70 52 71 54 72 56 73 53 74
REMARK SMILES IDX 37 75 38 76 43 77 39 78 40 79 42 80 44 81 41 82
REMARK H PARENT 61 44 35 55
REMARK Flexibility Score: inf
ROOT
ATOM      1  C   UNL A   1      36.602  22.227  24.180  1.00  0.00     0.202 C 
ENDROOT
BRANCH   1   2
ATOM      2  C   UNL A   1      36.583  23.546  24.957  1.00  0.00     0.261 C 
BRANCH   2   3
ATOM      3  O   UNL A   1      35.463  23.591  25.852  1.00  0.00    -0.463 OA
BRANCH   3   4
ATOM      4  C   UNL A   1      34.263  23.879  25.280  1.00  0.00     0.313 C 
ATOM      5  O   UNL A   1      34.122  24.657  24.341  1.00  0.00    -0.252 OA
BRANCH   4   6
ATOM      6  C   UNL A   1      33.110  23.065  25.886  1.00  0.00     0.129 C 
ATOM      7  C   UNL A   1      33.199  23.064  27.419  1.00  0.00     0.025 C 
BRANCH   6   8
ATOM      8  C   UNL A   1      32.907  21.700  25.216  1.00  0.00     0.002 A 
ATOM      9  C   UNL A   1      33.248  20.518  25.898  1.00  0.00     0.008 A 
ATOM     10  C   UNL A   1      32.491  21.544  23.885  1.00  0.00     0.127 A 
ATOM     11  C   UNL A   1      33.160  19.260  25.288  1.00  0.00     0.004 A 
ATOM     12  C   UNL A   1      32.432  20.292  23.258  1.00  0.00     0.043 A 
ATOM     13  F   UNL A   1      32.136  22.606  23.149  1.00  0.00    -0.207 F 
ATOM     14  C   UNL A   1      32.782  19.127  23.948  1.00  0.00    -0.041 A 
BRANCH  14  15
ATOM     15  C   UNL A   1      32.717  17.771  23.281  1.00  0.00     0.074 C 
BRANCH  15  16
ATOM     16  C   UNL A   1      33.533  16.818  24.093  1.00  0.00    -0.005 A 
ATOM     17  C   UNL A   1      34.927  16.882  24.399  1.00  0.00     0.046 A 
ATOM     18  C   UNL A   1      33.074  15.710  24.783  1.00  0.00     0.198 A 
ATOM     19  C   UNL A   1      35.210  15.808  25.207  1.00  0.00     0.195 A 
ATOM     20  O   UNL A   1      34.083  15.095  25.451  1.00  0.00    -0.472 OA
ENDBRANCH  15  16
ENDBRANCH  14  15
ENDBRANCH   6   8
ENDBRANCH   4   6
ENDBRANCH   3   4
ENDBRANCH   2   3
ENDBRANCH   1   2
BRANCH   1  21
ATOM     21  O   UNL A   1      37.046  21.078  24.902  1.00  0.00    -0.374 OA
BRANCH  21  22
ATOM     22  C   UNL A   1      38.368  21.103  25.446  1.00  0.00     0.202 C 
BRANCH  22  23
ATOM     23  C   UNL A   1      39.150  19.783  25.422  1.00  0.00     0.261 C 
BRANCH  23  24
ATOM     24  O   UNL A   1      40.038  19.638  26.548  1.00  0.00    -0.460 OA
BRANCH  24  25
ATOM     25  C   UNL A   1      41.353  19.569  26.227  1.00  0.00     0.338 C 
ATOM     26  O   UNL A   1      41.937  18.639  25.686  1.00  0.00    -0.246 OA
BRANCH  25  27
ATOM     27  C   UNL A   1      42.012  20.865  26.463  1.00  0.00     0.060 A 
ATOM     28  C   UNL A   1      42.228  21.249  27.794  1.00  0.00     0.016 A 
ATOM     29  C   UNL A   1      42.313  21.737  25.415  1.00  0.00     0.016 A 
ATOM     30  C   UNL A   1      42.701  22.527  28.084  1.00  0.00     0.010 A 
ATOM     31  C   UNL A   1      42.777  23.026  25.710  1.00  0.00     0.010 A 
ATOM     32  C   UNL A   1      42.939  23.438  27.046  1.00  0.00    -0.014 A 
BRANCH  32  33
ATOM     33  C   UNL A   1      43.214  24.859  27.373  1.00  0.00     0.031 A 
ATOM     34  C   UNL A   1      44.593  25.412  27.137  1.00  0.00     0.074 A 
ATOM     35  C   UNL A   1      42.239  25.662  27.834  1.00  0.00     0.049 A 
ATOM     36  N   UNL A   1      45.055  26.616  27.362  1.00  0.00    -0.248 NA
ATOM     37  C   UNL A   1      45.583  24.483  26.569  1.00  0.00     0.031 C 
ATOM     38  C   UNL A   1      40.853  25.259  28.068  1.00  0.00     0.029 A 
ATOM     39  N   UNL A   1      42.271  26.987  28.192  1.00  0.00    -0.354 N 
ATOM     40  C   UNL A   1      46.386  26.589  26.963  1.00  0.00     0.074 A 
ATOM     41  C   UNL A   1      46.666  25.243  26.512  1.00  0.00     0.031 C 
ATOM     42  C   UNL A   1      40.169  26.314  28.543  1.00  0.00     0.029 A 
ATOM     43  C   UNL A   1      41.073  27.456  28.670  1.00  0.00     0.049 A 
ATOM     44  H   UNL A   1      43.077  27.547  28.113  1.00  0.00     0.167 HD
ATOM     45  C   UNL A   1      47.290  27.597  26.964  1.00  0.00     0.037 A 
ATOM     46  C   UNL A   1      40.748  28.664  29.170  1.00  0.00     0.037 A 
ATOM     47  C   UNL A   1      47.016  28.936  27.416  1.00  0.00     0.049 A 
ATOM     48  C   UNL A   1      41.790  29.750  29.225  1.00  0.00     0.074 A 
ATOM     49  C   UNL A   1      47.868  30.028  27.446  1.00  0.00     0.029 A 
ATOM     50  N   UNL A   1      45.799  29.363  27.921  1.00  0.00    -0.354 N 
ATOM     51  N   UNL A   1      43.039  29.719  28.828  1.00  0.00    -0.248 NA
ATOM     52  C   UNL A   1      41.375  31.040  29.795  1.00  0.00     0.031 C 
ATOM     53  C   UNL A   1      47.175  31.106  28.009  1.00  0.00     0.029 A 
ATOM     54  C   UNL A   1      45.882  30.696  28.288  1.00  0.00     0.049 A 
ATOM     55  H   UNL A   1      44.994  28.802  28.008  1.00  0.00     0.167 HD
ATOM     56  C   UNL A   1      43.551  30.987  29.077  1.00  0.00     0.074 A 
ATOM     57  C   UNL A   1      42.473  31.768  29.649  1.00  0.00     0.031 C 
ATOM     58  C   UNL A   1      44.799  31.462  28.851  1.00  0.00     0.037 A 
BRANCH  45  59
ATOM     59  C   UNL A   1      48.673  27.282  26.475  1.00  0.00     0.057 A 
ATOM     60  C   UNL A   1      49.012  27.363  25.118  1.00  0.00     0.134 A 
ATOM     61  C   UNL A   1      49.683  26.919  27.375  1.00  0.00     0.134 A 
ATOM     62  F   UNL A   1      48.086  27.691  24.205  1.00  0.00    -0.206 F 
ATOM     63  C   UNL A   1      50.303  27.076  24.671  1.00  0.00     0.040 A 
ATOM     64  C   UNL A   1      50.983  26.651  26.942  1.00  0.00     0.040 A 
ATOM     65  F   UNL A   1      49.425  26.826  28.688  1.00  0.00    -0.206 F 
ATOM     66  C   UNL A   1      51.294  26.724  25.585  1.00  0.00     0.006 A 
ENDBRANCH  45  59
BRANCH  46  67
ATOM     67  C   UNL A   1      39.376  28.912  29.678  1.00  0.00     0.057 A 
ATOM     68  C   UNL A   1      39.033  28.645  31.007  1.00  0.00     0.134 A 
ATOM     69  C   UNL A   1      38.371  29.404  28.837  1.00  0.00     0.134 A 
ATOM     70  F   UNL A   1      39.948  28.148  31.854  1.00  0.00    -0.206 F 
ATOM     71  C   UNL A   1      37.735  28.844  31.480  1.00  0.00     0.040 A 
ATOM     72  C   UNL A   1      37.075  29.630  29.303  1.00  0.00     0.040 A 
ATOM     73  F   UNL A   1      38.636  29.679  27.552  1.00  0.00    -0.206 F 
ATOM     74  C   UNL A   1      36.752  29.343  30.628  1.00  0.00     0.006 A 
ENDBRANCH  46  67
BRANCH  58  75
ATOM     75  C   UNL A   1      45.062  32.899  29.193  1.00  0.00     0.057 A 
ATOM     76  C   UNL A   1      45.574  33.279  30.439  1.00  0.00     0.134 A 
ATOM     77  C   UNL A   1      44.840  33.909  28.249  1.00  0.00     0.134 A 
ATOM     78  F   UNL A   1      45.798  32.361  31.391  1.00  0.00    -0.206 F 
ATOM     79  C   UNL A   1      45.838  34.616  30.742  1.00  0.00     0.040 A 
ATOM     80  C   UNL A   1      45.120  35.248  28.531  1.00  0.00     0.040 A 
ATOM     81  F   UNL A   1      44.358  33.612  27.033  1.00  0.00    -0.206 F 
ATOM     82  C   UNL A   1      45.617  35.604  29.783  1.00  0.00     0.006 A 
ENDBRANCH  58  75
ENDBRANCH  32  33
ENDBRANCH  25  27
ENDBRANCH  24  25
ENDBRANCH  23  24
ENDBRANCH  22  23
ENDBRANCH  21  22
ENDBRANCH   1  21
TORSDOF 17
ENDMDL
MODEL 3
REMARK VINA RESULT:     -10.3      4.703      9.526
REMARK SMILES C[C@@H](C(=O)OCCOCCOC(=O)c1ccc(-c2c3nc(c(-c4c(F)cccc4F)c4ccc([nH]4)c(-c4c(F)cccc4F)c4nc(c(-c5c(F)cccc5F)c5ccc2[nH]5)C=C4)C=C3)cc1)c1ccc(Cc2ccoc2)cc1F
REMARK SMILES IDX 7 1 6 2 5 3 3 4 4 5 2 6 1 7 68 8 69 9 79 10 70 11 78 12
REMARK SMILES IDX 80 13 71 14 72 15 73 16 74 17 77 18 75 19 76 20 8 21 9 22
REMARK SMILES IDX 10 23 11 24 12 25 13 26 14 27 15 28 67 29 16 30 66 31 17 32
REMARK SMILES IDX 18 33 19 34 60 35 20 36 65 37 59 38 61 39 21 40 64 41 58 42
REMARK SMILES IDX 57 43 22 45 48 46 31 47 47 48 32 49 35 50 46 51 62 52 33 53
REMARK SMILES IDX 34 54 45 56 63 57 36 58 23 59 24 60 29 61 25 62 26 63 28 64
REMARK SMILES IDX 30 65 27 66 49 67 50 68 55 69 51 70 52 71 54 72 56 73 53 74
REMARK SMILES IDX 37 75 38 76 43 77 39 78 40 79 42 80 44 81 41 82
REMARK H PARENT 61 44 35 55
REMARK Flexibility Score: inf
ROOT
ATOM      1  C   UNL A   1      32.247  29.422  26.096  1.00  0.00     0.202 C 
ENDROOT
BRANCH   1   2
ATOM      2  C   UNL A   1      33.653  28.818  26.135  1.00  0.00     0.261 C 
BRANCH   2   3
ATOM      3  O   UNL A   1      33.855  27.930  25.026  1.00  0.00    -0.463 OA
BRANCH   3   4
ATOM      4  C   UNL A   1      33.214  26.733  25.107  1.00  0.00     0.313 C 
ATOM      5  O   UNL A   1      33.068  26.104  26.150  1.00  0.00    -0.252 OA
BRANCH   4   6
ATOM      6  C   UNL A   1      32.622  26.289  23.760  1.00  0.00     0.129 C 
ATOM      7  C   UNL A   1      33.674  26.402  22.646  1.00  0.00     0.025 C 
BRANCH   6   8
ATOM      8  C   UNL A   1      31.249  26.906  23.464  1.00  0.00     0.002 A 
ATOM      9  C   UNL A   1      31.151  28.087  22.706  1.00  0.00     0.008 A 
ATOM     10  C   UNL A   1      30.048  26.417  24.001  1.00  0.00     0.127 A 
ATOM     11  C   UNL A   1      29.923  28.727  22.489  1.00  0.00     0.004 A 
ATOM     12  C   UNL A   1      28.822  27.070  23.816  1.00  0.00     0.043 A 
ATOM     13  F   UNL A   1      30.030  25.294  24.731  1.00  0.00    -0.207 F 
ATOM     14  C   UNL A   1      28.742  28.249  23.067  1.00  0.00    -0.041 A 
BRANCH  14  15
ATOM     15  C   UNL A   1      27.423  28.957  22.857  1.00  0.00     0.074 C 
BRANCH  15  16
ATOM     16  C   UNL A   1      27.709  30.401  22.600  1.00  0.00    -0.005 A 
ATOM     17  C   UNL A   1      28.001  31.039  21.355  1.00  0.00     0.046 A 
ATOM     18  C   UNL A   1      27.670  31.433  23.521  1.00  0.00     0.198 A 
ATOM     19  C   UNL A   1      28.150  32.380  21.616  1.00  0.00     0.195 A 
ATOM     20  O   UNL A   1      27.942  32.627  22.933  1.00  0.00    -0.472 OA
ENDBRANCH  15  16
ENDBRANCH  14  15
ENDBRANCH   6   8
ENDBRANCH   4   6
ENDBRANCH   3   4
ENDBRANCH   2   3
ENDBRANCH   1   2
BRANCH   1  21
ATOM     21  O   UNL A   1      32.122  30.759  26.582  1.00  0.00    -0.374 OA
BRANCH  21  22
ATOM     22  C   UNL A   1      33.064  31.201  27.563  1.00  0.00     0.202 C 
BRANCH  22  23
ATOM     23  C   UNL A   1      33.572  32.643  27.432  1.00  0.00     0.261 C 
BRANCH  23  24
ATOM     24  O   UNL A   1      32.611  33.618  27.882  1.00  0.00    -0.460 OA
BRANCH  24  25
ATOM     25  C   UNL A   1      33.129  34.622  28.631  1.00  0.00     0.338 C 
ATOM     26  O   UNL A   1      32.678  35.751  28.773  1.00  0.00    -0.246 OA
BRANCH  25  27
ATOM     27  C   UNL A   1      34.268  34.137  29.430  1.00  0.00     0.060 A 
ATOM     28  C   UNL A   1      35.557  34.406  28.951  1.00  0.00     0.016 A 
ATOM     29  C   UNL A   1      34.084  33.341  30.563  1.00  0.00     0.016 A 
ATOM     30  C   UNL A   1      36.667  33.840  29.575  1.00  0.00     0.010 A 
ATOM     31  C   UNL A   1      35.200  32.764  31.182  1.00  0.00     0.010 A 
ATOM     32  C   UNL A   1      36.493  32.982  30.669  1.00  0.00    -0.014 A 
BRANCH  32  33
ATOM     33  C   UNL A   1      37.651  32.204  31.176  1.00  0.00     0.031 A 
ATOM     34  C   UNL A   1      38.195  32.508  32.545  1.00  0.00     0.074 A 
ATOM     35  C   UNL A   1      38.186  31.209  30.446  1.00  0.00     0.049 A 
ATOM     36  N   UNL A   1      39.203  31.964  33.177  1.00  0.00    -0.248 NA
ATOM     37  C   UNL A   1      37.509  33.568  33.302  1.00  0.00     0.031 C 
ATOM     38  C   UNL A   1      37.726  30.790  29.124  1.00  0.00     0.029 A 
ATOM     39  N   UNL A   1      39.240  30.373  30.719  1.00  0.00    -0.354 N 
ATOM     40  C   UNL A   1      39.272  32.612  34.405  1.00  0.00     0.074 A 
ATOM     41  C   UNL A   1      38.225  33.610  34.416  1.00  0.00     0.031 C 
ATOM     42  C   UNL A   1      38.503  29.781  28.693  1.00  0.00     0.029 A 
ATOM     43  C   UNL A   1      39.528  29.503  29.697  1.00  0.00     0.049 A 
ATOM     44  H   UNL A   1      39.742  30.397  31.565  1.00  0.00     0.167 HD
ATOM     45  C   UNL A   1      40.124  32.388  35.433  1.00  0.00     0.037 A 
ATOM     46  C   UNL A   1      40.518  28.597  29.579  1.00  0.00     0.037 A 
ATOM     47  C   UNL A   1      41.169  31.398  35.425  1.00  0.00     0.049 A 
ATOM     48  C   UNL A   1      41.497  28.414  30.709  1.00  0.00     0.074 A 
ATOM     49  C   UNL A   1      42.077  31.093  36.424  1.00  0.00     0.029 A 
ATOM     50  N   UNL A   1      41.448  30.557  34.360  1.00  0.00    -0.354 N 
ATOM     51  N   UNL A   1      41.542  29.019  31.871  1.00  0.00    -0.248 NA
ATOM     52  C   UNL A   1      42.562  27.421  30.510  1.00  0.00     0.031 C 
ATOM     53  C   UNL A   1      42.932  30.093  35.947  1.00  0.00     0.029 A 
ATOM     54  C   UNL A   1      42.528  29.747  34.668  1.00  0.00     0.049 A 
ATOM     55  H   UNL A   1      40.952  30.538  33.509  1.00  0.00     0.167 HD
ATOM     56  C   UNL A   1      42.619  28.463  32.550  1.00  0.00     0.074 A 
ATOM     57  C   UNL A   1      43.196  27.465  31.674  1.00  0.00     0.031 C 
ATOM     58  C   UNL A   1      43.088  28.754  33.788  1.00  0.00     0.037 A 
BRANCH  45  59
ATOM     59  C   UNL A   1      39.971  33.248  36.653  1.00  0.00     0.057 A 
ATOM     60  C   UNL A   1      40.718  34.420  36.828  1.00  0.00     0.134 A 
ATOM     61  C   UNL A   1      39.046  32.915  37.651  1.00  0.00     0.134 A 
ATOM     62  F   UNL A   1      41.630  34.787  35.915  1.00  0.00    -0.206 F 
ATOM     63  C   UNL A   1      40.565  35.221  37.961  1.00  0.00     0.040 A 
ATOM     64  C   UNL A   1      38.868  33.718  38.778  1.00  0.00     0.040 A 
ATOM     65  F   UNL A   1      38.297  31.807  37.542  1.00  0.00    -0.206 F 
ATOM     66  C   UNL A   1      39.633  34.873  38.938  1.00  0.00     0.006 A 
ENDBRANCH  45  59
BRANCH  46  67
ATOM     67  C   UNL A   1      40.650  27.800  28.334  1.00  0.00     0.057 A 
ATOM     68  C   UNL A   1      40.048  26.543  28.208  1.00  0.00     0.134 A 
ATOM     69  C   UNL A   1      41.397  28.270  27.248  1.00  0.00     0.134 A 
ATOM     70  F   UNL A   1      39.340  26.028  29.225  1.00  0.00    -0.206 F 
ATOM     71  C   UNL A   1      40.198  25.775  27.053  1.00  0.00     0.040 A 
ATOM     72  C   UNL A   1      41.535  27.523  26.078  1.00  0.00     0.040 A 
ATOM     73  F   UNL A   1      41.999  29.467  27.308  1.00  0.00    -0.206 F 
ATOM     74  C   UNL A   1      40.939  26.268  25.980  1.00  0.00     0.006 A 
ENDBRANCH  46  67
BRANCH  58  75
ATOM     75  C   UNL A   1      44.263  27.963  34.283  1.00  0.00     0.057 A 
ATOM     76  C   UNL A   1      44.105  26.719  34.907  1.00  0.00     0.134 A 
ATOM     77  C   UNL A   1      45.569  28.432  34.096  1.00  0.00     0.134 A 
ATOM     78  F   UNL A   1      42.879  26.220  35.127  1.00  0.00    -0.206 F 
ATOM     79  C   UNL A   1      45.204  25.978  35.344  1.00  0.00     0.040 A 
ATOM     80  C   UNL A   1      46.678  27.690  34.508  1.00  0.00     0.040 A 
ATOM     81  F   UNL A   1      45.791  29.612  33.498  1.00  0.00    -0.206 F 
ATOM     82  C   UNL A   1      46.496  26.460  35.139  1.00  0.00     0.006 A 
ENDBRANCH  58  75
ENDBRANCH  32  33
ENDBRANCH  25  27
ENDBRANCH  24  25
ENDBRANCH  23  24
ENDBRANCH  22  23
ENDBRANCH  21  22
ENDBRANCH   1  21
TORSDOF 17
ENDMDL
