MODEL 1
REMARK VINA RESULT:      -9.3      0.000      0.000
REMARK SMILES Cc1cc(Br)cc2c1O[C@H](C(F)(F)F)C(C(=O)OCCOCCOC(=O)c1ccc(-c3c4nc(c(-c5c(F)cccc5F)c5ccc([nH]5)c(-c5c(F)cccc5F)c5nc(c(-c6c(F)cccc6F)c6ccc3[nH]6)C=C5)C=C4)cc1)=C2
REMARK SMILES IDX 22 1 21 2 20 3 19 4 18 5 16 6 17 7 15 8 1 9 2 10 3 11 8 12
REMARK SMILES IDX 4 13 7 14 9 15 5 16 6 17 81 18 10 19 11 20 12 21 13 22 14 23
REMARK SMILES IDX 23 24 24 25 25 26 26 27 27 28 28 29 80 30 29 31 79 32 30 33
REMARK SMILES IDX 31 34 32 35 73 36 33 37 78 38 72 39 74 40 34 41 77 42 71 43
REMARK SMILES IDX 70 44 35 46 61 47 44 48 60 49 45 50 48 51 59 52 75 53 46 54
REMARK SMILES IDX 47 55 58 57 76 58 49 59 36 60 37 61 42 62 38 63 39 64 41 65
REMARK SMILES IDX 43 66 40 67 62 68 63 69 68 70 64 71 65 72 67 73 69 74 66 75
REMARK SMILES IDX 50 76 51 77 56 78 52 79 53 80 55 81 57 82 54 83
REMARK H PARENT 74 45 48 56
REMARK Flexibility Score: inf
ROOT
ATOM      1  C   UNL A   1      33.266  36.746  30.768  1.00  0.00     0.202 C 
ENDROOT
BRANCH   1   2
ATOM      2  O   UNL A   1      33.543  35.868  31.860  1.00  0.00    -0.374 OA
BRANCH   2   3
ATOM      3  C   UNL A   1      34.536  36.261  32.802  1.00  0.00     0.202 C 
BRANCH   3   4
ATOM      4  C   UNL A   1      34.714  35.375  34.038  1.00  0.00     0.261 C 
BRANCH   4   5
ATOM      5  O   UNL A   1      36.071  34.923  34.181  1.00  0.00    -0.460 OA
BRANCH   5   6
ATOM      6  C   UNL A   1      36.245  33.968  35.123  1.00  0.00     0.338 C 
ATOM      7  O   UNL A   1      35.542  33.767  36.102  1.00  0.00    -0.246 OA
BRANCH   6   8
ATOM      8  C   UNL A   1      37.369  33.091  34.747  1.00  0.00     0.087 C 
ATOM      9  C   UNL A   1      41.694  30.362  34.652  1.00  0.00     0.048 C 
ATOM     10  C   UNL A   1      40.341  30.253  34.007  1.00  0.00    -0.007 A 
ATOM     11  C   UNL A   1      40.007  29.098  33.282  1.00  0.00     0.023 A 
ATOM     12  C   UNL A   1      39.374  31.257  34.180  1.00  0.00     0.130 A 
ATOM     13  C   UNL A   1      38.738  28.963  32.722  1.00  0.00     0.019 A 
ATOM     14  C   UNL A   1      38.091  31.095  33.649  1.00  0.00     0.019 A 
ATOM     15  O   UNL A   1      39.753  32.369  34.880  1.00  0.00    -0.475 OA
ATOM     16  Br  UNL A   1      38.299  27.402  31.751  1.00  0.00    -0.051 Br
ATOM     17  C   UNL A   1      37.779  29.955  32.900  1.00  0.00     0.027 A 
ATOM     18  C   UNL A   1      37.057  32.068  33.942  1.00  0.00     0.027 C 
ATOM     19  C   UNL A   1      38.750  33.343  35.283  1.00  0.00     0.316 C 
BRANCH  19  20
ATOM     20  C   UNL A   1      38.785  33.454  36.814  1.00  0.00     0.430 C 
ATOM     21  F   UNL A   1      38.426  34.696  37.222  1.00  0.00    -0.167 F 
ATOM     22  F   UNL A   1      37.924  32.592  37.404  1.00  0.00    -0.167 F 
ATOM     23  F   UNL A   1      40.016  33.203  37.313  1.00  0.00    -0.167 F 
ENDBRANCH  19  20
ENDBRANCH   6   8
ENDBRANCH   5   6
ENDBRANCH   4   5
ENDBRANCH   3   4
ENDBRANCH   2   3
ENDBRANCH   1   2
BRANCH   1  24
ATOM     24  C   UNL A   1      32.887  36.110  29.424  1.00  0.00     0.261 C 
BRANCH  24  25
ATOM     25  O   UNL A   1      32.569  34.711  29.547  1.00  0.00    -0.460 OA
BRANCH  25  26
ATOM     26  C   UNL A   1      33.115  33.915  28.597  1.00  0.00     0.338 C 
ATOM     27  O   UNL A   1      32.667  33.664  27.486  1.00  0.00    -0.246 OA
BRANCH  26  28
ATOM     28  C   UNL A   1      34.468  33.509  29.012  1.00  0.00     0.060 A 
ATOM     29  C   UNL A   1      35.544  33.885  28.199  1.00  0.00     0.016 A 
ATOM     30  C   UNL A   1      34.672  32.719  30.144  1.00  0.00     0.016 A 
ATOM     31  C   UNL A   1      36.830  33.449  28.503  1.00  0.00     0.010 A 
ATOM     32  C   UNL A   1      35.965  32.274  30.442  1.00  0.00     0.010 A 
ATOM     33  C   UNL A   1      37.046  32.617  29.612  1.00  0.00    -0.014 A 
BRANCH  33  34
ATOM     34  C   UNL A   1      38.388  32.027  29.827  1.00  0.00     0.031 A 
ATOM     35  C   UNL A   1      39.390  32.764  30.669  1.00  0.00     0.074 A 
ATOM     36  C   UNL A   1      38.688  30.819  29.318  1.00  0.00     0.049 A 
ATOM     37  N   UNL A   1      40.601  32.408  31.014  1.00  0.00    -0.248 NA
ATOM     38  C   UNL A   1      38.974  34.074  31.196  1.00  0.00     0.031 C 
ATOM     39  C   UNL A   1      37.784  29.997  28.514  1.00  0.00     0.029 A 
ATOM     40  N   UNL A   1      39.833  30.069  29.411  1.00  0.00    -0.354 N 
ATOM     41  C   UNL A   1      41.086  33.439  31.807  1.00  0.00     0.074 A 
ATOM     42  C   UNL A   1      40.059  34.457  31.854  1.00  0.00     0.031 C 
ATOM     43  C   UNL A   1      38.406  28.848  28.199  1.00  0.00     0.029 A 
ATOM     44  C   UNL A   1      39.759  28.865  28.754  1.00  0.00     0.049 A 
ATOM     45  H   UNL A   1      40.633  30.367  29.903  1.00  0.00     0.167 HD
ATOM     46  C   UNL A   1      42.272  33.520  32.453  1.00  0.00     0.037 A 
ATOM     47  C   UNL A   1      40.678  27.889  28.616  1.00  0.00     0.037 A 
ATOM     48  C   UNL A   1      43.291  32.507  32.403  1.00  0.00     0.049 A 
ATOM     49  C   UNL A   1      42.023  28.042  29.273  1.00  0.00     0.074 A 
ATOM     50  C   UNL A   1      44.523  32.496  33.032  1.00  0.00     0.029 A 
ATOM     51  N   UNL A   1      43.199  31.328  31.680  1.00  0.00    -0.354 N 
ATOM     52  N   UNL A   1      42.458  29.008  30.046  1.00  0.00    -0.248 NA
ATOM     53  C   UNL A   1      43.005  26.971  29.043  1.00  0.00     0.031 C 
ATOM     54  C   UNL A   1      45.198  31.334  32.650  1.00  0.00     0.029 A 
ATOM     55  C   UNL A   1      44.364  30.595  31.825  1.00  0.00     0.049 A 
ATOM     56  H   UNL A   1      42.421  31.054  31.141  1.00  0.00     0.167 HD
ATOM     57  C   UNL A   1      43.748  28.650  30.418  1.00  0.00     0.074 A 
ATOM     58  C   UNL A   1      44.026  27.375  29.791  1.00  0.00     0.031 C 
ATOM     59  C   UNL A   1      44.621  29.317  31.210  1.00  0.00     0.037 A 
BRANCH  46  60
ATOM     60  C   UNL A   1      42.537  34.745  33.278  1.00  0.00     0.057 A 
ATOM     61  C   UNL A   1      42.438  34.724  34.675  1.00  0.00     0.134 A 
ATOM     62  C   UNL A   1      42.967  35.935  32.678  1.00  0.00     0.134 A 
ATOM     63  F   UNL A   1      42.023  33.617  35.310  1.00  0.00    -0.206 F 
ATOM     64  C   UNL A   1      42.746  35.847  35.445  1.00  0.00     0.040 A 
ATOM     65  C   UNL A   1      43.302  37.057  33.439  1.00  0.00     0.040 A 
ATOM     66  F   UNL A   1      43.090  36.020  31.345  1.00  0.00    -0.206 F 
ATOM     67  C   UNL A   1      43.190  37.013  34.827  1.00  0.00     0.006 A 
ENDBRANCH  46  60
BRANCH  47  68
ATOM     68  C   UNL A   1      40.346  26.669  27.840  1.00  0.00     0.057 A 
ATOM     69  C   UNL A   1      39.544  25.660  28.388  1.00  0.00     0.134 A 
ATOM     70  C   UNL A   1      40.809  26.484  26.532  1.00  0.00     0.134 A 
ATOM     71  F   UNL A   1      39.087  25.770  29.643  1.00  0.00    -0.206 F 
ATOM     72  C   UNL A   1      39.220  24.510  27.665  1.00  0.00     0.040 A 
ATOM     73  C   UNL A   1      40.474  25.350  25.789  1.00  0.00     0.040 A 
ATOM     74  F   UNL A   1      41.581  27.413  25.948  1.00  0.00    -0.206 F 
ATOM     75  C   UNL A   1      39.681  24.356  26.359  1.00  0.00     0.006 A 
ENDBRANCH  47  68
BRANCH  59  76
ATOM     76  C   UNL A   1      45.954  28.686  31.483  1.00  0.00     0.057 A 
ATOM     77  C   UNL A   1      46.113  27.699  32.462  1.00  0.00     0.134 A 
ATOM     78  C   UNL A   1      47.059  28.980  30.672  1.00  0.00     0.134 A 
ATOM     79  F   UNL A   1      45.096  27.377  33.275  1.00  0.00    -0.206 F 
ATOM     80  C   UNL A   1      47.324  27.023  32.623  1.00  0.00     0.040 A 
ATOM     81  C   UNL A   1      48.266  28.295  30.808  1.00  0.00     0.040 A 
ATOM     82  F   UNL A   1      46.967  29.907  29.707  1.00  0.00    -0.206 F 
ATOM     83  C   UNL A   1      48.401  27.311  31.785  1.00  0.00     0.006 A 
ENDBRANCH  59  76
ENDBRANCH  33  34
ENDBRANCH  26  28
ENDBRANCH  25  26
ENDBRANCH  24  25
ENDBRANCH   1  24
TORSDOF 15
ENDMDL
MODEL 2
REMARK VINA RESULT:      -9.2      0.329      6.240
REMARK SMILES Cc1cc(Br)cc2c1O[C@H](C(F)(F)F)C(C(=O)OCCOCCOC(=O)c1ccc(-c3c4nc(c(-c5c(F)cccc5F)c5ccc([nH]5)c(-c5c(F)cccc5F)c5nc(c(-c6c(F)cccc6F)c6ccc3[nH]6)C=C5)C=C4)cc1)=C2
REMARK SMILES IDX 22 1 21 2 20 3 19 4 18 5 16 6 17 7 15 8 1 9 2 10 3 11 8 12
REMARK SMILES IDX 4 13 7 14 9 15 5 16 6 17 81 18 10 19 11 20 12 21 13 22 14 23
REMARK SMILES IDX 23 24 24 25 25 26 26 27 27 28 28 29 80 30 29 31 79 32 30 33
REMARK SMILES IDX 31 34 32 35 73 36 33 37 78 38 72 39 74 40 34 41 77 42 71 43
REMARK SMILES IDX 70 44 35 46 61 47 44 48 60 49 45 50 48 51 59 52 75 53 46 54
REMARK SMILES IDX 47 55 58 57 76 58 49 59 36 60 37 61 42 62 38 63 39 64 41 65
REMARK SMILES IDX 43 66 40 67 62 68 63 69 68 70 64 71 65 72 67 73 69 74 66 75
REMARK SMILES IDX 50 76 51 77 56 78 52 79 53 80 55 81 57 82 54 83
REMARK H PARENT 74 45 48 56
REMARK Flexibility Score: inf
ROOT
ATOM      1  C   UNL A   1      33.277  36.635  30.592  1.00  0.00     0.202 C 
ENDROOT
BRANCH   1   2
ATOM      2  O   UNL A   1      33.336  35.771  31.728  1.00  0.00    -0.374 OA
BRANCH   2   3
ATOM      3  C   UNL A   1      34.619  35.415  32.234  1.00  0.00     0.202 C 
BRANCH   3   4
ATOM      4  C   UNL A   1      34.749  35.252  33.750  1.00  0.00     0.261 C 
BRANCH   4   5
ATOM      5  O   UNL A   1      36.110  35.025  34.150  1.00  0.00    -0.460 OA
BRANCH   5   6
ATOM      6  C   UNL A   1      36.261  34.084  35.110  1.00  0.00     0.338 C 
ATOM      7  O   UNL A   1      35.533  33.895  36.073  1.00  0.00    -0.246 OA
BRANCH   6   8
ATOM      8  C   UNL A   1      37.396  33.204  34.776  1.00  0.00     0.087 C 
ATOM      9  C   UNL A   1      41.743  30.508  34.819  1.00  0.00     0.048 C 
ATOM     10  C   UNL A   1      40.397  30.366  34.164  1.00  0.00    -0.007 A 
ATOM     11  C   UNL A   1      40.080  29.184  33.476  1.00  0.00     0.023 A 
ATOM     12  C   UNL A   1      39.420  31.368  34.293  1.00  0.00     0.130 A 
ATOM     13  C   UNL A   1      38.818  29.020  32.908  1.00  0.00     0.019 A 
ATOM     14  C   UNL A   1      38.144  31.177  33.754  1.00  0.00     0.019 A 
ATOM     15  O   UNL A   1      39.783  32.506  34.958  1.00  0.00    -0.475 OA
ATOM     16  Br  UNL A   1      38.401  27.423  31.987  1.00  0.00    -0.051 Br
ATOM     17  C   UNL A   1      37.849  30.010  33.042  1.00  0.00     0.027 A 
ATOM     18  C   UNL A   1      37.100  32.151  34.003  1.00  0.00     0.027 C 
ATOM     19  C   UNL A   1      38.769  33.485  35.316  1.00  0.00     0.316 C 
BRANCH  19  20
ATOM     20  C   UNL A   1      38.787  33.649  36.843  1.00  0.00     0.430 C 
ATOM     21  F   UNL A   1      38.448  34.911  37.203  1.00  0.00    -0.167 F 
ATOM     22  F   UNL A   1      37.902  32.825  37.451  1.00  0.00    -0.167 F 
ATOM     23  F   UNL A   1      40.007  33.392  37.366  1.00  0.00    -0.167 F 
ENDBRANCH  19  20
ENDBRANCH   6   8
ENDBRANCH   5   6
ENDBRANCH   4   5
ENDBRANCH   3   4
ENDBRANCH   2   3
ENDBRANCH   1   2
BRANCH   1  24
ATOM     24  C   UNL A   1      32.991  35.996  29.227  1.00  0.00     0.261 C 
BRANCH  24  25
ATOM     25  O   UNL A   1      32.582  34.620  29.339  1.00  0.00    -0.460 OA
BRANCH  25  26
ATOM     26  C   UNL A   1      33.193  33.770  28.479  1.00  0.00     0.338 C 
ATOM     27  O   UNL A   1      32.810  33.433  27.366  1.00  0.00    -0.246 OA
BRANCH  26  28
ATOM     28  C   UNL A   1      34.528  33.423  28.992  1.00  0.00     0.060 A 
ATOM     29  C   UNL A   1      35.643  33.822  28.245  1.00  0.00     0.016 A 
ATOM     30  C   UNL A   1      34.683  32.665  30.153  1.00  0.00     0.016 A 
ATOM     31  C   UNL A   1      36.920  33.440  28.644  1.00  0.00     0.010 A 
ATOM     32  C   UNL A   1      35.967  32.274  30.548  1.00  0.00     0.010 A 
ATOM     33  C   UNL A   1      37.089  32.639  29.784  1.00  0.00    -0.014 A 
BRANCH  33  34
ATOM     34  C   UNL A   1      38.433  32.104  30.102  1.00  0.00     0.031 A 
ATOM     35  C   UNL A   1      38.846  30.771  29.545  1.00  0.00     0.074 A 
ATOM     36  C   UNL A   1      39.296  32.828  30.837  1.00  0.00     0.049 A 
ATOM     37  N   UNL A   1      39.986  30.142  29.668  1.00  0.00    -0.248 NA
ATOM     38  C   UNL A   1      37.844  30.052  28.741  1.00  0.00     0.031 C 
ATOM     39  C   UNL A   1      39.019  34.148  31.402  1.00  0.00     0.029 A 
ATOM     40  N   UNL A   1      40.585  32.559  31.226  1.00  0.00    -0.354 N 
ATOM     41  C   UNL A   1      39.846  28.962  28.948  1.00  0.00     0.074 A 
ATOM     42  C   UNL A   1      38.494  28.940  28.431  1.00  0.00     0.031 C 
ATOM     43  C   UNL A   1      40.111  34.581  32.053  1.00  0.00     0.029 A 
ATOM     44  C   UNL A   1      41.154  33.559  31.975  1.00  0.00     0.049 A 
ATOM     45  H   UNL A   1      41.055  31.727  30.989  1.00  0.00     0.167 HD
ATOM     46  C   UNL A   1      40.766  27.996  28.723  1.00  0.00     0.037 A 
ATOM     47  C   UNL A   1      42.377  33.639  32.537  1.00  0.00     0.037 A 
ATOM     48  C   UNL A   1      42.108  28.022  29.239  1.00  0.00     0.049 A 
ATOM     49  C   UNL A   1      43.354  32.510  32.343  1.00  0.00     0.074 A 
ATOM     50  C   UNL A   1      43.116  27.092  29.057  1.00  0.00     0.029 A 
ATOM     51  N   UNL A   1      42.627  29.025  30.042  1.00  0.00    -0.354 N 
ATOM     52  N   UNL A   1      43.219  31.415  31.635  1.00  0.00    -0.248 NA
ATOM     53  C   UNL A   1      44.653  32.627  33.023  1.00  0.00     0.031 C 
ATOM     54  C   UNL A   1      44.230  27.508  29.790  1.00  0.00     0.029 A 
ATOM     55  C   UNL A   1      43.933  28.724  30.386  1.00  0.00     0.049 A 
ATOM     56  H   UNL A   1      42.139  29.832  30.326  1.00  0.00     0.167 HD
ATOM     57  C   UNL A   1      44.421  30.729  31.758  1.00  0.00     0.074 A 
ATOM     58  C   UNL A   1      45.277  31.533  32.605  1.00  0.00     0.031 C 
ATOM     59  C   UNL A   1      44.782  29.542  31.215  1.00  0.00     0.037 A 
BRANCH  46  60
ATOM     60  C   UNL A   1      40.360  26.827  27.875  1.00  0.00     0.057 A 
ATOM     61  C   UNL A   1      40.801  26.691  26.553  1.00  0.00     0.134 A 
ATOM     62  C   UNL A   1      39.582  25.791  28.408  1.00  0.00     0.134 A 
ATOM     63  F   UNL A   1      41.542  27.653  25.982  1.00  0.00    -0.206 F 
ATOM     64  C   UNL A   1      40.475  25.571  25.786  1.00  0.00     0.040 A 
ATOM     65  C   UNL A   1      39.269  24.655  27.660  1.00  0.00     0.040 A 
ATOM     66  F   UNL A   1      39.133  25.856  29.670  1.00  0.00    -0.206 F 
ATOM     67  C   UNL A   1      39.715  24.544  26.344  1.00  0.00     0.006 A 
ENDBRANCH  46  60
BRANCH  47  68
ATOM     68  C   UNL A   1      42.753  34.845  33.315  1.00  0.00     0.057 A 
ATOM     69  C   UNL A   1      42.666  34.859  34.712  1.00  0.00     0.134 A 
ATOM     70  C   UNL A   1      43.219  36.006  32.687  1.00  0.00     0.134 A 
ATOM     71  F   UNL A   1      42.208  33.784  35.370  1.00  0.00    -0.206 F 
ATOM     72  C   UNL A   1      43.022  35.985  35.456  1.00  0.00     0.040 A 
ATOM     73  C   UNL A   1      43.602  37.131  33.420  1.00  0.00     0.040 A 
ATOM     74  F   UNL A   1      43.327  36.058  31.351  1.00  0.00    -0.206 F 
ATOM     75  C   UNL A   1      43.499  37.124  34.809  1.00  0.00     0.006 A 
ENDBRANCH  47  68
BRANCH  59  76
ATOM     76  C   UNL A   1      46.168  29.033  31.482  1.00  0.00     0.057 A 
ATOM     77  C   UNL A   1      47.247  29.378  30.661  1.00  0.00     0.134 A 
ATOM     78  C   UNL A   1      46.444  28.297  32.642  1.00  0.00     0.134 A 
ATOM     79  F   UNL A   1      47.049  30.076  29.533  1.00  0.00    -0.206 F 
ATOM     80  C   UNL A   1      48.555  29.010  30.986  1.00  0.00     0.040 A 
ATOM     81  C   UNL A   1      47.748  27.944  32.989  1.00  0.00     0.040 A 
ATOM     82  F   UNL A   1      45.454  27.946  33.477  1.00  0.00    -0.206 F 
ATOM     83  C   UNL A   1      48.809  28.303  32.161  1.00  0.00     0.006 A 
ENDBRANCH  59  76
ENDBRANCH  33  34
ENDBRANCH  26  28
ENDBRANCH  25  26
ENDBRANCH  24  25
ENDBRANCH   1  24
TORSDOF 15
ENDMDL
MODEL 3
REMARK VINA RESULT:      -9.0      5.063     10.881
REMARK SMILES Cc1cc(Br)cc2c1O[C@H](C(F)(F)F)C(C(=O)OCCOCCOC(=O)c1ccc(-c3c4nc(c(-c5c(F)cccc5F)c5ccc([nH]5)c(-c5c(F)cccc5F)c5nc(c(-c6c(F)cccc6F)c6ccc3[nH]6)C=C5)C=C4)cc1)=C2
REMARK SMILES IDX 22 1 21 2 20 3 19 4 18 5 16 6 17 7 15 8 1 9 2 10 3 11 8 12
REMARK SMILES IDX 4 13 7 14 9 15 5 16 6 17 81 18 10 19 11 20 12 21 13 22 14 23
REMARK SMILES IDX 23 24 24 25 25 26 26 27 27 28 28 29 80 30 29 31 79 32 30 33
REMARK SMILES IDX 31 34 32 35 73 36 33 37 78 38 72 39 74 40 34 41 77 42 71 43
REMARK SMILES IDX 70 44 35 46 61 47 44 48 60 49 45 50 48 51 59 52 75 53 46 54
REMARK SMILES IDX 47 55 58 57 76 58 49 59 36 60 37 61 42 62 38 63 39 64 41 65
REMARK SMILES IDX 43 66 40 67 62 68 63 69 68 70 64 71 65 72 67 73 69 74 66 75
REMARK SMILES IDX 50 76 51 77 56 78 52 79 53 80 55 81 57 82 54 83
REMARK H PARENT 74 45 48 56
REMARK Flexibility Score: inf
ROOT
ATOM      1  C   UNL A   1      41.551  19.469  26.895  1.00  0.00     0.202 C 
ENDROOT
BRANCH   1   2
ATOM      2  O   UNL A   1      42.167  18.685  25.873  1.00  0.00    -0.374 OA
BRANCH   2   3
ATOM      3  C   UNL A   1      43.578  18.786  25.707  1.00  0.00     0.202 C 
BRANCH   3   4
ATOM      4  C   UNL A   1      44.084  19.729  24.613  1.00  0.00     0.261 C 
BRANCH   4   5
ATOM      5  O   UNL A   1      44.927  20.764  25.146  1.00  0.00    -0.460 OA
BRANCH   5   6
ATOM      6  C   UNL A   1      44.276  21.904  25.471  1.00  0.00     0.338 C 
ATOM      7  O   UNL A   1      43.148  22.227  25.130  1.00  0.00    -0.246 OA
BRANCH   6   8
ATOM      8  C   UNL A   1      45.083  22.691  26.421  1.00  0.00     0.087 C 
ATOM      9  C   UNL A   1      48.334  25.978  28.609  1.00  0.00     0.048 C 
ATOM     10  C   UNL A   1      47.045  25.316  29.008  1.00  0.00    -0.007 A 
ATOM     11  C   UNL A   1      46.398  25.710  30.190  1.00  0.00     0.023 A 
ATOM     12  C   UNL A   1      46.434  24.361  28.178  1.00  0.00     0.130 A 
ATOM     13  C   UNL A   1      45.176  25.140  30.545  1.00  0.00     0.019 A 
ATOM     14  C   UNL A   1      45.190  23.825  28.523  1.00  0.00     0.019 A 
ATOM     15  O   UNL A   1      47.112  24.000  27.047  1.00  0.00    -0.475 OA
ATOM     16  Br  UNL A   1      44.313  25.681  32.138  1.00  0.00    -0.051 Br
ATOM     17  C   UNL A   1      44.570  24.199  29.719  1.00  0.00     0.027 A 
ATOM     18  C   UNL A   1      44.501  22.942  27.601  1.00  0.00     0.027 C 
ATOM     19  C   UNL A   1      46.448  23.187  26.039  1.00  0.00     0.316 C 
BRANCH  19  20
ATOM     20  C   UNL A   1      46.449  23.974  24.720  1.00  0.00     0.430 C 
ATOM     21  F   UNL A   1      47.541  24.773  24.628  1.00  0.00    -0.167 F 
ATOM     22  F   UNL A   1      46.481  23.155  23.643  1.00  0.00    -0.167 F 
ATOM     23  F   UNL A   1      45.358  24.762  24.598  1.00  0.00    -0.167 F 
ENDBRANCH  19  20
ENDBRANCH   6   8
ENDBRANCH   5   6
ENDBRANCH   4   5
ENDBRANCH   3   4
ENDBRANCH   2   3
ENDBRANCH   1   2
BRANCH   1  24
ATOM     24  C   UNL A   1      40.438  20.437  26.474  1.00  0.00     0.261 C 
BRANCH  24  25
ATOM     25  O   UNL A   1      40.553  21.721  27.115  1.00  0.00    -0.460 OA
BRANCH  25  26
ATOM     26  C   UNL A   1      39.750  22.687  26.610  1.00  0.00     0.338 C 
ATOM     27  O   UNL A   1      38.667  22.543  26.058  1.00  0.00    -0.246 OA
BRANCH  26  28
ATOM     28  C   UNL A   1      40.276  24.011  26.981  1.00  0.00     0.060 A 
ATOM     29  C   UNL A   1      40.835  24.160  28.256  1.00  0.00     0.016 A 
ATOM     30  C   UNL A   1      40.166  25.102  26.118  1.00  0.00     0.016 A 
ATOM     31  C   UNL A   1      41.265  25.413  28.683  1.00  0.00     0.010 A 
ATOM     32  C   UNL A   1      40.590  26.362  26.554  1.00  0.00     0.010 A 
ATOM     33  C   UNL A   1      41.119  26.529  27.846  1.00  0.00    -0.014 A 
BRANCH  33  34
ATOM     34  C   UNL A   1      41.426  27.879  28.374  1.00  0.00     0.031 A 
ATOM     35  C   UNL A   1      42.850  28.355  28.399  1.00  0.00     0.074 A 
ATOM     36  C   UNL A   1      40.432  28.691  28.777  1.00  0.00     0.049 A 
ATOM     37  N   UNL A   1      43.329  29.510  28.782  1.00  0.00    -0.248 NA
ATOM     38  C   UNL A   1      43.872  27.405  27.928  1.00  0.00     0.031 C 
ATOM     39  C   UNL A   1      39.010  28.351  28.768  1.00  0.00     0.029 A 
ATOM     40  N   UNL A   1      40.469  29.974  29.264  1.00  0.00    -0.354 N 
ATOM     41  C   UNL A   1      44.702  29.434  28.586  1.00  0.00     0.074 A 
ATOM     42  C   UNL A   1      44.986  28.102  28.096  1.00  0.00     0.031 C 
ATOM     43  C   UNL A   1      38.307  29.406  29.214  1.00  0.00     0.029 A 
ATOM     44  C   UNL A   1      39.230  30.484  29.567  1.00  0.00     0.049 A 
ATOM     45  H   UNL A   1      41.304  30.480  29.385  1.00  0.00     0.167 HD
ATOM     46  C   UNL A   1      45.636  30.393  28.778  1.00  0.00     0.037 A 
ATOM     47  C   UNL A   1      38.880  31.683  30.072  1.00  0.00     0.037 A 
ATOM     48  C   UNL A   1      45.349  31.715  29.266  1.00  0.00     0.049 A 
ATOM     49  C   UNL A   1      39.949  32.704  30.359  1.00  0.00     0.074 A 
ATOM     50  C   UNL A   1      46.230  32.759  29.486  1.00  0.00     0.029 A 
ATOM     51  N   UNL A   1      44.088  32.173  29.615  1.00  0.00    -0.354 N 
ATOM     52  N   UNL A   1      41.240  32.630  30.141  1.00  0.00    -0.248 NA
ATOM     53  C   UNL A   1      39.516  33.975  30.961  1.00  0.00     0.031 C 
ATOM     54  C   UNL A   1      45.510  33.833  30.014  1.00  0.00     0.029 A 
ATOM     55  C   UNL A   1      44.171  33.476  30.074  1.00  0.00     0.049 A 
ATOM     56  H   UNL A   1      43.257  31.648  29.548  1.00  0.00     0.167 HD
ATOM     57  C   UNL A   1      41.767  33.849  30.548  1.00  0.00     0.074 A 
ATOM     58  C   UNL A   1      40.657  34.648  31.022  1.00  0.00     0.031 C 
ATOM     59  C   UNL A   1      43.056  34.268  30.526  1.00  0.00     0.037 A 
BRANCH  46  60
ATOM     60  C   UNL A   1      47.062  30.056  28.456  1.00  0.00     0.057 A 
ATOM     61  C   UNL A   1      47.591  30.251  27.174  1.00  0.00     0.134 A 
ATOM     62  C   UNL A   1      47.934  29.601  29.454  1.00  0.00     0.134 A 
ATOM     63  F   UNL A   1      46.805  30.675  26.173  1.00  0.00    -0.206 F 
ATOM     64  C   UNL A   1      48.934  29.996  26.892  1.00  0.00     0.040 A 
ATOM     65  C   UNL A   1      49.285  29.367  29.190  1.00  0.00     0.040 A 
ATOM     66  F   UNL A   1      47.493  29.401  30.705  1.00  0.00    -0.206 F 
ATOM     67  C   UNL A   1      49.787  29.563  27.905  1.00  0.00     0.006 A 
ENDBRANCH  46  60
BRANCH  47  68
ATOM     68  C   UNL A   1      37.450  31.992  30.316  1.00  0.00     0.057 A 
ATOM     69  C   UNL A   1      36.827  31.632  31.517  1.00  0.00     0.134 A 
ATOM     70  C   UNL A   1      36.673  32.663  29.364  1.00  0.00     0.134 A 
ATOM     71  F   UNL A   1      37.513  30.970  32.459  1.00  0.00    -0.206 F 
ATOM     72  C   UNL A   1      35.484  31.923  31.760  1.00  0.00     0.040 A 
ATOM     73  C   UNL A   1      35.334  32.981  29.603  1.00  0.00     0.040 A 
ATOM     74  F   UNL A   1      37.209  33.037  28.192  1.00  0.00    -0.206 F 
ATOM     75  C   UNL A   1      34.735  32.606  30.803  1.00  0.00     0.006 A 
ENDBRANCH  47  68
BRANCH  59  76
ATOM     76  C   UNL A   1      43.355  35.660  30.998  1.00  0.00     0.057 A 
ATOM     77  C   UNL A   1      43.622  35.939  32.343  1.00  0.00     0.134 A 
ATOM     78  C   UNL A   1      43.501  36.706  30.077  1.00  0.00     0.134 A 
ATOM     79  F   UNL A   1      43.493  34.982  33.274  1.00  0.00    -0.206 F 
ATOM     80  C   UNL A   1      44.027  37.210  32.756  1.00  0.00     0.040 A 
ATOM     81  C   UNL A   1      43.928  37.974  30.474  1.00  0.00     0.040 A 
ATOM     82  F   UNL A   1      43.272  36.501  28.771  1.00  0.00    -0.206 F 
ATOM     83  C   UNL A   1      44.194  38.228  31.818  1.00  0.00     0.006 A 
ENDBRANCH  59  76
ENDBRANCH  33  34
ENDBRANCH  26  28
ENDBRANCH  25  26
ENDBRANCH  24  25
ENDBRANCH   1  24
TORSDOF 15
ENDMDL
