MODEL 1
REMARK VINA RESULT:     -10.7      0.000      0.000
REMARK SMILES O=C(Cc1cccc(-c2ccn(C(F)F)c(=O)c2)c1)OCCOCCOC(=O)c1ccc(-c2c3nc(c(-c4c(F)cccc4F)c4ccc([nH]4)c(-c4c(F)cccc4F)c4nc(c(-c5c(F)cccc5F)c5ccc2[nH]5)C=C4)C=C3)cc1
REMARK SMILES IDX 22 1 21 2 20 3 2 4 1 5 3 6 4 7 5 8 19 9 6 10 8 11 7 12 9 13
REMARK SMILES IDX 10 14 18 15 11 16 16 17 12 18 17 19 13 20 14 21 15 22 23 23
REMARK SMILES IDX 24 24 25 25 26 26 27 27 28 28 29 29 30 30 82 31 31 32 81 33
REMARK SMILES IDX 32 34 33 35 34 36 75 37 35 38 80 39 74 40 76 41 36 42 79 43
REMARK SMILES IDX 73 44 72 45 37 47 63 48 46 49 62 50 47 51 50 52 61 53 77 54
REMARK SMILES IDX 48 55 49 56 60 58 78 59 51 60 38 61 39 62 44 63 40 64 41 65
REMARK SMILES IDX 43 66 45 67 42 68 64 69 65 70 70 71 66 72 67 73 69 74 71 75
REMARK SMILES IDX 68 76 52 77 53 78 58 79 54 80 55 81 57 82 59 83 56 84
REMARK H PARENT 76 46 50 57
REMARK Flexibility Score: inf
ROOT
ATOM      1  C   UNL A   1      33.156  36.193  30.592  1.00  0.00     0.202 C 
ENDROOT
BRANCH   1   2
ATOM      2  C   UNL A   1      33.163  35.971  29.085  1.00  0.00     0.261 C 
BRANCH   2   3
ATOM      3  O   UNL A   1      33.047  34.595  28.684  1.00  0.00    -0.463 OA
BRANCH   3   4
ATOM      4  C   UNL A   1      34.067  33.740  28.425  1.00  0.00     0.310 C 
ATOM      5  O   UNL A   1      34.776  33.943  27.438  1.00  0.00    -0.252 OA
BRANCH   4   6
ATOM      6  C   UNL A   1      34.311  32.527  29.308  1.00  0.00     0.158 C 
BRANCH   6   7
ATOM      7  C   UNL A   1      34.458  31.229  28.563  1.00  0.00    -0.036 A 
ATOM      8  C   UNL A   1      35.577  30.407  28.739  1.00  0.00     0.004 A 
ATOM      9  C   UNL A   1      33.532  30.917  27.566  1.00  0.00     0.013 A 
ATOM     10  C   UNL A   1      35.805  29.342  27.862  1.00  0.00     0.001 A 
ATOM     11  C   UNL A   1      33.792  29.898  26.646  1.00  0.00    -0.018 A 
ATOM     12  C   UNL A   1      34.928  29.103  26.797  1.00  0.00     0.009 A 
BRANCH  11  13
ATOM     13  C   UNL A   1      32.888  29.835  25.493  1.00  0.00    -0.011 A 
ATOM     14  C   UNL A   1      31.555  30.408  25.540  1.00  0.00     0.027 A 
ATOM     15  C   UNL A   1      33.227  29.024  24.479  1.00  0.00     0.080 A 
ATOM     16  C   UNL A   1      30.639  30.058  24.632  1.00  0.00     0.095 A 
ATOM     17  C   UNL A   1      32.229  28.665  23.435  1.00  0.00     0.255 A 
ATOM     18  N   UNL A   1      30.957  29.189  23.605  1.00  0.00    -0.258 N 
ATOM     19  O   UNL A   1      32.576  27.908  22.534  1.00  0.00    -0.269 OA
BRANCH  18  20
ATOM     20  C   UNL A   1      29.944  28.753  22.681  1.00  0.00     0.451 C 
ATOM     21  F   UNL A   1      28.729  28.690  23.277  1.00  0.00    -0.185 F 
ATOM     22  F   UNL A   1      29.854  29.602  21.628  1.00  0.00    -0.185 F 
ENDBRANCH  18  20
ENDBRANCH  11  13
ENDBRANCH   6   7
ENDBRANCH   4   6
ENDBRANCH   3   4
ENDBRANCH   2   3
ENDBRANCH   1   2
BRANCH   1  23
ATOM     23  O   UNL A   1      32.939  35.052  31.412  1.00  0.00    -0.374 OA
BRANCH  23  24
ATOM     24  C   UNL A   1      33.760  34.942  32.582  1.00  0.00     0.202 C 
BRANCH  24  25
ATOM     25  C   UNL A   1      35.258  34.717  32.356  1.00  0.00     0.261 C 
BRANCH  25  26
ATOM     26  O   UNL A   1      35.657  33.392  32.742  1.00  0.00    -0.460 OA
BRANCH  26  27
ATOM     27  C   UNL A   1      36.953  33.280  33.110  1.00  0.00     0.338 C 
ATOM     28  O   UNL A   1      37.476  33.737  34.118  1.00  0.00    -0.246 OA
BRANCH  27  29
ATOM     29  C   UNL A   1      37.650  32.333  32.218  1.00  0.00     0.060 A 
ATOM     30  C   UNL A   1      38.491  31.390  32.823  1.00  0.00     0.016 A 
ATOM     31  C   UNL A   1      37.541  32.404  30.827  1.00  0.00     0.016 A 
ATOM     32  C   UNL A   1      39.318  30.595  32.040  1.00  0.00     0.010 A 
ATOM     33  C   UNL A   1      38.372  31.604  30.040  1.00  0.00     0.010 A 
ATOM     34  C   UNL A   1      39.311  30.753  30.649  1.00  0.00    -0.014 A 
BRANCH  34  35
ATOM     35  C   UNL A   1      40.454  30.222  29.874  1.00  0.00     0.031 A 
ATOM     36  C   UNL A   1      41.639  31.124  29.648  1.00  0.00     0.074 A 
ATOM     37  C   UNL A   1      40.471  28.948  29.451  1.00  0.00     0.049 A 
ATOM     38  N   UNL A   1      42.765  30.881  29.030  1.00  0.00    -0.248 NA
ATOM     39  C   UNL A   1      41.538  32.489  30.193  1.00  0.00     0.031 C 
ATOM     40  C   UNL A   1      39.399  27.975  29.656  1.00  0.00     0.029 A 
ATOM     41  N   UNL A   1      41.433  28.254  28.766  1.00  0.00    -0.354 N 
ATOM     42  C   UNL A   1      43.496  32.061  29.100  1.00  0.00     0.074 A 
ATOM     43  C   UNL A   1      42.674  33.032  29.787  1.00  0.00     0.031 C 
ATOM     44  C   UNL A   1      39.766  26.803  29.110  1.00  0.00     0.029 A 
ATOM     45  C   UNL A   1      41.084  26.954  28.495  1.00  0.00     0.049 A 
ATOM     46  H   UNL A   1      42.293  28.648  28.494  1.00  0.00     0.167 HD
ATOM     47  C   UNL A   1      44.745  32.311  28.642  1.00  0.00     0.037 A 
ATOM     48  C   UNL A   1      41.755  26.003  27.819  1.00  0.00     0.037 A 
ATOM     49  C   UNL A   1      45.559  31.335  27.969  1.00  0.00     0.049 A 
ATOM     50  C   UNL A   1      43.121  26.321  27.273  1.00  0.00     0.074 A 
ATOM     51  C   UNL A   1      46.847  31.472  27.483  1.00  0.00     0.029 A 
ATOM     52  N   UNL A   1      45.156  30.039  27.681  1.00  0.00    -0.354 N 
ATOM     53  N   UNL A   1      43.816  27.431  27.369  1.00  0.00    -0.248 NA
ATOM     54  C   UNL A   1      43.802  25.250  26.533  1.00  0.00     0.031 C 
ATOM     55  C   UNL A   1      47.203  30.275  26.853  1.00  0.00     0.029 A 
ATOM     56  C   UNL A   1      46.162  29.373  27.001  1.00  0.00     0.049 A 
ATOM     57  H   UNL A   1      44.285  29.651  27.924  1.00  0.00     0.167 HD
ATOM     58  C   UNL A   1      45.027  27.179  26.736  1.00  0.00     0.074 A 
ATOM     59  C   UNL A   1      44.975  25.807  26.271  1.00  0.00     0.031 C 
ATOM     60  C   UNL A   1      46.090  28.003  26.558  1.00  0.00     0.037 A 
BRANCH  47  61
ATOM     61  C   UNL A   1      45.285  33.700  28.824  1.00  0.00     0.057 A 
ATOM     62  C   UNL A   1      46.063  34.062  29.932  1.00  0.00     0.134 A 
ATOM     63  C   UNL A   1      45.033  34.691  27.865  1.00  0.00     0.134 A 
ATOM     64  F   UNL A   1      46.327  33.169  30.898  1.00  0.00    -0.206 F 
ATOM     65  C   UNL A   1      46.547  35.362  30.093  1.00  0.00     0.040 A 
ATOM     66  C   UNL A   1      45.535  35.986  28.000  1.00  0.00     0.040 A 
ATOM     67  F   UNL A   1      44.295  34.415  26.779  1.00  0.00    -0.206 F 
ATOM     68  C   UNL A   1      46.289  36.327  29.121  1.00  0.00     0.006 A 
ENDBRANCH  47  61
BRANCH  48  69
ATOM     69  C   UNL A   1      41.155  24.658  27.632  1.00  0.00     0.057 A 
ATOM     70  C   UNL A   1      41.598  23.556  28.372  1.00  0.00     0.134 A 
ATOM     71  C   UNL A   1      40.138  24.438  26.696  1.00  0.00     0.134 A 
ATOM     72  F   UNL A   1      42.583  23.698  29.271  1.00  0.00    -0.206 F 
ATOM     73  C   UNL A   1      41.068  22.279  28.173  1.00  0.00     0.040 A 
ATOM     74  C   UNL A   1      39.579  23.173  26.505  1.00  0.00     0.040 A 
ATOM     75  F   UNL A   1      39.664  25.453  25.959  1.00  0.00    -0.206 F 
ATOM     76  C   UNL A   1      40.050  22.087  27.240  1.00  0.00     0.006 A 
ENDBRANCH  48  69
BRANCH  60  77
ATOM     77  C   UNL A   1      47.300  27.424  25.881  1.00  0.00     0.057 A 
ATOM     78  C   UNL A   1      47.477  27.481  24.492  1.00  0.00     0.134 A 
ATOM     79  C   UNL A   1      48.313  26.821  26.637  1.00  0.00     0.134 A 
ATOM     80  F   UNL A   1      46.538  28.036  23.709  1.00  0.00    -0.206 F 
ATOM     81  C   UNL A   1      48.601  26.928  23.877  1.00  0.00     0.040 A 
ATOM     82  C   UNL A   1      49.458  26.294  26.036  1.00  0.00     0.040 A 
ATOM     83  F   UNL A   1      48.214  26.745  27.973  1.00  0.00    -0.206 F 
ATOM     84  C   UNL A   1      49.598  26.337  24.652  1.00  0.00     0.006 A 
ENDBRANCH  60  77
ENDBRANCH  34  35
ENDBRANCH  27  29
ENDBRANCH  26  27
ENDBRANCH  25  26
ENDBRANCH  24  25
ENDBRANCH  23  24
ENDBRANCH   1  23
TORSDOF 17
ENDMDL
MODEL 2
REMARK VINA RESULT:     -10.7      4.748     10.147
REMARK SMILES O=C(Cc1cccc(-c2ccn(C(F)F)c(=O)c2)c1)OCCOCCOC(=O)c1ccc(-c2c3nc(c(-c4c(F)cccc4F)c4ccc([nH]4)c(-c4c(F)cccc4F)c4nc(c(-c5c(F)cccc5F)c5ccc2[nH]5)C=C4)C=C3)cc1
REMARK SMILES IDX 22 1 21 2 20 3 2 4 1 5 3 6 4 7 5 8 19 9 6 10 8 11 7 12 9 13
REMARK SMILES IDX 10 14 18 15 11 16 16 17 12 18 17 19 13 20 14 21 15 22 23 23
REMARK SMILES IDX 24 24 25 25 26 26 27 27 28 28 29 29 30 30 82 31 31 32 81 33
REMARK SMILES IDX 32 34 33 35 34 36 75 37 35 38 80 39 74 40 76 41 36 42 79 43
REMARK SMILES IDX 73 44 72 45 37 47 63 48 46 49 62 50 47 51 50 52 61 53 77 54
REMARK SMILES IDX 48 55 49 56 60 58 78 59 51 60 38 61 39 62 44 63 40 64 41 65
REMARK SMILES IDX 43 66 45 67 42 68 64 69 65 70 70 71 66 72 67 73 69 74 71 75
REMARK SMILES IDX 68 76 52 77 53 78 58 79 54 80 55 81 57 82 59 83 56 84
REMARK H PARENT 76 46 50 57
REMARK Flexibility Score: inf
ROOT
ATOM      1  C   UNL A   1      40.406  21.332  26.388  1.00  0.00     0.202 C 
ENDROOT
BRANCH   1   2
ATOM      2  C   UNL A   1      39.155  20.552  26.005  1.00  0.00     0.261 C 
BRANCH   2   3
ATOM      3  O   UNL A   1      38.312  21.209  25.044  1.00  0.00    -0.463 OA
BRANCH   3   4
ATOM      4  C   UNL A   1      37.771  22.448  25.158  1.00  0.00     0.310 C 
ATOM      5  O   UNL A   1      37.964  23.086  26.195  1.00  0.00    -0.252 OA
BRANCH   4   6
ATOM      6  C   UNL A   1      36.905  23.026  24.051  1.00  0.00     0.158 C 
BRANCH   6   7
ATOM      7  C   UNL A   1      35.474  23.277  24.440  1.00  0.00    -0.036 A 
ATOM      8  C   UNL A   1      34.470  22.337  24.179  1.00  0.00     0.004 A 
ATOM      9  C   UNL A   1      35.122  24.534  24.935  1.00  0.00     0.013 A 
ATOM     10  C   UNL A   1      33.126  22.694  24.326  1.00  0.00     0.001 A 
ATOM     11  C   UNL A   1      33.780  24.916  25.015  1.00  0.00    -0.018 A 
ATOM     12  C   UNL A   1      32.778  23.992  24.716  1.00  0.00     0.009 A 
BRANCH  11  13
ATOM     13  C   UNL A   1      33.538  26.337  25.291  1.00  0.00    -0.011 A 
ATOM     14  C   UNL A   1      32.935  26.776  26.536  1.00  0.00     0.027 A 
ATOM     15  C   UNL A   1      33.662  27.199  24.270  1.00  0.00     0.080 A 
ATOM     16  C   UNL A   1      32.419  28.006  26.637  1.00  0.00     0.095 A 
ATOM     17  C   UNL A   1      33.134  28.585  24.388  1.00  0.00     0.255 A 
ATOM     18  N   UNL A   1      32.498  28.894  25.581  1.00  0.00    -0.258 N 
ATOM     19  O   UNL A   1      33.253  29.337  23.426  1.00  0.00    -0.269 OA
BRANCH  18  20
ATOM     20  C   UNL A   1      31.868  30.185  25.668  1.00  0.00     0.451 C 
ATOM     21  F   UNL A   1      30.763  30.246  24.886  1.00  0.00    -0.185 F 
ATOM     22  F   UNL A   1      31.498  30.455  26.944  1.00  0.00    -0.185 F 
ENDBRANCH  18  20
ENDBRANCH  11  13
ENDBRANCH   6   7
ENDBRANCH   4   6
ENDBRANCH   3   4
ENDBRANCH   2   3
ENDBRANCH   1   2
BRANCH   1  23
ATOM     23  O   UNL A   1      41.524  21.229  25.515  1.00  0.00    -0.374 OA
BRANCH  23  24
ATOM     24  C   UNL A   1      42.818  21.347  26.120  1.00  0.00     0.202 C 
BRANCH  24  25
ATOM     25  C   UNL A   1      43.907  22.039  25.294  1.00  0.00     0.261 C 
BRANCH  25  26
ATOM     26  O   UNL A   1      43.422  23.249  24.689  1.00  0.00    -0.460 OA
BRANCH  26  27
ATOM     27  C   UNL A   1      44.099  24.364  25.041  1.00  0.00     0.338 C 
ATOM     28  O   UNL A   1      45.218  24.696  24.672  1.00  0.00    -0.246 OA
BRANCH  27  29
ATOM     29  C   UNL A   1      43.216  25.272  25.799  1.00  0.00     0.060 A 
ATOM     30  C   UNL A   1      43.663  26.587  25.987  1.00  0.00     0.016 A 
ATOM     31  C   UNL A   1      42.016  24.839  26.367  1.00  0.00     0.016 A 
ATOM     32  C   UNL A   1      42.977  27.437  26.843  1.00  0.00     0.010 A 
ATOM     33  C   UNL A   1      41.325  25.695  27.227  1.00  0.00     0.010 A 
ATOM     34  C   UNL A   1      41.845  26.968  27.521  1.00  0.00    -0.014 A 
BRANCH  34  35
ATOM     35  C   UNL A   1      41.377  27.713  28.710  1.00  0.00     0.031 A 
ATOM     36  C   UNL A   1      42.167  27.583  29.986  1.00  0.00     0.074 A 
ATOM     37  C   UNL A   1      40.325  28.544  28.635  1.00  0.00     0.049 A 
ATOM     38  N   UNL A   1      41.976  28.155  31.146  1.00  0.00    -0.248 NA
ATOM     39  C   UNL A   1      43.331  26.681  29.948  1.00  0.00     0.031 C 
ATOM     40  C   UNL A   1      39.519  28.781  27.439  1.00  0.00     0.029 A 
ATOM     41  N   UNL A   1      39.761  29.348  29.591  1.00  0.00    -0.354 N 
ATOM     42  C   UNL A   1      42.983  27.673  31.974  1.00  0.00     0.074 A 
ATOM     43  C   UNL A   1      43.761  26.734  31.198  1.00  0.00     0.031 C 
ATOM     44  C   UNL A   1      38.563  29.679  27.733  1.00  0.00     0.029 A 
ATOM     45  C   UNL A   1      38.674  30.055  29.140  1.00  0.00     0.049 A 
ATOM     46  H   UNL A   1      40.102  29.413  30.512  1.00  0.00     0.167 HD
ATOM     47  C   UNL A   1      43.242  27.992  33.264  1.00  0.00     0.037 A 
ATOM     48  C   UNL A   1      37.862  30.902  29.800  1.00  0.00     0.037 A 
ATOM     49  C   UNL A   1      42.468  28.936  34.024  1.00  0.00     0.049 A 
ATOM     50  C   UNL A   1      38.140  31.201  31.249  1.00  0.00     0.074 A 
ATOM     51  C   UNL A   1      42.655  29.353  35.330  1.00  0.00     0.029 A 
ATOM     52  N   UNL A   1      41.352  29.605  33.544  1.00  0.00    -0.354 N 
ATOM     53  N   UNL A   1      39.110  30.763  32.016  1.00  0.00    -0.248 NA
ATOM     54  C   UNL A   1      37.214  32.122  31.921  1.00  0.00     0.031 C 
ATOM     55  C   UNL A   1      41.618  30.234  35.657  1.00  0.00     0.029 A 
ATOM     56  C   UNL A   1      40.824  30.414  34.536  1.00  0.00     0.049 A 
ATOM     57  H   UNL A   1      40.989  29.519  32.633  1.00  0.00     0.167 HD
ATOM     58  C   UNL A   1      38.934  31.382  33.247  1.00  0.00     0.074 A 
ATOM     59  C   UNL A   1      37.770  32.235  33.119  1.00  0.00     0.031 C 
ATOM     60  C   UNL A   1      39.669  31.263  34.381  1.00  0.00     0.037 A 
BRANCH  47  61
ATOM     61  C   UNL A   1      44.385  27.288  33.936  1.00  0.00     0.057 A 
ATOM     62  C   UNL A   1      44.220  26.072  34.613  1.00  0.00     0.134 A 
ATOM     63  C   UNL A   1      45.676  27.830  33.894  1.00  0.00     0.134 A 
ATOM     64  F   UNL A   1      43.008  25.506  34.710  1.00  0.00    -0.206 F 
ATOM     65  C   UNL A   1      45.291  25.436  35.245  1.00  0.00     0.040 A 
ATOM     66  C   UNL A   1      46.760  27.189  34.496  1.00  0.00     0.040 A 
ATOM     67  F   UNL A   1      45.907  28.991  33.262  1.00  0.00    -0.206 F 
ATOM     68  C   UNL A   1      46.568  25.991  35.181  1.00  0.00     0.006 A 
ENDBRANCH  47  61
BRANCH  48  69
ATOM     69  C   UNL A   1      36.719  31.539  29.097  1.00  0.00     0.057 A 
ATOM     70  C   UNL A   1      35.563  30.813  28.789  1.00  0.00     0.134 A 
ATOM     71  C   UNL A   1      36.763  32.880  28.699  1.00  0.00     0.134 A 
ATOM     72  F   UNL A   1      35.468  29.519  29.126  1.00  0.00    -0.206 F 
ATOM     73  C   UNL A   1      34.499  31.392  28.092  1.00  0.00     0.040 A 
ATOM     74  C   UNL A   1      35.698  33.479  28.027  1.00  0.00     0.040 A 
ATOM     75  F   UNL A   1      37.841  33.632  28.969  1.00  0.00    -0.206 F 
ATOM     76  C   UNL A   1      34.564  32.732  27.713  1.00  0.00     0.006 A 
ENDBRANCH  48  69
BRANCH  60  77
ATOM     77  C   UNL A   1      39.267  32.115  35.551  1.00  0.00     0.057 A 
ATOM     78  C   UNL A   1      39.700  33.440  35.694  1.00  0.00     0.134 A 
ATOM     79  C   UNL A   1      38.413  31.605  36.538  1.00  0.00     0.134 A 
ATOM     80  F   UNL A   1      40.529  33.985  34.790  1.00  0.00    -0.206 F 
ATOM     81  C   UNL A   1      39.327  34.214  36.793  1.00  0.00     0.040 A 
ATOM     82  C   UNL A   1      38.006  32.381  37.624  1.00  0.00     0.040 A 
ATOM     83  F   UNL A   1      37.949  30.349  36.455  1.00  0.00    -0.206 F 
ATOM     84  C   UNL A   1      38.472  33.686  37.759  1.00  0.00     0.006 A 
ENDBRANCH  60  77
ENDBRANCH  34  35
ENDBRANCH  27  29
ENDBRANCH  26  27
ENDBRANCH  25  26
ENDBRANCH  24  25
ENDBRANCH  23  24
ENDBRANCH   1  23
TORSDOF 17
ENDMDL
MODEL 3
REMARK VINA RESULT:     -10.7      2.599      3.718
REMARK SMILES O=C(Cc1cccc(-c2ccn(C(F)F)c(=O)c2)c1)OCCOCCOC(=O)c1ccc(-c2c3nc(c(-c4c(F)cccc4F)c4ccc([nH]4)c(-c4c(F)cccc4F)c4nc(c(-c5c(F)cccc5F)c5ccc2[nH]5)C=C4)C=C3)cc1
REMARK SMILES IDX 22 1 21 2 20 3 2 4 1 5 3 6 4 7 5 8 19 9 6 10 8 11 7 12 9 13
REMARK SMILES IDX 10 14 18 15 11 16 16 17 12 18 17 19 13 20 14 21 15 22 23 23
REMARK SMILES IDX 24 24 25 25 26 26 27 27 28 28 29 29 30 30 82 31 31 32 81 33
REMARK SMILES IDX 32 34 33 35 34 36 75 37 35 38 80 39 74 40 76 41 36 42 79 43
REMARK SMILES IDX 73 44 72 45 37 47 63 48 46 49 62 50 47 51 50 52 61 53 77 54
REMARK SMILES IDX 48 55 49 56 60 58 78 59 51 60 38 61 39 62 44 63 40 64 41 65
REMARK SMILES IDX 43 66 45 67 42 68 64 69 65 70 70 71 66 72 67 73 69 74 71 75
REMARK SMILES IDX 68 76 52 77 53 78 58 79 54 80 55 81 57 82 59 83 56 84
REMARK H PARENT 76 46 50 57
REMARK Flexibility Score: inf
ROOT
ATOM      1  C   UNL A   1      35.306  32.833  28.023  1.00  0.00     0.202 C 
ENDROOT
BRANCH   1   2
ATOM      2  C   UNL A   1      33.979  32.087  28.041  1.00  0.00     0.261 C 
BRANCH   2   3
ATOM      3  O   UNL A   1      34.025  30.772  27.460  1.00  0.00    -0.463 OA
BRANCH   3   4
ATOM      4  C   UNL A   1      32.964  30.035  27.044  1.00  0.00     0.310 C 
ATOM      5  O   UNL A   1      31.911  30.614  26.773  1.00  0.00    -0.252 OA
BRANCH   4   6
ATOM      6  C   UNL A   1      33.054  28.521  26.955  1.00  0.00     0.158 C 
BRANCH   6   7
ATOM      7  C   UNL A   1      33.430  27.995  25.596  1.00  0.00    -0.036 A 
ATOM      8  C   UNL A   1      33.292  28.779  24.445  1.00  0.00     0.004 A 
ATOM      9  C   UNL A   1      33.778  26.649  25.469  1.00  0.00     0.013 A 
ATOM     10  C   UNL A   1      33.414  28.191  23.183  1.00  0.00     0.001 A 
ATOM     11  C   UNL A   1      33.830  26.044  24.211  1.00  0.00    -0.018 A 
ATOM     12  C   UNL A   1      33.654  26.817  23.063  1.00  0.00     0.009 A 
BRANCH  11  13
ATOM     13  C   UNL A   1      33.941  24.581  24.212  1.00  0.00    -0.011 A 
ATOM     14  C   UNL A   1      32.767  23.730  24.154  1.00  0.00     0.027 A 
ATOM     15  C   UNL A   1      35.135  24.048  24.514  1.00  0.00     0.080 A 
ATOM     16  C   UNL A   1      32.854  22.439  24.490  1.00  0.00     0.095 A 
ATOM     17  C   UNL A   1      35.251  22.601  24.843  1.00  0.00     0.255 A 
ATOM     18  N   UNL A   1      34.067  21.881  24.846  1.00  0.00    -0.258 N 
ATOM     19  O   UNL A   1      36.358  22.157  25.129  1.00  0.00    -0.269 OA
BRANCH  18  20
ATOM     20  C   UNL A   1      34.137  20.512  25.286  1.00  0.00     0.451 C 
ATOM     21  F   UNL A   1      33.264  20.275  26.294  1.00  0.00    -0.185 F 
ATOM     22  F   UNL A   1      33.848  19.664  24.269  1.00  0.00    -0.185 F 
ENDBRANCH  18  20
ENDBRANCH  11  13
ENDBRANCH   6   7
ENDBRANCH   4   6
ENDBRANCH   3   4
ENDBRANCH   2   3
ENDBRANCH   1   2
BRANCH   1  23
ATOM     23  O   UNL A   1      35.519  33.796  29.048  1.00  0.00    -0.374 OA
BRANCH  23  24
ATOM     24  C   UNL A   1      34.381  34.138  29.850  1.00  0.00     0.202 C 
BRANCH  24  25
ATOM     25  C   UNL A   1      34.472  33.827  31.347  1.00  0.00     0.261 C 
BRANCH  25  26
ATOM     26  O   UNL A   1      34.594  32.415  31.587  1.00  0.00    -0.460 OA
BRANCH  26  27
ATOM     27  C   UNL A   1      35.584  32.074  32.440  1.00  0.00     0.338 C 
ATOM     28  O   UNL A   1      35.654  32.338  33.634  1.00  0.00    -0.246 OA
BRANCH  27  29
ATOM     29  C   UNL A   1      36.514  31.134  31.784  1.00  0.00     0.060 A 
ATOM     30  C   UNL A   1      37.643  30.740  32.514  1.00  0.00     0.016 A 
ATOM     31  C   UNL A   1      36.327  30.701  30.469  1.00  0.00     0.016 A 
ATOM     32  C   UNL A   1      38.650  30.011  31.895  1.00  0.00     0.010 A 
ATOM     33  C   UNL A   1      37.340  29.967  29.847  1.00  0.00     0.010 A 
ATOM     34  C   UNL A   1      38.532  29.686  30.538  1.00  0.00    -0.014 A 
BRANCH  34  35
ATOM     35  C   UNL A   1      39.751  29.290  29.800  1.00  0.00     0.031 A 
ATOM     36  C   UNL A   1      40.849  30.309  29.644  1.00  0.00     0.074 A 
ATOM     37  C   UNL A   1      39.910  28.035  29.350  1.00  0.00     0.049 A 
ATOM     38  N   UNL A   1      42.017  30.193  29.068  1.00  0.00    -0.248 NA
ATOM     39  C   UNL A   1      40.593  31.643  30.215  1.00  0.00     0.031 C 
ATOM     40  C   UNL A   1      38.932  26.957  29.488  1.00  0.00     0.029 A 
ATOM     41  N   UNL A   1      40.962  27.457  28.690  1.00  0.00    -0.354 N 
ATOM     42  C   UNL A   1      42.625  31.437  29.195  1.00  0.00     0.074 A 
ATOM     43  C   UNL A   1      41.685  32.304  29.869  1.00  0.00     0.031 C 
ATOM     44  C   UNL A   1      39.434  25.842  28.932  1.00  0.00     0.029 A 
ATOM     45  C   UNL A   1      40.753  26.136  28.376  1.00  0.00     0.049 A 
ATOM     46  H   UNL A   1      41.789  27.940  28.463  1.00  0.00     0.167 HD
ATOM     47  C   UNL A   1      43.860  31.819  28.795  1.00  0.00     0.037 A 
ATOM     48  C   UNL A   1      41.541  25.273  27.708  1.00  0.00     0.037 A 
ATOM     49  C   UNL A   1      44.792  30.946  28.135  1.00  0.00     0.049 A 
ATOM     50  C   UNL A   1      42.890  25.738  27.226  1.00  0.00     0.074 A 
ATOM     51  C   UNL A   1      46.078  31.220  27.707  1.00  0.00     0.029 A 
ATOM     52  N   UNL A   1      44.531  29.625  27.801  1.00  0.00    -0.354 N 
ATOM     53  N   UNL A   1      43.467  26.907  27.375  1.00  0.00    -0.248 NA
ATOM     54  C   UNL A   1      43.701  24.758  26.492  1.00  0.00     0.031 C 
ATOM     55  C   UNL A   1      46.575  30.080  27.065  1.00  0.00     0.029 A 
ATOM     56  C   UNL A   1      45.623  29.077  27.150  1.00  0.00     0.049 A 
ATOM     57  H   UNL A   1      43.693  29.147  27.999  1.00  0.00     0.167 HD
ATOM     58  C   UNL A   1      44.721  26.791  26.788  1.00  0.00     0.074 A 
ATOM     59  C   UNL A   1      44.823  25.434  26.291  1.00  0.00     0.031 C 
ATOM     60  C   UNL A   1      45.704  27.720  26.673  1.00  0.00     0.037 A 
BRANCH  47  61
ATOM     61  C   UNL A   1      44.253  33.250  29.030  1.00  0.00     0.057 A 
ATOM     62  C   UNL A   1      44.048  34.249  28.069  1.00  0.00     0.134 A 
ATOM     63  C   UNL A   1      44.835  33.635  30.245  1.00  0.00     0.134 A 
ATOM     64  F   UNL A   1      43.514  33.947  26.876  1.00  0.00    -0.206 F 
ATOM     65  C   UNL A   1      44.432  35.573  28.298  1.00  0.00     0.040 A 
ATOM     66  C   UNL A   1      45.196  34.960  30.496  1.00  0.00     0.040 A 
ATOM     67  F   UNL A   1      45.060  32.730  31.210  1.00  0.00    -0.206 F 
ATOM     68  C   UNL A   1      45.001  35.932  29.518  1.00  0.00     0.006 A 
ENDBRANCH  47  61
BRANCH  48  69
ATOM     69  C   UNL A   1      41.084  23.881  27.466  1.00  0.00     0.057 A 
ATOM     70  C   UNL A   1      40.107  23.596  26.505  1.00  0.00     0.134 A 
ATOM     71  C   UNL A   1      41.598  22.807  28.200  1.00  0.00     0.134 A 
ATOM     72  F   UNL A   1      39.562  24.585  25.782  1.00  0.00    -0.206 F 
ATOM     73  C   UNL A   1      39.642  22.296  26.298  1.00  0.00     0.040 A 
ATOM     74  C   UNL A   1      41.163  21.499  27.986  1.00  0.00     0.040 A 
ATOM     75  F   UNL A   1      42.542  23.012  29.131  1.00  0.00    -0.206 F 
ATOM     76  C   UNL A   1      40.175  21.241  27.038  1.00  0.00     0.006 A 
ENDBRANCH  48  69
BRANCH  60  77
ATOM     77  C   UNL A   1      46.990  27.280  26.034  1.00  0.00     0.057 A 
ATOM     78  C   UNL A   1      47.252  27.475  24.672  1.00  0.00     0.134 A 
ATOM     79  C   UNL A   1      47.991  26.671  26.803  1.00  0.00     0.134 A 
ATOM     80  F   UNL A   1      46.331  28.043  23.877  1.00  0.00    -0.206 F 
ATOM     81  C   UNL A   1      48.448  27.050  24.091  1.00  0.00     0.040 A 
ATOM     82  C   UNL A   1      49.204  26.272  26.241  1.00  0.00     0.040 A 
ATOM     83  F   UNL A   1      47.811  26.466  28.117  1.00  0.00    -0.206 F 
ATOM     84  C   UNL A   1      49.430  26.451  24.878  1.00  0.00     0.006 A 
ENDBRANCH  60  77
ENDBRANCH  34  35
ENDBRANCH  27  29
ENDBRANCH  26  27
ENDBRANCH  25  26
ENDBRANCH  24  25
ENDBRANCH  23  24
ENDBRANCH   1  23
TORSDOF 17
ENDMDL
