MODEL 1
REMARK VINA RESULT:     -10.4      0.000      0.000
REMARK SMILES CC(C)(C)OC(=O)N1CCC[C@H]1C(=O)N[C@@H](Cc1ccccc1)C(=O)OCCOCCOC(=O)c1ccc(-c2c3nc(c(-c4c(F)cccc4F)c4ccc([nH]4)c(-c4c(F)cccc4F)c4nc(c(-c5c(F)cccc5F)c5ccc2[nH]5)C=C4)C=C3)cc1
REMARK SMILES IDX 27 1 26 2 24 3 25 4 16 5 15 6 13 7 14 8 12 10 8 11 9 12
REMARK SMILES IDX 10 13 11 14 6 15 7 16 5 17 2 18 1 19 3 20 4 21 17 22 18 23
REMARK SMILES IDX 19 24 23 25 20 26 22 27 21 28 28 29 29 30 30 31 31 32 32 33
REMARK SMILES IDX 33 34 34 35 35 36 36 37 88 38 37 39 87 40 38 41 39 42 40 43
REMARK SMILES IDX 81 44 41 45 86 46 80 47 82 48 42 49 85 50 79 51 78 52 43 54
REMARK SMILES IDX 69 55 52 56 68 57 53 58 56 59 67 60 83 61 54 62 55 63 66 65
REMARK SMILES IDX 84 66 57 67 44 68 45 69 50 70 46 71 47 72 49 73 51 74 48 75
REMARK SMILES IDX 70 76 71 77 76 78 72 79 73 80 75 81 77 82 74 83 58 84 59 85
REMARK SMILES IDX 64 86 60 87 61 88 63 89 65 90 62 91
REMARK H PARENT 15 9 82 53 56 64
REMARK Flexibility Score: inf
ROOT
ATOM      1  C   UNL A   1      37.121  23.618  24.941  1.00  0.00     0.261 C 
ENDROOT
BRANCH   1   2
ATOM      2  O   UNL A   1      35.772  23.959  25.291  1.00  0.00    -0.462 OA
BRANCH   2   3
ATOM      3  C   UNL A   1      34.938  24.054  24.221  1.00  0.00     0.329 C 
ATOM      4  O   UNL A   1      35.249  23.718  23.082  1.00  0.00    -0.250 OA
BRANCH   3   5
ATOM      5  C   UNL A   1      33.593  24.714  24.534  1.00  0.00     0.196 C 
BRANCH   5   6
ATOM      6  N   UNL A   1      32.379  24.053  24.053  1.00  0.00    -0.341 N 
ATOM      7  C   UNL A   1      31.420  24.427  23.164  1.00  0.00     0.243 C 
ATOM      8  O   UNL A   1      30.430  23.679  23.118  1.00  0.00    -0.273 OA
ATOM      9  H   UNL A   1      32.227  23.165  24.450  1.00  0.00     0.164 HD
BRANCH   7  10
ATOM     10  C   UNL A   1      31.419  25.733  22.296  1.00  0.00     0.178 C 
ATOM     11  N   UNL A   1      31.083  27.029  22.882  1.00  0.00    -0.296 N 
ATOM     12  C   UNL A   1      32.265  27.824  23.131  1.00  0.00     0.124 C 
ATOM     13  C   UNL A   1      33.196  27.411  22.008  1.00  0.00     0.024 C 
ATOM     14  C   UNL A   1      32.858  25.942  21.759  1.00  0.00     0.037 C 
BRANCH  11  15
ATOM     15  C   UNL A   1      29.788  27.490  22.955  1.00  0.00     0.410 C 
ATOM     16  O   UNL A   1      28.992  27.059  23.782  1.00  0.00    -0.224 OA
BRANCH  15  17
ATOM     17  O   UNL A   1      29.578  28.550  22.137  1.00  0.00    -0.444 OA
BRANCH  17  18
ATOM     18  C   UNL A   1      29.042  29.833  22.585  1.00  0.00     0.106 C 
ATOM     19  C   UNL A   1      27.562  29.566  22.874  1.00  0.00     0.056 C 
ATOM     20  C   UNL A   1      29.125  30.839  21.433  1.00  0.00     0.056 C 
ATOM     21  C   UNL A   1      29.705  30.440  23.825  1.00  0.00     0.056 C 
ENDBRANCH  17  18
ENDBRANCH  15  17
ENDBRANCH  11  15
ENDBRANCH   7  10
ENDBRANCH   5   6
BRANCH   5  22
ATOM     22  C   UNL A   1      33.512  25.057  26.034  1.00  0.00     0.072 C 
BRANCH  22  23
ATOM     23  C   UNL A   1      33.070  26.480  26.287  1.00  0.00    -0.045 A 
ATOM     24  C   UNL A   1      34.007  27.526  26.272  1.00  0.00     0.004 A 
ATOM     25  C   UNL A   1      31.740  26.765  26.609  1.00  0.00     0.004 A 
ATOM     26  C   UNL A   1      33.640  28.814  26.653  1.00  0.00     0.000 A 
ATOM     27  C   UNL A   1      31.367  28.064  26.956  1.00  0.00     0.000 A 
ATOM     28  C   UNL A   1      32.320  29.081  27.001  1.00  0.00     0.000 A 
ENDBRANCH  22  23
ENDBRANCH   5  22
ENDBRANCH   3   5
ENDBRANCH   2   3
ENDBRANCH   1   2
BRANCH   1  29
ATOM     29  C   UNL A   1      38.091  23.678  26.123  1.00  0.00     0.202 C 
BRANCH  29  30
ATOM     30  O   UNL A   1      38.954  22.577  26.361  1.00  0.00    -0.374 OA
BRANCH  30  31
ATOM     31  C   UNL A   1      38.758  21.376  25.623  1.00  0.00     0.202 C 
BRANCH  31  32
ATOM     32  C   UNL A   1      39.486  20.083  26.027  1.00  0.00     0.261 C 
BRANCH  32  33
ATOM     33  O   UNL A   1      40.725  19.860  25.336  1.00  0.00    -0.460 OA
BRANCH  33  34
ATOM     34  C   UNL A   1      41.784  19.624  26.148  1.00  0.00     0.338 C 
ATOM     35  O   UNL A   1      42.317  18.553  26.386  1.00  0.00    -0.246 OA
BRANCH  34  36
ATOM     36  C   UNL A   1      42.371  20.900  26.582  1.00  0.00     0.060 A 
ATOM     37  C   UNL A   1      42.341  21.205  27.950  1.00  0.00     0.016 A 
ATOM     38  C   UNL A   1      42.831  21.830  25.651  1.00  0.00     0.016 A 
ATOM     39  C   UNL A   1      42.753  22.456  28.392  1.00  0.00     0.010 A 
ATOM     40  C   UNL A   1      43.224  23.095  26.095  1.00  0.00     0.010 A 
ATOM     41  C   UNL A   1      43.157  23.420  27.462  1.00  0.00    -0.014 A 
BRANCH  41  42
ATOM     42  C   UNL A   1      43.369  24.812  27.917  1.00  0.00     0.031 A 
ATOM     43  C   UNL A   1      44.769  25.285  28.181  1.00  0.00     0.074 A 
ATOM     44  C   UNL A   1      42.326  25.648  28.046  1.00  0.00     0.049 A 
ATOM     45  N   UNL A   1      45.183  26.446  28.620  1.00  0.00    -0.248 NA
ATOM     46  C   UNL A   1      45.848  24.321  27.914  1.00  0.00     0.031 C 
ATOM     47  C   UNL A   1      40.932  25.309  27.761  1.00  0.00     0.029 A 
ATOM     48  N   UNL A   1      42.281  26.955  28.455  1.00  0.00    -0.354 N 
ATOM     49  C   UNL A   1      46.566  26.349  28.692  1.00  0.00     0.074 A 
ATOM     50  C   UNL A   1      46.921  25.009  28.277  1.00  0.00     0.031 C 
ATOM     51  C   UNL A   1      40.165  26.383  28.015  1.00  0.00     0.029 A 
ATOM     52  C   UNL A   1      41.008  27.465  28.517  1.00  0.00     0.049 A 
ATOM     53  H   UNL A   1      43.083  27.478  28.681  1.00  0.00     0.167 HD
ATOM     54  C   UNL A   1      47.459  27.296  29.065  1.00  0.00     0.037 A 
ATOM     55  C   UNL A   1      40.576  28.661  28.958  1.00  0.00     0.037 A 
ATOM     56  C   UNL A   1      47.094  28.626  29.480  1.00  0.00     0.049 A 
ATOM     57  C   UNL A   1      41.582  29.668  29.451  1.00  0.00     0.074 A 
ATOM     58  C   UNL A   1      47.921  29.666  29.864  1.00  0.00     0.029 A 
ATOM     59  N   UNL A   1      45.791  29.093  29.573  1.00  0.00    -0.354 N 
ATOM     60  N   UNL A   1      42.889  29.577  29.499  1.00  0.00    -0.248 NA
ATOM     61  C   UNL A   1      41.050  30.944  29.951  1.00  0.00     0.031 C 
ATOM     62  C   UNL A   1      47.115  30.743  30.246  1.00  0.00     0.029 A 
ATOM     63  C   UNL A   1      45.789  30.396  30.041  1.00  0.00     0.049 A 
ATOM     64  H   UNL A   1      44.987  28.574  29.341  1.00  0.00     0.167 HD
ATOM     65  C   UNL A   1      43.338  30.790  30.006  1.00  0.00     0.074 A 
ATOM     66  C   UNL A   1      42.163  31.605  30.236  1.00  0.00     0.031 C 
ATOM     67  C   UNL A   1      44.608  31.194  30.259  1.00  0.00     0.037 A 
BRANCH  54  68
ATOM     68  C   UNL A   1      48.912  26.915  29.079  1.00  0.00     0.057 A 
ATOM     69  C   UNL A   1      49.745  27.116  27.972  1.00  0.00     0.134 A 
ATOM     70  C   UNL A   1      49.490  26.362  30.229  1.00  0.00     0.134 A 
ATOM     71  F   UNL A   1      49.252  27.628  26.833  1.00  0.00    -0.206 F 
ATOM     72  C   UNL A   1      51.096  26.760  27.999  1.00  0.00     0.040 A 
ATOM     73  C   UNL A   1      50.845  26.029  30.279  1.00  0.00     0.040 A 
ATOM     74  F   UNL A   1      48.751  26.145  31.327  1.00  0.00    -0.206 F 
ATOM     75  C   UNL A   1      51.650  26.221  29.159  1.00  0.00     0.006 A 
ENDBRANCH  54  68
BRANCH  55  76
ATOM     76  C   UNL A   1      39.122  28.964  28.978  1.00  0.00     0.057 A 
ATOM     77  C   UNL A   1      38.469  29.459  27.844  1.00  0.00     0.134 A 
ATOM     78  C   UNL A   1      38.355  28.780  30.135  1.00  0.00     0.134 A 
ATOM     79  F   UNL A   1      39.151  29.677  26.712  1.00  0.00    -0.206 F 
ATOM     80  C   UNL A   1      37.109  29.778  27.866  1.00  0.00     0.040 A 
ATOM     81  C   UNL A   1      36.990  29.067  30.163  1.00  0.00     0.040 A 
ATOM     82  F   UNL A   1      38.921  28.303  31.254  1.00  0.00    -0.206 F 
ATOM     83  C   UNL A   1      36.366  29.576  29.027  1.00  0.00     0.006 A 
ENDBRANCH  55  76
BRANCH  67  84
ATOM     84  C   UNL A   1      44.796  32.592  30.777  1.00  0.00     0.057 A 
ATOM     85  C   UNL A   1      44.923  33.690  29.918  1.00  0.00     0.134 A 
ATOM     86  C   UNL A   1      44.805  32.845  32.156  1.00  0.00     0.134 A 
ATOM     87  F   UNL A   1      44.935  33.516  28.588  1.00  0.00    -0.206 F 
ATOM     88  C   UNL A   1      45.077  34.987  30.411  1.00  0.00     0.040 A 
ATOM     89  C   UNL A   1      44.927  34.140  32.659  1.00  0.00     0.040 A 
ATOM     90  F   UNL A   1      44.677  31.840  33.034  1.00  0.00    -0.206 F 
ATOM     91  C   UNL A   1      45.071  35.216  31.785  1.00  0.00     0.006 A 
ENDBRANCH  67  84
ENDBRANCH  41  42
ENDBRANCH  34  36
ENDBRANCH  33  34
ENDBRANCH  32  33
ENDBRANCH  31  32
ENDBRANCH  30  31
ENDBRANCH  29  30
ENDBRANCH   1  29
TORSDOF 21
ENDMDL
MODEL 2
REMARK VINA RESULT:     -10.1      1.526      2.954
REMARK SMILES CC(C)(C)OC(=O)N1CCC[C@H]1C(=O)N[C@@H](Cc1ccccc1)C(=O)OCCOCCOC(=O)c1ccc(-c2c3nc(c(-c4c(F)cccc4F)c4ccc([nH]4)c(-c4c(F)cccc4F)c4nc(c(-c5c(F)cccc5F)c5ccc2[nH]5)C=C4)C=C3)cc1
REMARK SMILES IDX 27 1 26 2 24 3 25 4 16 5 15 6 13 7 14 8 12 10 8 11 9 12
REMARK SMILES IDX 10 13 11 14 6 15 7 16 5 17 2 18 1 19 3 20 4 21 17 22 18 23
REMARK SMILES IDX 19 24 23 25 20 26 22 27 21 28 28 29 29 30 30 31 31 32 32 33
REMARK SMILES IDX 33 34 34 35 35 36 36 37 88 38 37 39 87 40 38 41 39 42 40 43
REMARK SMILES IDX 81 44 41 45 86 46 80 47 82 48 42 49 85 50 79 51 78 52 43 54
REMARK SMILES IDX 69 55 52 56 68 57 53 58 56 59 67 60 83 61 54 62 55 63 66 65
REMARK SMILES IDX 84 66 57 67 44 68 45 69 50 70 46 71 47 72 49 73 51 74 48 75
REMARK SMILES IDX 70 76 71 77 76 78 72 79 73 80 75 81 77 82 74 83 58 84 59 85
REMARK SMILES IDX 64 86 60 87 61 88 63 89 65 90 62 91
REMARK H PARENT 15 9 82 53 56 64
REMARK Flexibility Score: inf
ROOT
ATOM      1  C   UNL A   1      35.823  22.674  25.730  1.00  0.00     0.261 C 
ENDROOT
BRANCH   1   2
ATOM      2  O   UNL A   1      35.054  23.843  26.042  1.00  0.00    -0.462 OA
BRANCH   2   3
ATOM      3  C   UNL A   1      33.836  23.568  26.580  1.00  0.00     0.329 C 
ATOM      4  O   UNL A   1      33.665  22.803  27.525  1.00  0.00    -0.250 OA
BRANCH   3   5
ATOM      5  C   UNL A   1      32.664  24.220  25.842  1.00  0.00     0.196 C 
BRANCH   5   6
ATOM      6  N   UNL A   1      32.958  24.966  24.616  1.00  0.00    -0.341 N 
ATOM      7  C   UNL A   1      32.341  26.013  24.008  1.00  0.00     0.243 C 
ATOM      8  O   UNL A   1      32.775  26.291  22.879  1.00  0.00    -0.273 OA
ATOM      9  H   UNL A   1      33.758  24.646  24.140  1.00  0.00     0.164 HD
BRANCH   7  10
ATOM     10  C   UNL A   1      31.105  26.807  24.557  1.00  0.00     0.178 C 
ATOM     11  N   UNL A   1      30.804  28.157  24.085  1.00  0.00    -0.296 N 
ATOM     12  C   UNL A   1      29.717  28.158  23.133  1.00  0.00     0.124 C 
ATOM     13  C   UNL A   1      28.843  27.016  23.610  1.00  0.00     0.024 C 
ATOM     14  C   UNL A   1      29.830  26.005  24.192  1.00  0.00     0.037 C 
BRANCH  11  15
ATOM     15  C   UNL A   1      31.347  29.279  24.669  1.00  0.00     0.410 C 
ATOM     16  O   UNL A   1      30.693  30.301  24.843  1.00  0.00    -0.224 OA
BRANCH  15  17
ATOM     17  O   UNL A   1      32.593  29.050  25.152  1.00  0.00    -0.444 OA
BRANCH  17  18
ATOM     18  C   UNL A   1      32.960  29.182  26.559  1.00  0.00     0.106 C 
ATOM     19  C   UNL A   1      34.166  28.256  26.745  1.00  0.00     0.056 C 
ATOM     20  C   UNL A   1      31.817  28.649  27.427  1.00  0.00     0.056 C 
ATOM     21  C   UNL A   1      33.323  30.595  27.027  1.00  0.00     0.056 C 
ENDBRANCH  17  18
ENDBRANCH  15  17
ENDBRANCH  11  15
ENDBRANCH   7  10
ENDBRANCH   5   6
BRANCH   5  22
ATOM     22  C   UNL A   1      31.533  23.194  25.639  1.00  0.00     0.072 C 
BRANCH  22  23
ATOM     23  C   UNL A   1      31.888  22.119  24.638  1.00  0.00    -0.045 A 
ATOM     24  C   UNL A   1      31.814  22.381  23.260  1.00  0.00     0.004 A 
ATOM     25  C   UNL A   1      32.227  20.832  25.067  1.00  0.00     0.004 A 
ATOM     26  C   UNL A   1      31.990  21.359  22.333  1.00  0.00     0.000 A 
ATOM     27  C   UNL A   1      32.438  19.817  24.134  1.00  0.00     0.000 A 
ATOM     28  C   UNL A   1      32.297  20.074  22.770  1.00  0.00     0.000 A 
ENDBRANCH  22  23
ENDBRANCH   5  22
ENDBRANCH   3   5
ENDBRANCH   2   3
ENDBRANCH   1   2
BRANCH   1  29
ATOM     29  C   UNL A   1      37.334  22.919  25.739  1.00  0.00     0.202 C 
BRANCH  29  30
ATOM     30  O   UNL A   1      38.179  22.025  25.032  1.00  0.00    -0.374 OA
BRANCH  30  31
ATOM     31  C   UNL A   1      37.865  20.637  25.029  1.00  0.00     0.202 C 
BRANCH  31  32
ATOM     32  C   UNL A   1      38.962  19.587  25.272  1.00  0.00     0.261 C 
BRANCH  32  33
ATOM     33  O   UNL A   1      39.740  19.806  26.458  1.00  0.00    -0.460 OA
BRANCH  33  34
ATOM     34  C   UNL A   1      41.079  19.694  26.278  1.00  0.00     0.338 C 
ATOM     35  O   UNL A   1      41.687  18.778  25.750  1.00  0.00    -0.246 OA
BRANCH  34  36
ATOM     36  C   UNL A   1      41.736  20.959  26.640  1.00  0.00     0.060 A 
ATOM     37  C   UNL A   1      41.839  21.280  28.000  1.00  0.00     0.016 A 
ATOM     38  C   UNL A   1      42.133  21.866  25.658  1.00  0.00     0.016 A 
ATOM     39  C   UNL A   1      42.322  22.524  28.386  1.00  0.00     0.010 A 
ATOM     40  C   UNL A   1      42.598  23.124  26.047  1.00  0.00     0.010 A 
ATOM     41  C   UNL A   1      42.665  23.466  27.410  1.00  0.00    -0.014 A 
BRANCH  41  42
ATOM     42  C   UNL A   1      42.953  24.856  27.825  1.00  0.00     0.031 A 
ATOM     43  C   UNL A   1      44.383  25.297  27.947  1.00  0.00     0.074 A 
ATOM     44  C   UNL A   1      41.948  25.720  28.043  1.00  0.00     0.049 A 
ATOM     45  N   UNL A   1      44.866  26.451  28.329  1.00  0.00    -0.248 NA
ATOM     46  C   UNL A   1      45.408  24.303  27.589  1.00  0.00     0.031 C 
ATOM     47  C   UNL A   1      40.526  25.415  27.898  1.00  0.00     0.029 A 
ATOM     48  N   UNL A   1      41.975  27.032  28.438  1.00  0.00    -0.354 N 
ATOM     49  C   UNL A   1      46.247  26.320  28.269  1.00  0.00     0.074 A 
ATOM     50  C   UNL A   1      46.527  24.967  27.839  1.00  0.00     0.031 C 
ATOM     51  C   UNL A   1      39.813  26.510  28.212  1.00  0.00     0.029 A 
ATOM     52  C   UNL A   1      40.727  27.575  28.616  1.00  0.00     0.049 A 
ATOM     53  H   UNL A   1      42.808  27.537  28.579  1.00  0.00     0.167 HD
ATOM     54  C   UNL A   1      47.194  27.248  28.542  1.00  0.00     0.037 A 
ATOM     55  C   UNL A   1      40.368  28.786  29.082  1.00  0.00     0.037 A 
ATOM     56  C   UNL A   1      46.904  28.590  28.973  1.00  0.00     0.049 A 
ATOM     57  C   UNL A   1      41.441  29.772  29.462  1.00  0.00     0.074 A 
ATOM     58  C   UNL A   1      47.789  29.613  29.262  1.00  0.00     0.029 A 
ATOM     59  N   UNL A   1      45.628  29.091  29.185  1.00  0.00    -0.354 N 
ATOM     60  N   UNL A   1      42.745  29.649  29.386  1.00  0.00    -0.248 NA
ATOM     61  C   UNL A   1      40.992  31.067  29.995  1.00  0.00     0.031 C 
ATOM     62  C   UNL A   1      47.050  30.715  29.707  1.00  0.00     0.029 A 
ATOM     63  C   UNL A   1      45.703  30.399  29.635  1.00  0.00     0.049 A 
ATOM     64  H   UNL A   1      44.793  28.591  29.038  1.00  0.00     0.167 HD
ATOM     65  C   UNL A   1      43.270  30.855  29.832  1.00  0.00     0.074 A 
ATOM     66  C   UNL A   1      42.143  31.702  30.163  1.00  0.00     0.031 C 
ATOM     67  C   UNL A   1      44.568  31.229  29.956  1.00  0.00     0.037 A 
BRANCH  54  68
ATOM     68  C   UNL A   1      48.632  26.830  28.421  1.00  0.00     0.057 A 
ATOM     69  C   UNL A   1      49.359  27.000  27.236  1.00  0.00     0.134 A 
ATOM     70  C   UNL A   1      49.305  26.273  29.517  1.00  0.00     0.134 A 
ATOM     71  F   UNL A   1      48.772  27.513  26.144  1.00  0.00    -0.206 F 
ATOM     72  C   UNL A   1      50.697  26.610  27.138  1.00  0.00     0.040 A 
ATOM     73  C   UNL A   1      50.649  25.906  29.440  1.00  0.00     0.040 A 
ATOM     74  F   UNL A   1      48.669  26.085  30.683  1.00  0.00    -0.206 F 
ATOM     75  C   UNL A   1      51.348  26.067  28.245  1.00  0.00     0.006 A 
ENDBRANCH  54  68
BRANCH  55  76
ATOM     76  C   UNL A   1      38.931  29.126  29.237  1.00  0.00     0.057 A 
ATOM     77  C   UNL A   1      38.192  29.657  28.175  1.00  0.00     0.134 A 
ATOM     78  C   UNL A   1      38.267  28.943  30.457  1.00  0.00     0.134 A 
ATOM     79  F   UNL A   1      38.775  29.876  26.988  1.00  0.00    -0.206 F 
ATOM     80  C   UNL A   1      36.849  30.010  28.325  1.00  0.00     0.040 A 
ATOM     81  C   UNL A   1      36.919  29.264  30.612  1.00  0.00     0.040 A 
ATOM     82  F   UNL A   1      38.919  28.433  31.513  1.00  0.00    -0.206 F 
ATOM     83  C   UNL A   1      36.208  29.808  29.545  1.00  0.00     0.006 A 
ENDBRANCH  55  76
BRANCH  67  84
ATOM     84  C   UNL A   1      44.839  32.627  30.436  1.00  0.00     0.057 A 
ATOM     85  C   UNL A   1      45.061  32.917  31.787  1.00  0.00     0.134 A 
ATOM     86  C   UNL A   1      44.924  33.688  29.524  1.00  0.00     0.134 A 
ATOM     87  F   UNL A   1      44.982  31.949  32.713  1.00  0.00    -0.206 F 
ATOM     88  C   UNL A   1      45.332  34.217  32.219  1.00  0.00     0.040 A 
ATOM     89  C   UNL A   1      45.225  34.985  29.940  1.00  0.00     0.040 A 
ATOM     90  F   UNL A   1      44.733  33.478  28.213  1.00  0.00    -0.206 F 
ATOM     91  C   UNL A   1      45.423  35.254  31.293  1.00  0.00     0.006 A 
ENDBRANCH  67  84
ENDBRANCH  41  42
ENDBRANCH  34  36
ENDBRANCH  33  34
ENDBRANCH  32  33
ENDBRANCH  31  32
ENDBRANCH  30  31
ENDBRANCH  29  30
ENDBRANCH   1  29
TORSDOF 21
ENDMDL
MODEL 3
REMARK VINA RESULT:     -10.0      3.752      5.264
REMARK SMILES CC(C)(C)OC(=O)N1CCC[C@H]1C(=O)N[C@@H](Cc1ccccc1)C(=O)OCCOCCOC(=O)c1ccc(-c2c3nc(c(-c4c(F)cccc4F)c4ccc([nH]4)c(-c4c(F)cccc4F)c4nc(c(-c5c(F)cccc5F)c5ccc2[nH]5)C=C4)C=C3)cc1
REMARK SMILES IDX 27 1 26 2 24 3 25 4 16 5 15 6 13 7 14 8 12 10 8 11 9 12
REMARK SMILES IDX 10 13 11 14 6 15 7 16 5 17 2 18 1 19 3 20 4 21 17 22 18 23
REMARK SMILES IDX 19 24 23 25 20 26 22 27 21 28 28 29 29 30 30 31 31 32 32 33
REMARK SMILES IDX 33 34 34 35 35 36 36 37 88 38 37 39 87 40 38 41 39 42 40 43
REMARK SMILES IDX 81 44 41 45 86 46 80 47 82 48 42 49 85 50 79 51 78 52 43 54
REMARK SMILES IDX 69 55 52 56 68 57 53 58 56 59 67 60 83 61 54 62 55 63 66 65
REMARK SMILES IDX 84 66 57 67 44 68 45 69 50 70 46 71 47 72 49 73 51 74 48 75
REMARK SMILES IDX 70 76 71 77 76 78 72 79 73 80 75 81 77 82 74 83 58 84 59 85
REMARK SMILES IDX 64 86 60 87 61 88 63 89 65 90 62 91
REMARK H PARENT 15 9 82 53 56 64
REMARK Flexibility Score: inf
ROOT
ATOM      1  C   UNL A   1      34.675  23.023  25.479  1.00  0.00     0.261 C 
ENDROOT
BRANCH   1   2
ATOM      2  O   UNL A   1      34.007  24.281  25.640  1.00  0.00    -0.462 OA
BRANCH   2   3
ATOM      3  C   UNL A   1      32.887  24.406  24.881  1.00  0.00     0.329 C 
ATOM      4  O   UNL A   1      32.577  23.624  23.988  1.00  0.00    -0.250 OA
BRANCH   3   5
ATOM      5  C   UNL A   1      32.077  25.674  25.165  1.00  0.00     0.196 C 
BRANCH   5   6
ATOM      6  N   UNL A   1      30.658  25.675  24.802  1.00  0.00    -0.341 N 
ATOM      7  C   UNL A   1      29.940  26.403  23.906  1.00  0.00     0.243 C 
ATOM      8  O   UNL A   1      28.710  26.254  23.977  1.00  0.00    -0.273 OA
ATOM      9  H   UNL A   1      30.120  25.022  25.305  1.00  0.00     0.164 HD
BRANCH   7  10
ATOM     10  C   UNL A   1      30.515  27.453  22.891  1.00  0.00     0.178 C 
ATOM     11  N   UNL A   1      31.096  28.711  23.356  1.00  0.00    -0.296 N 
ATOM     12  C   UNL A   1      32.541  28.673  23.325  1.00  0.00     0.124 C 
ATOM     13  C   UNL A   1      32.834  27.779  22.137  1.00  0.00     0.024 C 
ATOM     14  C   UNL A   1      31.680  26.778  22.125  1.00  0.00     0.037 C 
BRANCH  11  15
ATOM     15  C   UNL A   1      30.337  29.840  23.562  1.00  0.00     0.410 C 
ATOM     16  O   UNL A   1      30.368  30.457  24.621  1.00  0.00    -0.224 OA
BRANCH  15  17
ATOM     17  O   UNL A   1      29.711  30.248  22.431  1.00  0.00    -0.444 OA
BRANCH  17  18
ATOM     18  C   UNL A   1      28.275  30.492  22.336  1.00  0.00     0.106 C 
ATOM     19  C   UNL A   1      28.025  30.824  20.861  1.00  0.00     0.056 C 
ATOM     20  C   UNL A   1      27.922  31.730  23.165  1.00  0.00     0.056 C 
ATOM     21  C   UNL A   1      27.368  29.333  22.761  1.00  0.00     0.056 C 
ENDBRANCH  17  18
ENDBRANCH  15  17
ENDBRANCH  11  15
ENDBRANCH   7  10
ENDBRANCH   5   6
BRANCH   5  22
ATOM     22  C   UNL A   1      32.304  26.128  26.620  1.00  0.00     0.072 C 
BRANCH  22  23
ATOM     23  C   UNL A   1      32.717  27.578  26.724  1.00  0.00    -0.045 A 
ATOM     24  C   UNL A   1      34.064  27.944  26.574  1.00  0.00     0.004 A 
ATOM     25  C   UNL A   1      31.777  28.564  27.040  1.00  0.00     0.004 A 
ATOM     26  C   UNL A   1      34.477  29.251  26.819  1.00  0.00     0.000 A 
ATOM     27  C   UNL A   1      32.188  29.881  27.250  1.00  0.00     0.000 A 
ATOM     28  C   UNL A   1      33.538  30.219  27.163  1.00  0.00     0.000 A 
ENDBRANCH  22  23
ENDBRANCH   5  22
ENDBRANCH   3   5
ENDBRANCH   2   3
ENDBRANCH   1   2
BRANCH   1  29
ATOM     29  C   UNL A   1      36.181  23.158  25.239  1.00  0.00     0.202 C 
BRANCH  29  30
ATOM     30  O   UNL A   1      37.074  22.387  26.028  1.00  0.00    -0.374 OA
BRANCH  30  31
ATOM     31  C   UNL A   1      38.158  21.721  25.390  1.00  0.00     0.202 C 
BRANCH  31  32
ATOM     32  C   UNL A   1      39.577  21.799  25.976  1.00  0.00     0.261 C 
BRANCH  32  33
ATOM     33  O   UNL A   1      39.732  22.765  27.026  1.00  0.00    -0.460 OA
BRANCH  33  34
ATOM     34  C   UNL A   1      40.797  23.590  26.876  1.00  0.00     0.338 C 
ATOM     35  O   UNL A   1      41.770  23.429  26.158  1.00  0.00    -0.246 OA
BRANCH  34  36
ATOM     36  C   UNL A   1      40.542  24.861  27.569  1.00  0.00     0.060 A 
ATOM     37  C   UNL A   1      41.546  25.838  27.539  1.00  0.00     0.016 A 
ATOM     38  C   UNL A   1      39.389  25.041  28.333  1.00  0.00     0.016 A 
ATOM     39  C   UNL A   1      41.411  26.996  28.295  1.00  0.00     0.010 A 
ATOM     40  C   UNL A   1      39.265  26.197  29.108  1.00  0.00     0.010 A 
ATOM     41  C   UNL A   1      40.289  27.161  29.114  1.00  0.00    -0.014 A 
BRANCH  41  42
ATOM     42  C   UNL A   1      40.266  28.278  30.084  1.00  0.00     0.031 A 
ATOM     43  C   UNL A   1      41.263  28.287  31.207  1.00  0.00     0.074 A 
ATOM     44  C   UNL A   1      39.394  29.288  29.933  1.00  0.00     0.049 A 
ATOM     45  N   UNL A   1      41.400  29.141  32.188  1.00  0.00    -0.248 NA
ATOM     46  C   UNL A   1      42.239  27.186  31.225  1.00  0.00     0.031 C 
ATOM     47  C   UNL A   1      38.421  29.409  28.848  1.00  0.00     0.029 A 
ATOM     48  N   UNL A   1      39.187  30.405  30.700  1.00  0.00    -0.354 N 
ATOM     49  C   UNL A   1      42.466  28.676  32.945  1.00  0.00     0.074 A 
ATOM     50  C   UNL A   1      42.925  27.451  32.327  1.00  0.00     0.031 C 
ATOM     51  C   UNL A   1      37.710  30.535  29.026  1.00  0.00     0.029 A 
ATOM     52  C   UNL A   1      38.152  31.189  30.255  1.00  0.00     0.049 A 
ATOM     53  H   UNL A   1      39.727  30.624  31.493  1.00  0.00     0.167 HD
ATOM     54  C   UNL A   1      43.016  29.226  34.054  1.00  0.00     0.037 A 
ATOM     55  C   UNL A   1      37.607  32.293  30.800  1.00  0.00     0.037 A 
ATOM     56  C   UNL A   1      42.548  30.444  34.663  1.00  0.00     0.049 A 
ATOM     57  C   UNL A   1      38.181  32.838  32.081  1.00  0.00     0.074 A 
ATOM     58  C   UNL A   1      43.044  31.095  35.779  1.00  0.00     0.029 A 
ATOM     59  N   UNL A   1      41.469  31.188  34.210  1.00  0.00    -0.354 N 
ATOM     60  N   UNL A   1      39.200  32.404  32.783  1.00  0.00    -0.248 NA
ATOM     61  C   UNL A   1      37.526  34.026  32.647  1.00  0.00     0.031 C 
ATOM     62  C   UNL A   1      42.226  32.201  36.035  1.00  0.00     0.029 A 
ATOM     63  C   UNL A   1      41.261  32.275  35.044  1.00  0.00     0.049 A 
ATOM     64  H   UNL A   1      40.931  30.975  33.414  1.00  0.00     0.167 HD
ATOM     65  C   UNL A   1      39.328  33.280  33.854  1.00  0.00     0.074 A 
ATOM     66  C   UNL A   1      38.289  34.278  33.701  1.00  0.00     0.031 C 
ATOM     67  C   UNL A   1      40.223  33.261  34.872  1.00  0.00     0.037 A 
BRANCH  54  68
ATOM     68  C   UNL A   1      44.158  28.494  34.700  1.00  0.00     0.057 A 
ATOM     69  C   UNL A   1      45.493  28.764  34.375  1.00  0.00     0.134 A 
ATOM     70  C   UNL A   1      43.915  27.525  35.681  1.00  0.00     0.134 A 
ATOM     71  F   UNL A   1      45.796  29.670  33.432  1.00  0.00    -0.206 F 
ATOM     72  C   UNL A   1      46.546  28.078  34.986  1.00  0.00     0.040 A 
ATOM     73  C   UNL A   1      44.959  26.853  36.320  1.00  0.00     0.040 A 
ATOM     74  F   UNL A   1      42.660  27.220  36.043  1.00  0.00    -0.206 F 
ATOM     75  C   UNL A   1      46.280  27.125  35.967  1.00  0.00     0.006 A 
ENDBRANCH  54  68
BRANCH  55  76
ATOM     76  C   UNL A   1      36.441  32.944  30.150  1.00  0.00     0.057 A 
ATOM     77  C   UNL A   1      36.610  33.898  29.142  1.00  0.00     0.134 A 
ATOM     78  C   UNL A   1      35.129  32.636  30.533  1.00  0.00     0.134 A 
ATOM     79  F   UNL A   1      37.841  34.251  28.745  1.00  0.00    -0.206 F 
ATOM     80  C   UNL A   1      35.519  34.538  28.550  1.00  0.00     0.040 A 
ATOM     81  C   UNL A   1      34.028  33.246  29.931  1.00  0.00     0.040 A 
ATOM     82  F   UNL A   1      34.898  31.725  31.491  1.00  0.00    -0.206 F 
ATOM     83  C   UNL A   1      34.223  34.207  28.942  1.00  0.00     0.006 A 
ENDBRANCH  55  76
BRANCH  67  84
ATOM     84  C   UNL A   1      40.144  34.372  35.881  1.00  0.00     0.057 A 
ATOM     85  C   UNL A   1      39.327  34.288  37.015  1.00  0.00     0.134 A 
ATOM     86  C   UNL A   1      40.932  35.522  35.735  1.00  0.00     0.134 A 
ATOM     87  F   UNL A   1      38.538  33.220  37.207  1.00  0.00    -0.206 F 
ATOM     88  C   UNL A   1      39.276  35.319  37.955  1.00  0.00     0.040 A 
ATOM     89  C   UNL A   1      40.913  36.544  36.685  1.00  0.00     0.040 A 
ATOM     90  F   UNL A   1      41.745  35.662  34.678  1.00  0.00    -0.206 F 
ATOM     91  C   UNL A   1      40.077  36.447  37.796  1.00  0.00     0.006 A 
ENDBRANCH  67  84
ENDBRANCH  41  42
ENDBRANCH  34  36
ENDBRANCH  33  34
ENDBRANCH  32  33
ENDBRANCH  31  32
ENDBRANCH  30  31
ENDBRANCH  29  30
ENDBRANCH   1  29
TORSDOF 21
ENDMDL
