MODEL 1
REMARK VINA RESULT:      -9.4      0.000      0.000
REMARK SMILES CC[C@H](C)[C@@H](NC(=S)Nc1ccccc1)C(=O)OCCOCCOC(=O)c1ccc(-c2c3nc(c(-c4c(F)cccc4F)c4ccc([nH]4)c(-c4c(F)cccc4F)c4nc(c(-c5c(F)cccc5F)c5ccc2[nH]5)C=C4)C=C3)cc1
REMARK SMILES IDX 20 1 19 2 18 3 16 4 17 5 5 6 3 7 4 8 2 9 1 10 6 11 7 13 8 14
REMARK SMILES IDX 9 15 10 17 11 18 15 19 12 20 14 21 13 22 21 23 22 24 23 25
REMARK SMILES IDX 24 26 25 27 26 28 27 29 28 30 80 31 29 32 79 33 30 34 31 35
REMARK SMILES IDX 32 36 73 37 33 38 78 39 72 40 74 41 34 42 77 43 71 44 70 45
REMARK SMILES IDX 35 47 61 48 44 49 60 50 45 51 48 52 59 53 75 54 46 55 47 56
REMARK SMILES IDX 58 58 76 59 49 60 36 61 37 62 42 63 38 64 39 65 41 66 43 67
REMARK SMILES IDX 40 68 62 69 63 70 68 71 64 72 65 73 67 74 69 75 66 76 50 77
REMARK SMILES IDX 51 78 56 79 52 80 53 81 55 82 57 83 54 84
REMARK H PARENT 6 12 9 16 74 46 48 57
REMARK Flexibility Score: inf
ROOT
ATOM      1  C   UNL A   1      32.884  30.208  27.100  1.00  0.00     0.202 C 
ENDROOT
BRANCH   1   2
ATOM      2  C   UNL A   1      33.128  29.654  25.699  1.00  0.00     0.261 C 
BRANCH   2   3
ATOM      3  O   UNL A   1      33.755  28.368  25.608  1.00  0.00    -0.462 OA
BRANCH   3   4
ATOM      4  C   UNL A   1      33.645  27.744  24.408  1.00  0.00     0.328 C 
ATOM      5  O   UNL A   1      34.036  28.199  23.342  1.00  0.00    -0.250 OA
BRANCH   4   6
ATOM      6  C   UNL A   1      33.080  26.333  24.501  1.00  0.00     0.194 C 
BRANCH   6   7
ATOM      7  C   UNL A   1      34.250  25.338  24.178  1.00  0.00     0.019 C 
ATOM      8  C   UNL A   1      34.964  24.833  25.439  1.00  0.00     0.010 C 
BRANCH   7   9
ATOM      9  C   UNL A   1      33.770  24.093  23.378  1.00  0.00     0.002 C 
ATOM     10  C   UNL A   1      34.788  22.956  23.396  1.00  0.00     0.004 C 
ENDBRANCH   7   9
ENDBRANCH   6   7
BRANCH   6  11
ATOM     11  N   UNL A   1      32.475  26.100  25.826  1.00  0.00    -0.349 N 
ATOM     12  H   UNL A   1      32.913  26.613  26.543  1.00  0.00     0.163 HD
BRANCH  11  13
ATOM     13  C   UNL A   1      31.455  25.342  26.273  1.00  0.00     0.171 C 
ATOM     14  S   UNL A   1      29.934  25.732  25.682  1.00  0.00    -0.041 S 
BRANCH  13  15
ATOM     15  N   UNL A   1      31.561  24.201  26.981  1.00  0.00    -0.333 N 
ATOM     16  H   UNL A   1      31.157  24.275  27.875  1.00  0.00     0.169 HD
BRANCH  15  17
ATOM     17  C   UNL A   1      32.108  22.929  26.747  1.00  0.00     0.040 A 
ATOM     18  C   UNL A   1      31.570  22.185  25.686  1.00  0.00     0.026 A 
ATOM     19  C   UNL A   1      33.155  22.392  27.490  1.00  0.00     0.026 A 
ATOM     20  C   UNL A   1      32.217  21.032  25.234  1.00  0.00     0.002 A 
ATOM     21  C   UNL A   1      33.770  21.205  27.069  1.00  0.00     0.002 A 
ATOM     22  C   UNL A   1      33.334  20.557  25.912  1.00  0.00     0.000 A 
ENDBRANCH  15  17
ENDBRANCH  13  15
ENDBRANCH  11  13
ENDBRANCH   6  11
ENDBRANCH   4   6
ENDBRANCH   3   4
ENDBRANCH   2   3
ENDBRANCH   1   2
BRANCH   1  23
ATOM     23  O   UNL A   1      33.197  31.570  27.376  1.00  0.00    -0.374 OA
BRANCH  23  24
ATOM     24  C   UNL A   1      34.555  31.809  27.766  1.00  0.00     0.202 C 
BRANCH  24  25
ATOM     25  C   UNL A   1      34.766  32.047  29.257  1.00  0.00     0.261 C 
BRANCH  25  26
ATOM     26  O   UNL A   1      36.175  32.013  29.532  1.00  0.00    -0.460 OA
BRANCH  26  27
ATOM     27  C   UNL A   1      36.524  31.106  30.476  1.00  0.00     0.338 C 
ATOM     28  O   UNL A   1      35.919  30.828  31.486  1.00  0.00    -0.246 OA
BRANCH  27  29
ATOM     29  C   UNL A   1      37.659  30.302  29.962  1.00  0.00     0.060 A 
ATOM     30  C   UNL A   1      38.408  29.603  30.921  1.00  0.00     0.016 A 
ATOM     31  C   UNL A   1      37.938  30.153  28.598  1.00  0.00     0.016 A 
ATOM     32  C   UNL A   1      39.503  28.845  30.534  1.00  0.00     0.010 A 
ATOM     33  C   UNL A   1      39.052  29.408  28.207  1.00  0.00     0.010 A 
ATOM     34  C   UNL A   1      39.875  28.823  29.186  1.00  0.00    -0.014 A 
BRANCH  34  35
ATOM     35  C   UNL A   1      41.290  28.533  28.877  1.00  0.00     0.031 A 
ATOM     36  C   UNL A   1      41.610  27.126  28.442  1.00  0.00     0.074 A 
ATOM     37  C   UNL A   1      42.228  29.491  28.889  1.00  0.00     0.049 A 
ATOM     38  N   UNL A   1      42.756  26.595  28.111  1.00  0.00    -0.248 NA
ATOM     39  C   UNL A   1      40.473  26.190  28.367  1.00  0.00     0.031 C 
ATOM     40  C   UNL A   1      42.004  30.895  29.226  1.00  0.00     0.029 A 
ATOM     41  N   UNL A   1      43.566  29.418  28.602  1.00  0.00    -0.354 N 
ATOM     42  C   UNL A   1      42.475  25.271  27.794  1.00  0.00     0.074 A 
ATOM     43  C   UNL A   1      41.064  25.064  28.007  1.00  0.00     0.031 C 
ATOM     44  C   UNL A   1      43.175  31.553  29.142  1.00  0.00     0.029 A 
ATOM     45  C   UNL A   1      44.229  30.609  28.774  1.00  0.00     0.049 A 
ATOM     46  H   UNL A   1      44.010  28.593  28.302  1.00  0.00     0.167 HD
ATOM     47  C   UNL A   1      43.320  24.313  27.350  1.00  0.00     0.037 A 
ATOM     48  C   UNL A   1      45.543  30.882  28.667  1.00  0.00     0.037 A 
ATOM     49  C   UNL A   1      44.724  24.532  27.151  1.00  0.00     0.049 A 
ATOM     50  C   UNL A   1      46.483  29.777  28.259  1.00  0.00     0.074 A 
ATOM     51  C   UNL A   1      45.684  23.636  26.722  1.00  0.00     0.029 A 
ATOM     52  N   UNL A   1      45.367  25.740  27.378  1.00  0.00    -0.354 N 
ATOM     53  N   UNL A   1      46.212  28.527  27.959  1.00  0.00    -0.248 NA
ATOM     54  C   UNL A   1      47.908  30.119  28.168  1.00  0.00     0.031 C 
ATOM     55  C   UNL A   1      46.921  24.290  26.741  1.00  0.00     0.029 A 
ATOM     56  C   UNL A   1      46.719  25.608  27.122  1.00  0.00     0.049 A 
ATOM     57  H   UNL A   1      44.925  26.568  27.678  1.00  0.00     0.167 HD
ATOM     58  C   UNL A   1      47.425  27.942  27.618  1.00  0.00     0.074 A 
ATOM     59  C   UNL A   1      48.430  28.980  27.734  1.00  0.00     0.031 C 
ATOM     60  C   UNL A   1      47.690  26.667  27.242  1.00  0.00     0.037 A 
BRANCH  47  61
ATOM     61  C   UNL A   1      42.745  22.950  27.097  1.00  0.00     0.057 A 
ATOM     62  C   UNL A   1      42.504  22.471  25.802  1.00  0.00     0.134 A 
ATOM     63  C   UNL A   1      42.424  22.105  28.167  1.00  0.00     0.134 A 
ATOM     64  F   UNL A   1      42.762  23.241  24.733  1.00  0.00    -0.206 F 
ATOM     65  C   UNL A   1      41.944  21.212  25.580  1.00  0.00     0.040 A 
ATOM     66  C   UNL A   1      41.891  20.833  27.957  1.00  0.00     0.040 A 
ATOM     67  F   UNL A   1      42.622  22.503  29.432  1.00  0.00    -0.206 F 
ATOM     68  C   UNL A   1      41.643  20.385  26.661  1.00  0.00     0.006 A 
ENDBRANCH  47  61
BRANCH  48  69
ATOM     69  C   UNL A   1      46.048  32.246  28.974  1.00  0.00     0.057 A 
ATOM     70  C   UNL A   1      46.196  33.215  27.974  1.00  0.00     0.134 A 
ATOM     71  C   UNL A   1      46.414  32.607  30.277  1.00  0.00     0.134 A 
ATOM     72  F   UNL A   1      45.884  32.926  26.703  1.00  0.00    -0.206 F 
ATOM     73  C   UNL A   1      46.704  34.485  28.255  1.00  0.00     0.040 A 
ATOM     74  C   UNL A   1      46.898  33.882  30.577  1.00  0.00     0.040 A 
ATOM     75  F   UNL A   1      46.298  31.727  31.281  1.00  0.00    -0.206 F 
ATOM     76  C   UNL A   1      47.052  34.823  29.562  1.00  0.00     0.006 A 
ENDBRANCH  48  69
BRANCH  60  77
ATOM     77  C   UNL A   1      49.111  26.335  26.892  1.00  0.00     0.057 A 
ATOM     78  C   UNL A   1      49.988  25.758  27.819  1.00  0.00     0.134 A 
ATOM     79  C   UNL A   1      49.590  26.550  25.592  1.00  0.00     0.134 A 
ATOM     80  F   UNL A   1      49.592  25.534  29.081  1.00  0.00    -0.206 F 
ATOM     81  C   UNL A   1      51.299  25.430  27.473  1.00  0.00     0.040 A 
ATOM     82  C   UNL A   1      50.889  26.198  25.227  1.00  0.00     0.040 A 
ATOM     83  F   UNL A   1      48.796  27.086  24.653  1.00  0.00    -0.206 F 
ATOM     84  C   UNL A   1      51.750  25.643  26.170  1.00  0.00     0.006 A 
ENDBRANCH  60  77
ENDBRANCH  34  35
ENDBRANCH  27  29
ENDBRANCH  26  27
ENDBRANCH  25  26
ENDBRANCH  24  25
ENDBRANCH  23  24
ENDBRANCH   1  23
TORSDOF 20
ENDMDL
MODEL 2
REMARK VINA RESULT:      -9.3      5.786      9.921
REMARK SMILES CC[C@H](C)[C@@H](NC(=S)Nc1ccccc1)C(=O)OCCOCCOC(=O)c1ccc(-c2c3nc(c(-c4c(F)cccc4F)c4ccc([nH]4)c(-c4c(F)cccc4F)c4nc(c(-c5c(F)cccc5F)c5ccc2[nH]5)C=C4)C=C3)cc1
REMARK SMILES IDX 20 1 19 2 18 3 16 4 17 5 5 6 3 7 4 8 2 9 1 10 6 11 7 13 8 14
REMARK SMILES IDX 9 15 10 17 11 18 15 19 12 20 14 21 13 22 21 23 22 24 23 25
REMARK SMILES IDX 24 26 25 27 26 28 27 29 28 30 80 31 29 32 79 33 30 34 31 35
REMARK SMILES IDX 32 36 73 37 33 38 78 39 72 40 74 41 34 42 77 43 71 44 70 45
REMARK SMILES IDX 35 47 61 48 44 49 60 50 45 51 48 52 59 53 75 54 46 55 47 56
REMARK SMILES IDX 58 58 76 59 49 60 36 61 37 62 42 63 38 64 39 65 41 66 43 67
REMARK SMILES IDX 40 68 62 69 63 70 68 71 64 72 65 73 67 74 69 75 66 76 50 77
REMARK SMILES IDX 51 78 56 79 52 80 53 81 55 82 57 83 54 84
REMARK H PARENT 6 12 9 16 74 46 48 57
REMARK Flexibility Score: inf
ROOT
ATOM      1  C   UNL A   1      34.505  32.277  27.735  1.00  0.00     0.202 C 
ENDROOT
BRANCH   1   2
ATOM      2  C   UNL A   1      34.160  30.794  27.838  1.00  0.00     0.261 C 
BRANCH   2   3
ATOM      3  O   UNL A   1      33.987  30.079  26.607  1.00  0.00    -0.462 OA
BRANCH   3   4
ATOM      4  C   UNL A   1      32.711  29.726  26.306  1.00  0.00     0.328 C 
ATOM      5  O   UNL A   1      31.728  30.012  26.975  1.00  0.00    -0.250 OA
BRANCH   4   6
ATOM      6  C   UNL A   1      32.572  29.017  24.966  1.00  0.00     0.194 C 
BRANCH   6   7
ATOM      7  C   UNL A   1      33.634  27.861  24.936  1.00  0.00     0.019 C 
ATOM      8  C   UNL A   1      33.176  26.616  25.706  1.00  0.00     0.010 C 
BRANCH   7   9
ATOM      9  C   UNL A   1      33.988  27.415  23.488  1.00  0.00     0.002 C 
ATOM     10  C   UNL A   1      34.194  28.597  22.545  1.00  0.00     0.004 C 
ENDBRANCH   7   9
ENDBRANCH   6   7
BRANCH   6  11
ATOM     11  N   UNL A   1      31.191  28.536  24.771  1.00  0.00    -0.349 N 
ATOM     12  H   UNL A   1      30.805  28.139  25.586  1.00  0.00     0.163 HD
BRANCH  11  13
ATOM     13  C   UNL A   1      30.340  28.520  23.727  1.00  0.00     0.171 C 
ATOM     14  S   UNL A   1      30.641  27.363  22.550  1.00  0.00    -0.041 S 
BRANCH  13  15
ATOM     15  N   UNL A   1      29.180  29.198  23.634  1.00  0.00    -0.333 N 
ATOM     16  H   UNL A   1      28.476  28.816  24.205  1.00  0.00     0.169 HD
BRANCH  15  17
ATOM     17  C   UNL A   1      28.736  30.321  22.918  1.00  0.00     0.040 A 
ATOM     18  C   UNL A   1      28.845  31.569  23.552  1.00  0.00     0.026 A 
ATOM     19  C   UNL A   1      28.223  30.258  21.626  1.00  0.00     0.026 A 
ATOM     20  C   UNL A   1      28.661  32.747  22.823  1.00  0.00     0.002 A 
ATOM     21  C   UNL A   1      27.986  31.441  20.913  1.00  0.00     0.002 A 
ATOM     22  C   UNL A   1      28.257  32.681  21.494  1.00  0.00     0.000 A 
ENDBRANCH  15  17
ENDBRANCH  13  15
ENDBRANCH  11  13
ENDBRANCH   6  11
ENDBRANCH   4   6
ENDBRANCH   3   4
ENDBRANCH   2   3
ENDBRANCH   1   2
BRANCH   1  23
ATOM     23  O   UNL A   1      33.674  33.234  28.386  1.00  0.00    -0.374 OA
BRANCH  23  24
ATOM     24  C   UNL A   1      34.078  34.599  28.213  1.00  0.00     0.202 C 
BRANCH  24  25
ATOM     25  C   UNL A   1      33.451  35.586  29.191  1.00  0.00     0.261 C 
BRANCH  25  26
ATOM     26  O   UNL A   1      32.864  34.848  30.274  1.00  0.00    -0.460 OA
BRANCH  26  27
ATOM     27  C   UNL A   1      32.961  35.471  31.473  1.00  0.00     0.338 C 
ATOM     28  O   UNL A   1      32.186  36.268  31.952  1.00  0.00    -0.246 OA
BRANCH  27  29
ATOM     29  C   UNL A   1      34.056  34.838  32.247  1.00  0.00     0.060 A 
ATOM     30  C   UNL A   1      35.275  35.532  32.278  1.00  0.00     0.016 A 
ATOM     31  C   UNL A   1      33.889  33.665  32.993  1.00  0.00     0.016 A 
ATOM     32  C   UNL A   1      36.362  35.003  32.957  1.00  0.00     0.010 A 
ATOM     33  C   UNL A   1      34.987  33.119  33.659  1.00  0.00     0.010 A 
ATOM     34  C   UNL A   1      36.239  33.753  33.571  1.00  0.00    -0.014 A 
BRANCH  34  35
ATOM     35  C   UNL A   1      37.475  32.966  33.761  1.00  0.00     0.031 A 
ATOM     36  C   UNL A   1      38.242  33.212  35.034  1.00  0.00     0.074 A 
ATOM     37  C   UNL A   1      37.848  32.012  32.895  1.00  0.00     0.049 A 
ATOM     38  N   UNL A   1      39.351  32.669  35.461  1.00  0.00    -0.248 NA
ATOM     39  C   UNL A   1      37.673  34.213  35.957  1.00  0.00     0.031 C 
ATOM     40  C   UNL A   1      37.135  31.649  31.673  1.00  0.00     0.029 A 
ATOM     41  N   UNL A   1      38.929  31.170  32.922  1.00  0.00    -0.354 N 
ATOM     42  C   UNL A   1      39.606  33.262  36.691  1.00  0.00     0.074 A 
ATOM     43  C   UNL A   1      38.566  34.232  36.931  1.00  0.00     0.031 C 
ATOM     44  C   UNL A   1      37.809  30.663  31.054  1.00  0.00     0.029 A 
ATOM     45  C   UNL A   1      39.012  30.350  31.824  1.00  0.00     0.049 A 
ATOM     46  H   UNL A   1      39.581  31.153  33.658  1.00  0.00     0.167 HD
ATOM     47  C   UNL A   1      40.616  33.009  37.555  1.00  0.00     0.037 A 
ATOM     48  C   UNL A   1      39.971  29.469  31.482  1.00  0.00     0.037 A 
ATOM     49  C   UNL A   1      41.649  32.047  37.299  1.00  0.00     0.049 A 
ATOM     50  C   UNL A   1      41.137  29.268  32.416  1.00  0.00     0.074 A 
ATOM     51  C   UNL A   1      42.733  31.714  38.088  1.00  0.00     0.029 A 
ATOM     52  N   UNL A   1      41.724  31.266  36.154  1.00  0.00    -0.354 N 
ATOM     53  N   UNL A   1      41.373  29.829  33.579  1.00  0.00    -0.248 NA
ATOM     54  C   UNL A   1      42.165  28.307  31.995  1.00  0.00     0.031 C 
ATOM     55  C   UNL A   1      43.495  30.768  37.395  1.00  0.00     0.029 A 
ATOM     56  C   UNL A   1      42.852  30.468  36.203  1.00  0.00     0.049 A 
ATOM     57  H   UNL A   1      41.071  31.280  35.417  1.00  0.00     0.167 HD
ATOM     58  C   UNL A   1      42.560  29.272  34.041  1.00  0.00     0.074 A 
ATOM     59  C   UNL A   1      42.984  28.317  33.037  1.00  0.00     0.031 C 
ATOM     60  C   UNL A   1      43.240  29.522  35.187  1.00  0.00     0.037 A 
BRANCH  47  61
ATOM     61  C   UNL A   1      40.660  33.816  38.820  1.00  0.00     0.057 A 
ATOM     62  C   UNL A   1      39.921  33.459  39.957  1.00  0.00     0.134 A 
ATOM     63  C   UNL A   1      41.450  34.968  38.900  1.00  0.00     0.134 A 
ATOM     64  F   UNL A   1      39.120  32.383  39.938  1.00  0.00    -0.206 F 
ATOM     65  C   UNL A   1      39.949  34.233  41.119  1.00  0.00     0.040 A 
ATOM     66  C   UNL A   1      41.509  35.734  40.066  1.00  0.00     0.040 A 
ATOM     67  F   UNL A   1      42.177  35.371  37.847  1.00  0.00    -0.206 F 
ATOM     68  C   UNL A   1      40.752  35.370  41.177  1.00  0.00     0.006 A 
ENDBRANCH  47  61
BRANCH  48  69
ATOM     69  C   UNL A   1      39.885  28.735  30.192  1.00  0.00     0.057 A 
ATOM     70  C   UNL A   1      39.222  27.506  30.092  1.00  0.00     0.134 A 
ATOM     71  C   UNL A   1      40.480  29.241  29.030  1.00  0.00     0.134 A 
ATOM     72  F   UNL A   1      38.650  26.957  31.173  1.00  0.00    -0.206 F 
ATOM     73  C   UNL A   1      39.171  26.798  28.889  1.00  0.00     0.040 A 
ATOM     74  C   UNL A   1      40.413  28.557  27.814  1.00  0.00     0.040 A 
ATOM     75  F   UNL A   1      41.130  30.413  29.056  1.00  0.00    -0.206 F 
ATOM     76  C   UNL A   1      39.763  27.328  27.743  1.00  0.00     0.006 A 
ENDBRANCH  48  69
BRANCH  60  77
ATOM     77  C   UNL A   1      44.486  28.725  35.433  1.00  0.00     0.057 A 
ATOM     78  C   UNL A   1      44.458  27.484  36.082  1.00  0.00     0.134 A 
ATOM     79  C   UNL A   1      45.726  29.184  34.966  1.00  0.00     0.134 A 
ATOM     80  F   UNL A   1      43.304  26.994  36.560  1.00  0.00    -0.206 F 
ATOM     81  C   UNL A   1      45.622  26.741  36.282  1.00  0.00     0.040 A 
ATOM     82  C   UNL A   1      46.890  28.435  35.132  1.00  0.00     0.040 A 
ATOM     83  F   UNL A   1      45.819  30.358  34.322  1.00  0.00    -0.206 F 
ATOM     84  C   UNL A   1      46.841  27.213  35.798  1.00  0.00     0.006 A 
ENDBRANCH  60  77
ENDBRANCH  34  35
ENDBRANCH  27  29
ENDBRANCH  26  27
ENDBRANCH  25  26
ENDBRANCH  24  25
ENDBRANCH  23  24
ENDBRANCH   1  23
TORSDOF 20
ENDMDL
MODEL 3
REMARK VINA RESULT:      -9.3      1.264      2.185
REMARK SMILES CC[C@H](C)[C@@H](NC(=S)Nc1ccccc1)C(=O)OCCOCCOC(=O)c1ccc(-c2c3nc(c(-c4c(F)cccc4F)c4ccc([nH]4)c(-c4c(F)cccc4F)c4nc(c(-c5c(F)cccc5F)c5ccc2[nH]5)C=C4)C=C3)cc1
REMARK SMILES IDX 20 1 19 2 18 3 16 4 17 5 5 6 3 7 4 8 2 9 1 10 6 11 7 13 8 14
REMARK SMILES IDX 9 15 10 17 11 18 15 19 12 20 14 21 13 22 21 23 22 24 23 25
REMARK SMILES IDX 24 26 25 27 26 28 27 29 28 30 80 31 29 32 79 33 30 34 31 35
REMARK SMILES IDX 32 36 73 37 33 38 78 39 72 40 74 41 34 42 77 43 71 44 70 45
REMARK SMILES IDX 35 47 61 48 44 49 60 50 45 51 48 52 59 53 75 54 46 55 47 56
REMARK SMILES IDX 58 58 76 59 49 60 36 61 37 62 42 63 38 64 39 65 41 66 43 67
REMARK SMILES IDX 40 68 62 69 63 70 68 71 64 72 65 73 67 74 69 75 66 76 50 77
REMARK SMILES IDX 51 78 56 79 52 80 53 81 55 82 57 83 54 84
REMARK H PARENT 6 12 9 16 74 46 48 57
REMARK Flexibility Score: inf
ROOT
ATOM      1  C   UNL A   1      33.750  29.164  26.255  1.00  0.00     0.202 C 
ENDROOT
BRANCH   1   2
ATOM      2  C   UNL A   1      32.600  29.576  25.341  1.00  0.00     0.261 C 
BRANCH   2   3
ATOM      3  O   UNL A   1      31.379  28.834  25.455  1.00  0.00    -0.462 OA
BRANCH   3   4
ATOM      4  C   UNL A   1      31.055  28.068  24.382  1.00  0.00     0.328 C 
ATOM      5  O   UNL A   1      30.407  28.449  23.417  1.00  0.00    -0.250 OA
BRANCH   4   6
ATOM      6  C   UNL A   1      31.675  26.677  24.413  1.00  0.00     0.194 C 
BRANCH   6   7
ATOM      7  C   UNL A   1      31.357  26.055  25.818  1.00  0.00     0.019 C 
ATOM      8  C   UNL A   1      29.903  25.581  25.942  1.00  0.00     0.010 C 
BRANCH   7   9
ATOM      9  C   UNL A   1      32.276  24.845  26.155  1.00  0.00     0.002 C 
ATOM     10  C   UNL A   1      33.758  25.174  25.999  1.00  0.00     0.004 C 
ENDBRANCH   7   9
ENDBRANCH   6   7
BRANCH   6  11
ATOM     11  N   UNL A   1      31.173  25.857  23.293  1.00  0.00    -0.349 N 
ATOM     12  H   UNL A   1      30.194  25.901  23.194  1.00  0.00     0.163 HD
BRANCH  11  13
ATOM     13  C   UNL A   1      31.757  25.063  22.375  1.00  0.00     0.171 C 
ATOM     14  S   UNL A   1      32.539  25.847  21.114  1.00  0.00    -0.041 S 
BRANCH  13  15
ATOM     15  N   UNL A   1      31.939  23.733  22.472  1.00  0.00    -0.333 N 
ATOM     16  H   UNL A   1      31.256  23.224  21.979  1.00  0.00     0.169 HD
BRANCH  15  17
ATOM     17  C   UNL A   1      32.871  22.897  23.108  1.00  0.00     0.040 A 
ATOM     18  C   UNL A   1      34.225  23.250  23.002  1.00  0.00     0.026 A 
ATOM     19  C   UNL A   1      32.519  21.770  23.844  1.00  0.00     0.026 A 
ATOM     20  C   UNL A   1      35.182  22.623  23.804  1.00  0.00     0.002 A 
ATOM     21  C   UNL A   1      33.490  21.106  24.607  1.00  0.00     0.002 A 
ATOM     22  C   UNL A   1      34.807  21.567  24.627  1.00  0.00     0.000 A 
ENDBRANCH  15  17
ENDBRANCH  13  15
ENDBRANCH  11  13
ENDBRANCH   6  11
ENDBRANCH   4   6
ENDBRANCH   3   4
ENDBRANCH   2   3
ENDBRANCH   1   2
BRANCH   1  23
ATOM     23  O   UNL A   1      34.479  30.168  26.957  1.00  0.00    -0.374 OA
BRANCH  23  24
ATOM     24  C   UNL A   1      33.668  31.143  27.626  1.00  0.00     0.202 C 
BRANCH  24  25
ATOM     25  C   UNL A   1      34.404  31.998  28.652  1.00  0.00     0.261 C 
BRANCH  25  26
ATOM     26  O   UNL A   1      35.808  31.711  28.564  1.00  0.00    -0.460 OA
BRANCH  26  27
ATOM     27  C   UNL A   1      36.325  31.173  29.696  1.00  0.00     0.338 C 
ATOM     28  O   UNL A   1      35.843  31.195  30.806  1.00  0.00    -0.246 OA
BRANCH  27  29
ATOM     29  C   UNL A   1      37.478  30.317  29.328  1.00  0.00     0.060 A 
ATOM     30  C   UNL A   1      38.236  29.807  30.393  1.00  0.00     0.016 A 
ATOM     31  C   UNL A   1      37.767  29.943  28.009  1.00  0.00     0.016 A 
ATOM     32  C   UNL A   1      39.348  29.017  30.143  1.00  0.00     0.010 A 
ATOM     33  C   UNL A   1      38.897  29.166  27.753  1.00  0.00     0.010 A 
ATOM     34  C   UNL A   1      39.726  28.773  28.818  1.00  0.00    -0.014 A 
BRANCH  34  35
ATOM     35  C   UNL A   1      41.149  28.463  28.565  1.00  0.00     0.031 A 
ATOM     36  C   UNL A   1      41.474  27.038  28.202  1.00  0.00     0.074 A 
ATOM     37  C   UNL A   1      42.092  29.417  28.563  1.00  0.00     0.049 A 
ATOM     38  N   UNL A   1      42.626  26.487  27.929  1.00  0.00    -0.248 NA
ATOM     39  C   UNL A   1      40.334  26.104  28.134  1.00  0.00     0.031 C 
ATOM     40  C   UNL A   1      41.866  30.835  28.832  1.00  0.00     0.029 A 
ATOM     41  N   UNL A   1      43.437  29.326  28.321  1.00  0.00    -0.354 N 
ATOM     42  C   UNL A   1      42.347  25.152  27.662  1.00  0.00     0.074 A 
ATOM     43  C   UNL A   1      40.929  24.961  27.841  1.00  0.00     0.031 C 
ATOM     44  C   UNL A   1      43.042  31.483  28.755  1.00  0.00     0.029 A 
ATOM     45  C   UNL A   1      44.101  30.520  28.460  1.00  0.00     0.049 A 
ATOM     46  H   UNL A   1      43.885  28.486  28.070  1.00  0.00     0.167 HD
ATOM     47  C   UNL A   1      43.199  24.172  27.286  1.00  0.00     0.037 A 
ATOM     48  C   UNL A   1      45.419  30.783  28.381  1.00  0.00     0.037 A 
ATOM     49  C   UNL A   1      44.610  24.375  27.120  1.00  0.00     0.049 A 
ATOM     50  C   UNL A   1      46.365  29.656  28.050  1.00  0.00     0.074 A 
ATOM     51  C   UNL A   1      45.578  23.458  26.760  1.00  0.00     0.029 A 
ATOM     52  N   UNL A   1      45.253  25.590  27.314  1.00  0.00    -0.354 N 
ATOM     53  N   UNL A   1      46.096  28.396  27.797  1.00  0.00    -0.248 NA
ATOM     54  C   UNL A   1      47.794  29.987  27.987  1.00  0.00     0.031 C 
ATOM     55  C   UNL A   1      46.817  24.106  26.787  1.00  0.00     0.029 A 
ATOM     56  C   UNL A   1      46.611  25.441  27.104  1.00  0.00     0.049 A 
ATOM     57  H   UNL A   1      44.807  26.431  27.564  1.00  0.00     0.167 HD
ATOM     58  C   UNL A   1      47.316  27.791  27.519  1.00  0.00     0.074 A 
ATOM     59  C   UNL A   1      48.322  28.829  27.620  1.00  0.00     0.031 C 
ATOM     60  C   UNL A   1      47.585  26.499  27.207  1.00  0.00     0.037 A 
BRANCH  47  61
ATOM     61  C   UNL A   1      42.625  22.801  27.076  1.00  0.00     0.057 A 
ATOM     62  C   UNL A   1      42.410  22.272  25.795  1.00  0.00     0.134 A 
ATOM     63  C   UNL A   1      42.278  22.001  28.171  1.00  0.00     0.134 A 
ATOM     64  F   UNL A   1      42.693  22.997  24.703  1.00  0.00    -0.206 F 
ATOM     65  C   UNL A   1      41.849  21.006  25.613  1.00  0.00     0.040 A 
ATOM     66  C   UNL A   1      41.744  20.723  28.001  1.00  0.00     0.040 A 
ATOM     67  F   UNL A   1      42.450  22.449  29.424  1.00  0.00    -0.206 F 
ATOM     68  C   UNL A   1      41.522  20.225  26.719  1.00  0.00     0.006 A 
ENDBRANCH  47  61
BRANCH  48  69
ATOM     69  C   UNL A   1      45.923  32.156  28.643  1.00  0.00     0.057 A 
ATOM     70  C   UNL A   1      46.238  32.586  29.938  1.00  0.00     0.134 A 
ATOM     71  C   UNL A   1      46.085  33.079  27.603  1.00  0.00     0.134 A 
ATOM     72  F   UNL A   1      46.085  31.758  30.981  1.00  0.00    -0.206 F 
ATOM     73  C   UNL A   1      46.678  33.888  30.190  1.00  0.00     0.040 A 
ATOM     74  C   UNL A   1      46.550  34.375  27.837  1.00  0.00     0.040 A 
ATOM     75  F   UNL A   1      45.802  32.733  26.339  1.00  0.00    -0.206 F 
ATOM     76  C   UNL A   1      46.841  34.785  29.135  1.00  0.00     0.006 A 
ENDBRANCH  48  69
BRANCH  60  77
ATOM     77  C   UNL A   1      49.013  26.147  26.915  1.00  0.00     0.057 A 
ATOM     78  C   UNL A   1      49.557  26.258  25.630  1.00  0.00     0.134 A 
ATOM     79  C   UNL A   1      49.869  25.741  27.949  1.00  0.00     0.134 A 
ATOM     80  F   UNL A   1      48.789  26.633  24.597  1.00  0.00    -0.206 F 
ATOM     81  C   UNL A   1      50.895  25.952  25.377  1.00  0.00     0.040 A 
ATOM     82  C   UNL A   1      51.215  25.463  27.714  1.00  0.00     0.040 A 
ATOM     83  F   UNL A   1      49.413  25.630  29.206  1.00  0.00    -0.206 F 
ATOM     84  C   UNL A   1      51.730  25.561  26.424  1.00  0.00     0.006 A 
ENDBRANCH  60  77
ENDBRANCH  34  35
ENDBRANCH  27  29
ENDBRANCH  26  27
ENDBRANCH  25  26
ENDBRANCH  24  25
ENDBRANCH  23  24
ENDBRANCH   1  23
TORSDOF 20
ENDMDL
