MODEL 1
REMARK VINA RESULT:     -11.2      0.000      0.000
REMARK SMILES COc1ccc(Cl)c2sc(N3CC(C(=O)OCCOCCOC(=O)c4ccc(-c5c6nc(c(-c7c(F)cccc7F)c7ccc([nH]7)c(-c7c(F)cccc7F)c7nc(c(-c8c(F)cccc8F)c8ccc5[nH]8)C=C7)C=C6)cc4)C3)nc12
REMARK SMILES IDX 19 1 18 2 17 3 16 4 14 5 15 6 13 7 11 8 12 9 79 10 10 11
REMARK SMILES IDX 3 12 4 13 81 14 5 15 8 16 80 17 6 18 9 19 7 20 2 21 1 22
REMARK SMILES IDX 20 23 21 24 22 25 23 26 24 27 25 28 26 29 78 30 27 31 77 32
REMARK SMILES IDX 28 33 29 34 30 35 71 36 31 37 76 38 70 39 72 40 32 41 75 42
REMARK SMILES IDX 69 43 68 44 33 46 59 47 42 48 58 49 43 50 46 51 57 52 73 53
REMARK SMILES IDX 44 54 45 55 56 57 74 58 47 59 34 60 35 61 40 62 36 63 37 64
REMARK SMILES IDX 39 65 41 66 38 67 60 68 61 69 66 70 62 71 63 72 65 73 67 74
REMARK SMILES IDX 64 75 48 76 49 77 54 78 50 79 51 80 53 81 55 82 52 83
REMARK H PARENT 72 45 46 56
REMARK Flexibility Score: inf
ROOT
ATOM      1  O   UNL A   1      40.939  19.870  27.538  1.00  0.00    -0.374 OA
ENDROOT
BRANCH   1   2
ATOM      2  C   UNL A   1      40.548  21.237  27.424  1.00  0.00     0.202 C 
BRANCH   2   3
ATOM      3  C   UNL A   1      39.961  21.742  26.105  1.00  0.00     0.261 C 
BRANCH   3   4
ATOM      4  O   UNL A   1      38.526  21.768  26.120  1.00  0.00    -0.463 OA
BRANCH   4   5
ATOM      5  C   UNL A   1      37.927  21.007  25.154  1.00  0.00     0.312 C 
ATOM      6  O   UNL A   1      38.300  19.873  24.854  1.00  0.00    -0.252 OA
BRANCH   5   7
ATOM      7  C   UNL A   1      36.687  21.653  24.548  1.00  0.00     0.138 C 
ATOM      8  N   UNL A   1      35.364  23.169  24.949  1.00  0.00    -0.346 N 
ATOM      9  C   UNL A   1      36.705  23.177  24.482  1.00  0.00     0.136 C 
ATOM     10  C   UNL A   1      35.358  21.789  25.304  1.00  0.00     0.136 C 
BRANCH   8  11
ATOM     11  C   UNL A   1      34.361  23.984  24.570  1.00  0.00     0.186 A 
ATOM     12  C   UNL A   1      32.833  26.199  22.179  1.00  0.00     0.146 A 
ATOM     13  C   UNL A   1      31.897  27.231  22.341  1.00  0.00     0.050 A 
ATOM     14  C   UNL A   1      33.231  25.450  23.322  1.00  0.00     0.127 A 
ATOM     15  C   UNL A   1      31.360  27.517  23.593  1.00  0.00     0.026 A 
ATOM     16  C   UNL A   1      32.630  25.710  24.557  1.00  0.00     0.079 A 
ATOM     17  N   UNL A   1      34.223  24.474  23.361  1.00  0.00    -0.216 NA
ATOM     18  C   UNL A   1      31.705  26.754  24.711  1.00  0.00     0.060 A 
ATOM     19  S   UNL A   1      33.214  24.564  25.710  1.00  0.00    -0.095 S 
ATOM     20  Cl  UNL A   1      31.000  27.136  26.234  1.00  0.00    -0.083 Cl
BRANCH  12  21
ATOM     21  O   UNL A   1      33.357  25.832  20.964  1.00  0.00    -0.494 OA
ATOM     22  C   UNL A   1      32.434  25.555  19.918  1.00  0.00     0.278 C 
ENDBRANCH  12  21
ENDBRANCH   8  11
ENDBRANCH   5   7
ENDBRANCH   4   5
ENDBRANCH   3   4
ENDBRANCH   2   3
ENDBRANCH   1   2
BRANCH   1  23
ATOM     23  C   UNL A   1      42.272  19.452  27.259  1.00  0.00     0.202 C 
BRANCH  23  24
ATOM     24  C   UNL A   1      42.637  19.015  25.845  1.00  0.00     0.261 C 
BRANCH  24  25
ATOM     25  O   UNL A   1      43.044  20.112  25.047  1.00  0.00    -0.460 OA
BRANCH  25  26
ATOM     26  C   UNL A   1      44.371  20.103  24.790  1.00  0.00     0.338 C 
ATOM     27  O   UNL A   1      45.119  19.141  24.789  1.00  0.00    -0.246 OA
BRANCH  26  28
ATOM     28  C   UNL A   1      44.837  21.478  24.580  1.00  0.00     0.060 A 
ATOM     29  C   UNL A   1      45.946  21.836  25.347  1.00  0.00     0.016 A 
ATOM     30  C   UNL A   1      43.915  22.410  24.090  1.00  0.00     0.016 A 
ATOM     31  C   UNL A   1      45.925  23.071  25.941  1.00  0.00     0.010 A 
ATOM     32  C   UNL A   1      43.884  23.635  24.699  1.00  0.00     0.010 A 
ATOM     33  C   UNL A   1      44.815  23.884  25.705  1.00  0.00    -0.014 A 
BRANCH  33  34
ATOM     34  C   UNL A   1      44.621  25.013  26.576  1.00  0.00     0.031 A 
ATOM     35  C   UNL A   1      45.729  25.978  26.510  1.00  0.00     0.074 A 
ATOM     36  C   UNL A   1      43.487  25.167  27.282  1.00  0.00     0.049 A 
ATOM     37  N   UNL A   1      46.630  26.208  27.404  1.00  0.00    -0.248 NA
ATOM     38  C   UNL A   1      45.980  26.616  25.208  1.00  0.00     0.031 C 
ATOM     39  C   UNL A   1      42.237  24.402  27.200  1.00  0.00     0.029 A 
ATOM     40  N   UNL A   1      43.193  26.137  28.182  1.00  0.00    -0.354 N 
ATOM     41  C   UNL A   1      47.440  27.190  26.849  1.00  0.00     0.074 A 
ATOM     42  C   UNL A   1      47.139  27.229  25.443  1.00  0.00     0.031 C 
ATOM     43  C   UNL A   1      41.260  25.079  27.848  1.00  0.00     0.029 A 
ATOM     44  C   UNL A   1      41.845  26.243  28.489  1.00  0.00     0.049 A 
ATOM     45  H   UNL A   1      43.879  26.717  28.585  1.00  0.00     0.167 HD
ATOM     46  C   UNL A   1      48.071  28.102  27.631  1.00  0.00     0.037 A 
ATOM     47  C   UNL A   1      41.279  27.294  29.134  1.00  0.00     0.037 A 
ATOM     48  C   UNL A   1      48.142  27.672  29.003  1.00  0.00     0.049 A 
ATOM     49  C   UNL A   1      42.371  28.015  29.845  1.00  0.00     0.074 A 
ATOM     50  C   UNL A   1      48.710  26.597  29.659  1.00  0.00     0.029 A 
ATOM     51  N   UNL A   1      47.238  28.209  29.888  1.00  0.00    -0.354 N 
ATOM     52  N   UNL A   1      43.026  27.513  30.855  1.00  0.00    -0.248 NA
ATOM     53  C   UNL A   1      43.064  29.074  29.121  1.00  0.00     0.031 C 
ATOM     54  C   UNL A   1      47.791  26.264  30.696  1.00  0.00     0.029 A 
ATOM     55  C   UNL A   1      46.739  27.179  30.642  1.00  0.00     0.049 A 
ATOM     56  H   UNL A   1      46.995  29.160  29.966  1.00  0.00     0.167 HD
ATOM     57  C   UNL A   1      44.349  27.886  30.650  1.00  0.00     0.074 A 
ATOM     58  C   UNL A   1      44.299  28.903  29.603  1.00  0.00     0.031 C 
ATOM     59  C   UNL A   1      45.381  27.130  31.133  1.00  0.00     0.037 A 
BRANCH  46  60
ATOM     60  C   UNL A   1      48.239  29.543  27.225  1.00  0.00     0.057 A 
ATOM     61  C   UNL A   1      47.168  30.444  27.036  1.00  0.00     0.134 A 
ATOM     62  C   UNL A   1      49.508  30.129  27.316  1.00  0.00     0.134 A 
ATOM     63  F   UNL A   1      45.886  30.056  27.025  1.00  0.00    -0.206 F 
ATOM     64  C   UNL A   1      47.345  31.825  26.954  1.00  0.00     0.040 A 
ATOM     65  C   UNL A   1      49.690  31.515  27.295  1.00  0.00     0.040 A 
ATOM     66  F   UNL A   1      50.600  29.374  27.512  1.00  0.00    -0.206 F 
ATOM     67  C   UNL A   1      48.607  32.369  27.121  1.00  0.00     0.006 A 
ENDBRANCH  46  60
BRANCH  47  68
ATOM     68  C   UNL A   1      39.960  27.905  28.853  1.00  0.00     0.057 A 
ATOM     69  C   UNL A   1      39.745  28.685  27.702  1.00  0.00     0.134 A 
ATOM     70  C   UNL A   1      38.953  27.955  29.825  1.00  0.00     0.134 A 
ATOM     71  F   UNL A   1      40.683  28.786  26.747  1.00  0.00    -0.206 F 
ATOM     72  C   UNL A   1      38.599  29.465  27.523  1.00  0.00     0.040 A 
ATOM     73  C   UNL A   1      37.800  28.738  29.662  1.00  0.00     0.040 A 
ATOM     74  F   UNL A   1      39.090  27.290  30.980  1.00  0.00    -0.206 F 
ATOM     75  C   UNL A   1      37.624  29.501  28.512  1.00  0.00     0.006 A 
ENDBRANCH  47  68
BRANCH  59  76
ATOM     76  C   UNL A   1      45.030  25.996  32.058  1.00  0.00     0.057 A 
ATOM     77  C   UNL A   1      45.168  26.169  33.437  1.00  0.00     0.134 A 
ATOM     78  C   UNL A   1      44.693  24.708  31.611  1.00  0.00     0.134 A 
ATOM     79  F   UNL A   1      45.552  27.355  33.934  1.00  0.00    -0.206 F 
ATOM     80  C   UNL A   1      44.957  25.118  34.335  1.00  0.00     0.040 A 
ATOM     81  C   UNL A   1      44.449  23.656  32.499  1.00  0.00     0.040 A 
ATOM     82  F   UNL A   1      44.648  24.421  30.305  1.00  0.00    -0.206 F 
ATOM     83  C   UNL A   1      44.584  23.860  33.869  1.00  0.00     0.006 A 
ENDBRANCH  59  76
ENDBRANCH  33  34
ENDBRANCH  26  28
ENDBRANCH  25  26
ENDBRANCH  24  25
ENDBRANCH  23  24
ENDBRANCH   1  23
TORSDOF 16
ENDMDL
MODEL 2
REMARK VINA RESULT:     -10.9      1.265      1.853
REMARK SMILES COc1ccc(Cl)c2sc(N3CC(C(=O)OCCOCCOC(=O)c4ccc(-c5c6nc(c(-c7c(F)cccc7F)c7ccc([nH]7)c(-c7c(F)cccc7F)c7nc(c(-c8c(F)cccc8F)c8ccc5[nH]8)C=C7)C=C6)cc4)C3)nc12
REMARK SMILES IDX 19 1 18 2 17 3 16 4 14 5 15 6 13 7 11 8 12 9 79 10 10 11
REMARK SMILES IDX 3 12 4 13 81 14 5 15 8 16 80 17 6 18 9 19 7 20 2 21 1 22
REMARK SMILES IDX 20 23 21 24 22 25 23 26 24 27 25 28 26 29 78 30 27 31 77 32
REMARK SMILES IDX 28 33 29 34 30 35 71 36 31 37 76 38 70 39 72 40 32 41 75 42
REMARK SMILES IDX 69 43 68 44 33 46 59 47 42 48 58 49 43 50 46 51 57 52 73 53
REMARK SMILES IDX 44 54 45 55 56 57 74 58 47 59 34 60 35 61 40 62 36 63 37 64
REMARK SMILES IDX 39 65 41 66 38 67 60 68 61 69 66 70 62 71 63 72 65 73 67 74
REMARK SMILES IDX 64 75 48 76 49 77 54 78 50 79 51 80 53 81 55 82 52 83
REMARK H PARENT 72 45 46 56
REMARK Flexibility Score: inf
ROOT
ATOM      1  O   UNL A   1      40.752  20.106  27.154  1.00  0.00    -0.374 OA
ENDROOT
BRANCH   1   2
ATOM      2  C   UNL A   1      40.675  21.517  26.956  1.00  0.00     0.202 C 
BRANCH   2   3
ATOM      3  C   UNL A   1      39.310  22.171  26.740  1.00  0.00     0.261 C 
BRANCH   3   4
ATOM      4  O   UNL A   1      38.852  22.047  25.385  1.00  0.00    -0.463 OA
BRANCH   4   5
ATOM      5  C   UNL A   1      37.638  21.435  25.241  1.00  0.00     0.312 C 
ATOM      6  O   UNL A   1      37.507  20.262  24.893  1.00  0.00    -0.252 OA
BRANCH   5   7
ATOM      7  C   UNL A   1      36.459  22.310  25.651  1.00  0.00     0.138 C 
ATOM      8  N   UNL A   1      35.134  23.632  24.813  1.00  0.00    -0.346 N 
ATOM      9  C   UNL A   1      35.229  22.217  24.754  1.00  0.00     0.136 C 
ATOM     10  C   UNL A   1      36.415  23.824  25.406  1.00  0.00     0.136 C 
BRANCH   8  11
ATOM     11  C   UNL A   1      34.012  24.375  24.882  1.00  0.00     0.186 A 
ATOM     12  C   UNL A   1      30.640  24.888  26.034  1.00  0.00     0.146 A 
ATOM     13  C   UNL A   1      29.599  25.679  25.525  1.00  0.00     0.050 A 
ATOM     14  C   UNL A   1      31.905  24.916  25.380  1.00  0.00     0.127 A 
ATOM     15  C   UNL A   1      29.797  26.483  24.404  1.00  0.00     0.026 A 
ATOM     16  C   UNL A   1      32.099  25.780  24.298  1.00  0.00     0.079 A 
ATOM     17  N   UNL A   1      33.003  24.118  25.682  1.00  0.00    -0.216 NA
ATOM     18  C   UNL A   1      31.047  26.556  23.788  1.00  0.00     0.060 A 
ATOM     19  S   UNL A   1      33.753  25.688  23.807  1.00  0.00    -0.095 S 
ATOM     20  Cl  UNL A   1      31.245  27.578  22.416  1.00  0.00    -0.083 Cl
BRANCH  12  21
ATOM     21  O   UNL A   1      30.526  24.120  27.165  1.00  0.00    -0.494 OA
ATOM     22  C   UNL A   1      29.787  22.910  27.055  1.00  0.00     0.278 C 
ENDBRANCH  12  21
ENDBRANCH   8  11
ENDBRANCH   5   7
ENDBRANCH   4   5
ENDBRANCH   3   4
ENDBRANCH   2   3
ENDBRANCH   1   2
BRANCH   1  23
ATOM     23  C   UNL A   1      41.254  19.239  26.141  1.00  0.00     0.202 C 
BRANCH  23  24
ATOM     24  C   UNL A   1      42.753  19.211  25.860  1.00  0.00     0.261 C 
BRANCH  24  25
ATOM     25  O   UNL A   1      43.139  20.248  24.976  1.00  0.00    -0.460 OA
BRANCH  25  26
ATOM     26  C   UNL A   1      44.451  20.198  24.659  1.00  0.00     0.338 C 
ATOM     27  O   UNL A   1      45.156  19.207  24.576  1.00  0.00    -0.246 OA
BRANCH  26  28
ATOM     28  C   UNL A   1      44.967  21.561  24.495  1.00  0.00     0.060 A 
ATOM     29  C   UNL A   1      46.038  21.879  25.332  1.00  0.00     0.016 A 
ATOM     30  C   UNL A   1      44.102  22.525  23.963  1.00  0.00     0.016 A 
ATOM     31  C   UNL A   1      46.014  23.107  25.940  1.00  0.00     0.010 A 
ATOM     32  C   UNL A   1      44.068  23.743  24.586  1.00  0.00     0.010 A 
ATOM     33  C   UNL A   1      44.943  23.954  25.648  1.00  0.00    -0.014 A 
BRANCH  33  34
ATOM     34  C   UNL A   1      44.728  25.077  26.522  1.00  0.00     0.031 A 
ATOM     35  C   UNL A   1      45.825  26.057  26.467  1.00  0.00     0.074 A 
ATOM     36  C   UNL A   1      43.587  25.215  27.218  1.00  0.00     0.049 A 
ATOM     37  N   UNL A   1      46.716  26.295  27.370  1.00  0.00    -0.248 NA
ATOM     38  C   UNL A   1      46.079  26.702  25.170  1.00  0.00     0.031 C 
ATOM     39  C   UNL A   1      42.348  24.435  27.124  1.00  0.00     0.029 A 
ATOM     40  N   UNL A   1      43.274  26.179  28.119  1.00  0.00    -0.354 N 
ATOM     41  C   UNL A   1      47.517  27.288  26.824  1.00  0.00     0.074 A 
ATOM     42  C   UNL A   1      47.228  27.328  25.415  1.00  0.00     0.031 C 
ATOM     43  C   UNL A   1      41.356  25.098  27.766  1.00  0.00     0.029 A 
ATOM     44  C   UNL A   1      41.922  26.268  28.415  1.00  0.00     0.049 A 
ATOM     45  H   UNL A   1      43.949  26.766  28.529  1.00  0.00     0.167 HD
ATOM     46  C   UNL A   1      48.131  28.206  27.613  1.00  0.00     0.037 A 
ATOM     47  C   UNL A   1      41.337  27.309  29.059  1.00  0.00     0.037 A 
ATOM     48  C   UNL A   1      48.196  27.773  28.985  1.00  0.00     0.049 A 
ATOM     49  C   UNL A   1      42.414  28.042  29.781  1.00  0.00     0.074 A 
ATOM     50  C   UNL A   1      48.772  26.703  29.642  1.00  0.00     0.029 A 
ATOM     51  N   UNL A   1      47.278  28.296  29.864  1.00  0.00    -0.354 N 
ATOM     52  N   UNL A   1      43.067  27.544  30.795  1.00  0.00    -0.248 NA
ATOM     53  C   UNL A   1      43.100  29.111  29.066  1.00  0.00     0.031 C 
ATOM     54  C   UNL A   1      47.848  26.355  30.671  1.00  0.00     0.029 A 
ATOM     55  C   UNL A   1      46.786  27.257  30.611  1.00  0.00     0.049 A 
ATOM     56  H   UNL A   1      47.023  29.243  29.943  1.00  0.00     0.167 HD
ATOM     57  C   UNL A   1      44.388  27.934  30.602  1.00  0.00     0.074 A 
ATOM     58  C   UNL A   1      44.334  28.954  29.557  1.00  0.00     0.031 C 
ATOM     59  C   UNL A   1      45.425  27.190  31.091  1.00  0.00     0.037 A 
BRANCH  46  60
ATOM     60  C   UNL A   1      48.284  29.650  27.214  1.00  0.00     0.057 A 
ATOM     61  C   UNL A   1      47.203  30.536  27.009  1.00  0.00     0.134 A 
ATOM     62  C   UNL A   1      49.543  30.254  27.325  1.00  0.00     0.134 A 
ATOM     63  F   UNL A   1      45.928  30.129  26.977  1.00  0.00    -0.206 F 
ATOM     64  C   UNL A   1      47.362  31.919  26.933  1.00  0.00     0.040 A 
ATOM     65  C   UNL A   1      49.705  31.643  27.310  1.00  0.00     0.040 A 
ATOM     66  F   UNL A   1      50.643  29.515  27.537  1.00  0.00    -0.206 F 
ATOM     67  C   UNL A   1      48.613  32.481  27.121  1.00  0.00     0.006 A 
ENDBRANCH  46  60
BRANCH  47  68
ATOM     68  C   UNL A   1      40.013  27.904  28.769  1.00  0.00     0.057 A 
ATOM     69  C   UNL A   1      39.795  28.675  27.611  1.00  0.00     0.134 A 
ATOM     70  C   UNL A   1      39.003  27.951  29.737  1.00  0.00     0.134 A 
ATOM     71  F   UNL A   1      40.735  28.778  26.660  1.00  0.00    -0.206 F 
ATOM     72  C   UNL A   1      38.641  29.441  27.423  1.00  0.00     0.040 A 
ATOM     73  C   UNL A   1      37.842  28.721  29.564  1.00  0.00     0.040 A 
ATOM     74  F   UNL A   1      39.142  27.295  30.897  1.00  0.00    -0.206 F 
ATOM     75  C   UNL A   1      37.662  29.474  28.408  1.00  0.00     0.006 A 
ENDBRANCH  47  68
BRANCH  59  76
ATOM     76  C   UNL A   1      45.081  26.049  32.010  1.00  0.00     0.057 A 
ATOM     77  C   UNL A   1      44.814  24.789  31.468  1.00  0.00     0.134 A 
ATOM     78  C   UNL A   1      44.877  26.201  33.391  1.00  0.00     0.134 A 
ATOM     79  F   UNL A   1      44.922  24.586  30.145  1.00  0.00    -0.206 F 
ATOM     80  C   UNL A   1      44.388  23.722  32.263  1.00  0.00     0.040 A 
ATOM     81  C   UNL A   1      44.482  25.134  34.203  1.00  0.00     0.040 A 
ATOM     82  F   UNL A   1      45.000  27.397  33.978  1.00  0.00    -0.206 F 
ATOM     83  C   UNL A   1      44.233  23.888  33.637  1.00  0.00     0.006 A 
ENDBRANCH  59  76
ENDBRANCH  33  34
ENDBRANCH  26  28
ENDBRANCH  25  26
ENDBRANCH  24  25
ENDBRANCH  23  24
ENDBRANCH   1  23
TORSDOF 16
ENDMDL
MODEL 3
REMARK VINA RESULT:     -10.8      3.902      8.016
REMARK SMILES COc1ccc(Cl)c2sc(N3CC(C(=O)OCCOCCOC(=O)c4ccc(-c5c6nc(c(-c7c(F)cccc7F)c7ccc([nH]7)c(-c7c(F)cccc7F)c7nc(c(-c8c(F)cccc8F)c8ccc5[nH]8)C=C7)C=C6)cc4)C3)nc12
REMARK SMILES IDX 19 1 18 2 17 3 16 4 14 5 15 6 13 7 11 8 12 9 79 10 10 11
REMARK SMILES IDX 3 12 4 13 81 14 5 15 8 16 80 17 6 18 9 19 7 20 2 21 1 22
REMARK SMILES IDX 20 23 21 24 22 25 23 26 24 27 25 28 26 29 78 30 27 31 77 32
REMARK SMILES IDX 28 33 29 34 30 35 71 36 31 37 76 38 70 39 72 40 32 41 75 42
REMARK SMILES IDX 69 43 68 44 33 46 59 47 42 48 58 49 43 50 46 51 57 52 73 53
REMARK SMILES IDX 44 54 45 55 56 57 74 58 47 59 34 60 35 61 40 62 36 63 37 64
REMARK SMILES IDX 39 65 41 66 38 67 60 68 61 69 66 70 62 71 63 72 65 73 67 74
REMARK SMILES IDX 64 75 48 76 49 77 54 78 50 79 51 80 53 81 55 82 52 83
REMARK H PARENT 72 45 46 56
REMARK Flexibility Score: inf
ROOT
ATOM      1  O   UNL A   1      42.152  21.763  25.380  1.00  0.00    -0.374 OA
ENDROOT
BRANCH   1   2
ATOM      2  C   UNL A   1      41.684  21.363  26.667  1.00  0.00     0.202 C 
BRANCH   2   3
ATOM      3  C   UNL A   1      40.202  21.523  27.009  1.00  0.00     0.261 C 
BRANCH   3   4
ATOM      4  O   UNL A   1      39.466  22.174  25.963  1.00  0.00    -0.463 OA
BRANCH   4   5
ATOM      5  C   UNL A   1      38.503  21.404  25.372  1.00  0.00     0.312 C 
ATOM      6  O   UNL A   1      38.475  20.176  25.448  1.00  0.00    -0.252 OA
BRANCH   5   7
ATOM      7  C   UNL A   1      37.407  22.213  24.690  1.00  0.00     0.138 C 
ATOM      8  N   UNL A   1      35.654  23.170  25.158  1.00  0.00    -0.346 N 
ATOM      9  C   UNL A   1      37.012  23.509  25.392  1.00  0.00     0.136 C 
ATOM     10  C   UNL A   1      35.922  21.831  24.751  1.00  0.00     0.136 C 
BRANCH   8  11
ATOM     11  C   UNL A   1      34.646  24.003  24.834  1.00  0.00     0.186 A 
ATOM     12  C   UNL A   1      33.044  26.264  22.536  1.00  0.00     0.146 A 
ATOM     13  C   UNL A   1      32.132  27.308  22.750  1.00  0.00     0.050 A 
ATOM     14  C   UNL A   1      33.483  25.497  23.653  1.00  0.00     0.127 A 
ATOM     15  C   UNL A   1      31.657  27.588  24.029  1.00  0.00     0.026 A 
ATOM     16  C   UNL A   1      32.942  25.754  24.916  1.00  0.00     0.079 A 
ATOM     17  N   UNL A   1      34.460  24.507  23.637  1.00  0.00    -0.216 NA
ATOM     18  C   UNL A   1      32.041  26.809  25.122  1.00  0.00     0.060 A 
ATOM     19  S   UNL A   1      33.562  24.587  26.030  1.00  0.00    -0.095 S 
ATOM     20  Cl  UNL A   1      31.411  27.186  26.680  1.00  0.00    -0.083 Cl
BRANCH  12  21
ATOM     21  O   UNL A   1      33.506  25.902  21.295  1.00  0.00    -0.494 OA
ATOM     22  C   UNL A   1      32.533  25.577  20.310  1.00  0.00     0.278 C 
ENDBRANCH  12  21
ENDBRANCH   8  11
ENDBRANCH   5   7
ENDBRANCH   4   5
ENDBRANCH   3   4
ENDBRANCH   2   3
ENDBRANCH   1   2
BRANCH   1  23
ATOM     23  C   UNL A   1      42.918  22.951  25.203  1.00  0.00     0.202 C 
BRANCH  23  24
ATOM     24  C   UNL A   1      42.932  24.001  26.308  1.00  0.00     0.261 C 
BRANCH  24  25
ATOM     25  O   UNL A   1      41.703  24.702  26.378  1.00  0.00    -0.460 OA
BRANCH  25  26
ATOM     26  C   UNL A   1      41.770  25.925  25.807  1.00  0.00     0.338 C 
ATOM     27  O   UNL A   1      42.615  26.336  25.031  1.00  0.00    -0.246 OA
BRANCH  26  28
ATOM     28  C   UNL A   1      40.686  26.766  26.325  1.00  0.00     0.060 A 
ATOM     29  C   UNL A   1      40.866  28.135  26.117  1.00  0.00     0.016 A 
ATOM     30  C   UNL A   1      39.899  26.250  27.360  1.00  0.00     0.016 A 
ATOM     31  C   UNL A   1      40.574  28.971  27.163  1.00  0.00     0.010 A 
ATOM     32  C   UNL A   1      39.626  27.082  28.411  1.00  0.00     0.010 A 
ATOM     33  C   UNL A   1      40.088  28.393  28.337  1.00  0.00    -0.014 A 
BRANCH  33  34
ATOM     34  C   UNL A   1      40.104  29.200  29.529  1.00  0.00     0.031 A 
ATOM     35  C   UNL A   1      38.907  30.044  29.660  1.00  0.00     0.074 A 
ATOM     36  C   UNL A   1      41.087  29.084  30.440  1.00  0.00     0.049 A 
ATOM     37  N   UNL A   1      38.825  31.325  29.521  1.00  0.00    -0.248 NA
ATOM     38  C   UNL A   1      37.611  29.354  29.757  1.00  0.00     0.031 C 
ATOM     39  C   UNL A   1      42.160  28.087  30.518  1.00  0.00     0.029 A 
ATOM     40  N   UNL A   1      41.265  29.815  31.568  1.00  0.00    -0.354 N 
ATOM     41  C   UNL A   1      37.486  31.620  29.732  1.00  0.00     0.074 A 
ATOM     42  C   UNL A   1      36.767  30.377  29.640  1.00  0.00     0.031 C 
ATOM     43  C   UNL A   1      42.729  28.143  31.746  1.00  0.00     0.029 A 
ATOM     44  C   UNL A   1      42.149  29.255  32.479  1.00  0.00     0.049 A 
ATOM     45  H   UNL A   1      40.806  30.671  31.727  1.00  0.00     0.167 HD
ATOM     46  C   UNL A   1      37.106  32.808  30.267  1.00  0.00     0.037 A 
ATOM     47  C   UNL A   1      42.278  29.645  33.771  1.00  0.00     0.037 A 
ATOM     48  C   UNL A   1      38.149  33.796  30.169  1.00  0.00     0.049 A 
ATOM     49  C   UNL A   1      41.703  31.015  33.878  1.00  0.00     0.074 A 
ATOM     50  C   UNL A   1      38.832  34.391  29.125  1.00  0.00     0.029 A 
ATOM     51  N   UNL A   1      38.900  34.045  31.293  1.00  0.00    -0.354 N 
ATOM     52  N   UNL A   1      42.238  32.064  33.317  1.00  0.00    -0.248 NA
ATOM     53  C   UNL A   1      40.282  31.129  34.181  1.00  0.00     0.031 C 
ATOM     54  C   UNL A   1      40.169  34.545  29.595  1.00  0.00     0.029 A 
ATOM     55  C   UNL A   1      40.216  34.078  30.909  1.00  0.00     0.049 A 
ATOM     56  H   UNL A   1      38.555  34.176  32.205  1.00  0.00     0.167 HD
ATOM     57  C   UNL A   1      41.164  32.798  32.825  1.00  0.00     0.074 A 
ATOM     58  C   UNL A   1      39.983  32.205  33.447  1.00  0.00     0.031 C 
ATOM     59  C   UNL A   1      41.304  33.616  31.739  1.00  0.00     0.037 A 
BRANCH  46  60
ATOM     60  C   UNL A   1      35.962  32.935  31.238  1.00  0.00     0.057 A 
ATOM     61  C   UNL A   1      35.968  32.401  32.546  1.00  0.00     0.134 A 
ATOM     62  C   UNL A   1      34.947  33.864  30.973  1.00  0.00     0.134 A 
ATOM     63  F   UNL A   1      36.925  31.575  32.988  1.00  0.00    -0.206 F 
ATOM     64  C   UNL A   1      35.042  32.774  33.520  1.00  0.00     0.040 A 
ATOM     65  C   UNL A   1      34.052  34.289  31.960  1.00  0.00     0.040 A 
ATOM     66  F   UNL A   1      34.850  34.451  29.770  1.00  0.00    -0.206 F 
ATOM     67  C   UNL A   1      34.102  33.749  33.240  1.00  0.00     0.006 A 
ENDBRANCH  46  60
BRANCH  47  68
ATOM     68  C   UNL A   1      42.503  28.772  34.946  1.00  0.00     0.057 A 
ATOM     69  C   UNL A   1      43.598  28.973  35.808  1.00  0.00     0.134 A 
ATOM     70  C   UNL A   1      41.805  27.570  35.111  1.00  0.00     0.134 A 
ATOM     71  F   UNL A   1      44.395  30.045  35.679  1.00  0.00    -0.206 F 
ATOM     72  C   UNL A   1      43.975  28.039  36.777  1.00  0.00     0.040 A 
ATOM     73  C   UNL A   1      42.175  26.621  36.076  1.00  0.00     0.040 A 
ATOM     74  F   UNL A   1      40.781  27.263  34.302  1.00  0.00    -0.206 F 
ATOM     75  C   UNL A   1      43.267  26.851  36.908  1.00  0.00     0.006 A 
ENDBRANCH  47  68
BRANCH  59  76
ATOM     76  C   UNL A   1      42.700  33.845  31.224  1.00  0.00     0.057 A 
ATOM     77  C   UNL A   1      43.403  34.981  31.631  1.00  0.00     0.134 A 
ATOM     78  C   UNL A   1      43.303  33.045  30.240  1.00  0.00     0.134 A 
ATOM     79  F   UNL A   1      42.860  35.829  32.519  1.00  0.00    -0.206 F 
ATOM     80  C   UNL A   1      44.658  35.298  31.104  1.00  0.00     0.040 A 
ATOM     81  C   UNL A   1      44.571  33.331  29.728  1.00  0.00     0.040 A 
ATOM     82  F   UNL A   1      42.657  31.999  29.710  1.00  0.00    -0.206 F 
ATOM     83  C   UNL A   1      45.253  34.465  30.159  1.00  0.00     0.006 A 
ENDBRANCH  59  76
ENDBRANCH  33  34
ENDBRANCH  26  28
ENDBRANCH  25  26
ENDBRANCH  24  25
ENDBRANCH  23  24
ENDBRANCH   1  23
TORSDOF 16
ENDMDL
