MODEL 1
REMARK VINA RESULT:     -11.8      0.000      0.000
REMARK SMILES Cc1c(/C=C/C(=O)OCCOCCOC(=O)c2ccc(-c3c4nc(c(-c5c(F)cccc5F)c5ccc([nH]5)c(-c5c(F)cccc5F)c5nc(c(-c6c(F)cccc6F)c6ccc3[nH]6)C=C5)C=C4)cc2)cccc1C(=O)N1C[C@@H](C)[C@@H](C)C1
REMARK SMILES IDX 10 1 9 2 8 3 6 4 7 5 5 6 4 7 3 8 1 9 2 10 74 11 71 12 73 13
REMARK SMILES IDX 72 14 75 15 76 16 77 17 78 18 83 19 79 20 81 21 80 22 82 23
REMARK SMILES IDX 11 24 12 25 13 26 14 27 15 28 16 29 17 30 18 31 70 32 19 33
REMARK SMILES IDX 69 34 20 35 21 36 22 37 63 38 23 39 68 40 62 41 64 42 24 43
REMARK SMILES IDX 67 44 61 45 60 46 25 48 51 49 34 50 50 51 35 52 38 53 49 54
REMARK SMILES IDX 65 55 36 56 37 57 48 59 66 60 39 61 26 62 27 63 32 64 28 65
REMARK SMILES IDX 29 66 31 67 33 68 30 69 52 70 53 71 58 72 54 73 55 74 57 75
REMARK SMILES IDX 59 76 56 77 40 78 41 79 46 80 42 81 43 82 45 83 47 84 44 85
REMARK H PARENT 64 47 38 58
REMARK Flexibility Score: inf
ROOT
ATOM      1  C   UNL A   1      33.375  34.124  28.034  1.00  0.00     0.202 C 
ENDROOT
BRANCH   1   2
ATOM      2  C   UNL A   1      33.956  32.812  28.455  1.00  0.00     0.261 C 
BRANCH   2   3
ATOM      3  O   UNL A   1      34.282  32.007  27.316  1.00  0.00    -0.460 OA
BRANCH   3   4
ATOM      4  C   UNL A   1      34.081  30.654  27.250  1.00  0.00     0.330 C 
ATOM      5  O   UNL A   1      34.697  29.771  27.788  1.00  0.00    -0.247 OA
BRANCH   4   6
ATOM      6  C   UNL A   1      32.822  30.441  26.478  1.00  0.00     0.094 C 
ATOM      7  C   UNL A   1      32.764  29.341  25.715  1.00  0.00     0.016 C 
BRANCH   7   8
ATOM      8  C   UNL A   1      31.885  28.950  24.616  1.00  0.00    -0.022 A 
ATOM      9  C   UNL A   1      33.630  27.217  23.993  1.00  0.00     0.046 C 
ATOM     10  C   UNL A   1      32.228  27.784  23.864  1.00  0.00    -0.031 A 
ATOM     11  C   UNL A   1      31.274  27.250  22.978  1.00  0.00     0.043 A 
ATOM     12  C   UNL A   1      30.739  29.687  24.310  1.00  0.00     0.008 A 
ATOM     13  C   UNL A   1      30.105  27.997  22.719  1.00  0.00     0.014 A 
ATOM     14  C   UNL A   1      29.863  29.222  23.341  1.00  0.00     0.001 A 
BRANCH  11  15
ATOM     15  C   UNL A   1      31.460  26.028  22.133  1.00  0.00     0.254 C 
ATOM     16  O   UNL A   1      31.547  26.175  20.913  1.00  0.00    -0.269 OA
BRANCH  15  17
ATOM     17  N   UNL A   1      31.639  24.784  22.716  1.00  0.00    -0.338 N 
ATOM     18  C   UNL A   1      30.786  24.410  23.823  1.00  0.00     0.123 C 
ATOM     19  C   UNL A   1      32.880  24.014  22.715  1.00  0.00     0.123 C 
ATOM     20  C   UNL A   1      31.680  23.630  24.773  1.00  0.00     0.010 C 
ATOM     21  C   UNL A   1      32.712  22.967  23.838  1.00  0.00     0.010 C 
ATOM     22  C   UNL A   1      30.859  22.712  25.667  1.00  0.00     0.010 C 
ATOM     23  C   UNL A   1      32.305  21.594  23.303  1.00  0.00     0.010 C 
ENDBRANCH  15  17
ENDBRANCH  11  15
ENDBRANCH   7   8
ENDBRANCH   4   6
ENDBRANCH   3   4
ENDBRANCH   2   3
ENDBRANCH   1   2
BRANCH   1  24
ATOM     24  O   UNL A   1      32.752  34.647  29.193  1.00  0.00    -0.374 OA
BRANCH  24  25
ATOM     25  C   UNL A   1      32.989  36.015  29.449  1.00  0.00     0.202 C 
BRANCH  25  26
ATOM     26  C   UNL A   1      32.773  36.380  30.924  1.00  0.00     0.261 C 
BRANCH  26  27
ATOM     27  O   UNL A   1      33.036  35.226  31.754  1.00  0.00    -0.460 OA
BRANCH  27  28
ATOM     28  C   UNL A   1      34.270  35.161  32.332  1.00  0.00     0.338 C 
ATOM     29  O   UNL A   1      34.804  36.060  32.962  1.00  0.00    -0.246 OA
BRANCH  28  30
ATOM     30  C   UNL A   1      35.003  33.958  31.832  1.00  0.00     0.060 A 
ATOM     31  C   UNL A   1      34.927  32.736  32.530  1.00  0.00     0.016 A 
ATOM     32  C   UNL A   1      36.021  34.158  30.906  1.00  0.00     0.016 A 
ATOM     33  C   UNL A   1      35.960  31.786  32.419  1.00  0.00     0.010 A 
ATOM     34  C   UNL A   1      37.086  33.282  30.898  1.00  0.00     0.010 A 
ATOM     35  C   UNL A   1      37.087  32.102  31.662  1.00  0.00    -0.014 A 
BRANCH  35  36
ATOM     36  C   UNL A   1      38.372  31.387  31.659  1.00  0.00     0.031 A 
ATOM     37  C   UNL A   1      38.520  30.183  30.808  1.00  0.00     0.074 A 
ATOM     38  C   UNL A   1      39.508  31.950  32.142  1.00  0.00     0.049 A 
ATOM     39  N   UNL A   1      39.484  29.335  30.938  1.00  0.00    -0.248 NA
ATOM     40  C   UNL A   1      37.593  29.829  29.735  1.00  0.00     0.031 C 
ATOM     41  C   UNL A   1      40.880  31.699  31.688  1.00  0.00     0.029 A 
ATOM     42  N   UNL A   1      39.688  32.911  33.144  1.00  0.00    -0.354 N 
ATOM     43  C   UNL A   1      39.513  28.583  29.788  1.00  0.00     0.074 A 
ATOM     44  C   UNL A   1      38.263  28.853  29.121  1.00  0.00     0.031 C 
ATOM     45  C   UNL A   1      41.748  32.266  32.541  1.00  0.00     0.029 A 
ATOM     46  C   UNL A   1      40.988  32.765  33.667  1.00  0.00     0.049 A 
ATOM     47  H   UNL A   1      39.021  33.574  33.433  1.00  0.00     0.167 HD
ATOM     48  C   UNL A   1      40.659  27.945  29.421  1.00  0.00     0.037 A 
ATOM     49  C   UNL A   1      41.193  32.540  34.993  1.00  0.00     0.037 A 
ATOM     50  C   UNL A   1      41.773  28.265  30.322  1.00  0.00     0.049 A 
ATOM     51  C   UNL A   1      41.822  31.190  35.212  1.00  0.00     0.074 A 
ATOM     52  C   UNL A   1      42.890  29.081  30.221  1.00  0.00     0.029 A 
ATOM     53  N   UNL A   1      41.666  27.967  31.671  1.00  0.00    -0.354 N 
ATOM     54  N   UNL A   1      42.210  30.427  34.230  1.00  0.00    -0.248 NA
ATOM     55  C   UNL A   1      41.985  30.541  36.508  1.00  0.00     0.031 C 
ATOM     56  C   UNL A   1      43.482  29.203  31.513  1.00  0.00     0.029 A 
ATOM     57  C   UNL A   1      42.731  28.457  32.403  1.00  0.00     0.049 A 
ATOM     58  H   UNL A   1      40.916  27.463  32.063  1.00  0.00     0.167 HD
ATOM     59  C   UNL A   1      42.522  29.188  34.691  1.00  0.00     0.074 A 
ATOM     60  C   UNL A   1      42.393  29.312  36.135  1.00  0.00     0.031 C 
ATOM     61  C   UNL A   1      42.805  28.163  33.831  1.00  0.00     0.037 A 
BRANCH  48  62
ATOM     62  C   UNL A   1      40.807  27.266  28.080  1.00  0.00     0.057 A 
ATOM     63  C   UNL A   1      40.387  25.940  27.877  1.00  0.00     0.134 A 
ATOM     64  C   UNL A   1      41.366  27.877  26.941  1.00  0.00     0.134 A 
ATOM     65  F   UNL A   1      39.722  25.258  28.816  1.00  0.00    -0.206 F 
ATOM     66  C   UNL A   1      40.622  25.241  26.686  1.00  0.00     0.040 A 
ATOM     67  C   UNL A   1      41.664  27.174  25.764  1.00  0.00     0.040 A 
ATOM     68  F   UNL A   1      41.610  29.196  26.901  1.00  0.00    -0.206 F 
ATOM     69  C   UNL A   1      41.302  25.844  25.638  1.00  0.00     0.006 A 
ENDBRANCH  48  62
BRANCH  49  70
ATOM     70  C   UNL A   1      40.156  33.221  35.823  1.00  0.00     0.057 A 
ATOM     71  C   UNL A   1      39.093  32.437  36.316  1.00  0.00     0.134 A 
ATOM     72  C   UNL A   1      40.465  34.387  36.534  1.00  0.00     0.134 A 
ATOM     73  F   UNL A   1      38.753  31.292  35.699  1.00  0.00    -0.206 F 
ATOM     74  C   UNL A   1      38.462  32.725  37.532  1.00  0.00     0.040 A 
ATOM     75  C   UNL A   1      39.852  34.673  37.762  1.00  0.00     0.040 A 
ATOM     76  F   UNL A   1      41.473  35.176  36.137  1.00  0.00    -0.206 F 
ATOM     77  C   UNL A   1      38.877  33.821  38.283  1.00  0.00     0.006 A 
ENDBRANCH  49  70
BRANCH  61  78
ATOM     78  C   UNL A   1      43.139  26.772  34.287  1.00  0.00     0.057 A 
ATOM     79  C   UNL A   1      44.402  26.202  34.098  1.00  0.00     0.134 A 
ATOM     80  C   UNL A   1      42.171  25.920  34.860  1.00  0.00     0.134 A 
ATOM     81  F   UNL A   1      45.364  26.851  33.427  1.00  0.00    -0.206 F 
ATOM     82  C   UNL A   1      44.719  24.922  34.565  1.00  0.00     0.040 A 
ATOM     83  C   UNL A   1      42.458  24.622  35.277  1.00  0.00     0.040 A 
ATOM     84  F   UNL A   1      40.905  26.303  35.064  1.00  0.00    -0.206 F 
ATOM     85  C   UNL A   1      43.746  24.130  35.162  1.00  0.00     0.006 A 
ENDBRANCH  61  78
ENDBRANCH  35  36
ENDBRANCH  28  30
ENDBRANCH  27  28
ENDBRANCH  26  27
ENDBRANCH  25  26
ENDBRANCH  24  25
ENDBRANCH   1  24
TORSDOF 17
ENDMDL
MODEL 2
REMARK VINA RESULT:     -11.4      5.516     10.920
REMARK SMILES Cc1c(/C=C/C(=O)OCCOCCOC(=O)c2ccc(-c3c4nc(c(-c5c(F)cccc5F)c5ccc([nH]5)c(-c5c(F)cccc5F)c5nc(c(-c6c(F)cccc6F)c6ccc3[nH]6)C=C5)C=C4)cc2)cccc1C(=O)N1C[C@@H](C)[C@@H](C)C1
REMARK SMILES IDX 10 1 9 2 8 3 6 4 7 5 5 6 4 7 3 8 1 9 2 10 74 11 71 12 73 13
REMARK SMILES IDX 72 14 75 15 76 16 77 17 78 18 83 19 79 20 81 21 80 22 82 23
REMARK SMILES IDX 11 24 12 25 13 26 14 27 15 28 16 29 17 30 18 31 70 32 19 33
REMARK SMILES IDX 69 34 20 35 21 36 22 37 63 38 23 39 68 40 62 41 64 42 24 43
REMARK SMILES IDX 67 44 61 45 60 46 25 48 51 49 34 50 50 51 35 52 38 53 49 54
REMARK SMILES IDX 65 55 36 56 37 57 48 59 66 60 39 61 26 62 27 63 32 64 28 65
REMARK SMILES IDX 29 66 31 67 33 68 30 69 52 70 53 71 58 72 54 73 55 74 57 75
REMARK SMILES IDX 59 76 56 77 40 78 41 79 46 80 42 81 43 82 45 83 47 84 44 85
REMARK H PARENT 64 47 38 58
REMARK Flexibility Score: inf
ROOT
ATOM      1  C   UNL A   1      42.290  20.246  25.829  1.00  0.00     0.202 C 
ENDROOT
BRANCH   1   2
ATOM      2  C   UNL A   1      41.121  19.694  26.584  1.00  0.00     0.261 C 
BRANCH   2   3
ATOM      3  O   UNL A   1      39.903  19.895  25.859  1.00  0.00    -0.460 OA
BRANCH   3   4
ATOM      4  C   UNL A   1      39.158  21.042  25.913  1.00  0.00     0.330 C 
ATOM      5  O   UNL A   1      39.417  22.087  26.452  1.00  0.00    -0.247 OA
BRANCH   4   6
ATOM      6  C   UNL A   1      37.973  20.831  25.032  1.00  0.00     0.094 C 
ATOM      7  C   UNL A   1      36.949  21.682  25.185  1.00  0.00     0.016 C 
BRANCH   7   8
ATOM      8  C   UNL A   1      35.551  21.627  24.765  1.00  0.00    -0.022 A 
ATOM      9  C   UNL A   1      35.779  24.066  24.102  1.00  0.00     0.046 C 
ATOM     10  C   UNL A   1      35.016  22.755  24.068  1.00  0.00    -0.031 A 
ATOM     11  C   UNL A   1      33.764  22.623  23.437  1.00  0.00     0.043 A 
ATOM     12  C   UNL A   1      34.761  20.507  25.029  1.00  0.00     0.008 A 
ATOM     13  C   UNL A   1      33.005  21.461  23.688  1.00  0.00     0.014 A 
ATOM     14  C   UNL A   1      33.477  20.437  24.511  1.00  0.00     0.001 A 
BRANCH  11  15
ATOM     15  C   UNL A   1      33.070  23.691  22.651  1.00  0.00     0.254 C 
ATOM     16  O   UNL A   1      33.280  23.746  21.438  1.00  0.00    -0.269 OA
BRANCH  15  17
ATOM     17  N   UNL A   1      32.137  24.520  23.252  1.00  0.00    -0.338 N 
ATOM     18  C   UNL A   1      32.551  25.327  24.378  1.00  0.00     0.123 C 
ATOM     19  C   UNL A   1      30.690  24.320  23.243  1.00  0.00     0.123 C 
ATOM     20  C   UNL A   1      31.363  25.334  25.327  1.00  0.00     0.010 C 
ATOM     21  C   UNL A   1      30.148  25.205  24.386  1.00  0.00     0.010 C 
ATOM     22  C   UNL A   1      31.407  26.543  26.249  1.00  0.00     0.010 C 
ATOM     23  C   UNL A   1      29.585  26.534  23.880  1.00  0.00     0.010 C 
ENDBRANCH  15  17
ENDBRANCH  11  15
ENDBRANCH   7   8
ENDBRANCH   4   6
ENDBRANCH   3   4
ENDBRANCH   2   3
ENDBRANCH   1   2
BRANCH   1  24
ATOM     24  O   UNL A   1      42.736  19.188  25.002  1.00  0.00    -0.374 OA
BRANCH  24  25
ATOM     25  C   UNL A   1      44.091  18.824  25.153  1.00  0.00     0.202 C 
BRANCH  25  26
ATOM     26  C   UNL A   1      44.969  19.349  24.009  1.00  0.00     0.261 C 
BRANCH  26  27
ATOM     27  O   UNL A   1      45.678  20.531  24.444  1.00  0.00    -0.460 OA
BRANCH  27  28
ATOM     28  C   UNL A   1      45.090  21.730  24.166  1.00  0.00     0.338 C 
ATOM     29  O   UNL A   1      44.528  22.017  23.121  1.00  0.00    -0.246 OA
BRANCH  28  30
ATOM     30  C   UNL A   1      45.491  22.743  25.190  1.00  0.00     0.060 A 
ATOM     31  C   UNL A   1      45.061  22.614  26.527  1.00  0.00     0.016 A 
ATOM     32  C   UNL A   1      45.970  23.967  24.738  1.00  0.00     0.016 A 
ATOM     33  C   UNL A   1      44.960  23.747  27.355  1.00  0.00     0.010 A 
ATOM     34  C   UNL A   1      45.751  25.087  25.513  1.00  0.00     0.010 A 
ATOM     35  C   UNL A   1      45.227  25.003  26.814  1.00  0.00    -0.014 A 
BRANCH  35  36
ATOM     36  C   UNL A   1      44.903  26.306  27.414  1.00  0.00     0.031 A 
ATOM     37  C   UNL A   1      43.490  26.752  27.438  1.00  0.00     0.074 A 
ATOM     38  C   UNL A   1      45.776  26.963  28.220  1.00  0.00     0.049 A 
ATOM     39  N   UNL A   1      43.133  27.969  27.678  1.00  0.00    -0.248 NA
ATOM     40  C   UNL A   1      42.355  25.864  27.193  1.00  0.00     0.031 C 
ATOM     41  C   UNL A   1      45.447  27.860  29.332  1.00  0.00     0.029 A 
ATOM     42  N   UNL A   1      47.175  26.950  28.241  1.00  0.00    -0.354 N 
ATOM     43  C   UNL A   1      41.793  27.939  27.979  1.00  0.00     0.074 A 
ATOM     44  C   UNL A   1      41.333  26.637  27.565  1.00  0.00     0.031 C 
ATOM     45  C   UNL A   1      46.557  28.489  29.748  1.00  0.00     0.029 A 
ATOM     46  C   UNL A   1      47.619  28.153  28.823  1.00  0.00     0.049 A 
ATOM     47  H   UNL A   1      47.750  26.225  27.905  1.00  0.00     0.167 HD
ATOM     48  C   UNL A   1      41.238  28.946  28.711  1.00  0.00     0.037 A 
ATOM     49  C   UNL A   1      48.458  28.991  28.157  1.00  0.00     0.037 A 
ATOM     50  C   UNL A   1      42.248  29.909  29.167  1.00  0.00     0.049 A 
ATOM     51  C   UNL A   1      47.786  30.311  27.885  1.00  0.00     0.074 A 
ATOM     52  C   UNL A   1      42.864  30.155  30.385  1.00  0.00     0.029 A 
ATOM     53  N   UNL A   1      43.016  30.585  28.232  1.00  0.00    -0.354 N 
ATOM     54  N   UNL A   1      46.605  30.606  28.348  1.00  0.00    -0.248 NA
ATOM     55  C   UNL A   1      48.311  31.356  27.015  1.00  0.00     0.031 C 
ATOM     56  C   UNL A   1      43.959  31.041  30.168  1.00  0.00     0.029 A 
ATOM     57  C   UNL A   1      44.011  31.343  28.820  1.00  0.00     0.049 A 
ATOM     58  H   UNL A   1      42.867  30.533  27.260  1.00  0.00     0.167 HD
ATOM     59  C   UNL A   1      46.143  31.746  27.769  1.00  0.00     0.074 A 
ATOM     60  C   UNL A   1      47.262  32.199  26.956  1.00  0.00     0.031 C 
ATOM     61  C   UNL A   1      44.861  32.176  27.974  1.00  0.00     0.037 A 
BRANCH  48  62
ATOM     62  C   UNL A   1      39.822  28.875  29.232  1.00  0.00     0.057 A 
ATOM     63  C   UNL A   1      38.726  29.257  28.440  1.00  0.00     0.134 A 
ATOM     64  C   UNL A   1      39.476  28.436  30.525  1.00  0.00     0.134 A 
ATOM     65  F   UNL A   1      38.866  29.579  27.149  1.00  0.00    -0.206 F 
ATOM     66  C   UNL A   1      37.416  29.321  28.932  1.00  0.00     0.040 A 
ATOM     67  C   UNL A   1      38.181  28.552  31.052  1.00  0.00     0.040 A 
ATOM     68  F   UNL A   1      40.370  27.831  31.322  1.00  0.00    -0.206 F 
ATOM     69  C   UNL A   1      37.145  29.010  30.256  1.00  0.00     0.006 A 
ENDBRANCH  48  62
BRANCH  49  70
ATOM     70  C   UNL A   1      49.393  28.232  27.275  1.00  0.00     0.057 A 
ATOM     71  C   UNL A   1      50.497  27.598  27.882  1.00  0.00     0.134 A 
ATOM     72  C   UNL A   1      48.951  27.704  26.056  1.00  0.00     0.134 A 
ATOM     73  F   UNL A   1      50.962  28.035  29.064  1.00  0.00    -0.206 F 
ATOM     74  C   UNL A   1      51.044  26.415  27.371  1.00  0.00     0.040 A 
ATOM     75  C   UNL A   1      49.480  26.509  25.547  1.00  0.00     0.040 A 
ATOM     76  F   UNL A   1      47.897  28.242  25.426  1.00  0.00    -0.206 F 
ATOM     77  C   UNL A   1      50.500  25.841  26.225  1.00  0.00     0.006 A 
ENDBRANCH  49  70
BRANCH  61  78
ATOM     78  C   UNL A   1      44.297  33.416  27.345  1.00  0.00     0.057 A 
ATOM     79  C   UNL A   1      44.020  34.573  28.081  1.00  0.00     0.134 A 
ATOM     80  C   UNL A   1      43.929  33.464  25.984  1.00  0.00     0.134 A 
ATOM     81  F   UNL A   1      44.180  34.604  29.413  1.00  0.00    -0.206 F 
ATOM     82  C   UNL A   1      43.536  35.740  27.481  1.00  0.00     0.040 A 
ATOM     83  C   UNL A   1      43.391  34.602  25.385  1.00  0.00     0.040 A 
ATOM     84  F   UNL A   1      44.087  32.422  25.158  1.00  0.00    -0.206 F 
ATOM     85  C   UNL A   1      43.226  35.758  26.127  1.00  0.00     0.006 A 
ENDBRANCH  61  78
ENDBRANCH  35  36
ENDBRANCH  28  30
ENDBRANCH  27  28
ENDBRANCH  26  27
ENDBRANCH  25  26
ENDBRANCH  24  25
ENDBRANCH   1  24
TORSDOF 17
ENDMDL
MODEL 3
REMARK VINA RESULT:     -10.7      1.336      2.116
REMARK SMILES Cc1c(/C=C/C(=O)OCCOCCOC(=O)c2ccc(-c3c4nc(c(-c5c(F)cccc5F)c5ccc([nH]5)c(-c5c(F)cccc5F)c5nc(c(-c6c(F)cccc6F)c6ccc3[nH]6)C=C5)C=C4)cc2)cccc1C(=O)N1C[C@@H](C)[C@@H](C)C1
REMARK SMILES IDX 10 1 9 2 8 3 6 4 7 5 5 6 4 7 3 8 1 9 2 10 74 11 71 12 73 13
REMARK SMILES IDX 72 14 75 15 76 16 77 17 78 18 83 19 79 20 81 21 80 22 82 23
REMARK SMILES IDX 11 24 12 25 13 26 14 27 15 28 16 29 17 30 18 31 70 32 19 33
REMARK SMILES IDX 69 34 20 35 21 36 22 37 63 38 23 39 68 40 62 41 64 42 24 43
REMARK SMILES IDX 67 44 61 45 60 46 25 48 51 49 34 50 50 51 35 52 38 53 49 54
REMARK SMILES IDX 65 55 36 56 37 57 48 59 66 60 39 61 26 62 27 63 32 64 28 65
REMARK SMILES IDX 29 66 31 67 33 68 30 69 52 70 53 71 58 72 54 73 55 74 57 75
REMARK SMILES IDX 59 76 56 77 40 78 41 79 46 80 42 81 43 82 45 83 47 84 44 85
REMARK H PARENT 64 47 38 58
REMARK Flexibility Score: inf
ROOT
ATOM      1  C   UNL A   1      33.688  35.504  28.567  1.00  0.00     0.202 C 
ENDROOT
BRANCH   1   2
ATOM      2  C   UNL A   1      34.222  34.108  28.620  1.00  0.00     0.261 C 
BRANCH   2   3
ATOM      3  O   UNL A   1      33.351  33.200  27.937  1.00  0.00    -0.460 OA
BRANCH   3   4
ATOM      4  C   UNL A   1      33.624  31.872  27.745  1.00  0.00     0.330 C 
ATOM      5  O   UNL A   1      34.508  31.206  28.218  1.00  0.00    -0.247 OA
BRANCH   4   6
ATOM      6  C   UNL A   1      32.511  31.315  26.923  1.00  0.00     0.094 C 
ATOM      7  C   UNL A   1      32.534  29.995  26.693  1.00  0.00     0.016 C 
BRANCH   7   8
ATOM      8  C   UNL A   1      31.842  29.152  25.721  1.00  0.00    -0.022 A 
ATOM      9  C   UNL A   1      32.954  27.161  26.834  1.00  0.00     0.046 C 
ATOM     10  C   UNL A   1      31.910  27.735  25.894  1.00  0.00    -0.031 A 
ATOM     11  C   UNL A   1      31.052  26.922  25.130  1.00  0.00     0.043 A 
ATOM     12  C   UNL A   1      31.130  29.710  24.658  1.00  0.00     0.008 A 
ATOM     13  C   UNL A   1      30.312  27.520  24.088  1.00  0.00     0.014 A 
ATOM     14  C   UNL A   1      30.386  28.889  23.825  1.00  0.00     0.001 A 
BRANCH  11  15
ATOM     15  C   UNL A   1      30.977  25.428  25.200  1.00  0.00     0.254 C 
ATOM     16  O   UNL A   1      30.149  24.925  25.961  1.00  0.00    -0.269 OA
BRANCH  15  17
ATOM     17  N   UNL A   1      31.740  24.641  24.354  1.00  0.00    -0.338 N 
ATOM     18  C   UNL A   1      33.040  24.195  24.806  1.00  0.00     0.123 C 
ATOM     19  C   UNL A   1      31.646  24.620  22.896  1.00  0.00     0.123 C 
ATOM     20  C   UNL A   1      33.931  24.242  23.576  1.00  0.00     0.010 C 
ATOM     21  C   UNL A   1      32.958  23.964  22.412  1.00  0.00     0.010 C 
ATOM     22  C   UNL A   1      35.122  23.307  23.728  1.00  0.00     0.010 C 
ATOM     23  C   UNL A   1      32.779  22.486  22.065  1.00  0.00     0.010 C 
ENDBRANCH  15  17
ENDBRANCH  11  15
ENDBRANCH   7   8
ENDBRANCH   4   6
ENDBRANCH   3   4
ENDBRANCH   2   3
ENDBRANCH   1   2
BRANCH   1  24
ATOM     24  O   UNL A   1      32.584  35.518  29.452  1.00  0.00    -0.374 OA
BRANCH  24  25
ATOM     25  C   UNL A   1      32.668  36.439  30.519  1.00  0.00     0.202 C 
BRANCH  25  26
ATOM     26  C   UNL A   1      32.846  35.745  31.877  1.00  0.00     0.261 C 
BRANCH  26  27
ATOM     27  O   UNL A   1      34.225  35.340  32.039  1.00  0.00    -0.460 OA
BRANCH  27  28
ATOM     28  C   UNL A   1      34.439  34.047  32.414  1.00  0.00     0.338 C 
ATOM     29  O   UNL A   1      33.572  33.251  32.739  1.00  0.00    -0.246 OA
BRANCH  28  30
ATOM     30  C   UNL A   1      35.896  33.824  32.666  1.00  0.00     0.060 A 
ATOM     31  C   UNL A   1      36.857  34.283  31.742  1.00  0.00     0.016 A 
ATOM     32  C   UNL A   1      36.252  32.866  33.608  1.00  0.00     0.016 A 
ATOM     33  C   UNL A   1      38.119  33.666  31.661  1.00  0.00     0.010 A 
ATOM     34  C   UNL A   1      37.440  32.186  33.441  1.00  0.00     0.010 A 
ATOM     35  C   UNL A   1      38.378  32.554  32.461  1.00  0.00    -0.014 A 
BRANCH  35  36
ATOM     36  C   UNL A   1      39.497  31.611  32.319  1.00  0.00     0.031 A 
ATOM     37  C   UNL A   1      39.346  30.453  31.405  1.00  0.00     0.074 A 
ATOM     38  C   UNL A   1      40.753  31.918  32.732  1.00  0.00     0.049 A 
ATOM     39  N   UNL A   1      40.136  29.432  31.416  1.00  0.00    -0.248 NA
ATOM     40  C   UNL A   1      38.293  30.346  30.398  1.00  0.00     0.031 C 
ATOM     41  C   UNL A   1      42.013  31.440  32.154  1.00  0.00     0.029 A 
ATOM     42  N   UNL A   1      41.188  32.766  33.757  1.00  0.00    -0.354 N 
ATOM     43  C   UNL A   1      39.935  28.760  30.236  1.00  0.00     0.074 A 
ATOM     44  C   UNL A   1      38.715  29.300  29.687  1.00  0.00     0.031 C 
ATOM     45  C   UNL A   1      43.034  31.780  32.957  1.00  0.00     0.029 A 
ATOM     46  C   UNL A   1      42.469  32.345  34.164  1.00  0.00     0.049 A 
ATOM     47  H   UNL A   1      40.684  33.524  34.131  1.00  0.00     0.167 HD
ATOM     48  C   UNL A   1      40.907  27.939  29.746  1.00  0.00     0.037 A 
ATOM     49  C   UNL A   1      42.722  32.006  35.456  1.00  0.00     0.037 A 
ATOM     50  C   UNL A   1      42.124  27.988  30.565  1.00  0.00     0.049 A 
ATOM     51  C   UNL A   1      43.093  30.551  35.562  1.00  0.00     0.074 A 
ATOM     52  C   UNL A   1      43.367  28.582  30.408  1.00  0.00     0.029 A 
ATOM     53  N   UNL A   1      42.059  27.635  31.903  1.00  0.00    -0.354 N 
ATOM     54  N   UNL A   1      43.254  29.789  34.517  1.00  0.00    -0.248 NA
ATOM     55  C   UNL A   1      43.221  29.805  36.808  1.00  0.00     0.031 C 
ATOM     56  C   UNL A   1      44.063  28.512  31.651  1.00  0.00     0.029 A 
ATOM     57  C   UNL A   1      43.250  27.869  32.566  1.00  0.00     0.049 A 
ATOM     58  H   UNL A   1      41.257  27.259  32.333  1.00  0.00     0.167 HD
ATOM     59  C   UNL A   1      43.353  28.487  34.894  1.00  0.00     0.074 A 
ATOM     60  C   UNL A   1      43.355  28.546  36.348  1.00  0.00     0.031 C 
ATOM     61  C   UNL A   1      43.369  27.481  33.968  1.00  0.00     0.037 A 
BRANCH  48  62
ATOM     62  C   UNL A   1      40.822  27.326  28.368  1.00  0.00     0.057 A 
ATOM     63  C   UNL A   1      40.071  26.164  28.125  1.00  0.00     0.134 A 
ATOM     64  C   UNL A   1      41.472  27.844  27.230  1.00  0.00     0.134 A 
ATOM     65  F   UNL A   1      39.294  25.615  29.065  1.00  0.00    -0.206 F 
ATOM     66  C   UNL A   1      40.072  25.500  26.891  1.00  0.00     0.040 A 
ATOM     67  C   UNL A   1      41.533  27.161  26.007  1.00  0.00     0.040 A 
ATOM     68  F   UNL A   1      42.040  29.060  27.241  1.00  0.00    -0.206 F 
ATOM     69  C   UNL A   1      40.840  25.975  25.837  1.00  0.00     0.006 A 
ENDBRANCH  48  62
BRANCH  49  70
ATOM     70  C   UNL A   1      41.900  32.819  36.400  1.00  0.00     0.057 A 
ATOM     71  C   UNL A   1      42.301  34.151  36.638  1.00  0.00     0.134 A 
ATOM     72  C   UNL A   1      40.548  32.519  36.609  1.00  0.00     0.134 A 
ATOM     73  F   UNL A   1      43.577  34.519  36.437  1.00  0.00    -0.206 F 
ATOM     74  C   UNL A   1      41.377  35.160  36.934  1.00  0.00     0.040 A 
ATOM     75  C   UNL A   1      39.614  33.526  36.886  1.00  0.00     0.040 A 
ATOM     76  F   UNL A   1      40.088  31.279  36.388  1.00  0.00    -0.206 F 
ATOM     77  C   UNL A   1      40.022  34.855  37.010  1.00  0.00     0.006 A 
ENDBRANCH  49  70
BRANCH  61  78
ATOM     78  C   UNL A   1      43.460  26.027  34.332  1.00  0.00     0.057 A 
ATOM     79  C   UNL A   1      42.428  25.351  34.991  1.00  0.00     0.134 A 
ATOM     80  C   UNL A   1      44.630  25.271  34.107  1.00  0.00     0.134 A 
ATOM     81  F   UNL A   1      41.324  25.995  35.399  1.00  0.00    -0.206 F 
ATOM     82  C   UNL A   1      42.501  23.986  35.286  1.00  0.00     0.040 A 
ATOM     83  C   UNL A   1      44.738  23.925  34.449  1.00  0.00     0.040 A 
ATOM     84  F   UNL A   1      45.721  25.788  33.529  1.00  0.00    -0.206 F 
ATOM     85  C   UNL A   1      43.658  23.267  35.010  1.00  0.00     0.006 A 
ENDBRANCH  61  78
ENDBRANCH  35  36
ENDBRANCH  28  30
ENDBRANCH  27  28
ENDBRANCH  26  27
ENDBRANCH  25  26
ENDBRANCH  24  25
ENDBRANCH   1  24
TORSDOF 17
ENDMDL
