MODEL 1
REMARK VINA RESULT:     -11.0      0.000      0.000
REMARK SMILES O=C(Cn1cnc(-c2ccccc2)c1-c1ccccc1)OCCOCCOC(=O)c1ccc(-c2c3nc(c(-c4c(F)cccc4F)c4ccc([nH]4)c(-c4c(F)cccc4F)c4nc(c(-c5c(F)cccc5F)c5ccc2[nH]5)C=C4)C=C3)cc1
REMARK SMILES IDX 24 1 23 2 22 3 21 4 2 5 1 6 3 7 4 8 5 9 14 10 6 11 7 12
REMARK SMILES IDX 15 13 16 14 20 15 17 16 19 17 18 18 8 19 9 20 13 21 10 22
REMARK SMILES IDX 12 23 11 24 25 25 26 26 27 27 28 28 29 29 30 30 31 31 83 32
REMARK SMILES IDX 32 33 82 34 33 35 34 36 35 37 76 38 36 39 81 40 75 41 77 42
REMARK SMILES IDX 37 43 80 44 74 45 73 46 38 48 64 49 47 50 63 51 48 52 51 53
REMARK SMILES IDX 62 54 78 55 49 56 50 57 61 59 79 60 52 61 39 62 40 63 45 64
REMARK SMILES IDX 41 65 42 66 44 67 46 68 43 69 65 70 66 71 71 72 67 73 68 74
REMARK SMILES IDX 70 75 72 76 69 77 53 78 54 79 59 80 55 81 56 82 58 83 60 84
REMARK SMILES IDX 57 85
REMARK H PARENT 77 47 51 58
REMARK Flexibility Score: inf
ROOT
ATOM      1  O   UNL A   1      36.307  22.424  24.814  1.00  0.00    -0.374 OA
ENDROOT
BRANCH   1   2
ATOM      2  C   UNL A   1      36.139  21.067  25.185  1.00  0.00     0.202 C 
BRANCH   2   3
ATOM      3  C   UNL A   1      34.775  20.407  24.979  1.00  0.00     0.261 C 
BRANCH   3   4
ATOM      4  O   UNL A   1      33.678  21.263  24.637  1.00  0.00    -0.462 OA
BRANCH   4   5
ATOM      5  C   UNL A   1      32.375  20.927  24.797  1.00  0.00     0.326 C 
ATOM      6  O   UNL A   1      32.058  19.737  24.869  1.00  0.00    -0.250 OA
BRANCH   5   7
ATOM      7  C   UNL A   1      31.321  21.986  24.677  1.00  0.00     0.246 C 
BRANCH   7   8
ATOM      8  N   UNL A   1      31.444  23.214  25.445  1.00  0.00    -0.319 N 
ATOM      9  C   UNL A   1      31.219  23.221  26.799  1.00  0.00     0.201 A 
ATOM     10  C   UNL A   1      31.819  24.490  25.069  1.00  0.00     0.076 A 
ATOM     11  N   UNL A   1      31.474  24.390  27.327  1.00  0.00    -0.236 NA
ATOM     12  C   UNL A   1      31.841  25.186  26.273  1.00  0.00     0.096 A 
BRANCH  10  13
ATOM     13  C   UNL A   1      32.067  24.942  23.699  1.00  0.00     0.000 A 
ATOM     14  C   UNL A   1      33.078  24.377  22.921  1.00  0.00     0.010 A 
ATOM     15  C   UNL A   1      31.248  25.933  23.134  1.00  0.00     0.010 A 
ATOM     16  C   UNL A   1      33.240  24.771  21.589  1.00  0.00     0.001 A 
ATOM     17  C   UNL A   1      31.408  26.324  21.805  1.00  0.00     0.001 A 
ATOM     18  C   UNL A   1      32.402  25.737  21.031  1.00  0.00     0.000 A 
ENDBRANCH  10  13
BRANCH  12  19
ATOM     19  C   UNL A   1      32.282  26.549  26.458  1.00  0.00     0.002 A 
ATOM     20  C   UNL A   1      31.394  27.475  27.016  1.00  0.00     0.010 A 
ATOM     21  C   UNL A   1      33.570  26.957  26.101  1.00  0.00     0.010 A 
ATOM     22  C   UNL A   1      31.809  28.782  27.266  1.00  0.00     0.001 A 
ATOM     23  C   UNL A   1      33.988  28.264  26.358  1.00  0.00     0.001 A 
ATOM     24  C   UNL A   1      33.110  29.171  26.948  1.00  0.00     0.000 A 
ENDBRANCH  12  19
ENDBRANCH   7   8
ENDBRANCH   5   7
ENDBRANCH   4   5
ENDBRANCH   3   4
ENDBRANCH   2   3
ENDBRANCH   1   2
BRANCH   1  25
ATOM     25  C   UNL A   1      37.403  23.180  25.332  1.00  0.00     0.202 C 
BRANCH  25  26
ATOM     26  C   UNL A   1      38.523  22.466  26.074  1.00  0.00     0.261 C 
BRANCH  26  27
ATOM     27  O   UNL A   1      39.085  23.311  27.076  1.00  0.00    -0.460 OA
BRANCH  27  28
ATOM     28  C   UNL A   1      40.376  23.085  27.368  1.00  0.00     0.338 C 
ATOM     29  O   UNL A   1      40.859  22.049  27.822  1.00  0.00    -0.246 OA
BRANCH  28  30
ATOM     30  C   UNL A   1      41.146  24.323  27.229  1.00  0.00     0.060 A 
ATOM     31  C   UNL A   1      41.965  24.630  28.316  1.00  0.00     0.016 A 
ATOM     32  C   UNL A   1      40.737  25.296  26.304  1.00  0.00     0.016 A 
ATOM     33  C   UNL A   1      42.094  25.951  28.666  1.00  0.00     0.010 A 
ATOM     34  C   UNL A   1      40.869  26.621  26.657  1.00  0.00     0.010 A 
ATOM     35  C   UNL A   1      41.432  26.914  27.896  1.00  0.00    -0.014 A 
BRANCH  35  36
ATOM     36  C   UNL A   1      41.267  28.212  28.510  1.00  0.00     0.031 A 
ATOM     37  C   UNL A   1      42.361  29.168  28.263  1.00  0.00     0.074 A 
ATOM     38  C   UNL A   1      40.190  28.523  29.253  1.00  0.00     0.049 A 
ATOM     39  N   UNL A   1      43.169  29.700  29.118  1.00  0.00    -0.248 NA
ATOM     40  C   UNL A   1      42.640  29.496  26.861  1.00  0.00     0.031 C 
ATOM     41  C   UNL A   1      38.912  27.813  29.359  1.00  0.00     0.029 A 
ATOM     42  N   UNL A   1      39.999  29.629  30.019  1.00  0.00    -0.354 N 
ATOM     43  C   UNL A   1      43.974  30.558  28.379  1.00  0.00     0.074 A 
ATOM     44  C   UNL A   1      43.683  30.311  26.988  1.00  0.00     0.031 C 
ATOM     45  C   UNL A   1      38.012  28.618  29.970  1.00  0.00     0.029 A 
ATOM     46  C   UNL A   1      38.688  29.829  30.409  1.00  0.00     0.049 A 
ATOM     47  H   UNL A   1      40.731  30.236  30.274  1.00  0.00     0.167 HD
ATOM     48  C   UNL A   1      44.705  31.547  28.953  1.00  0.00     0.037 A 
ATOM     49  C   UNL A   1      38.192  30.957  30.970  1.00  0.00     0.037 A 
ATOM     50  C   UNL A   1      44.912  31.340  30.357  1.00  0.00     0.049 A 
ATOM     51  C   UNL A   1      39.330  31.735  31.521  1.00  0.00     0.074 A 
ATOM     52  C   UNL A   1      45.553  30.372  31.108  1.00  0.00     0.029 A 
ATOM     53  N   UNL A   1      44.136  32.042  31.245  1.00  0.00    -0.354 N 
ATOM     54  N   UNL A   1      40.031  31.382  32.562  1.00  0.00    -0.248 NA
ATOM     55  C   UNL A   1      39.952  32.732  30.662  1.00  0.00     0.031 C 
ATOM     56  C   UNL A   1      44.783  30.249  32.300  1.00  0.00     0.029 A 
ATOM     57  C   UNL A   1      43.725  31.153  32.208  1.00  0.00     0.049 A 
ATOM     58  H   UNL A   1      43.917  33.000  31.200  1.00  0.00     0.167 HD
ATOM     59  C   UNL A   1      41.325  31.799  32.280  1.00  0.00     0.074 A 
ATOM     60  C   UNL A   1      41.193  32.714  31.153  1.00  0.00     0.031 C 
ATOM     61  C   UNL A   1      42.409  31.158  32.808  1.00  0.00     0.037 A 
BRANCH  48  62
ATOM     62  C   UNL A   1      45.002  32.837  28.254  1.00  0.00     0.057 A 
ATOM     63  C   UNL A   1      44.006  33.812  28.108  1.00  0.00     0.134 A 
ATOM     64  C   UNL A   1      46.184  33.055  27.517  1.00  0.00     0.134 A 
ATOM     65  F   UNL A   1      42.820  33.681  28.721  1.00  0.00    -0.206 F 
ATOM     66  C   UNL A   1      44.175  34.927  27.278  1.00  0.00     0.040 A 
ATOM     67  C   UNL A   1      46.386  34.190  26.730  1.00  0.00     0.040 A 
ATOM     68  F   UNL A   1      47.160  32.138  27.458  1.00  0.00    -0.206 F 
ATOM     69  C   UNL A   1      45.370  35.122  26.593  1.00  0.00     0.006 A 
ENDBRANCH  48  62
BRANCH  49  70
ATOM     70  C   UNL A   1      36.850  31.542  30.773  1.00  0.00     0.057 A 
ATOM     71  C   UNL A   1      35.988  31.764  31.853  1.00  0.00     0.134 A 
ATOM     72  C   UNL A   1      36.482  32.138  29.553  1.00  0.00     0.134 A 
ATOM     73  F   UNL A   1      36.280  31.277  33.068  1.00  0.00    -0.206 F 
ATOM     74  C   UNL A   1      34.830  32.543  31.731  1.00  0.00     0.040 A 
ATOM     75  C   UNL A   1      35.324  32.909  29.414  1.00  0.00     0.040 A 
ATOM     76  F   UNL A   1      37.277  32.064  28.475  1.00  0.00    -0.206 F 
ATOM     77  C   UNL A   1      34.500  33.124  30.509  1.00  0.00     0.006 A 
ENDBRANCH  49  70
BRANCH  61  78
ATOM     78  C   UNL A   1      42.162  30.156  33.902  1.00  0.00     0.057 A 
ATOM     79  C   UNL A   1      41.839  28.813  33.659  1.00  0.00     0.134 A 
ATOM     80  C   UNL A   1      42.406  30.519  35.231  1.00  0.00     0.134 A 
ATOM     81  F   UNL A   1      41.695  28.350  32.410  1.00  0.00    -0.206 F 
ATOM     82  C   UNL A   1      41.717  27.884  34.697  1.00  0.00     0.040 A 
ATOM     83  C   UNL A   1      42.318  29.593  36.275  1.00  0.00     0.040 A 
ATOM     84  F   UNL A   1      42.782  31.772  35.533  1.00  0.00    -0.206 F 
ATOM     85  C   UNL A   1      41.962  28.273  36.010  1.00  0.00     0.006 A 
ENDBRANCH  61  78
ENDBRANCH  35  36
ENDBRANCH  28  30
ENDBRANCH  27  28
ENDBRANCH  26  27
ENDBRANCH  25  26
ENDBRANCH   1  25
TORSDOF 17
ENDMDL
MODEL 2
REMARK VINA RESULT:     -11.0      2.842      6.909
REMARK SMILES O=C(Cn1cnc(-c2ccccc2)c1-c1ccccc1)OCCOCCOC(=O)c1ccc(-c2c3nc(c(-c4c(F)cccc4F)c4ccc([nH]4)c(-c4c(F)cccc4F)c4nc(c(-c5c(F)cccc5F)c5ccc2[nH]5)C=C4)C=C3)cc1
REMARK SMILES IDX 24 1 23 2 22 3 21 4 2 5 1 6 3 7 4 8 5 9 14 10 6 11 7 12
REMARK SMILES IDX 15 13 16 14 20 15 17 16 19 17 18 18 8 19 9 20 13 21 10 22
REMARK SMILES IDX 12 23 11 24 25 25 26 26 27 27 28 28 29 29 30 30 31 31 83 32
REMARK SMILES IDX 32 33 82 34 33 35 34 36 35 37 76 38 36 39 81 40 75 41 77 42
REMARK SMILES IDX 37 43 80 44 74 45 73 46 38 48 64 49 47 50 63 51 48 52 51 53
REMARK SMILES IDX 62 54 78 55 49 56 50 57 61 59 79 60 52 61 39 62 40 63 45 64
REMARK SMILES IDX 41 65 42 66 44 67 46 68 43 69 65 70 66 71 71 72 67 73 68 74
REMARK SMILES IDX 70 75 72 76 69 77 53 78 54 79 59 80 55 81 56 82 58 83 60 84
REMARK SMILES IDX 57 85
REMARK H PARENT 77 47 51 58
REMARK Flexibility Score: inf
ROOT
ATOM      1  O   UNL A   1      35.768  19.997  24.933  1.00  0.00    -0.374 OA
ENDROOT
BRANCH   1   2
ATOM      2  C   UNL A   1      35.213  21.154  25.534  1.00  0.00     0.202 C 
BRANCH   2   3
ATOM      3  C   UNL A   1      33.773  21.544  25.199  1.00  0.00     0.261 C 
BRANCH   3   4
ATOM      4  O   UNL A   1      33.581  22.705  24.383  1.00  0.00    -0.462 OA
BRANCH   4   5
ATOM      5  C   UNL A   1      33.740  23.976  24.823  1.00  0.00     0.326 C 
ATOM      6  O   UNL A   1      33.442  24.258  25.986  1.00  0.00    -0.250 OA
BRANCH   5   7
ATOM      7  C   UNL A   1      34.074  25.060  23.843  1.00  0.00     0.246 C 
BRANCH   7   8
ATOM      8  N   UNL A   1      33.006  25.830  23.229  1.00  0.00    -0.319 N 
ATOM      9  C   UNL A   1      32.543  25.516  21.975  1.00  0.00     0.201 A 
ATOM     10  C   UNL A   1      32.254  26.887  23.707  1.00  0.00     0.076 A 
ATOM     11  N   UNL A   1      31.519  26.255  21.636  1.00  0.00    -0.236 NA
ATOM     12  C   UNL A   1      31.329  27.108  22.692  1.00  0.00     0.096 A 
BRANCH  10  13
ATOM     13  C   UNL A   1      32.471  27.591  24.972  1.00  0.00     0.000 A 
ATOM     14  C   UNL A   1      31.524  27.553  25.995  1.00  0.00     0.010 A 
ATOM     15  C   UNL A   1      33.674  28.285  25.185  1.00  0.00     0.010 A 
ATOM     16  C   UNL A   1      31.793  28.166  27.222  1.00  0.00     0.001 A 
ATOM     17  C   UNL A   1      33.943  28.893  26.410  1.00  0.00     0.001 A 
ATOM     18  C   UNL A   1      33.003  28.828  27.432  1.00  0.00     0.000 A 
ENDBRANCH  10  13
BRANCH  12  19
ATOM     19  C   UNL A   1      30.229  28.043  22.735  1.00  0.00     0.002 A 
ATOM     20  C   UNL A   1      30.442  29.357  22.307  1.00  0.00     0.010 A 
ATOM     21  C   UNL A   1      28.961  27.660  23.184  1.00  0.00     0.010 A 
ATOM     22  C   UNL A   1      29.384  30.266  22.276  1.00  0.00     0.001 A 
ATOM     23  C   UNL A   1      27.901  28.568  23.146  1.00  0.00     0.001 A 
ATOM     24  C   UNL A   1      28.113  29.865  22.684  1.00  0.00     0.000 A 
ENDBRANCH  12  19
ENDBRANCH   7   8
ENDBRANCH   5   7
ENDBRANCH   4   5
ENDBRANCH   3   4
ENDBRANCH   2   3
ENDBRANCH   1   2
BRANCH   1  25
ATOM     25  C   UNL A   1      37.178  19.902  24.723  1.00  0.00     0.202 C 
BRANCH  25  26
ATOM     26  C   UNL A   1      38.063  21.103  25.021  1.00  0.00     0.261 C 
BRANCH  26  27
ATOM     27  O   UNL A   1      38.898  20.848  26.149  1.00  0.00    -0.460 OA
BRANCH  27  28
ATOM     28  C   UNL A   1      40.025  20.164  25.893  1.00  0.00     0.338 C 
ATOM     29  O   UNL A   1      40.109  19.031  25.421  1.00  0.00    -0.246 OA
BRANCH  28  30
ATOM     30  C   UNL A   1      41.184  20.893  26.413  1.00  0.00     0.060 A 
ATOM     31  C   UNL A   1      41.399  20.750  27.784  1.00  0.00     0.016 A 
ATOM     32  C   UNL A   1      41.717  21.966  25.682  1.00  0.00     0.016 A 
ATOM     33  C   UNL A   1      41.855  21.844  28.477  1.00  0.00     0.010 A 
ATOM     34  C   UNL A   1      42.174  23.062  26.379  1.00  0.00     0.010 A 
ATOM     35  C   UNL A   1      42.112  23.024  27.769  1.00  0.00    -0.014 A 
BRANCH  35  36
ATOM     36  C   UNL A   1      42.201  24.231  28.560  1.00  0.00     0.031 A 
ATOM     37  C   UNL A   1      41.092  25.184  28.377  1.00  0.00     0.074 A 
ATOM     38  C   UNL A   1      43.222  24.463  29.403  1.00  0.00     0.049 A 
ATOM     39  N   UNL A   1      41.138  26.386  27.907  1.00  0.00    -0.248 NA
ATOM     40  C   UNL A   1      39.745  24.687  28.677  1.00  0.00     0.031 C 
ATOM     41  C   UNL A   1      44.229  23.524  29.907  1.00  0.00     0.029 A 
ATOM     42  N   UNL A   1      43.511  25.617  30.061  1.00  0.00    -0.354 N 
ATOM     43  C   UNL A   1      39.836  26.864  27.991  1.00  0.00     0.074 A 
ATOM     44  C   UNL A   1      39.003  25.746  28.364  1.00  0.00     0.031 C 
ATOM     45  C   UNL A   1      44.877  24.094  30.949  1.00  0.00     0.029 A 
ATOM     46  C   UNL A   1      44.423  25.468  31.090  1.00  0.00     0.049 A 
ATOM     47  H   UNL A   1      43.106  26.482  29.826  1.00  0.00     0.167 HD
ATOM     48  C   UNL A   1      39.538  28.186  27.922  1.00  0.00     0.037 A 
ATOM     49  C   UNL A   1      44.705  26.393  32.037  1.00  0.00     0.037 A 
ATOM     50  C   UNL A   1      40.590  28.961  27.329  1.00  0.00     0.049 A 
ATOM     51  C   UNL A   1      44.255  27.717  31.536  1.00  0.00     0.074 A 
ATOM     52  C   UNL A   1      41.187  28.987  26.083  1.00  0.00     0.029 A 
ATOM     53  N   UNL A   1      41.425  29.672  28.154  1.00  0.00    -0.354 N 
ATOM     54  N   UNL A   1      44.821  28.369  30.560  1.00  0.00    -0.248 NA
ATOM     55  C   UNL A   1      42.905  28.146  31.870  1.00  0.00     0.031 C 
ATOM     56  C   UNL A   1      42.554  29.306  26.327  1.00  0.00     0.029 A 
ATOM     57  C   UNL A   1      42.705  29.463  27.705  1.00  0.00     0.049 A 
ATOM     58  H   UNL A   1      41.156  30.228  28.921  1.00  0.00     0.167 HD
ATOM     59  C   UNL A   1      43.777  29.005  29.901  1.00  0.00     0.074 A 
ATOM     60  C   UNL A   1      42.644  28.920  30.813  1.00  0.00     0.031 C 
ATOM     61  C   UNL A   1      43.853  29.302  28.570  1.00  0.00     0.037 A 
BRANCH  48  62
ATOM     62  C   UNL A   1      38.375  28.788  28.648  1.00  0.00     0.057 A 
ATOM     63  C   UNL A   1      37.489  29.646  27.984  1.00  0.00     0.134 A 
ATOM     64  C   UNL A   1      38.233  28.727  30.050  1.00  0.00     0.134 A 
ATOM     65  F   UNL A   1      37.567  29.823  26.656  1.00  0.00    -0.206 F 
ATOM     66  C   UNL A   1      36.527  30.396  28.672  1.00  0.00     0.040 A 
ATOM     67  C   UNL A   1      37.243  29.427  30.740  1.00  0.00     0.040 A 
ATOM     68  F   UNL A   1      39.099  28.054  30.820  1.00  0.00    -0.206 F 
ATOM     69  C   UNL A   1      36.397  30.282  30.052  1.00  0.00     0.006 A 
ENDBRANCH  48  62
BRANCH  49  70
ATOM     70  C   UNL A   1      45.040  26.152  33.456  1.00  0.00     0.057 A 
ATOM     71  C   UNL A   1      44.069  25.726  34.369  1.00  0.00     0.134 A 
ATOM     72  C   UNL A   1      46.376  26.086  33.892  1.00  0.00     0.134 A 
ATOM     73  F   UNL A   1      42.773  25.707  34.026  1.00  0.00    -0.206 F 
ATOM     74  C   UNL A   1      44.408  25.248  35.642  1.00  0.00     0.040 A 
ATOM     75  C   UNL A   1      46.726  25.622  35.163  1.00  0.00     0.040 A 
ATOM     76  F   UNL A   1      47.392  26.386  33.070  1.00  0.00    -0.206 F 
ATOM     77  C   UNL A   1      45.741  25.189  36.039  1.00  0.00     0.006 A 
ENDBRANCH  49  70
BRANCH  61  78
ATOM     78  C   UNL A   1      45.191  29.158  27.899  1.00  0.00     0.057 A 
ATOM     79  C   UNL A   1      45.662  27.945  27.374  1.00  0.00     0.134 A 
ATOM     80  C   UNL A   1      45.955  30.301  27.640  1.00  0.00     0.134 A 
ATOM     81  F   UNL A   1      44.945  26.819  27.478  1.00  0.00    -0.206 F 
ATOM     82  C   UNL A   1      46.865  27.867  26.664  1.00  0.00     0.040 A 
ATOM     83  C   UNL A   1      47.142  30.241  26.905  1.00  0.00     0.040 A 
ATOM     84  F   UNL A   1      45.533  31.506  28.056  1.00  0.00    -0.206 F 
ATOM     85  C   UNL A   1      47.606  29.019  26.423  1.00  0.00     0.006 A 
ENDBRANCH  61  78
ENDBRANCH  35  36
ENDBRANCH  28  30
ENDBRANCH  27  28
ENDBRANCH  26  27
ENDBRANCH  25  26
ENDBRANCH   1  25
TORSDOF 17
ENDMDL
MODEL 3
REMARK VINA RESULT:     -11.0      2.966      7.813
REMARK SMILES O=C(Cn1cnc(-c2ccccc2)c1-c1ccccc1)OCCOCCOC(=O)c1ccc(-c2c3nc(c(-c4c(F)cccc4F)c4ccc([nH]4)c(-c4c(F)cccc4F)c4nc(c(-c5c(F)cccc5F)c5ccc2[nH]5)C=C4)C=C3)cc1
REMARK SMILES IDX 24 1 23 2 22 3 21 4 2 5 1 6 3 7 4 8 5 9 14 10 6 11 7 12
REMARK SMILES IDX 15 13 16 14 20 15 17 16 19 17 18 18 8 19 9 20 13 21 10 22
REMARK SMILES IDX 12 23 11 24 25 25 26 26 27 27 28 28 29 29 30 30 31 31 83 32
REMARK SMILES IDX 32 33 82 34 33 35 34 36 35 37 76 38 36 39 81 40 75 41 77 42
REMARK SMILES IDX 37 43 80 44 74 45 73 46 38 48 64 49 47 50 63 51 48 52 51 53
REMARK SMILES IDX 62 54 78 55 49 56 50 57 61 59 79 60 52 61 39 62 40 63 45 64
REMARK SMILES IDX 41 65 42 66 44 67 46 68 43 69 65 70 66 71 71 72 67 73 68 74
REMARK SMILES IDX 70 75 72 76 69 77 53 78 54 79 59 80 55 81 56 82 58 83 60 84
REMARK SMILES IDX 57 85
REMARK H PARENT 77 47 51 58
REMARK Flexibility Score: inf
ROOT
ATOM      1  O   UNL A   1      33.364  29.488  26.032  1.00  0.00    -0.374 OA
ENDROOT
BRANCH   1   2
ATOM      2  C   UNL A   1      33.704  28.232  26.595  1.00  0.00     0.202 C 
BRANCH   2   3
ATOM      3  C   UNL A   1      33.074  26.965  26.014  1.00  0.00     0.261 C 
BRANCH   3   4
ATOM      4  O   UNL A   1      32.100  27.134  24.978  1.00  0.00    -0.462 OA
BRANCH   4   5
ATOM      5  C   UNL A   1      32.379  27.051  23.654  1.00  0.00     0.326 C 
ATOM      6  O   UNL A   1      31.873  27.860  22.874  1.00  0.00    -0.250 OA
BRANCH   5   7
ATOM      7  C   UNL A   1      33.128  25.861  23.132  1.00  0.00     0.246 C 
BRANCH   7   8
ATOM      8  N   UNL A   1      32.608  24.525  23.366  1.00  0.00    -0.319 N 
ATOM      9  C   UNL A   1      31.296  24.224  23.093  1.00  0.00     0.201 A 
ATOM     10  C   UNL A   1      33.227  23.370  23.805  1.00  0.00     0.076 A 
ATOM     11  N   UNL A   1      31.042  22.953  23.273  1.00  0.00    -0.236 NA
ATOM     12  C   UNL A   1      32.221  22.413  23.716  1.00  0.00     0.096 A 
BRANCH  10  13
ATOM     13  C   UNL A   1      34.605  23.265  24.284  1.00  0.00     0.000 A 
ATOM     14  C   UNL A   1      35.623  22.777  23.464  1.00  0.00     0.010 A 
ATOM     15  C   UNL A   1      34.927  23.702  25.580  1.00  0.00     0.010 A 
ATOM     16  C   UNL A   1      36.945  22.765  23.921  1.00  0.00     0.001 A 
ATOM     17  C   UNL A   1      36.246  23.693  26.033  1.00  0.00     0.001 A 
ATOM     18  C   UNL A   1      37.256  23.228  25.199  1.00  0.00     0.000 A 
ENDBRANCH  10  13
BRANCH  12  19
ATOM     19  C   UNL A   1      32.373  20.996  23.955  1.00  0.00     0.002 A 
ATOM     20  C   UNL A   1      32.181  20.108  22.892  1.00  0.00     0.010 A 
ATOM     21  C   UNL A   1      32.714  20.500  25.216  1.00  0.00     0.010 A 
ATOM     22  C   UNL A   1      32.383  18.740  23.075  1.00  0.00     0.001 A 
ATOM     23  C   UNL A   1      32.923  19.131  25.397  1.00  0.00     0.001 A 
ATOM     24  C   UNL A   1      32.766  18.256  24.324  1.00  0.00     0.000 A 
ENDBRANCH  12  19
ENDBRANCH   7   8
ENDBRANCH   5   7
ENDBRANCH   4   5
ENDBRANCH   3   4
ENDBRANCH   2   3
ENDBRANCH   1   2
BRANCH   1  25
ATOM     25  C   UNL A   1      32.801  30.514  26.850  1.00  0.00     0.202 C 
BRANCH  25  26
ATOM     26  C   UNL A   1      33.693  31.276  27.818  1.00  0.00     0.261 C 
BRANCH  26  27
ATOM     27  O   UNL A   1      35.066  31.139  27.454  1.00  0.00    -0.460 OA
BRANCH  27  28
ATOM     28  C   UNL A   1      35.911  31.997  28.048  1.00  0.00     0.338 C 
ATOM     29  O   UNL A   1      36.183  33.139  27.679  1.00  0.00    -0.246 OA
BRANCH  28  30
ATOM     30  C   UNL A   1      36.622  31.327  29.140  1.00  0.00     0.060 A 
ATOM     31  C   UNL A   1      37.797  31.959  29.548  1.00  0.00     0.016 A 
ATOM     32  C   UNL A   1      36.371  29.972  29.405  1.00  0.00     0.016 A 
ATOM     33  C   UNL A   1      38.854  31.164  29.918  1.00  0.00     0.010 A 
ATOM     34  C   UNL A   1      37.433  29.177  29.776  1.00  0.00     0.010 A 
ATOM     35  C   UNL A   1      38.684  29.775  29.899  1.00  0.00    -0.014 A 
BRANCH  35  36
ATOM     36  C   UNL A   1      39.897  28.988  29.904  1.00  0.00     0.031 A 
ATOM     37  C   UNL A   1      40.565  28.872  31.213  1.00  0.00     0.074 A 
ATOM     38  C   UNL A   1      40.379  28.405  28.792  1.00  0.00     0.049 A 
ATOM     39  N   UNL A   1      41.733  29.300  31.558  1.00  0.00    -0.248 NA
ATOM     40  C   UNL A   1      39.778  28.277  32.298  1.00  0.00     0.031 C 
ATOM     41  C   UNL A   1      39.710  28.185  27.507  1.00  0.00     0.029 A 
ATOM     42  N   UNL A   1      41.583  27.797  28.627  1.00  0.00    -0.354 N 
ATOM     43  C   UNL A   1      41.900  28.894  32.876  1.00  0.00     0.074 A 
ATOM     44  C   UNL A   1      40.629  28.371  33.316  1.00  0.00     0.031 C 
ATOM     45  C   UNL A   1      40.438  27.308  26.778  1.00  0.00     0.029 A 
ATOM     46  C   UNL A   1      41.673  27.019  27.488  1.00  0.00     0.049 A 
ATOM     47  H   UNL A   1      42.326  27.901  29.264  1.00  0.00     0.167 HD
ATOM     48  C   UNL A   1      43.115  28.847  33.476  1.00  0.00     0.037 A 
ATOM     49  C   UNL A   1      42.660  26.136  27.209  1.00  0.00     0.037 A 
ATOM     50  C   UNL A   1      44.098  29.646  32.803  1.00  0.00     0.049 A 
ATOM     51  C   UNL A   1      43.832  26.472  28.056  1.00  0.00     0.074 A 
ATOM     52  C   UNL A   1      44.232  30.997  32.543  1.00  0.00     0.029 A 
ATOM     53  N   UNL A   1      45.002  29.020  31.982  1.00  0.00    -0.354 N 
ATOM     54  N   UNL A   1      44.574  27.533  27.905  1.00  0.00    -0.248 NA
ATOM     55  C   UNL A   1      43.946  25.814  29.349  1.00  0.00     0.031 C 
ATOM     56  C   UNL A   1      44.863  31.074  31.268  1.00  0.00     0.029 A 
ATOM     57  C   UNL A   1      45.083  29.767  30.833  1.00  0.00     0.049 A 
ATOM     58  H   UNL A   1      45.498  28.194  32.180  1.00  0.00     0.167 HD
ATOM     59  C   UNL A   1      44.937  27.904  29.193  1.00  0.00     0.074 A 
ATOM     60  C   UNL A   1      44.613  26.753  30.025  1.00  0.00     0.031 C 
ATOM     61  C   UNL A   1      45.212  29.205  29.507  1.00  0.00     0.037 A 
BRANCH  48  62
ATOM     62  C   UNL A   1      43.450  27.846  34.539  1.00  0.00     0.057 A 
ATOM     63  C   UNL A   1      43.702  28.261  35.853  1.00  0.00     0.134 A 
ATOM     64  C   UNL A   1      43.755  26.499  34.254  1.00  0.00     0.134 A 
ATOM     65  F   UNL A   1      43.499  29.535  36.223  1.00  0.00    -0.206 F 
ATOM     66  C   UNL A   1      44.228  27.393  36.817  1.00  0.00     0.040 A 
ATOM     67  C   UNL A   1      44.228  25.611  35.220  1.00  0.00     0.040 A 
ATOM     68  F   UNL A   1      43.691  26.008  33.008  1.00  0.00    -0.206 F 
ATOM     69  C   UNL A   1      44.485  26.062  36.504  1.00  0.00     0.006 A 
ENDBRANCH  48  62
BRANCH  49  70
ATOM     70  C   UNL A   1      42.536  24.846  26.499  1.00  0.00     0.057 A 
ATOM     71  C   UNL A   1      43.328  24.552  25.383  1.00  0.00     0.134 A 
ATOM     72  C   UNL A   1      41.821  23.770  27.055  1.00  0.00     0.134 A 
ATOM     73  F   UNL A   1      44.083  25.502  24.814  1.00  0.00    -0.206 F 
ATOM     74  C   UNL A   1      43.415  23.256  24.856  1.00  0.00     0.040 A 
ATOM     75  C   UNL A   1      41.890  22.475  26.533  1.00  0.00     0.040 A 
ATOM     76  F   UNL A   1      41.101  23.919  28.176  1.00  0.00    -0.206 F 
ATOM     77  C   UNL A   1      42.699  22.212  25.436  1.00  0.00     0.006 A 
ENDBRANCH  49  70
BRANCH  61  78
ATOM     78  C   UNL A   1      45.364  30.179  28.371  1.00  0.00     0.057 A 
ATOM     79  C   UNL A   1      44.282  30.844  27.776  1.00  0.00     0.134 A 
ATOM     80  C   UNL A   1      46.646  30.569  27.970  1.00  0.00     0.134 A 
ATOM     81  F   UNL A   1      43.024  30.613  28.174  1.00  0.00    -0.206 F 
ATOM     82  C   UNL A   1      44.467  31.820  26.792  1.00  0.00     0.040 A 
ATOM     83  C   UNL A   1      46.846  31.567  27.011  1.00  0.00     0.040 A 
ATOM     84  F   UNL A   1      47.731  30.022  28.542  1.00  0.00    -0.206 F 
ATOM     85  C   UNL A   1      45.753  32.188  26.411  1.00  0.00     0.006 A 
ENDBRANCH  61  78
ENDBRANCH  35  36
ENDBRANCH  28  30
ENDBRANCH  27  28
ENDBRANCH  26  27
ENDBRANCH  25  26
ENDBRANCH   1  25
TORSDOF 17
ENDMDL
