MODEL 1
REMARK VINA RESULT:      -9.6      0.000      0.000
REMARK SMILES CC(C)C[C@H](NC(=O)CNC(=O)[C@@H]([NH3+])C(C)C)C(=O)OCCOCCOC(=O)c1ccc(-c2c3nc(c(-c4c(F)cccc4F)c4ccc([nH]4)c(-c4c(F)cccc4F)c4nc(c(-c5c(F)cccc5F)c5ccc2[nH]5)C=C4)C=C3)cc1
REMARK SMILES IDX 21 1 20 2 18 3 19 4 5 5 4 6 2 7 1 8 3 9 6 10 7 11 8 13 9 14
REMARK SMILES IDX 10 15 11 16 12 18 13 19 14 20 15 24 16 25 17 26 22 27 23 28
REMARK SMILES IDX 24 29 25 30 26 31 27 32 28 33 29 34 30 35 82 36 31 37 81 38
REMARK SMILES IDX 32 39 33 40 34 41 75 42 35 43 80 44 74 45 76 46 36 47 79 48
REMARK SMILES IDX 73 49 72 50 37 52 63 53 46 54 62 55 47 56 50 57 61 58 77 59
REMARK SMILES IDX 48 60 49 61 60 63 78 64 51 65 38 66 39 67 44 68 40 69 41 70
REMARK SMILES IDX 43 71 45 72 42 73 64 74 65 75 70 76 66 77 67 78 69 79 71 80
REMARK SMILES IDX 68 81 52 82 53 83 58 84 54 85 55 86 57 87 59 88 56 89
REMARK H PARENT 6 12 10 17 14 21 14 22 14 23 76 51 50 62
REMARK Flexibility Score: inf
ROOT
ATOM      1  C   UNL A   1      36.668  23.263  25.064  1.00  0.00     0.261 C 
ENDROOT
BRANCH   1   2
ATOM      2  O   UNL A   1      35.798  24.390  25.226  1.00  0.00    -0.462 OA
BRANCH   2   3
ATOM      3  C   UNL A   1      34.590  24.049  25.759  1.00  0.00     0.328 C 
ATOM      4  O   UNL A   1      34.448  23.466  26.829  1.00  0.00    -0.250 OA
BRANCH   3   5
ATOM      5  C   UNL A   1      33.413  24.354  24.825  1.00  0.00     0.192 C 
BRANCH   5   6
ATOM      6  C   UNL A   1      33.366  25.853  24.496  1.00  0.00     0.040 C 
BRANCH   6   7
ATOM      7  C   UNL A   1      32.901  26.793  25.633  1.00  0.00    -0.015 C 
ATOM      8  C   UNL A   1      33.883  27.903  26.015  1.00  0.00     0.007 C 
ATOM      9  C   UNL A   1      31.567  27.435  25.248  1.00  0.00     0.007 C 
ENDBRANCH   6   7
ENDBRANCH   5   6
BRANCH   5  10
ATOM     10  N   UNL A   1      32.121  23.890  25.336  1.00  0.00    -0.341 N 
ATOM     11  C   UNL A   1      31.651  22.607  25.434  1.00  0.00     0.240 C 
ATOM     12  H   UNL A   1      31.506  24.593  25.649  1.00  0.00     0.164 HD
ATOM     13  O   UNL A   1      30.645  22.424  26.128  1.00  0.00    -0.273 OA
BRANCH  11  14
ATOM     14  C   UNL A   1      32.419  21.403  24.843  1.00  0.00     0.216 C 
BRANCH  14  15
ATOM     15  N   UNL A   1      32.226  20.165  25.580  1.00  0.00    -0.342 N 
ATOM     16  C   UNL A   1      32.764  18.926  25.438  1.00  0.00     0.278 C 
ATOM     17  H   UNL A   1      31.584  20.239  26.323  1.00  0.00     0.164 HD
ATOM     18  O   UNL A   1      32.307  18.050  26.183  1.00  0.00    -0.268 OA
BRANCH  16  19
ATOM     19  C   UNL A   1      33.931  18.588  24.472  1.00  0.00     0.273 C 
BRANCH  19  20
ATOM     20  N   UNL A   1      35.217  19.169  24.917  1.00  0.00    -0.347 N 
ATOM     21  H   UNL A   1      35.871  18.418  25.139  1.00  0.00     0.345 HD
ATOM     22  H   UNL A   1      35.063  19.741  25.748  1.00  0.00     0.345 HD
ATOM     23  H   UNL A   1      35.606  19.747  24.172  1.00  0.00     0.345 HD
ENDBRANCH  19  20
BRANCH  19  24
ATOM     24  C   UNL A   1      34.002  17.067  24.205  1.00  0.00     0.051 C 
ATOM     25  C   UNL A   1      34.151  16.791  22.700  1.00  0.00     0.014 C 
ATOM     26  C   UNL A   1      35.184  16.410  24.930  1.00  0.00     0.014 C 
ENDBRANCH  19  24
ENDBRANCH  16  19
ENDBRANCH  14  15
ENDBRANCH  11  14
ENDBRANCH   5  10
ENDBRANCH   3   5
ENDBRANCH   2   3
ENDBRANCH   1   2
BRANCH   1  27
ATOM     27  C   UNL A   1      37.936  23.292  25.925  1.00  0.00     0.202 C 
BRANCH  27  28
ATOM     28  O   UNL A   1      38.695  22.099  26.060  1.00  0.00    -0.374 OA
BRANCH  28  29
ATOM     29  C   UNL A   1      38.294  20.935  25.336  1.00  0.00     0.202 C 
BRANCH  29  30
ATOM     30  C   UNL A   1      39.195  19.696  25.387  1.00  0.00     0.261 C 
BRANCH  30  31
ATOM     31  O   UNL A   1      40.155  19.758  26.458  1.00  0.00    -0.460 OA
BRANCH  31  32
ATOM     32  C   UNL A   1      41.444  19.836  26.057  1.00  0.00     0.338 C 
ATOM     33  O   UNL A   1      42.027  19.097  25.268  1.00  0.00    -0.246 OA
BRANCH  32  34
ATOM     34  C   UNL A   1      42.061  21.072  26.554  1.00  0.00     0.060 A 
ATOM     35  C   UNL A   1      42.074  21.287  27.938  1.00  0.00     0.016 A 
ATOM     36  C   UNL A   1      42.502  22.062  25.673  1.00  0.00     0.016 A 
ATOM     37  C   UNL A   1      42.488  22.515  28.447  1.00  0.00     0.010 A 
ATOM     38  C   UNL A   1      42.903  23.299  26.186  1.00  0.00     0.010 A 
ATOM     39  C   UNL A   1      42.864  23.542  27.571  1.00  0.00    -0.014 A 
BRANCH  39  40
ATOM     40  C   UNL A   1      43.077  24.907  28.108  1.00  0.00     0.031 A 
ATOM     41  C   UNL A   1      44.468  25.338  28.484  1.00  0.00     0.074 A 
ATOM     42  C   UNL A   1      42.049  25.766  28.212  1.00  0.00     0.049 A 
ATOM     43  N   UNL A   1      44.878  26.481  28.970  1.00  0.00    -0.248 NA
ATOM     44  C   UNL A   1      45.540  24.350  28.279  1.00  0.00     0.031 C 
ATOM     45  C   UNL A   1      40.664  25.476  27.843  1.00  0.00     0.029 A 
ATOM     46  N   UNL A   1      42.014  27.061  28.663  1.00  0.00    -0.354 N 
ATOM     47  C   UNL A   1      46.253  26.352  29.128  1.00  0.00     0.074 A 
ATOM     48  C   UNL A   1      46.603  25.011  28.715  1.00  0.00     0.031 C 
ATOM     49  C   UNL A   1      39.912  26.562  28.091  1.00  0.00     0.029 A 
ATOM     50  C   UNL A   1      40.756  27.610  28.658  1.00  0.00     0.049 A 
ATOM     51  H   UNL A   1      42.816  27.551  28.960  1.00  0.00     0.167 HD
ATOM     52  C   UNL A   1      47.143  27.273  29.567  1.00  0.00     0.037 A 
ATOM     53  C   UNL A   1      40.334  28.816  29.084  1.00  0.00     0.037 A 
ATOM     54  C   UNL A   1      46.793  28.606  29.982  1.00  0.00     0.049 A 
ATOM     55  C   UNL A   1      41.335  29.795  29.635  1.00  0.00     0.074 A 
ATOM     56  C   UNL A   1      47.625  29.616  30.435  1.00  0.00     0.029 A 
ATOM     57  N   UNL A   1      45.503  29.114  29.998  1.00  0.00    -0.354 N 
ATOM     58  N   UNL A   1      42.635  29.672  29.759  1.00  0.00    -0.248 NA
ATOM     59  C   UNL A   1      40.809  31.087  30.103  1.00  0.00     0.031 C 
ATOM     60  C   UNL A   1      46.832  30.720  30.765  1.00  0.00     0.029 A 
ATOM     61  C   UNL A   1      45.512  30.414  30.475  1.00  0.00     0.049 A 
ATOM     62  H   UNL A   1      44.699  28.622  29.714  1.00  0.00     0.167 HD
ATOM     63  C   UNL A   1      43.083  30.873  30.293  1.00  0.00     0.074 A 
ATOM     64  C   UNL A   1      41.920  31.720  30.454  1.00  0.00     0.031 C 
ATOM     65  C   UNL A   1      44.345  31.243  30.624  1.00  0.00     0.037 A 
BRANCH  52  66
ATOM     66  C   UNL A   1      48.585  26.865  29.639  1.00  0.00     0.057 A 
ATOM     67  C   UNL A   1      49.472  27.107  28.584  1.00  0.00     0.134 A 
ATOM     68  C   UNL A   1      49.100  26.263  30.794  1.00  0.00     0.134 A 
ATOM     69  F   UNL A   1      49.038  27.667  27.445  1.00  0.00    -0.206 F 
ATOM     70  C   UNL A   1      50.820  26.751  28.669  1.00  0.00     0.040 A 
ATOM     71  C   UNL A   1      50.450  25.924  30.900  1.00  0.00     0.040 A 
ATOM     72  F   UNL A   1      48.303  26.007  31.842  1.00  0.00    -0.206 F 
ATOM     73  C   UNL A   1      51.314  26.165  29.832  1.00  0.00     0.006 A 
ENDBRANCH  52  66
BRANCH  53  74
ATOM     74  C   UNL A   1      38.893  29.166  29.024  1.00  0.00     0.057 A 
ATOM     75  C   UNL A   1      38.072  29.061  30.152  1.00  0.00     0.134 A 
ATOM     76  C   UNL A   1      38.296  29.580  27.827  1.00  0.00     0.134 A 
ATOM     77  F   UNL A   1      38.581  28.647  31.321  1.00  0.00    -0.206 F 
ATOM     78  C   UNL A   1      36.704  29.335  30.087  1.00  0.00     0.040 A 
ATOM     79  C   UNL A   1      36.936  29.880  27.754  1.00  0.00     0.040 A 
ATOM     80  F   UNL A   1      39.030  29.702  26.711  1.00  0.00    -0.206 F 
ATOM     81  C   UNL A   1      36.133  29.749  28.885  1.00  0.00     0.006 A 
ENDBRANCH  53  74
BRANCH  65  82
ATOM     82  C   UNL A   1      44.532  32.631  31.162  1.00  0.00     0.057 A 
ATOM     83  C   UNL A   1      44.504  32.900  32.536  1.00  0.00     0.134 A 
ATOM     84  C   UNL A   1      44.768  33.706  30.296  1.00  0.00     0.134 A 
ATOM     85  F   UNL A   1      44.269  31.916  33.417  1.00  0.00    -0.206 F 
ATOM     86  C   UNL A   1      44.679  34.195  33.028  1.00  0.00     0.040 A 
ATOM     87  C   UNL A   1      44.971  35.001  30.777  1.00  0.00     0.040 A 
ATOM     88  F   UNL A   1      44.817  33.516  28.969  1.00  0.00    -0.206 F 
ATOM     89  C   UNL A   1      44.918  35.248  32.148  1.00  0.00     0.006 A 
ENDBRANCH  65  82
ENDBRANCH  39  40
ENDBRANCH  32  34
ENDBRANCH  31  32
ENDBRANCH  30  31
ENDBRANCH  29  30
ENDBRANCH  28  29
ENDBRANCH  27  28
ENDBRANCH   1  27
TORSDOF 22
ENDMDL
MODEL 2
REMARK VINA RESULT:      -9.5      1.930      2.512
REMARK SMILES CC(C)C[C@H](NC(=O)CNC(=O)[C@@H]([NH3+])C(C)C)C(=O)OCCOCCOC(=O)c1ccc(-c2c3nc(c(-c4c(F)cccc4F)c4ccc([nH]4)c(-c4c(F)cccc4F)c4nc(c(-c5c(F)cccc5F)c5ccc2[nH]5)C=C4)C=C3)cc1
REMARK SMILES IDX 21 1 20 2 18 3 19 4 5 5 4 6 2 7 1 8 3 9 6 10 7 11 8 13 9 14
REMARK SMILES IDX 10 15 11 16 12 18 13 19 14 20 15 24 16 25 17 26 22 27 23 28
REMARK SMILES IDX 24 29 25 30 26 31 27 32 28 33 29 34 30 35 82 36 31 37 81 38
REMARK SMILES IDX 32 39 33 40 34 41 75 42 35 43 80 44 74 45 76 46 36 47 79 48
REMARK SMILES IDX 73 49 72 50 37 52 63 53 46 54 62 55 47 56 50 57 61 58 77 59
REMARK SMILES IDX 48 60 49 61 60 63 78 64 51 65 38 66 39 67 44 68 40 69 41 70
REMARK SMILES IDX 43 71 45 72 42 73 64 74 65 75 70 76 66 77 67 78 69 79 71 80
REMARK SMILES IDX 68 81 52 82 53 83 58 84 54 85 55 86 57 87 59 88 56 89
REMARK H PARENT 6 12 10 17 14 21 14 22 14 23 76 51 50 62
REMARK Flexibility Score: inf
ROOT
ATOM      1  C   UNL A   1      37.127  22.965  25.924  1.00  0.00     0.261 C 
ENDROOT
BRANCH   1   2
ATOM      2  O   UNL A   1      36.120  23.967  25.731  1.00  0.00    -0.462 OA
BRANCH   2   3
ATOM      3  C   UNL A   1      34.905  23.593  26.226  1.00  0.00     0.328 C 
ATOM      4  O   UNL A   1      34.745  23.000  27.287  1.00  0.00    -0.250 OA
BRANCH   3   5
ATOM      5  C   UNL A   1      33.750  23.876  25.258  1.00  0.00     0.192 C 
BRANCH   5   6
ATOM      6  C   UNL A   1      33.400  25.370  25.265  1.00  0.00     0.040 C 
BRANCH   6   7
ATOM      7  C   UNL A   1      32.760  25.934  23.975  1.00  0.00    -0.015 C 
ATOM      8  C   UNL A   1      32.677  27.459  23.891  1.00  0.00     0.007 C 
ATOM      9  C   UNL A   1      33.532  25.421  22.758  1.00  0.00     0.007 C 
ENDBRANCH   6   7
ENDBRANCH   5   6
BRANCH   5  10
ATOM     10  N   UNL A   1      32.560  23.058  25.507  1.00  0.00    -0.341 N 
ATOM     11  C   UNL A   1      32.307  21.772  25.109  1.00  0.00     0.240 C 
ATOM     12  H   UNL A   1      31.846  23.490  26.029  1.00  0.00     0.164 HD
ATOM     13  O   UNL A   1      31.357  21.191  25.644  1.00  0.00    -0.273 OA
BRANCH  11  14
ATOM     14  C   UNL A   1      33.250  21.008  24.151  1.00  0.00     0.216 C 
BRANCH  14  15
ATOM     15  N   UNL A   1      32.625  19.868  23.501  1.00  0.00    -0.342 N 
ATOM     16  C   UNL A   1      32.704  18.532  23.733  1.00  0.00     0.278 C 
ATOM     17  H   UNL A   1      32.034  20.110  22.753  1.00  0.00     0.164 HD
ATOM     18  O   UNL A   1      32.112  17.807  22.922  1.00  0.00    -0.268 OA
BRANCH  16  19
ATOM     19  C   UNL A   1      33.412  17.900  24.961  1.00  0.00     0.273 C 
BRANCH  19  20
ATOM     20  N   UNL A   1      32.719  18.208  26.232  1.00  0.00    -0.347 N 
ATOM     21  H   UNL A   1      31.850  17.677  26.282  1.00  0.00     0.345 HD
ATOM     22  H   UNL A   1      32.511  19.206  26.273  1.00  0.00     0.345 HD
ATOM     23  H   UNL A   1      33.319  17.952  27.017  1.00  0.00     0.345 HD
ENDBRANCH  19  20
BRANCH  19  24
ATOM     24  C   UNL A   1      33.651  16.388  24.741  1.00  0.00     0.051 C 
ATOM     25  C   UNL A   1      35.059  15.992  25.212  1.00  0.00     0.014 C 
ATOM     26  C   UNL A   1      32.633  15.528  25.503  1.00  0.00     0.014 C 
ENDBRANCH  19  24
ENDBRANCH  16  19
ENDBRANCH  14  15
ENDBRANCH  11  14
ENDBRANCH   5  10
ENDBRANCH   3   5
ENDBRANCH   2   3
ENDBRANCH   1   2
BRANCH   1  27
ATOM     27  C   UNL A   1      36.897  21.656  25.160  1.00  0.00     0.202 C 
BRANCH  27  28
ATOM     28  O   UNL A   1      38.023  20.964  24.642  1.00  0.00    -0.374 OA
BRANCH  28  29
ATOM     29  C   UNL A   1      38.199  19.584  24.964  1.00  0.00     0.202 C 
BRANCH  29  30
ATOM     30  C   UNL A   1      39.344  19.193  25.905  1.00  0.00     0.261 C 
BRANCH  30  31
ATOM     31  O   UNL A   1      40.640  19.441  25.328  1.00  0.00    -0.460 OA
BRANCH  31  32
ATOM     32  C   UNL A   1      41.632  19.631  26.227  1.00  0.00     0.338 C 
ATOM     33  O   UNL A   1      42.525  18.844  26.530  1.00  0.00    -0.246 OA
BRANCH  32  34
ATOM     34  C   UNL A   1      41.637  21.021  26.699  1.00  0.00     0.060 A 
ATOM     35  C   UNL A   1      41.271  22.023  25.789  1.00  0.00     0.016 A 
ATOM     36  C   UNL A   1      42.114  21.350  27.968  1.00  0.00     0.016 A 
ATOM     37  C   UNL A   1      41.425  23.363  26.132  1.00  0.00     0.010 A 
ATOM     38  C   UNL A   1      42.282  22.697  28.305  1.00  0.00     0.010 A 
ATOM     39  C   UNL A   1      41.972  23.706  27.376  1.00  0.00    -0.014 A 
BRANCH  39  40
ATOM     40  C   UNL A   1      42.345  25.117  27.636  1.00  0.00     0.031 A 
ATOM     41  C   UNL A   1      43.694  25.612  27.194  1.00  0.00     0.074 A 
ATOM     42  C   UNL A   1      41.470  25.957  28.215  1.00  0.00     0.049 A 
ATOM     43  N   UNL A   1      44.222  26.802  27.320  1.00  0.00    -0.248 NA
ATOM     44  C   UNL A   1      44.563  24.636  26.514  1.00  0.00     0.031 C 
ATOM     45  C   UNL A   1      40.119  25.602  28.650  1.00  0.00     0.029 A 
ATOM     46  N   UNL A   1      41.591  27.285  28.537  1.00  0.00    -0.354 N 
ATOM     47  C   UNL A   1      45.480  26.721  26.736  1.00  0.00     0.074 A 
ATOM     48  C   UNL A   1      45.650  25.358  26.282  1.00  0.00     0.031 C 
ATOM     49  C   UNL A   1      39.540  26.687  29.192  1.00  0.00     0.029 A 
ATOM     50  C   UNL A   1      40.484  27.800  29.164  1.00  0.00     0.049 A 
ATOM     51  H   UNL A   1      42.395  27.817  28.336  1.00  0.00     0.167 HD
ATOM     52  C   UNL A   1      46.406  27.698  26.582  1.00  0.00     0.037 A 
ATOM     53  C   UNL A   1      40.270  29.028  29.674  1.00  0.00     0.037 A 
ATOM     54  C   UNL A   1      46.237  29.053  27.038  1.00  0.00     0.049 A 
ATOM     55  C   UNL A   1      41.344  30.075  29.554  1.00  0.00     0.074 A 
ATOM     56  C   UNL A   1      47.115  30.118  26.922  1.00  0.00     0.029 A 
ATOM     57  N   UNL A   1      45.117  29.528  27.702  1.00  0.00    -0.354 N 
ATOM     58  N   UNL A   1      42.520  29.994  28.980  1.00  0.00    -0.248 NA
ATOM     59  C   UNL A   1      41.057  31.389  30.149  1.00  0.00     0.031 C 
ATOM     60  C   UNL A   1      46.542  31.227  27.553  1.00  0.00     0.029 A 
ATOM     61  C   UNL A   1      45.289  30.865  28.022  1.00  0.00     0.049 A 
ATOM     62  H   UNL A   1      44.318  28.995  27.915  1.00  0.00     0.167 HD
ATOM     63  C   UNL A   1      43.102  31.248  29.123  1.00  0.00     0.074 A 
ATOM     64  C   UNL A   1      42.142  32.076  29.822  1.00  0.00     0.031 C 
ATOM     65  C   UNL A   1      44.322  31.675  28.715  1.00  0.00     0.037 A 
BRANCH  52  66
ATOM     66  C   UNL A   1      47.694  27.332  25.907  1.00  0.00     0.057 A 
ATOM     67  C   UNL A   1      48.808  26.894  26.634  1.00  0.00     0.134 A 
ATOM     68  C   UNL A   1      47.807  27.376  24.512  1.00  0.00     0.134 A 
ATOM     69  F   UNL A   1      48.768  26.843  27.974  1.00  0.00    -0.206 F 
ATOM     70  C   UNL A   1      49.995  26.526  25.997  1.00  0.00     0.040 A 
ATOM     71  C   UNL A   1      48.981  26.989  23.863  1.00  0.00     0.040 A 
ATOM     72  F   UNL A   1      46.775  27.784  23.758  1.00  0.00    -0.206 F 
ATOM     73  C   UNL A   1      50.081  26.566  24.607  1.00  0.00     0.006 A 
ENDBRANCH  52  66
BRANCH  53  74
ATOM     74  C   UNL A   1      38.992  29.336  30.363  1.00  0.00     0.057 A 
ATOM     75  C   UNL A   1      38.809  29.049  31.720  1.00  0.00     0.134 A 
ATOM     76  C   UNL A   1      37.910  29.893  29.670  1.00  0.00     0.134 A 
ATOM     77  F   UNL A   1      39.800  28.493  32.431  1.00  0.00    -0.206 F 
ATOM     78  C   UNL A   1      37.590  29.285  32.359  1.00  0.00     0.040 A 
ATOM     79  C   UNL A   1      36.694  30.157  30.302  1.00  0.00     0.040 A 
ATOM     80  F   UNL A   1      38.021  30.192  28.368  1.00  0.00    -0.206 F 
ATOM     81  C   UNL A   1      36.530  29.845  31.649  1.00  0.00     0.006 A 
ENDBRANCH  53  74
BRANCH  65  82
ATOM     82  C   UNL A   1      44.671  33.109  28.988  1.00  0.00     0.057 A 
ATOM     83  C   UNL A   1      45.322  33.498  30.165  1.00  0.00     0.134 A 
ATOM     84  C   UNL A   1      44.375  34.106  28.051  1.00  0.00     0.134 A 
ATOM     85  F   UNL A   1      45.622  32.593  31.108  1.00  0.00    -0.206 F 
ATOM     86  C   UNL A   1      45.644  34.834  30.411  1.00  0.00     0.040 A 
ATOM     87  C   UNL A   1      44.715  35.441  28.274  1.00  0.00     0.040 A 
ATOM     88  F   UNL A   1      43.760  33.799  26.898  1.00  0.00    -0.206 F 
ATOM     89  C   UNL A   1      45.344  35.809  29.462  1.00  0.00     0.006 A 
ENDBRANCH  65  82
ENDBRANCH  39  40
ENDBRANCH  32  34
ENDBRANCH  31  32
ENDBRANCH  30  31
ENDBRANCH  29  30
ENDBRANCH  28  29
ENDBRANCH  27  28
ENDBRANCH   1  27
TORSDOF 22
ENDMDL
MODEL 3
REMARK VINA RESULT:      -9.3      4.088      8.715
REMARK SMILES CC(C)C[C@H](NC(=O)CNC(=O)[C@@H]([NH3+])C(C)C)C(=O)OCCOCCOC(=O)c1ccc(-c2c3nc(c(-c4c(F)cccc4F)c4ccc([nH]4)c(-c4c(F)cccc4F)c4nc(c(-c5c(F)cccc5F)c5ccc2[nH]5)C=C4)C=C3)cc1
REMARK SMILES IDX 21 1 20 2 18 3 19 4 5 5 4 6 2 7 1 8 3 9 6 10 7 11 8 13 9 14
REMARK SMILES IDX 10 15 11 16 12 18 13 19 14 20 15 24 16 25 17 26 22 27 23 28
REMARK SMILES IDX 24 29 25 30 26 31 27 32 28 33 29 34 30 35 82 36 31 37 81 38
REMARK SMILES IDX 32 39 33 40 34 41 75 42 35 43 80 44 74 45 76 46 36 47 79 48
REMARK SMILES IDX 73 49 72 50 37 52 63 53 46 54 62 55 47 56 50 57 61 58 77 59
REMARK SMILES IDX 48 60 49 61 60 63 78 64 51 65 38 66 39 67 44 68 40 69 41 70
REMARK SMILES IDX 43 71 45 72 42 73 64 74 65 75 70 76 66 77 67 78 69 79 71 80
REMARK SMILES IDX 68 81 52 82 53 83 58 84 54 85 55 86 57 87 59 88 56 89
REMARK H PARENT 6 12 10 17 14 21 14 22 14 23 76 51 50 62
REMARK Flexibility Score: inf
ROOT
ATOM      1  C   UNL A   1      32.951  27.773  26.823  1.00  0.00     0.261 C 
ENDROOT
BRANCH   1   2
ATOM      2  O   UNL A   1      32.506  26.634  26.077  1.00  0.00    -0.462 OA
BRANCH   2   3
ATOM      3  C   UNL A   1      33.482  26.113  25.280  1.00  0.00     0.328 C 
ATOM      4  O   UNL A   1      34.126  26.762  24.462  1.00  0.00    -0.250 OA
BRANCH   3   5
ATOM      5  C   UNL A   1      33.617  24.592  25.413  1.00  0.00     0.192 C 
BRANCH   5   6
ATOM      6  C   UNL A   1      34.469  24.028  24.268  1.00  0.00     0.040 C 
BRANCH   6   7
ATOM      7  C   UNL A   1      35.983  23.874  24.548  1.00  0.00    -0.015 C 
ATOM      8  C   UNL A   1      36.354  23.508  25.986  1.00  0.00     0.007 C 
ATOM      9  C   UNL A   1      36.568  22.817  23.610  1.00  0.00     0.007 C 
ENDBRANCH   6   7
ENDBRANCH   5   6
BRANCH   5  10
ATOM     10  N   UNL A   1      32.331  23.893  25.502  1.00  0.00    -0.341 N 
ATOM     11  C   UNL A   1      32.094  22.567  25.746  1.00  0.00     0.240 C 
ATOM     12  H   UNL A   1      31.531  24.451  25.367  1.00  0.00     0.164 HD
ATOM     13  O   UNL A   1      30.936  22.243  26.032  1.00  0.00    -0.273 OA
BRANCH  11  14
ATOM     14  C   UNL A   1      33.236  21.527  25.820  1.00  0.00     0.216 C 
BRANCH  14  15
ATOM     15  N   UNL A   1      32.791  20.195  26.193  1.00  0.00    -0.342 N 
ATOM     16  C   UNL A   1      32.910  18.989  25.578  1.00  0.00     0.278 C 
ATOM     17  H   UNL A   1      32.315  20.159  27.054  1.00  0.00     0.164 HD
ATOM     18  O   UNL A   1      32.326  18.045  26.124  1.00  0.00    -0.268 OA
BRANCH  16  19
ATOM     19  C   UNL A   1      33.772  18.738  24.312  1.00  0.00     0.273 C 
BRANCH  19  20
ATOM     20  N   UNL A   1      35.210  18.595  24.628  1.00  0.00    -0.347 N 
ATOM     21  H   UNL A   1      35.702  19.451  24.369  1.00  0.00     0.345 HD
ATOM     22  H   UNL A   1      35.597  17.809  24.106  1.00  0.00     0.345 HD
ATOM     23  H   UNL A   1      35.323  18.429  25.629  1.00  0.00     0.345 HD
ENDBRANCH  19  20
BRANCH  19  24
ATOM     24  C   UNL A   1      33.204  17.562  23.485  1.00  0.00     0.051 C 
ATOM     25  C   UNL A   1      32.513  18.081  22.214  1.00  0.00     0.014 C 
ATOM     26  C   UNL A   1      34.300  16.573  23.061  1.00  0.00     0.014 C 
ENDBRANCH  19  24
ENDBRANCH  16  19
ENDBRANCH  14  15
ENDBRANCH  11  14
ENDBRANCH   5  10
ENDBRANCH   3   5
ENDBRANCH   2   3
ENDBRANCH   1   2
BRANCH   1  27
ATOM     27  C   UNL A   1      31.967  28.948  26.869  1.00  0.00     0.202 C 
BRANCH  27  28
ATOM     28  O   UNL A   1      32.379  30.202  26.346  1.00  0.00    -0.374 OA
BRANCH  28  29
ATOM     29  C   UNL A   1      32.925  31.179  27.233  1.00  0.00     0.202 C 
BRANCH  29  30
ATOM     30  C   UNL A   1      32.264  32.561  27.295  1.00  0.00     0.261 C 
BRANCH  30  31
ATOM     31  O   UNL A   1      33.226  33.633  27.254  1.00  0.00    -0.460 OA
BRANCH  31  32
ATOM     32  C   UNL A   1      33.323  34.348  28.398  1.00  0.00     0.338 C 
ATOM     33  O   UNL A   1      32.527  35.177  28.829  1.00  0.00    -0.246 OA
BRANCH  32  34
ATOM     34  C   UNL A   1      34.454  33.872  29.204  1.00  0.00     0.060 A 
ATOM     35  C   UNL A   1      35.748  34.187  28.768  1.00  0.00     0.016 A 
ATOM     36  C   UNL A   1      34.255  33.026  30.296  1.00  0.00     0.016 A 
ATOM     37  C   UNL A   1      36.851  33.617  29.396  1.00  0.00     0.010 A 
ATOM     38  C   UNL A   1      35.365  32.443  30.916  1.00  0.00     0.010 A 
ATOM     39  C   UNL A   1      36.664  32.708  30.446  1.00  0.00    -0.014 A 
BRANCH  39  40
ATOM     40  C   UNL A   1      37.825  31.937  30.949  1.00  0.00     0.031 A 
ATOM     41  C   UNL A   1      38.383  32.254  32.309  1.00  0.00     0.074 A 
ATOM     42  C   UNL A   1      38.342  30.932  30.221  1.00  0.00     0.049 A 
ATOM     43  N   UNL A   1      39.389  31.707  32.940  1.00  0.00    -0.248 NA
ATOM     44  C   UNL A   1      37.714  33.331  33.059  1.00  0.00     0.031 C 
ATOM     45  C   UNL A   1      37.861  30.506  28.907  1.00  0.00     0.029 A 
ATOM     46  N   UNL A   1      39.391  30.089  30.487  1.00  0.00    -0.354 N 
ATOM     47  C   UNL A   1      39.473  32.367  34.160  1.00  0.00     0.074 A 
ATOM     48  C   UNL A   1      38.437  33.376  34.169  1.00  0.00     0.031 C 
ATOM     49  C   UNL A   1      38.621  29.485  28.478  1.00  0.00     0.029 A 
ATOM     50  C   UNL A   1      39.654  29.203  29.472  1.00  0.00     0.049 A 
ATOM     51  H   UNL A   1      39.905  30.116  31.327  1.00  0.00     0.167 HD
ATOM     52  C   UNL A   1      40.331  32.144  35.184  1.00  0.00     0.037 A 
ATOM     53  C   UNL A   1      40.631  28.284  29.354  1.00  0.00     0.037 A 
ATOM     54  C   UNL A   1      41.365  31.143  35.173  1.00  0.00     0.049 A 
ATOM     55  C   UNL A   1      41.616  28.107  30.478  1.00  0.00     0.074 A 
ATOM     56  C   UNL A   1      42.279  30.835  36.166  1.00  0.00     0.029 A 
ATOM     57  N   UNL A   1      41.624  30.289  34.112  1.00  0.00    -0.354 N 
ATOM     58  N   UNL A   1      41.673  28.721  31.636  1.00  0.00    -0.248 NA
ATOM     59  C   UNL A   1      42.672  27.102  30.280  1.00  0.00     0.031 C 
ATOM     60  C   UNL A   1      43.119  29.822  35.688  1.00  0.00     0.029 A 
ATOM     61  C   UNL A   1      42.698  29.469  34.416  1.00  0.00     0.049 A 
ATOM     62  H   UNL A   1      41.120  30.269  33.267  1.00  0.00     0.167 HD
ATOM     63  C   UNL A   1      42.751  28.162  32.311  1.00  0.00     0.074 A 
ATOM     64  C   UNL A   1      43.309  27.147  31.441  1.00  0.00     0.031 C 
ATOM     65  C   UNL A   1      43.238  28.462  33.540  1.00  0.00     0.037 A 
BRANCH  52  66
ATOM     66  C   UNL A   1      40.200  33.013  36.400  1.00  0.00     0.057 A 
ATOM     67  C   UNL A   1      39.326  32.690  37.445  1.00  0.00     0.134 A 
ATOM     68  C   UNL A   1      40.988  34.161  36.546  1.00  0.00     0.134 A 
ATOM     69  F   UNL A   1      38.533  31.611  37.360  1.00  0.00    -0.206 F 
ATOM     70  C   UNL A   1      39.230  33.487  38.588  1.00  0.00     0.040 A 
ATOM     71  C   UNL A   1      40.918  34.953  37.694  1.00  0.00     0.040 A 
ATOM     72  F   UNL A   1      41.848  34.524  35.582  1.00  0.00    -0.206 F 
ATOM     73  C   UNL A   1      40.034  34.617  38.718  1.00  0.00     0.006 A 
ENDBRANCH  52  66
BRANCH  53  74
ATOM     74  C   UNL A   1      40.743  27.469  28.119  1.00  0.00     0.057 A 
ATOM     75  C   UNL A   1      41.479  27.916  27.017  1.00  0.00     0.134 A 
ATOM     76  C   UNL A   1      40.085  26.239  28.000  1.00  0.00     0.134 A 
ATOM     77  F   UNL A   1      42.111  29.097  27.062  1.00  0.00    -0.206 F 
ATOM     78  C   UNL A   1      41.541  27.178  25.832  1.00  0.00     0.040 A 
ATOM     79  C   UNL A   1      40.158  25.480  26.832  1.00  0.00     0.040 A 
ATOM     80  F   UNL A   1      39.364  25.754  29.022  1.00  0.00    -0.206 F 
ATOM     81  C   UNL A   1      40.881  25.954  25.740  1.00  0.00     0.006 A 
ENDBRANCH  53  74
BRANCH  65  82
ATOM     82  C   UNL A   1      44.411  27.663  34.025  1.00  0.00     0.057 A 
ATOM     83  C   UNL A   1      44.246  26.467  34.735  1.00  0.00     0.134 A 
ATOM     84  C   UNL A   1      45.720  28.080  33.754  1.00  0.00     0.134 A 
ATOM     85  F   UNL A   1      43.018  26.019  35.037  1.00  0.00    -0.206 F 
ATOM     86  C   UNL A   1      45.343  25.728  35.182  1.00  0.00     0.040 A 
ATOM     87  C   UNL A   1      46.825  27.336  34.173  1.00  0.00     0.040 A 
ATOM     88  F   UNL A   1      45.948  29.211  33.070  1.00  0.00    -0.206 F 
ATOM     89  C   UNL A   1      46.636  26.160  34.896  1.00  0.00     0.006 A 
ENDBRANCH  65  82
ENDBRANCH  39  40
ENDBRANCH  32  34
ENDBRANCH  31  32
ENDBRANCH  30  31
ENDBRANCH  29  30
ENDBRANCH  28  29
ENDBRANCH  27  28
ENDBRANCH   1  27
TORSDOF 22
ENDMDL
