MODEL 1
REMARK VINA RESULT:     -10.4      0.000      0.000
REMARK SMILES CCC(CC)(NC(=O)Nc1c(C)n[nH]c1C)C(=O)OCCOCCOC(=O)c1ccc(-c2c3nc(c(-c4c(F)cccc4F)c4ccc([nH]4)c(-c4c(F)cccc4F)c4nc(c(-c5c(F)cccc5F)c5ccc2[nH]5)C=C4)C=C3)cc1
REMARK SMILES IDX 22 1 21 2 20 3 19 4 17 5 18 6 3 7 2 8 1 9 4 10 5 11 6 12
REMARK SMILES IDX 7 13 8 15 9 16 10 18 11 19 15 20 12 21 13 22 14 23 16 24
REMARK SMILES IDX 23 26 24 27 25 28 26 29 27 30 28 31 29 32 81 33 30 34 80 35
REMARK SMILES IDX 31 36 32 37 33 38 74 39 34 40 79 41 73 42 75 43 35 44 78 45
REMARK SMILES IDX 72 46 71 47 36 49 62 50 45 51 61 52 46 53 49 54 60 55 76 56
REMARK SMILES IDX 47 57 48 58 59 60 77 61 50 62 37 63 38 64 43 65 39 66 40 67
REMARK SMILES IDX 42 68 44 69 41 70 63 71 64 72 69 73 65 74 66 75 68 76 70 77
REMARK SMILES IDX 67 78 51 79 52 80 57 81 53 82 54 83 56 84 58 85 55 86
REMARK H PARENT 6 14 9 17 14 25 75 48 49 59
REMARK Flexibility Score: inf
ROOT
ATOM      1  O   UNL A   1      32.292  28.772  25.797  1.00  0.00    -0.374 OA
ENDROOT
BRANCH   1   2
ATOM      2  C   UNL A   1      33.549  28.150  25.569  1.00  0.00     0.202 C 
BRANCH   2   3
ATOM      3  C   UNL A   1      33.651  27.469  24.131  1.00  0.00     0.261 C 
BRANCH   3   4
ATOM      4  O   UNL A   1      33.923  26.013  24.141  1.00  0.00    -0.461 OA
BRANCH   4   5
ATOM      5  C   UNL A   1      33.943  24.880  23.339  1.00  0.00     0.331 C 
ATOM      6  O   UNL A   1      33.640  24.834  22.151  1.00  0.00    -0.249 OA
BRANCH   5   7
ATOM      7  C   UNL A   1      34.283  23.553  24.193  1.00  0.00     0.139 C 
BRANCH   7   8
ATOM      8  C   UNL A   1      33.745  23.017  25.570  1.00  0.00     0.037 C 
ATOM      9  C   UNL A   1      34.636  22.609  26.704  1.00  0.00     0.007 C 
ENDBRANCH   7   8
BRANCH   7  10
ATOM     10  C   UNL A   1      35.846  23.599  24.240  1.00  0.00     0.037 C 
ATOM     11  C   UNL A   1      36.663  22.954  23.127  1.00  0.00     0.007 C 
ENDBRANCH   7  10
BRANCH   7  12
ATOM     12  N   UNL A   1      33.690  22.591  23.306  1.00  0.00    -0.322 N 
ATOM     13  C   UNL A   1      32.354  22.358  23.313  1.00  0.00     0.320 C 
ATOM     14  H   UNL A   1      34.265  22.092  22.681  1.00  0.00     0.166 HD
ATOM     15  O   UNL A   1      32.000  21.310  22.756  1.00  0.00    -0.248 OA
ATOM     16  N   UNL A   1      31.401  23.114  23.966  1.00  0.00    -0.305 N 
ATOM     17  H   UNL A   1      30.607  22.533  23.975  1.00  0.00     0.171 HD
BRANCH  16  18
ATOM     18  C   UNL A   1      30.962  24.302  24.635  1.00  0.00     0.086 A 
ATOM     19  C   UNL A   1      30.591  24.175  26.039  1.00  0.00     0.083 A 
ATOM     20  C   UNL A   1      30.501  25.626  24.443  1.00  0.00     0.056 A 
ATOM     21  C   UNL A   1      30.239  22.953  26.797  1.00  0.00     0.071 C 
ATOM     22  N   UNL A   1      30.452  25.342  26.669  1.00  0.00    -0.179 NA
ATOM     23  N   UNL A   1      30.600  26.215  25.688  1.00  0.00    -0.280 N 
ATOM     24  C   UNL A   1      29.771  26.554  23.513  1.00  0.00     0.068 C 
ATOM     25  H   UNL A   1      30.761  27.175  25.829  1.00  0.00     0.190 HD
ENDBRANCH  16  18
ENDBRANCH   7  12
ENDBRANCH   5   7
ENDBRANCH   4   5
ENDBRANCH   3   4
ENDBRANCH   2   3
ENDBRANCH   1   2
BRANCH   1  26
ATOM     26  C   UNL A   1      31.949  30.065  25.287  1.00  0.00     0.202 C 
BRANCH  26  27
ATOM     27  C   UNL A   1      31.717  30.977  26.502  1.00  0.00     0.261 C 
BRANCH  27  28
ATOM     28  O   UNL A   1      32.779  30.799  27.438  1.00  0.00    -0.460 OA
BRANCH  28  29
ATOM     29  C   UNL A   1      33.524  31.911  27.583  1.00  0.00     0.338 C 
ATOM     30  O   UNL A   1      33.123  33.067  27.627  1.00  0.00    -0.246 OA
BRANCH  29  31
ATOM     31  C   UNL A   1      34.871  31.491  27.984  1.00  0.00     0.060 A 
ATOM     32  C   UNL A   1      35.095  30.117  28.145  1.00  0.00     0.016 A 
ATOM     33  C   UNL A   1      35.912  32.418  28.124  1.00  0.00     0.016 A 
ATOM     34  C   UNL A   1      36.338  29.673  28.560  1.00  0.00     0.010 A 
ATOM     35  C   UNL A   1      37.155  31.978  28.552  1.00  0.00     0.010 A 
ATOM     36  C   UNL A   1      37.331  30.618  28.845  1.00  0.00    -0.014 A 
BRANCH  36  37
ATOM     37  C   UNL A   1      38.391  30.239  29.790  1.00  0.00     0.031 A 
ATOM     38  C   UNL A   1      39.412  29.254  29.296  1.00  0.00     0.074 A 
ATOM     39  C   UNL A   1      38.453  30.781  31.012  1.00  0.00     0.049 A 
ATOM     40  N   UNL A   1      40.432  28.733  29.921  1.00  0.00    -0.248 NA
ATOM     41  C   UNL A   1      39.261  28.791  27.903  1.00  0.00     0.031 C 
ATOM     42  C   UNL A   1      37.527  31.777  31.548  1.00  0.00     0.029 A 
ATOM     43  N   UNL A   1      39.343  30.556  32.024  1.00  0.00    -0.354 N 
ATOM     44  C   UNL A   1      41.036  27.887  29.000  1.00  0.00     0.074 A 
ATOM     45  C   UNL A   1      40.255  27.929  27.788  1.00  0.00     0.031 C 
ATOM     46  C   UNL A   1      37.895  32.070  32.808  1.00  0.00     0.029 A 
ATOM     47  C   UNL A   1      39.057  31.260  33.166  1.00  0.00     0.049 A 
ATOM     48  H   UNL A   1      40.113  29.948  31.942  1.00  0.00     0.167 HD
ATOM     49  C   UNL A   1      42.156  27.148  29.153  1.00  0.00     0.037 A 
ATOM     50  C   UNL A   1      39.667  31.220  34.364  1.00  0.00     0.037 A 
ATOM     51  C   UNL A   1      42.911  27.108  30.373  1.00  0.00     0.049 A 
ATOM     52  C   UNL A   1      40.863  30.321  34.536  1.00  0.00     0.074 A 
ATOM     53  C   UNL A   1      44.061  26.395  30.653  1.00  0.00     0.029 A 
ATOM     54  N   UNL A   1      42.575  27.808  31.523  1.00  0.00    -0.354 N 
ATOM     55  N   UNL A   1      41.450  29.541  33.658  1.00  0.00    -0.248 NA
ATOM     56  C   UNL A   1      41.486  30.301  35.865  1.00  0.00     0.031 C 
ATOM     57  C   UNL A   1      44.389  26.621  31.993  1.00  0.00     0.029 A 
ATOM     58  C   UNL A   1      43.482  27.524  32.527  1.00  0.00     0.049 A 
ATOM     59  H   UNL A   1      41.806  28.416  31.611  1.00  0.00     0.167 HD
ATOM     60  C   UNL A   1      42.529  28.967  34.317  1.00  0.00     0.074 A 
ATOM     61  C   UNL A   1      42.520  29.496  35.665  1.00  0.00     0.031 C 
ATOM     62  C   UNL A   1      43.449  28.082  33.855  1.00  0.00     0.037 A 
BRANCH  49  63
ATOM     63  C   UNL A   1      42.593  26.308  27.992  1.00  0.00     0.057 A 
ATOM     64  C   UNL A   1      43.471  26.793  27.013  1.00  0.00     0.134 A 
ATOM     65  C   UNL A   1      42.130  24.995  27.852  1.00  0.00     0.134 A 
ATOM     66  F   UNL A   1      43.928  28.053  27.072  1.00  0.00    -0.206 F 
ATOM     67  C   UNL A   1      43.857  26.006  25.927  1.00  0.00     0.040 A 
ATOM     68  C   UNL A   1      42.532  24.189  26.786  1.00  0.00     0.040 A 
ATOM     69  F   UNL A   1      41.278  24.473  28.748  1.00  0.00    -0.206 F 
ATOM     70  C   UNL A   1      43.394  24.697  25.817  1.00  0.00     0.006 A 
ENDBRANCH  49  63
BRANCH  50  71
ATOM     71  C   UNL A   1      39.153  32.041  35.487  1.00  0.00     0.057 A 
ATOM     72  C   UNL A   1      39.572  33.363  35.671  1.00  0.00     0.134 A 
ATOM     73  C   UNL A   1      38.248  31.515  36.418  1.00  0.00     0.134 A 
ATOM     74  F   UNL A   1      40.450  33.917  34.822  1.00  0.00    -0.206 F 
ATOM     75  C   UNL A   1      39.133  34.125  36.756  1.00  0.00     0.040 A 
ATOM     76  C   UNL A   1      37.778  32.274  37.490  1.00  0.00     0.040 A 
ATOM     77  F   UNL A   1      37.801  30.257  36.293  1.00  0.00    -0.206 F 
ATOM     78  C   UNL A   1      38.230  33.580  37.667  1.00  0.00     0.006 A 
ENDBRANCH  50  71
BRANCH  62  79
ATOM     79  C   UNL A   1      44.545  27.676  34.796  1.00  0.00     0.057 A 
ATOM     80  C   UNL A   1      44.446  26.537  35.603  1.00  0.00     0.134 A 
ATOM     81  C   UNL A   1      45.740  28.406  34.845  1.00  0.00     0.134 A 
ATOM     82  F   UNL A   1      43.325  25.801  35.608  1.00  0.00    -0.206 F 
ATOM     83  C   UNL A   1      45.489  26.153  36.447  1.00  0.00     0.040 A 
ATOM     84  C   UNL A   1      46.801  28.013  35.660  1.00  0.00     0.040 A 
ATOM     85  F   UNL A   1      45.904  29.499  34.084  1.00  0.00    -0.206 F 
ATOM     86  C   UNL A   1      46.674  26.887  36.470  1.00  0.00     0.006 A 
ENDBRANCH  62  79
ENDBRANCH  36  37
ENDBRANCH  29  31
ENDBRANCH  28  29
ENDBRANCH  27  28
ENDBRANCH  26  27
ENDBRANCH   1  26
TORSDOF 18
ENDMDL
MODEL 2
REMARK VINA RESULT:     -10.4      4.005      8.773
REMARK SMILES CCC(CC)(NC(=O)Nc1c(C)n[nH]c1C)C(=O)OCCOCCOC(=O)c1ccc(-c2c3nc(c(-c4c(F)cccc4F)c4ccc([nH]4)c(-c4c(F)cccc4F)c4nc(c(-c5c(F)cccc5F)c5ccc2[nH]5)C=C4)C=C3)cc1
REMARK SMILES IDX 22 1 21 2 20 3 19 4 17 5 18 6 3 7 2 8 1 9 4 10 5 11 6 12
REMARK SMILES IDX 7 13 8 15 9 16 10 18 11 19 15 20 12 21 13 22 14 23 16 24
REMARK SMILES IDX 23 26 24 27 25 28 26 29 27 30 28 31 29 32 81 33 30 34 80 35
REMARK SMILES IDX 31 36 32 37 33 38 74 39 34 40 79 41 73 42 75 43 35 44 78 45
REMARK SMILES IDX 72 46 71 47 36 49 62 50 45 51 61 52 46 53 49 54 60 55 76 56
REMARK SMILES IDX 47 57 48 58 59 60 77 61 50 62 37 63 38 64 43 65 39 66 40 67
REMARK SMILES IDX 42 68 44 69 41 70 63 71 64 72 69 73 65 74 66 75 68 76 70 77
REMARK SMILES IDX 67 78 51 79 52 80 57 81 53 82 54 83 56 84 58 85 55 86
REMARK H PARENT 6 14 9 17 14 25 75 48 49 59
REMARK Flexibility Score: inf
ROOT
ATOM      1  O   UNL A   1      35.631  21.064  25.808  1.00  0.00    -0.374 OA
ENDROOT
BRANCH   1   2
ATOM      2  C   UNL A   1      34.284  21.498  25.684  1.00  0.00     0.202 C 
BRANCH   2   3
ATOM      3  C   UNL A   1      33.610  21.835  27.088  1.00  0.00     0.261 C 
BRANCH   3   4
ATOM      4  O   UNL A   1      33.020  23.190  27.196  1.00  0.00    -0.461 OA
BRANCH   4   5
ATOM      5  C   UNL A   1      31.899  23.943  26.876  1.00  0.00     0.331 C 
ATOM      6  O   UNL A   1      30.766  23.769  27.313  1.00  0.00    -0.249 OA
BRANCH   5   7
ATOM      7  C   UNL A   1      32.218  25.025  25.720  1.00  0.00     0.139 C 
BRANCH   7   8
ATOM      8  C   UNL A   1      33.566  25.638  25.191  1.00  0.00     0.037 C 
ATOM      9  C   UNL A   1      34.734  24.810  24.750  1.00  0.00     0.007 C 
ENDBRANCH   7   8
BRANCH   7  10
ATOM     10  C   UNL A   1      31.244  26.188  26.100  1.00  0.00     0.037 C 
ATOM     11  C   UNL A   1      31.725  27.326  26.992  1.00  0.00     0.007 C 
ENDBRANCH   7  10
BRANCH   7  12
ATOM     12  N   UNL A   1      31.854  24.218  24.590  1.00  0.00    -0.322 N 
ATOM     13  C   UNL A   1      31.243  24.759  23.507  1.00  0.00     0.320 C 
ATOM     14  H   UNL A   1      32.052  23.253  24.601  1.00  0.00     0.166 HD
ATOM     15  O   UNL A   1      30.696  23.946  22.750  1.00  0.00    -0.248 OA
ATOM     16  N   UNL A   1      31.093  26.107  23.249  1.00  0.00    -0.305 N 
ATOM     17  H   UNL A   1      30.403  26.136  22.547  1.00  0.00     0.171 HD
BRANCH  16  18
ATOM     18  C   UNL A   1      31.415  27.486  23.465  1.00  0.00     0.086 A 
ATOM     19  C   UNL A   1      30.301  28.420  23.572  1.00  0.00     0.083 A 
ATOM     20  C   UNL A   1      32.455  28.445  23.415  1.00  0.00     0.056 A 
ATOM     21  C   UNL A   1      28.900  28.245  23.127  1.00  0.00     0.071 C 
ATOM     22  N   UNL A   1      30.646  29.622  24.035  1.00  0.00    -0.179 NA
ATOM     23  N   UNL A   1      31.962  29.531  24.112  1.00  0.00    -0.280 N 
ATOM     24  C   UNL A   1      33.747  28.828  22.750  1.00  0.00     0.068 C 
ATOM     25  H   UNL A   1      32.527  30.165  24.608  1.00  0.00     0.190 HD
ENDBRANCH  16  18
ENDBRANCH   7  12
ENDBRANCH   5   7
ENDBRANCH   4   5
ENDBRANCH   3   4
ENDBRANCH   2   3
ENDBRANCH   1   2
BRANCH   1  26
ATOM     26  C   UNL A   1      36.204  20.030  25.001  1.00  0.00     0.202 C 
BRANCH  26  27
ATOM     27  C   UNL A   1      37.639  20.467  24.667  1.00  0.00     0.261 C 
BRANCH  27  28
ATOM     28  O   UNL A   1      38.051  21.480  25.584  1.00  0.00    -0.460 OA
BRANCH  28  29
ATOM     29  C   UNL A   1      39.256  21.220  26.126  1.00  0.00     0.338 C 
ATOM     30  O   UNL A   1      39.964  20.244  25.915  1.00  0.00    -0.246 OA
BRANCH  29  31
ATOM     31  C   UNL A   1      39.720  22.447  26.783  1.00  0.00     0.060 A 
ATOM     32  C   UNL A   1      39.040  23.635  26.479  1.00  0.00     0.016 A 
ATOM     33  C   UNL A   1      40.748  22.420  27.734  1.00  0.00     0.016 A 
ATOM     34  C   UNL A   1      39.465  24.825  27.042  1.00  0.00     0.010 A 
ATOM     35  C   UNL A   1      41.183  23.613  28.290  1.00  0.00     0.010 A 
ATOM     36  C   UNL A   1      40.590  24.814  27.875  1.00  0.00    -0.014 A 
BRANCH  36  37
ATOM     37  C   UNL A   1      41.365  26.056  28.001  1.00  0.00     0.031 A 
ATOM     38  C   UNL A   1      40.693  27.201  28.702  1.00  0.00     0.074 A 
ATOM     39  C   UNL A   1      42.620  26.136  27.542  1.00  0.00     0.049 A 
ATOM     40  N   UNL A   1      41.134  28.408  28.930  1.00  0.00    -0.248 NA
ATOM     41  C   UNL A   1      39.333  26.951  29.219  1.00  0.00     0.031 C 
ATOM     42  C   UNL A   1      43.358  25.055  26.891  1.00  0.00     0.029 A 
ATOM     43  N   UNL A   1      43.491  27.189  27.555  1.00  0.00    -0.354 N 
ATOM     44  C   UNL A   1      40.109  29.053  29.611  1.00  0.00     0.074 A 
ATOM     45  C   UNL A   1      39.010  28.126  29.728  1.00  0.00     0.031 C 
ATOM     46  C   UNL A   1      44.577  25.510  26.554  1.00  0.00     0.029 A 
ATOM     47  C   UNL A   1      44.684  26.916  26.939  1.00  0.00     0.049 A 
ATOM     48  H   UNL A   1      43.281  28.059  27.967  1.00  0.00     0.167 HD
ATOM     49  C   UNL A   1      40.095  30.310  30.105  1.00  0.00     0.037 A 
ATOM     50  C   UNL A   1      45.725  27.733  26.702  1.00  0.00     0.037 A 
ATOM     51  C   UNL A   1      41.193  31.222  29.963  1.00  0.00     0.049 A 
ATOM     52  C   UNL A   1      45.651  29.157  27.186  1.00  0.00     0.074 A 
ATOM     53  C   UNL A   1      41.298  32.523  30.418  1.00  0.00     0.029 A 
ATOM     54  N   UNL A   1      42.377  30.924  29.304  1.00  0.00    -0.354 N 
ATOM     55  N   UNL A   1      44.693  29.759  27.853  1.00  0.00    -0.248 NA
ATOM     56  C   UNL A   1      46.805  30.015  26.891  1.00  0.00     0.031 C 
ATOM     57  C   UNL A   1      42.525  33.032  29.982  1.00  0.00     0.029 A 
ATOM     58  C   UNL A   1      43.210  32.027  29.314  1.00  0.00     0.049 A 
ATOM     59  H   UNL A   1      42.590  30.057  28.889  1.00  0.00     0.167 HD
ATOM     60  C   UNL A   1      45.143  31.052  28.086  1.00  0.00     0.074 A 
ATOM     61  C   UNL A   1      46.464  31.142  27.499  1.00  0.00     0.031 C 
ATOM     62  C   UNL A   1      44.526  32.076  28.730  1.00  0.00     0.037 A 
BRANCH  49  63
ATOM     63  C   UNL A   1      38.847  30.765  30.799  1.00  0.00     0.057 A 
ATOM     64  C   UNL A   1      38.655  30.587  32.176  1.00  0.00     0.134 A 
ATOM     65  C   UNL A   1      37.823  31.392  30.079  1.00  0.00     0.134 A 
ATOM     66  F   UNL A   1      39.585  29.966  32.918  1.00  0.00    -0.206 F 
ATOM     67  C   UNL A   1      37.482  31.000  32.808  1.00  0.00     0.040 A 
ATOM     68  C   UNL A   1      36.657  31.835  30.705  1.00  0.00     0.040 A 
ATOM     69  F   UNL A   1      37.938  31.582  28.756  1.00  0.00    -0.206 F 
ATOM     70  C   UNL A   1      36.482  31.634  32.072  1.00  0.00     0.006 A 
ENDBRANCH  49  63
BRANCH  50  71
ATOM     71  C   UNL A   1      46.912  27.232  25.965  1.00  0.00     0.057 A 
ATOM     72  C   UNL A   1      47.975  26.618  26.634  1.00  0.00     0.134 A 
ATOM     73  C   UNL A   1      47.020  27.378  24.576  1.00  0.00     0.134 A 
ATOM     74  F   UNL A   1      47.936  26.464  27.966  1.00  0.00    -0.206 F 
ATOM     75  C   UNL A   1      49.117  26.190  25.954  1.00  0.00     0.040 A 
ATOM     76  C   UNL A   1      48.143  26.930  23.880  1.00  0.00     0.040 A 
ATOM     77  F   UNL A   1      46.031  27.952  23.875  1.00  0.00    -0.206 F 
ATOM     78  C   UNL A   1      49.201  26.343  24.571  1.00  0.00     0.006 A 
ENDBRANCH  50  71
BRANCH  62  79
ATOM     79  C   UNL A   1      45.293  33.357  28.875  1.00  0.00     0.057 A 
ATOM     80  C   UNL A   1      46.173  33.579  29.940  1.00  0.00     0.134 A 
ATOM     81  C   UNL A   1      45.191  34.356  27.898  1.00  0.00     0.134 A 
ATOM     82  F   UNL A   1      46.310  32.665  30.912  1.00  0.00    -0.206 F 
ATOM     83  C   UNL A   1      46.906  34.762  30.043  1.00  0.00     0.040 A 
ATOM     84  C   UNL A   1      45.942  35.528  27.972  1.00  0.00     0.040 A 
ATOM     85  F   UNL A   1      44.377  34.199  26.843  1.00  0.00    -0.206 F 
ATOM     86  C   UNL A   1      46.798  35.737  29.052  1.00  0.00     0.006 A 
ENDBRANCH  62  79
ENDBRANCH  36  37
ENDBRANCH  29  31
ENDBRANCH  28  29
ENDBRANCH  27  28
ENDBRANCH  26  27
ENDBRANCH   1  26
TORSDOF 18
ENDMDL
MODEL 3
REMARK VINA RESULT:     -10.3      1.106      2.699
REMARK SMILES CCC(CC)(NC(=O)Nc1c(C)n[nH]c1C)C(=O)OCCOCCOC(=O)c1ccc(-c2c3nc(c(-c4c(F)cccc4F)c4ccc([nH]4)c(-c4c(F)cccc4F)c4nc(c(-c5c(F)cccc5F)c5ccc2[nH]5)C=C4)C=C3)cc1
REMARK SMILES IDX 22 1 21 2 20 3 19 4 17 5 18 6 3 7 2 8 1 9 4 10 5 11 6 12
REMARK SMILES IDX 7 13 8 15 9 16 10 18 11 19 15 20 12 21 13 22 14 23 16 24
REMARK SMILES IDX 23 26 24 27 25 28 26 29 27 30 28 31 29 32 81 33 30 34 80 35
REMARK SMILES IDX 31 36 32 37 33 38 74 39 34 40 79 41 73 42 75 43 35 44 78 45
REMARK SMILES IDX 72 46 71 47 36 49 62 50 45 51 61 52 46 53 49 54 60 55 76 56
REMARK SMILES IDX 47 57 48 58 59 60 77 61 50 62 37 63 38 64 43 65 39 66 40 67
REMARK SMILES IDX 42 68 44 69 41 70 63 71 64 72 69 73 65 74 66 75 68 76 70 77
REMARK SMILES IDX 67 78 51 79 52 80 57 81 53 82 54 83 56 84 58 85 55 86
REMARK H PARENT 6 14 9 17 14 25 75 48 49 59
REMARK Flexibility Score: inf
ROOT
ATOM      1  O   UNL A   1      30.978  29.339  24.778  1.00  0.00    -0.374 OA
ENDROOT
BRANCH   1   2
ATOM      2  C   UNL A   1      30.851  29.157  23.374  1.00  0.00     0.202 C 
BRANCH   2   3
ATOM      3  C   UNL A   1      30.268  27.726  22.985  1.00  0.00     0.261 C 
BRANCH   3   4
ATOM      4  O   UNL A   1      30.928  26.575  23.645  1.00  0.00    -0.461 OA
BRANCH   4   5
ATOM      5  C   UNL A   1      31.018  25.882  24.844  1.00  0.00     0.331 C 
ATOM      6  O   UNL A   1      30.632  26.283  25.937  1.00  0.00    -0.249 OA
BRANCH   5   7
ATOM      7  C   UNL A   1      31.839  24.502  24.674  1.00  0.00     0.139 C 
BRANCH   7   8
ATOM      8  C   UNL A   1      31.418  22.996  24.838  1.00  0.00     0.037 C 
ATOM      9  C   UNL A   1      30.756  22.451  26.066  1.00  0.00     0.007 C 
ENDBRANCH   7   8
BRANCH   7  10
ATOM     10  C   UNL A   1      33.102  24.777  25.554  1.00  0.00     0.037 C 
ATOM     11  C   UNL A   1      33.932  26.034  25.328  1.00  0.00     0.007 C 
ENDBRANCH   7  10
BRANCH   7  12
ATOM     12  N   UNL A   1      32.018  24.554  23.249  1.00  0.00    -0.322 N 
ATOM     13  C   UNL A   1      33.080  23.959  22.652  1.00  0.00     0.320 C 
ATOM     14  H   UNL A   1      31.357  25.031  22.697  1.00  0.00     0.166 HD
ATOM     15  O   UNL A   1      33.307  24.329  21.493  1.00  0.00    -0.248 OA
ATOM     16  N   UNL A   1      33.965  23.085  23.252  1.00  0.00    -0.305 N 
ATOM     17  H   UNL A   1      34.727  23.059  22.630  1.00  0.00     0.171 HD
BRANCH  16  18
ATOM     18  C   UNL A   1      34.354  22.195  24.305  1.00  0.00     0.086 A 
ATOM     19  C   UNL A   1      35.614  22.477  24.982  1.00  0.00     0.083 A 
ATOM     20  C   UNL A   1      34.114  20.927  24.886  1.00  0.00     0.056 A 
ATOM     21  C   UNL A   1      36.744  23.316  24.523  1.00  0.00     0.071 C 
ATOM     22  N   UNL A   1      35.788  21.788  26.110  1.00  0.00    -0.179 NA
ATOM     23  N   UNL A   1      34.741  20.982  26.116  1.00  0.00    -0.280 N 
ATOM     24  C   UNL A   1      33.653  19.521  24.628  1.00  0.00     0.068 C 
ATOM     25  H   UNL A   1      34.442  20.478  26.906  1.00  0.00     0.190 HD
ENDBRANCH  16  18
ENDBRANCH   7  12
ENDBRANCH   5   7
ENDBRANCH   4   5
ENDBRANCH   3   4
ENDBRANCH   2   3
ENDBRANCH   1   2
BRANCH   1  26
ATOM     26  C   UNL A   1      32.174  29.811  25.407  1.00  0.00     0.202 C 
BRANCH  26  27
ATOM     27  C   UNL A   1      31.769  30.989  26.307  1.00  0.00     0.261 C 
BRANCH  27  28
ATOM     28  O   UNL A   1      32.571  30.981  27.487  1.00  0.00    -0.460 OA
BRANCH  28  29
ATOM     29  C   UNL A   1      33.347  32.077  27.586  1.00  0.00     0.338 C 
ATOM     30  O   UNL A   1      32.975  33.242  27.627  1.00  0.00    -0.246 OA
BRANCH  29  31
ATOM     31  C   UNL A   1      34.699  31.631  27.940  1.00  0.00     0.060 A 
ATOM     32  C   UNL A   1      34.910  30.250  28.060  1.00  0.00     0.016 A 
ATOM     33  C   UNL A   1      35.754  32.542  28.078  1.00  0.00     0.016 A 
ATOM     34  C   UNL A   1      36.157  29.782  28.431  1.00  0.00     0.010 A 
ATOM     35  C   UNL A   1      37.002  32.076  28.461  1.00  0.00     0.010 A 
ATOM     36  C   UNL A   1      37.169  30.706  28.715  1.00  0.00    -0.014 A 
BRANCH  36  37
ATOM     37  C   UNL A   1      38.248  30.290  29.621  1.00  0.00     0.031 A 
ATOM     38  C   UNL A   1      39.249  29.314  29.073  1.00  0.00     0.074 A 
ATOM     39  C   UNL A   1      38.343  30.793  30.858  1.00  0.00     0.049 A 
ATOM     40  N   UNL A   1      40.279  28.767  29.657  1.00  0.00    -0.248 NA
ATOM     41  C   UNL A   1      39.062  28.897  27.669  1.00  0.00     0.031 C 
ATOM     42  C   UNL A   1      37.438  31.777  31.447  1.00  0.00     0.029 A 
ATOM     43  N   UNL A   1      39.254  30.530  31.841  1.00  0.00    -0.354 N 
ATOM     44  C   UNL A   1      40.856  27.946  28.695  1.00  0.00     0.074 A 
ATOM     45  C   UNL A   1      40.047  28.032  27.504  1.00  0.00     0.031 C 
ATOM     46  C   UNL A   1      37.837  32.028  32.707  1.00  0.00     0.029 A 
ATOM     47  C   UNL A   1      39.002  31.198  33.011  1.00  0.00     0.049 A 
ATOM     48  H   UNL A   1      40.018  29.919  31.722  1.00  0.00     0.167 HD
ATOM     49  C   UNL A   1      41.973  27.195  28.798  1.00  0.00     0.037 A 
ATOM     50  C   UNL A   1      39.639  31.117  34.192  1.00  0.00     0.037 A 
ATOM     51  C   UNL A   1      42.756  27.111  29.998  1.00  0.00     0.049 A 
ATOM     52  C   UNL A   1      40.831  30.205  34.308  1.00  0.00     0.074 A 
ATOM     53  C   UNL A   1      43.907  26.382  30.227  1.00  0.00     0.029 A 
ATOM     54  N   UNL A   1      42.453  27.777  31.177  1.00  0.00    -0.354 N 
ATOM     55  N   UNL A   1      41.391  29.449  33.391  1.00  0.00    -0.248 NA
ATOM     56  C   UNL A   1      41.485  30.137  35.621  1.00  0.00     0.031 C 
ATOM     57  C   UNL A   1      44.269  26.562  31.566  1.00  0.00     0.029 A 
ATOM     58  C   UNL A   1      43.381  27.455  32.149  1.00  0.00     0.049 A 
ATOM     59  H   UNL A   1      41.690  28.386  31.302  1.00  0.00     0.167 HD
ATOM     60  C   UNL A   1      42.481  28.846  34.006  1.00  0.00     0.074 A 
ATOM     61  C   UNL A   1      42.508  29.332  35.371  1.00  0.00     0.031 C 
ATOM     62  C   UNL A   1      43.384  27.970  33.495  1.00  0.00     0.037 A 
BRANCH  49  63
ATOM     63  C   UNL A   1      42.376  26.389  27.601  1.00  0.00     0.057 A 
ATOM     64  C   UNL A   1      43.176  26.923  26.581  1.00  0.00     0.134 A 
ATOM     65  C   UNL A   1      41.959  25.060  27.467  1.00  0.00     0.134 A 
ATOM     66  F   UNL A   1      43.584  28.200  26.634  1.00  0.00    -0.206 F 
ATOM     67  C   UNL A   1      43.531  26.167  25.462  1.00  0.00     0.040 A 
ATOM     68  C   UNL A   1      42.331  24.285  26.367  1.00  0.00     0.040 A 
ATOM     69  F   UNL A   1      41.182  24.492  28.402  1.00  0.00    -0.206 F 
ATOM     70  C   UNL A   1      43.115  24.842  25.358  1.00  0.00     0.006 A 
ENDBRANCH  49  63
BRANCH  50  71
ATOM     71  C   UNL A   1      39.158  31.905  35.353  1.00  0.00     0.057 A 
ATOM     72  C   UNL A   1      38.280  31.352  36.292  1.00  0.00     0.134 A 
ATOM     73  C   UNL A   1      39.548  33.237  35.540  1.00  0.00     0.134 A 
ATOM     74  F   UNL A   1      37.858  30.086  36.158  1.00  0.00    -0.206 F 
ATOM     75  C   UNL A   1      37.783  32.104  37.359  1.00  0.00     0.040 A 
ATOM     76  C   UNL A   1      39.082  33.991  36.617  1.00  0.00     0.040 A 
ATOM     77  F   UNL A   1      40.395  33.823  34.680  1.00  0.00    -0.206 F 
ATOM     78  C   UNL A   1      38.188  33.427  37.525  1.00  0.00     0.006 A 
ENDBRANCH  50  71
BRANCH  62  79
ATOM     79  C   UNL A   1      44.498  27.527  34.396  1.00  0.00     0.057 A 
ATOM     80  C   UNL A   1      45.688  28.253  34.517  1.00  0.00     0.134 A 
ATOM     81  C   UNL A   1      44.348  26.388  35.198  1.00  0.00     0.134 A 
ATOM     82  F   UNL A   1      45.897  29.348  33.770  1.00  0.00    -0.206 F 
ATOM     83  C   UNL A   1      46.702  27.847  35.386  1.00  0.00     0.040 A 
ATOM     84  C   UNL A   1      45.340  25.991  36.094  1.00  0.00     0.040 A 
ATOM     85  F   UNL A   1      43.224  25.657  35.142  1.00  0.00    -0.206 F 
ATOM     86  C   UNL A   1      46.525  26.718  36.184  1.00  0.00     0.006 A 
ENDBRANCH  62  79
ENDBRANCH  36  37
ENDBRANCH  29  31
ENDBRANCH  28  29
ENDBRANCH  27  28
ENDBRANCH  26  27
ENDBRANCH   1  26
TORSDOF 18
ENDMDL
