MODEL 1
REMARK VINA RESULT:     -10.8      0.000      0.000
REMARK SMILES O=C(CCC[NH2+][C@H]1CCOC2(CCOCC2)C1)OCCOCCOC(=O)c1ccc(-c2c3nc(c(-c4c(F)cccc4F)c4ccc([nH]4)c(-c4c(F)cccc4F)c4nc(c(-c5c(F)cccc5F)c5ccc2[nH]5)C=C4)C=C3)cc1
REMARK SMILES IDX 20 1 19 2 18 3 2 4 1 5 3 6 4 7 5 8 6 9 7 12 8 13 17 14 9 15
REMARK SMILES IDX 11 16 10 17 12 18 16 19 13 20 15 21 14 22 21 23 22 24 23 25
REMARK SMILES IDX 24 26 25 27 26 28 27 29 28 30 80 31 29 32 79 33 30 34 31 35
REMARK SMILES IDX 32 36 73 37 33 38 78 39 72 40 74 41 34 42 77 43 71 44 70 45
REMARK SMILES IDX 35 47 61 48 44 49 60 50 45 51 48 52 59 53 75 54 46 55 47 56
REMARK SMILES IDX 58 58 76 59 49 60 36 61 37 62 42 63 38 64 39 65 41 66 43 67
REMARK SMILES IDX 40 68 62 69 63 70 68 71 64 72 65 73 67 74 69 75 66 76 50 77
REMARK SMILES IDX 51 78 56 79 52 80 53 81 55 82 57 83 54 84
REMARK H PARENT 6 10 6 11 74 46 48 57
REMARK Flexibility Score: inf
ROOT
ATOM      1  C   UNL A   1      44.847  18.908  24.965  1.00  0.00     0.202 C 
ENDROOT
BRANCH   1   2
ATOM      2  C   UNL A   1      43.583  18.740  25.803  1.00  0.00     0.261 C 
BRANCH   2   3
ATOM      3  O   UNL A   1      42.442  19.458  25.345  1.00  0.00    -0.463 OA
BRANCH   3   4
ATOM      4  C   UNL A   1      41.560  19.950  26.248  1.00  0.00     0.306 C 
ATOM      5  O   UNL A   1      41.913  20.161  27.405  1.00  0.00    -0.252 OA
BRANCH   4   6
ATOM      6  C   UNL A   1      40.116  20.105  25.818  1.00  0.00     0.128 C 
BRANCH   6   7
ATOM      7  C   UNL A   1      39.464  21.450  26.134  1.00  0.00     0.073 C 
BRANCH   7   8
ATOM      8  C   UNL A   1      38.110  21.784  25.472  1.00  0.00     0.261 C 
BRANCH   8   9
ATOM      9  N   UNL A   1      37.202  22.568  26.309  1.00  0.00    -0.344 N 
ATOM     10  H   UNL A   1      37.759  23.283  26.774  1.00  0.00     0.346 HD
ATOM     11  H   UNL A   1      36.764  21.882  26.924  1.00  0.00     0.346 HD
BRANCH   9  12
ATOM     12  C   UNL A   1      36.071  23.251  25.648  1.00  0.00     0.187 C 
ATOM     13  C   UNL A   1      35.718  22.631  24.296  1.00  0.00     0.093 C 
ATOM     14  C   UNL A   1      34.785  23.391  26.487  1.00  0.00     0.100 C 
ATOM     15  C   UNL A   1      34.582  23.393  23.629  1.00  0.00     0.167 C 
ATOM     16  C   UNL A   1      33.641  24.111  25.735  1.00  0.00     0.078 C 
ATOM     17  O   UNL A   1      33.432  23.471  24.468  1.00  0.00    -0.374 OA
ATOM     18  C   UNL A   1      33.909  25.623  25.565  1.00  0.00     0.064 C 
ATOM     19  C   UNL A   1      32.332  23.933  26.538  1.00  0.00     0.064 C 
ATOM     20  C   UNL A   1      32.678  26.345  25.029  1.00  0.00     0.163 C 
ATOM     21  C   UNL A   1      31.196  24.771  25.961  1.00  0.00     0.163 C 
ATOM     22  O   UNL A   1      31.575  26.145  25.907  1.00  0.00    -0.381 OA
ENDBRANCH   9  12
ENDBRANCH   8   9
ENDBRANCH   7   8
ENDBRANCH   6   7
ENDBRANCH   4   6
ENDBRANCH   3   4
ENDBRANCH   2   3
ENDBRANCH   1   2
BRANCH   1  23
ATOM     23  O   UNL A   1      45.838  19.804  25.439  1.00  0.00    -0.374 OA
BRANCH  23  24
ATOM     24  C   UNL A   1      45.779  21.117  24.883  1.00  0.00     0.202 C 
BRANCH  24  25
ATOM     25  C   UNL A   1      45.643  22.238  25.924  1.00  0.00     0.261 C 
BRANCH  25  26
ATOM     26  O   UNL A   1      44.308  22.312  26.470  1.00  0.00    -0.460 OA
BRANCH  26  27
ATOM     27  C   UNL A   1      43.410  23.031  25.748  1.00  0.00     0.338 C 
ATOM     28  O   UNL A   1      42.951  22.743  24.653  1.00  0.00    -0.246 OA
BRANCH  27  29
ATOM     29  C   UNL A   1      42.850  24.117  26.594  1.00  0.00     0.060 A 
ATOM     30  C   UNL A   1      43.336  25.417  26.394  1.00  0.00     0.016 A 
ATOM     31  C   UNL A   1      41.844  23.888  27.537  1.00  0.00     0.016 A 
ATOM     32  C   UNL A   1      42.844  26.478  27.158  1.00  0.00     0.010 A 
ATOM     33  C   UNL A   1      41.367  24.951  28.315  1.00  0.00     0.010 A 
ATOM     34  C   UNL A   1      41.878  26.247  28.144  1.00  0.00    -0.014 A 
BRANCH  34  35
ATOM     35  C   UNL A   1      41.577  27.301  29.146  1.00  0.00     0.031 A 
ATOM     36  C   UNL A   1      42.428  27.357  30.381  1.00  0.00     0.074 A 
ATOM     37  C   UNL A   1      40.573  28.180  28.986  1.00  0.00     0.049 A 
ATOM     38  N   UNL A   1      42.263  28.048  31.478  1.00  0.00    -0.248 NA
ATOM     39  C   UNL A   1      43.621  26.496  30.381  1.00  0.00     0.031 C 
ATOM     40  C   UNL A   1      39.728  28.295  27.802  1.00  0.00     0.029 A 
ATOM     41  N   UNL A   1      40.098  29.152  29.835  1.00  0.00    -0.354 N 
ATOM     42  C   UNL A   1      43.305  27.672  32.315  1.00  0.00     0.074 A 
ATOM     43  C   UNL A   1      44.109  26.712  31.590  1.00  0.00     0.031 C 
ATOM     44  C   UNL A   1      38.848  29.294  27.991  1.00  0.00     0.029 A 
ATOM     45  C   UNL A   1      39.012  29.833  29.342  1.00  0.00     0.049 A 
ATOM     46  H   UNL A   1      40.499  29.342  30.714  1.00  0.00     0.167 HD
ATOM     47  C   UNL A   1      43.547  28.058  33.590  1.00  0.00     0.037 A 
ATOM     48  C   UNL A   1      38.215  30.748  29.932  1.00  0.00     0.037 A 
ATOM     49  C   UNL A   1      42.728  28.989  34.316  1.00  0.00     0.049 A 
ATOM     50  C   UNL A   1      38.459  31.123  31.374  1.00  0.00     0.074 A 
ATOM     51  C   UNL A   1      42.857  29.413  35.626  1.00  0.00     0.029 A 
ATOM     52  N   UNL A   1      41.614  29.632  33.794  1.00  0.00    -0.354 N 
ATOM     53  N   UNL A   1      39.408  30.719  32.186  1.00  0.00    -0.248 NA
ATOM     54  C   UNL A   1      37.502  32.052  31.996  1.00  0.00     0.031 C 
ATOM     55  C   UNL A   1      41.783  30.260  35.916  1.00  0.00     0.029 A 
ATOM     56  C   UNL A   1      41.029  30.425  34.765  1.00  0.00     0.049 A 
ATOM     57  H   UNL A   1      41.288  29.536  32.870  1.00  0.00     0.167 HD
ATOM     58  C   UNL A   1      39.170  31.350  33.403  1.00  0.00     0.074 A 
ATOM     59  C   UNL A   1      37.995  32.175  33.221  1.00  0.00     0.031 C 
ATOM     60  C   UNL A   1      39.860  31.248  34.567  1.00  0.00     0.037 A 
BRANCH  47  61
ATOM     61  C   UNL A   1      44.675  27.368  34.297  1.00  0.00     0.057 A 
ATOM     62  C   UNL A   1      44.507  26.164  34.994  1.00  0.00     0.134 A 
ATOM     63  C   UNL A   1      45.945  27.960  34.330  1.00  0.00     0.134 A 
ATOM     64  F   UNL A   1      43.310  25.559  35.026  1.00  0.00    -0.206 F 
ATOM     65  C   UNL A   1      45.547  25.602  35.738  1.00  0.00     0.040 A 
ATOM     66  C   UNL A   1      47.001  27.391  35.041  1.00  0.00     0.040 A 
ATOM     67  F   UNL A   1      46.176  29.114  33.684  1.00  0.00    -0.206 F 
ATOM     68  C   UNL A   1      46.798  26.216  35.762  1.00  0.00     0.006 A 
ENDBRANCH  47  61
BRANCH  48  69
ATOM     69  C   UNL A   1      37.069  31.331  29.183  1.00  0.00     0.057 A 
ATOM     70  C   UNL A   1      35.895  30.601  28.960  1.00  0.00     0.134 A 
ATOM     71  C   UNL A   1      37.120  32.632  28.665  1.00  0.00     0.134 A 
ATOM     72  F   UNL A   1      35.792  29.337  29.398  1.00  0.00    -0.206 F 
ATOM     73  C   UNL A   1      34.817  31.141  28.252  1.00  0.00     0.040 A 
ATOM     74  C   UNL A   1      36.040  33.196  27.983  1.00  0.00     0.040 A 
ATOM     75  F   UNL A   1      38.218  33.385  28.833  1.00  0.00    -0.206 F 
ATOM     76  C   UNL A   1      34.885  32.447  27.772  1.00  0.00     0.006 A 
ENDBRANCH  48  69
BRANCH  60  77
ATOM     77  C   UNL A   1      39.398  32.074  35.735  1.00  0.00     0.057 A 
ATOM     78  C   UNL A   1      39.831  33.390  35.936  1.00  0.00     0.134 A 
ATOM     79  C   UNL A   1      38.429  31.572  36.615  1.00  0.00     0.134 A 
ATOM     80  F   UNL A   1      40.762  33.930  35.135  1.00  0.00    -0.206 F 
ATOM     81  C   UNL A   1      39.325  34.174  36.975  1.00  0.00     0.040 A 
ATOM     82  C   UNL A   1      37.895  32.355  37.639  1.00  0.00     0.040 A 
ATOM     83  F   UNL A   1      37.961  30.323  36.472  1.00  0.00    -0.206 F 
ATOM     84  C   UNL A   1      38.345  33.660  37.823  1.00  0.00     0.006 A 
ENDBRANCH  60  77
ENDBRANCH  34  35
ENDBRANCH  27  29
ENDBRANCH  26  27
ENDBRANCH  25  26
ENDBRANCH  24  25
ENDBRANCH  23  24
ENDBRANCH   1  23
TORSDOF 18
ENDMDL
MODEL 2
REMARK VINA RESULT:     -10.3      2.457      3.517
REMARK SMILES O=C(CCC[NH2+][C@H]1CCOC2(CCOCC2)C1)OCCOCCOC(=O)c1ccc(-c2c3nc(c(-c4c(F)cccc4F)c4ccc([nH]4)c(-c4c(F)cccc4F)c4nc(c(-c5c(F)cccc5F)c5ccc2[nH]5)C=C4)C=C3)cc1
REMARK SMILES IDX 20 1 19 2 18 3 2 4 1 5 3 6 4 7 5 8 6 9 7 12 8 13 17 14 9 15
REMARK SMILES IDX 11 16 10 17 12 18 16 19 13 20 15 21 14 22 21 23 22 24 23 25
REMARK SMILES IDX 24 26 25 27 26 28 27 29 28 30 80 31 29 32 79 33 30 34 31 35
REMARK SMILES IDX 32 36 73 37 33 38 78 39 72 40 74 41 34 42 77 43 71 44 70 45
REMARK SMILES IDX 35 47 61 48 44 49 60 50 45 51 48 52 59 53 75 54 46 55 47 56
REMARK SMILES IDX 58 58 76 59 49 60 36 61 37 62 42 63 38 64 39 65 41 66 43 67
REMARK SMILES IDX 40 68 62 69 63 70 68 71 64 72 65 73 67 74 69 75 66 76 50 77
REMARK SMILES IDX 51 78 56 79 52 80 53 81 55 82 57 83 54 84
REMARK H PARENT 6 10 6 11 74 46 48 57
REMARK Flexibility Score: inf
ROOT
ATOM      1  C   UNL A   1      39.890  20.018  26.029  1.00  0.00     0.202 C 
ENDROOT
BRANCH   1   2
ATOM      2  C   UNL A   1      39.365  21.426  25.762  1.00  0.00     0.261 C 
BRANCH   2   3
ATOM      3  O   UNL A   1      37.962  21.528  25.543  1.00  0.00    -0.463 OA
BRANCH   3   4
ATOM      4  C   UNL A   1      37.402  22.750  25.375  1.00  0.00     0.306 C 
ATOM      5  O   UNL A   1      37.411  23.565  26.293  1.00  0.00    -0.252 OA
BRANCH   4   6
ATOM      6  C   UNL A   1      36.665  23.020  24.080  1.00  0.00     0.128 C 
BRANCH   6   7
ATOM      7  C   UNL A   1      35.366  22.241  23.874  1.00  0.00     0.073 C 
BRANCH   7   8
ATOM      8  C   UNL A   1      34.417  22.062  25.078  1.00  0.00     0.261 C 
BRANCH   8   9
ATOM      9  N   UNL A   1      33.064  21.633  24.725  1.00  0.00    -0.344 N 
ATOM     10  H   UNL A   1      32.797  22.134  23.878  1.00  0.00     0.346 HD
ATOM     11  H   UNL A   1      32.505  21.839  25.553  1.00  0.00     0.346 HD
BRANCH   9  12
ATOM     12  C   UNL A   1      32.840  20.194  24.474  1.00  0.00     0.187 C 
ATOM     13  C   UNL A   1      32.430  19.906  23.029  1.00  0.00     0.093 C 
ATOM     14  C   UNL A   1      33.997  19.254  24.864  1.00  0.00     0.100 C 
ATOM     15  C   UNL A   1      32.161  18.423  22.826  1.00  0.00     0.167 C 
ATOM     16  C   UNL A   1      33.698  17.764  24.570  1.00  0.00     0.078 C 
ATOM     17  O   UNL A   1      33.281  17.626  23.205  1.00  0.00    -0.374 OA
ATOM     18  C   UNL A   1      32.651  17.172  25.541  1.00  0.00     0.064 C 
ATOM     19  C   UNL A   1      35.009  16.958  24.713  1.00  0.00     0.064 C 
ATOM     20  C   UNL A   1      32.542  15.660  25.380  1.00  0.00     0.163 C 
ATOM     21  C   UNL A   1      34.763  15.456  24.625  1.00  0.00     0.163 C 
ATOM     22  O   UNL A   1      33.810  15.054  25.608  1.00  0.00    -0.381 OA
ENDBRANCH   9  12
ENDBRANCH   8   9
ENDBRANCH   7   8
ENDBRANCH   6   7
ENDBRANCH   4   6
ENDBRANCH   3   4
ENDBRANCH   2   3
ENDBRANCH   1   2
BRANCH   1  23
ATOM     23  O   UNL A   1      41.200  19.707  25.587  1.00  0.00    -0.374 OA
BRANCH  23  24
ATOM     24  C   UNL A   1      42.248  20.177  26.435  1.00  0.00     0.202 C 
BRANCH  24  25
ATOM     25  C   UNL A   1      43.232  21.138  25.750  1.00  0.00     0.261 C 
BRANCH  25  26
ATOM     26  O   UNL A   1      42.595  22.371  25.350  1.00  0.00    -0.460 OA
BRANCH  26  27
ATOM     27  C   UNL A   1      43.380  23.479  25.373  1.00  0.00     0.338 C 
ATOM     28  O   UNL A   1      44.325  23.724  24.639  1.00  0.00    -0.246 OA
BRANCH  27  29
ATOM     29  C   UNL A   1      42.771  24.499  26.266  1.00  0.00     0.060 A 
ATOM     30  C   UNL A   1      43.149  25.837  26.084  1.00  0.00     0.016 A 
ATOM     31  C   UNL A   1      41.820  24.173  27.236  1.00  0.00     0.016 A 
ATOM     32  C   UNL A   1      42.607  26.839  26.891  1.00  0.00     0.010 A 
ATOM     33  C   UNL A   1      41.291  25.178  28.057  1.00  0.00     0.010 A 
ATOM     34  C   UNL A   1      41.697  26.512  27.903  1.00  0.00    -0.014 A 
BRANCH  34  35
ATOM     35  C   UNL A   1      41.353  27.516  28.942  1.00  0.00     0.031 A 
ATOM     36  C   UNL A   1      42.178  27.537  30.196  1.00  0.00     0.074 A 
ATOM     37  C   UNL A   1      40.334  28.381  28.798  1.00  0.00     0.049 A 
ATOM     38  N   UNL A   1      41.976  28.177  31.317  1.00  0.00    -0.248 NA
ATOM     39  C   UNL A   1      43.388  26.701  30.185  1.00  0.00     0.031 C 
ATOM     40  C   UNL A   1      39.512  28.529  27.602  1.00  0.00     0.029 A 
ATOM     41  N   UNL A   1      39.822  29.306  29.676  1.00  0.00    -0.354 N 
ATOM     42  C   UNL A   1      43.008  27.787  32.160  1.00  0.00     0.074 A 
ATOM     43  C   UNL A   1      43.847  26.875  31.412  1.00  0.00     0.031 C 
ATOM     44  C   UNL A   1      38.607  29.501  27.814  1.00  0.00     0.029 A 
ATOM     45  C   UNL A   1      38.732  29.986  29.189  1.00  0.00     0.049 A 
ATOM     46  H   UNL A   1      40.201  29.467  30.571  1.00  0.00     0.167 HD
ATOM     47  C   UNL A   1      43.216  28.124  33.454  1.00  0.00     0.037 A 
ATOM     48  C   UNL A   1      37.904  30.859  29.801  1.00  0.00     0.037 A 
ATOM     49  C   UNL A   1      42.363  29.006  34.201  1.00  0.00     0.049 A 
ATOM     50  C   UNL A   1      38.111  31.176  31.262  1.00  0.00     0.074 A 
ATOM     51  C   UNL A   1      42.457  29.377  35.531  1.00  0.00     0.029 A 
ATOM     52  N   UNL A   1      41.246  29.648  33.683  1.00  0.00    -0.354 N 
ATOM     53  N   UNL A   1      39.051  30.758  32.076  1.00  0.00    -0.248 NA
ATOM     54  C   UNL A   1      37.122  32.058  31.902  1.00  0.00     0.031 C 
ATOM     55  C   UNL A   1      41.360  30.189  35.833  1.00  0.00     0.029 A 
ATOM     56  C   UNL A   1      40.625  30.387  34.674  1.00  0.00     0.049 A 
ATOM     57  H   UNL A   1      40.942  29.585  32.749  1.00  0.00     0.167 HD
ATOM     58  C   UNL A   1      38.776  31.331  33.313  1.00  0.00     0.074 A 
ATOM     59  C   UNL A   1      37.588  32.140  33.142  1.00  0.00     0.031 C 
ATOM     60  C   UNL A   1      39.444  31.194  34.486  1.00  0.00     0.037 A 
BRANCH  47  61
ATOM     61  C   UNL A   1      44.344  27.426  34.156  1.00  0.00     0.057 A 
ATOM     62  C   UNL A   1      44.191  26.184  34.784  1.00  0.00     0.134 A 
ATOM     63  C   UNL A   1      45.596  28.049  34.254  1.00  0.00     0.134 A 
ATOM     64  F   UNL A   1      43.011  25.547  34.752  1.00  0.00    -0.206 F 
ATOM     65  C   UNL A   1      45.225  25.611  35.527  1.00  0.00     0.040 A 
ATOM     66  C   UNL A   1      46.648  27.471  34.964  1.00  0.00     0.040 A 
ATOM     67  F   UNL A   1      45.812  29.241  33.676  1.00  0.00    -0.206 F 
ATOM     68  C   UNL A   1      46.459  26.255  35.617  1.00  0.00     0.006 A 
ENDBRANCH  47  61
BRANCH  48  69
ATOM     69  C   UNL A   1      36.762  31.450  29.053  1.00  0.00     0.057 A 
ATOM     70  C   UNL A   1      35.624  30.695  28.742  1.00  0.00     0.134 A 
ATOM     71  C   UNL A   1      36.781  32.784  28.623  1.00  0.00     0.134 A 
ATOM     72  F   UNL A   1      35.554  29.402  29.092  1.00  0.00    -0.206 F 
ATOM     73  C   UNL A   1      34.550  31.243  28.034  1.00  0.00     0.040 A 
ATOM     74  C   UNL A   1      35.703  33.353  27.943  1.00  0.00     0.040 A 
ATOM     75  F   UNL A   1      37.843  33.561  28.878  1.00  0.00    -0.206 F 
ATOM     76  C   UNL A   1      34.584  32.580  27.643  1.00  0.00     0.006 A 
ENDBRANCH  48  69
BRANCH  60  77
ATOM     77  C   UNL A   1      38.940  31.960  35.678  1.00  0.00     0.057 A 
ATOM     78  C   UNL A   1      38.172  31.356  36.680  1.00  0.00     0.134 A 
ATOM     79  C   UNL A   1      39.315  33.297  35.868  1.00  0.00     0.134 A 
ATOM     80  F   UNL A   1      37.772  30.081  36.558  1.00  0.00    -0.206 F 
ATOM     81  C   UNL A   1      37.786  32.057  37.826  1.00  0.00     0.040 A 
ATOM     82  C   UNL A   1      38.959  33.999  37.021  1.00  0.00     0.040 A 
ATOM     83  F   UNL A   1      40.061  33.932  34.953  1.00  0.00    -0.206 F 
ATOM     84  C   UNL A   1      38.190  33.379  38.003  1.00  0.00     0.006 A 
ENDBRANCH  60  77
ENDBRANCH  34  35
ENDBRANCH  27  29
ENDBRANCH  26  27
ENDBRANCH  25  26
ENDBRANCH  24  25
ENDBRANCH  23  24
ENDBRANCH   1  23
TORSDOF 18
ENDMDL
MODEL 3
REMARK VINA RESULT:     -10.2      3.512      8.698
REMARK SMILES O=C(CCC[NH2+][C@H]1CCOC2(CCOCC2)C1)OCCOCCOC(=O)c1ccc(-c2c3nc(c(-c4c(F)cccc4F)c4ccc([nH]4)c(-c4c(F)cccc4F)c4nc(c(-c5c(F)cccc5F)c5ccc2[nH]5)C=C4)C=C3)cc1
REMARK SMILES IDX 20 1 19 2 18 3 2 4 1 5 3 6 4 7 5 8 6 9 7 12 8 13 17 14 9 15
REMARK SMILES IDX 11 16 10 17 12 18 16 19 13 20 15 21 14 22 21 23 22 24 23 25
REMARK SMILES IDX 24 26 25 27 26 28 27 29 28 30 80 31 29 32 79 33 30 34 31 35
REMARK SMILES IDX 32 36 73 37 33 38 78 39 72 40 74 41 34 42 77 43 71 44 70 45
REMARK SMILES IDX 35 47 61 48 44 49 60 50 45 51 48 52 59 53 75 54 46 55 47 56
REMARK SMILES IDX 58 58 76 59 49 60 36 61 37 62 42 63 38 64 39 65 41 66 43 67
REMARK SMILES IDX 40 68 62 69 63 70 68 71 64 72 65 73 67 74 69 75 66 76 50 77
REMARK SMILES IDX 51 78 56 79 52 80 53 81 55 82 57 83 54 84
REMARK H PARENT 6 10 6 11 74 46 48 57
REMARK Flexibility Score: inf
ROOT
ATOM      1  C   UNL A   1      30.082  28.219  23.320  1.00  0.00     0.202 C 
ENDROOT
BRANCH   1   2
ATOM      2  C   UNL A   1      30.761  27.154  22.465  1.00  0.00     0.261 C 
BRANCH   2   3
ATOM      3  O   UNL A   1      32.153  27.344  22.236  1.00  0.00    -0.463 OA
BRANCH   3   4
ATOM      4  C   UNL A   1      33.016  26.337  22.513  1.00  0.00     0.306 C 
ATOM      5  O   UNL A   1      33.694  25.842  21.617  1.00  0.00    -0.252 OA
BRANCH   4   6
ATOM      6  C   UNL A   1      33.017  25.770  23.917  1.00  0.00     0.128 C 
BRANCH   6   7
ATOM      7  C   UNL A   1      34.328  25.139  24.383  1.00  0.00     0.073 C 
BRANCH   7   8
ATOM      8  C   UNL A   1      34.536  23.625  24.161  1.00  0.00     0.261 C 
BRANCH   8   9
ATOM      9  N   UNL A   1      34.092  22.783  25.271  1.00  0.00    -0.344 N 
ATOM     10  H   UNL A   1      33.381  23.305  25.783  1.00  0.00     0.346 HD
ATOM     11  H   UNL A   1      34.945  22.574  25.792  1.00  0.00     0.346 HD
BRANCH   9  12
ATOM     12  C   UNL A   1      33.520  21.459  24.949  1.00  0.00     0.187 C 
ATOM     13  C   UNL A   1      32.771  21.452  23.616  1.00  0.00     0.093 C 
ATOM     14  C   UNL A   1      34.506  20.275  24.977  1.00  0.00     0.100 C 
ATOM     15  C   UNL A   1      32.157  20.086  23.346  1.00  0.00     0.167 C 
ATOM     16  C   UNL A   1      33.843  18.921  24.625  1.00  0.00     0.078 C 
ATOM     17  O   UNL A   1      33.136  19.049  23.385  1.00  0.00    -0.374 OA
ATOM     18  C   UNL A   1      32.917  18.410  25.752  1.00  0.00     0.064 C 
ATOM     19  C   UNL A   1      34.954  17.872  24.392  1.00  0.00     0.064 C 
ATOM     20  C   UNL A   1      32.458  16.981  25.484  1.00  0.00     0.163 C 
ATOM     21  C   UNL A   1      34.381  16.468  24.226  1.00  0.00     0.163 C 
ATOM     22  O   UNL A   1      33.588  16.123  25.360  1.00  0.00    -0.381 OA
ENDBRANCH   9  12
ENDBRANCH   8   9
ENDBRANCH   7   8
ENDBRANCH   6   7
ENDBRANCH   4   6
ENDBRANCH   3   4
ENDBRANCH   2   3
ENDBRANCH   1   2
BRANCH   1  23
ATOM     23  O   UNL A   1      30.858  29.333  23.728  1.00  0.00    -0.374 OA
BRANCH  23  24
ATOM     24  C   UNL A   1      31.378  29.251  25.054  1.00  0.00     0.202 C 
BRANCH  24  25
ATOM     25  C   UNL A   1      31.447  30.598  25.790  1.00  0.00     0.261 C 
BRANCH  25  26
ATOM     26  O   UNL A   1      32.349  30.555  26.917  1.00  0.00    -0.460 OA
BRANCH  26  27
ATOM     27  C   UNL A   1      32.965  31.724  27.229  1.00  0.00     0.338 C 
ATOM     28  O   UNL A   1      32.458  32.835  27.259  1.00  0.00    -0.246 OA
BRANCH  27  29
ATOM     29  C   UNL A   1      34.312  31.441  27.790  1.00  0.00     0.060 A 
ATOM     30  C   UNL A   1      34.634  30.105  28.071  1.00  0.00     0.016 A 
ATOM     31  C   UNL A   1      35.261  32.444  28.004  1.00  0.00     0.016 A 
ATOM     32  C   UNL A   1      35.886  29.778  28.596  1.00  0.00     0.010 A 
ATOM     33  C   UNL A   1      36.509  32.115  28.549  1.00  0.00     0.010 A 
ATOM     34  C   UNL A   1      36.820  30.784  28.868  1.00  0.00    -0.014 A 
BRANCH  34  35
ATOM     35  C   UNL A   1      38.017  30.481  29.692  1.00  0.00     0.031 A 
ATOM     36  C   UNL A   1      39.090  29.626  29.082  1.00  0.00     0.074 A 
ATOM     37  C   UNL A   1      38.158  30.931  30.952  1.00  0.00     0.049 A 
ATOM     38  N   UNL A   1      40.132  29.069  29.640  1.00  0.00    -0.248 NA
ATOM     39  C   UNL A   1      38.952  29.349  27.644  1.00  0.00     0.031 C 
ATOM     40  C   UNL A   1      37.240  31.836  31.634  1.00  0.00     0.029 A 
ATOM     41  N   UNL A   1      39.139  30.682  31.881  1.00  0.00    -0.354 N 
ATOM     42  C   UNL A   1      40.748  28.339  28.633  1.00  0.00     0.074 A 
ATOM     43  C   UNL A   1      39.978  28.545  27.425  1.00  0.00     0.031 C 
ATOM     44  C   UNL A   1      37.710  32.083  32.869  1.00  0.00     0.029 A 
ATOM     45  C   UNL A   1      38.917  31.286  33.094  1.00  0.00     0.049 A 
ATOM     46  H   UNL A   1      39.928  30.122  31.694  1.00  0.00     0.167 HD
ATOM     47  C   UNL A   1      41.834  27.535  28.714  1.00  0.00     0.037 A 
ATOM     48  C   UNL A   1      39.584  31.169  34.262  1.00  0.00     0.037 A 
ATOM     49  C   UNL A   1      42.578  27.311  29.923  1.00  0.00     0.049 A 
ATOM     50  C   UNL A   1      40.754  30.220  34.354  1.00  0.00     0.074 A 
ATOM     51  C   UNL A   1      43.665  26.479  30.126  1.00  0.00     0.029 A 
ATOM     52  N   UNL A   1      42.300  27.914  31.142  1.00  0.00    -0.354 N 
ATOM     53  N   UNL A   1      41.298  29.481  33.416  1.00  0.00    -0.248 NA
ATOM     54  C   UNL A   1      41.383  30.059  35.675  1.00  0.00     0.031 C 
ATOM     55  C   UNL A   1      44.002  26.529  31.481  1.00  0.00     0.029 A 
ATOM     56  C   UNL A   1      43.176  27.449  32.108  1.00  0.00     0.049 A 
ATOM     57  H   UNL A   1      41.586  28.573  31.296  1.00  0.00     0.167 HD
ATOM     58  C   UNL A   1      42.333  28.781  34.026  1.00  0.00     0.074 A 
ATOM     59  C   UNL A   1      42.353  29.192  35.414  1.00  0.00     0.031 C 
ATOM     60  C   UNL A   1      43.187  27.874  33.487  1.00  0.00     0.037 A 
BRANCH  47  61
ATOM     61  C   UNL A   1      42.185  26.755  27.482  1.00  0.00     0.057 A 
ATOM     62  C   UNL A   1      41.649  25.490  27.209  1.00  0.00     0.134 A 
ATOM     63  C   UNL A   1      43.132  27.262  26.581  1.00  0.00     0.134 A 
ATOM     64  F   UNL A   1      40.759  24.935  28.045  1.00  0.00    -0.206 F 
ATOM     65  C   UNL A   1      42.079  24.738  26.114  1.00  0.00     0.040 A 
ATOM     66  C   UNL A   1      43.544  26.535  25.465  1.00  0.00     0.040 A 
ATOM     67  F   UNL A   1      43.687  28.468  26.782  1.00  0.00    -0.206 F 
ATOM     68  C   UNL A   1      43.029  25.261  25.237  1.00  0.00     0.006 A 
ENDBRANCH  47  61
BRANCH  48  69
ATOM     69  C   UNL A   1      39.124  31.922  35.460  1.00  0.00     0.057 A 
ATOM     70  C   UNL A   1      38.248  31.349  36.390  1.00  0.00     0.134 A 
ATOM     71  C   UNL A   1      39.544  33.237  35.703  1.00  0.00     0.134 A 
ATOM     72  F   UNL A   1      37.779  30.107  36.201  1.00  0.00    -0.206 F 
ATOM     73  C   UNL A   1      37.808  32.054  37.515  1.00  0.00     0.040 A 
ATOM     74  C   UNL A   1      39.138  33.941  36.838  1.00  0.00     0.040 A 
ATOM     75  F   UNL A   1      40.375  33.850  34.848  1.00  0.00    -0.206 F 
ATOM     76  C   UNL A   1      38.263  33.350  37.746  1.00  0.00     0.006 A 
ENDBRANCH  48  69
BRANCH  60  77
ATOM     77  C   UNL A   1      44.244  27.284  34.377  1.00  0.00     0.057 A 
ATOM     78  C   UNL A   1      44.066  26.062  35.036  1.00  0.00     0.134 A 
ATOM     79  C   UNL A   1      45.495  27.905  34.496  1.00  0.00     0.134 A 
ATOM     80  F   UNL A   1      42.891  25.417  34.971  1.00  0.00    -0.206 F 
ATOM     81  C   UNL A   1      45.091  25.482  35.789  1.00  0.00     0.040 A 
ATOM     82  C   UNL A   1      46.535  27.323  35.222  1.00  0.00     0.040 A 
ATOM     83  F   UNL A   1      45.737  29.072  33.880  1.00  0.00    -0.206 F 
ATOM     84  C   UNL A   1      46.333  26.108  35.873  1.00  0.00     0.006 A 
ENDBRANCH  60  77
ENDBRANCH  34  35
ENDBRANCH  27  29
ENDBRANCH  26  27
ENDBRANCH  25  26
ENDBRANCH  24  25
ENDBRANCH  23  24
ENDBRANCH   1  23
TORSDOF 18
ENDMDL
