MODEL 1
REMARK VINA RESULT:     -12.2      0.000      0.000
REMARK SMILES Cc1ccc(-c2nc(NC(=O)[C@H]3[C@@H](C(=O)OCCOCCOC(=O)c4ccc(-c5c6nc(c(-c7c(F)cccc7F)c7ccc([nH]7)c(-c7c(F)cccc7F)c7nc(c(-c8c(F)cccc8F)c8ccc5[nH]8)C=C7)C=C6)cc4)[C@@H]4CC[C@H]3O4)sc2C)cc1
REMARK SMILES IDX 18 1 17 2 16 3 14 4 15 5 13 6 12 7 82 8 79 9 81 10 83 11
REMARK SMILES IDX 80 12 10 13 9 14 11 16 8 17 6 18 7 19 85 20 84 21 86 22 5 23
REMARK SMILES IDX 1 24 2 25 3 26 88 27 4 28 87 29 19 30 20 31 21 32 22 33
REMARK SMILES IDX 23 34 24 35 25 36 26 37 78 38 27 39 77 40 28 41 29 42 30 43
REMARK SMILES IDX 71 44 31 45 76 46 70 47 72 48 32 49 75 50 69 51 68 52 33 54
REMARK SMILES IDX 59 55 42 56 58 57 43 58 46 59 57 60 73 61 44 62 45 63 56 65
REMARK SMILES IDX 74 66 47 67 34 68 35 69 40 70 36 71 37 72 39 73 41 74 38 75
REMARK SMILES IDX 60 76 61 77 66 78 62 79 63 80 65 81 67 82 64 83 48 84 49 85
REMARK SMILES IDX 54 86 50 87 51 88 53 89 55 90 52 91
REMARK H PARENT 9 15 72 53 46 64
REMARK Flexibility Score: inf
ROOT
ATOM      1  C   UNL A   1      32.491  29.492  27.252  1.00  0.00     0.202 C 
ENDROOT
BRANCH   1   2
ATOM      2  C   UNL A   1      31.968  28.049  27.006  1.00  0.00     0.261 C 
BRANCH   2   3
ATOM      3  O   UNL A   1      32.597  26.862  26.334  1.00  0.00    -0.463 OA
BRANCH   3   4
ATOM      4  C   UNL A   1      33.568  26.129  25.772  1.00  0.00     0.312 C 
ATOM      5  O   UNL A   1      34.345  26.595  24.938  1.00  0.00    -0.252 OA
BRANCH   4   6
ATOM      6  C   UNL A   1      33.673  24.692  26.062  1.00  0.00     0.143 C 
ATOM      7  C   UNL A   1      34.406  23.967  25.005  1.00  0.00     0.124 C 
ATOM      8  C   UNL A   1      34.014  22.534  25.369  1.00  0.00     0.132 C 
ATOM      9  C   UNL A   1      32.427  23.768  26.199  1.00  0.00     0.133 C 
ATOM     10  C   UNL A   1      33.993  22.164  26.876  1.00  0.00     0.035 C 
ATOM     11  O   UNL A   1      32.595  22.750  25.150  1.00  0.00    -0.373 OA
ATOM     12  C   UNL A   1      32.653  22.781  27.333  1.00  0.00     0.036 C 
BRANCH   7  13
ATOM     13  C   UNL A   1      33.936  24.155  23.537  1.00  0.00     0.232 C 
ATOM     14  N   UNL A   1      32.916  24.839  22.944  1.00  0.00    -0.302 N 
ATOM     15  H   UNL A   1      33.008  24.719  21.971  1.00  0.00     0.172 HD
ATOM     16  O   UNL A   1      34.754  23.666  22.724  1.00  0.00    -0.274 OA
BRANCH  14  17
ATOM     17  C   UNL A   1      31.804  25.634  23.160  1.00  0.00     0.190 A 
ATOM     18  C   UNL A   1      30.490  27.448  22.866  1.00  0.00     0.086 A 
ATOM     19  N   UNL A   1      31.709  26.820  22.584  1.00  0.00    -0.220 NA
ATOM     20  C   UNL A   1      29.562  26.594  23.422  1.00  0.00     0.031 A 
ATOM     21  S   UNL A   1      30.314  25.049  23.745  1.00  0.00    -0.101 S 
ATOM     22  C   UNL A   1      28.157  26.874  23.814  1.00  0.00     0.059 C 
BRANCH  18  23
ATOM     23  C   UNL A   1      30.386  28.935  22.816  1.00  0.00     0.001 A 
ATOM     24  C   UNL A   1      28.925  33.749  23.182  1.00  0.00     0.044 C 
ATOM     25  C   UNL A   1      28.847  32.234  23.279  1.00  0.00    -0.051 A 
ATOM     26  C   UNL A   1      29.838  31.494  24.589  1.00  0.00     0.004 A 
ATOM     27  C   UNL A   1      28.557  31.333  21.740  1.00  0.00     0.004 A 
ATOM     28  C   UNL A   1      30.550  29.822  24.376  1.00  0.00     0.010 A 
ATOM     29  C   UNL A   1      29.469  29.749  21.455  1.00  0.00     0.010 A 
ENDBRANCH  18  23
ENDBRANCH  14  17
ENDBRANCH   7  13
ENDBRANCH   4   6
ENDBRANCH   3   4
ENDBRANCH   2   3
ENDBRANCH   1   2
BRANCH   1  30
ATOM     30  O   UNL A   1      33.912  29.586  27.132  1.00  0.00    -0.374 OA
BRANCH  30  31
ATOM     31  C   UNL A   1      34.613  30.728  27.639  1.00  0.00     0.202 C 
BRANCH  31  32
ATOM     32  C   UNL A   1      33.820  31.993  27.977  1.00  0.00     0.261 C 
BRANCH  32  33
ATOM     33  O   UNL A   1      34.131  32.500  29.292  1.00  0.00    -0.460 OA
BRANCH  33  34
ATOM     34  C   UNL A   1      34.809  33.683  29.341  1.00  0.00     0.338 C 
ATOM     35  O   UNL A   1      34.451  34.713  28.797  1.00  0.00    -0.246 OA
BRANCH  34  36
ATOM     36  C   UNL A   1      36.167  33.457  29.928  1.00  0.00     0.060 A 
ATOM     37  C   UNL A   1      37.333  34.059  29.426  1.00  0.00     0.016 A 
ATOM     38  C   UNL A   1      36.299  32.326  30.689  1.00  0.00     0.016 A 
ATOM     39  C   UNL A   1      38.599  33.428  29.593  1.00  0.00     0.010 A 
ATOM     40  C   UNL A   1      37.415  31.572  30.435  1.00  0.00     0.010 A 
ATOM     41  C   UNL A   1      38.658  32.091  30.035  1.00  0.00    -0.014 A 
BRANCH  41  42
ATOM     42  C   UNL A   1      39.968  31.001  29.938  1.00  0.00     0.031 A 
ATOM     43  C   UNL A   1      40.260  29.269  28.679  1.00  0.00     0.074 A 
ATOM     44  C   UNL A   1      40.845  31.769  30.848  1.00  0.00     0.049 A 
ATOM     45  N   UNL A   1      40.860  28.054  28.981  1.00  0.00    -0.248 NA
ATOM     46  C   UNL A   1      39.967  28.868  27.083  1.00  0.00     0.031 C 
ATOM     47  C   UNL A   1      42.344  31.954  30.843  1.00  0.00     0.029 A 
ATOM     48  N   UNL A   1      40.589  32.251  32.159  1.00  0.00    -0.354 N 
ATOM     49  C   UNL A   1      41.482  27.439  27.952  1.00  0.00     0.074 A 
ATOM     50  C   UNL A   1      40.793  27.865  26.782  1.00  0.00     0.031 C 
ATOM     51  C   UNL A   1      42.855  32.084  32.053  1.00  0.00     0.029 A 
ATOM     52  C   UNL A   1      41.749  32.191  32.931  1.00  0.00     0.049 A 
ATOM     53  H   UNL A   1      39.717  32.580  32.478  1.00  0.00     0.167 HD
ATOM     54  C   UNL A   1      42.615  26.711  28.176  1.00  0.00     0.037 A 
ATOM     55  C   UNL A   1      41.942  31.982  34.239  1.00  0.00     0.037 A 
ATOM     56  C   UNL A   1      43.362  27.089  29.414  1.00  0.00     0.049 A 
ATOM     57  C   UNL A   1      42.703  30.695  34.396  1.00  0.00     0.074 A 
ATOM     58  C   UNL A   1      44.541  27.807  29.583  1.00  0.00     0.029 A 
ATOM     59  N   UNL A   1      42.841  26.953  30.712  1.00  0.00    -0.354 N 
ATOM     60  N   UNL A   1      42.742  29.797  33.425  1.00  0.00    -0.248 NA
ATOM     61  C   UNL A   1      43.466  30.288  35.564  1.00  0.00     0.031 C 
ATOM     62  C   UNL A   1      44.693  28.144  30.960  1.00  0.00     0.029 A 
ATOM     63  C   UNL A   1      43.639  27.594  31.678  1.00  0.00     0.049 A 
ATOM     64  H   UNL A   1      42.011  26.465  30.922  1.00  0.00     0.167 HD
ATOM     65  C   UNL A   1      43.423  28.692  33.849  1.00  0.00     0.074 A 
ATOM     66  C   UNL A   1      43.875  29.062  35.186  1.00  0.00     0.031 C 
ATOM     67  C   UNL A   1      43.426  27.514  33.143  1.00  0.00     0.037 A 
BRANCH  54  68
ATOM     68  C   UNL A   1      43.155  25.847  27.062  1.00  0.00     0.057 A 
ATOM     69  C   UNL A   1      44.169  26.259  26.187  1.00  0.00     0.134 A 
ATOM     70  C   UNL A   1      42.732  24.509  26.882  1.00  0.00     0.134 A 
ATOM     71  F   UNL A   1      44.748  27.462  26.296  1.00  0.00    -0.206 F 
ATOM     72  C   UNL A   1      44.658  25.435  25.162  1.00  0.00     0.040 A 
ATOM     73  C   UNL A   1      43.153  23.705  25.820  1.00  0.00     0.040 A 
ATOM     74  F   UNL A   1      41.918  23.906  27.762  1.00  0.00    -0.206 F 
ATOM     75  C   UNL A   1      44.126  24.168  24.954  1.00  0.00     0.006 A 
ENDBRANCH  54  68
BRANCH  55  76
ATOM     76  C   UNL A   1      41.311  33.036  35.048  1.00  0.00     0.057 A 
ATOM     77  C   UNL A   1      41.842  34.343  34.922  1.00  0.00     0.134 A 
ATOM     78  C   UNL A   1      39.933  32.946  35.277  1.00  0.00     0.134 A 
ATOM     79  F   UNL A   1      43.147  34.519  34.651  1.00  0.00    -0.206 F 
ATOM     80  C   UNL A   1      41.021  35.478  34.870  1.00  0.00     0.040 A 
ATOM     81  C   UNL A   1      39.102  34.071  35.199  1.00  0.00     0.040 A 
ATOM     82  F   UNL A   1      39.350  31.740  35.344  1.00  0.00    -0.206 F 
ATOM     83  C   UNL A   1      39.639  35.334  34.955  1.00  0.00     0.006 A 
ENDBRANCH  55  76
BRANCH  67  84
ATOM     84  C   UNL A   1      43.384  26.182  33.863  1.00  0.00     0.057 A 
ATOM     85  C   UNL A   1      42.361  25.810  34.763  1.00  0.00     0.134 A 
ATOM     86  C   UNL A   1      44.286  25.148  33.549  1.00  0.00     0.134 A 
ATOM     87  F   UNL A   1      41.340  26.623  35.061  1.00  0.00    -0.206 F 
ATOM     88  C   UNL A   1      42.298  24.549  35.367  1.00  0.00     0.040 A 
ATOM     89  C   UNL A   1      44.189  23.862  34.092  1.00  0.00     0.040 A 
ATOM     90  F   UNL A   1      45.287  25.319  32.675  1.00  0.00    -0.206 F 
ATOM     91  C   UNL A   1      43.207  23.565  35.022  1.00  0.00     0.006 A 
ENDBRANCH  67  84
ENDBRANCH  41  42
ENDBRANCH  34  36
ENDBRANCH  33  34
ENDBRANCH  32  33
ENDBRANCH  31  32
ENDBRANCH  30  31
ENDBRANCH   1  30
TORSDOF 17
ENDMDL
MODEL 2
REMARK VINA RESULT:     -12.1      3.145      9.370
REMARK SMILES Cc1ccc(-c2nc(NC(=O)[C@H]3[C@@H](C(=O)OCCOCCOC(=O)c4ccc(-c5c6nc(c(-c7c(F)cccc7F)c7ccc([nH]7)c(-c7c(F)cccc7F)c7nc(c(-c8c(F)cccc8F)c8ccc5[nH]8)C=C7)C=C6)cc4)[C@@H]4CC[C@H]3O4)sc2C)cc1
REMARK SMILES IDX 18 1 17 2 16 3 14 4 15 5 13 6 12 7 82 8 79 9 81 10 83 11
REMARK SMILES IDX 80 12 10 13 9 14 11 16 8 17 6 18 7 19 85 20 84 21 86 22 5 23
REMARK SMILES IDX 1 24 2 25 3 26 88 27 4 28 87 29 19 30 20 31 21 32 22 33
REMARK SMILES IDX 23 34 24 35 25 36 26 37 78 38 27 39 77 40 28 41 29 42 30 43
REMARK SMILES IDX 71 44 31 45 76 46 70 47 72 48 32 49 75 50 69 51 68 52 33 54
REMARK SMILES IDX 59 55 42 56 58 57 43 58 46 59 57 60 73 61 44 62 45 63 56 65
REMARK SMILES IDX 74 66 47 67 34 68 35 69 40 70 36 71 37 72 39 73 41 74 38 75
REMARK SMILES IDX 60 76 61 77 66 78 62 79 63 80 65 81 67 82 64 83 48 84 49 85
REMARK SMILES IDX 54 86 50 87 51 88 53 89 55 90 52 91
REMARK H PARENT 9 15 72 53 46 64
REMARK Flexibility Score: inf
ROOT
ATOM      1  C   UNL A   1      34.668  23.274  26.647  1.00  0.00     0.202 C 
ENDROOT
BRANCH   1   2
ATOM      2  C   UNL A   1      34.060  24.638  26.215  1.00  0.00     0.261 C 
BRANCH   2   3
ATOM      3  O   UNL A   1      32.639  25.119  26.145  1.00  0.00    -0.463 OA
BRANCH   3   4
ATOM      4  C   UNL A   1      31.624  25.993  26.208  1.00  0.00     0.312 C 
ATOM      5  O   UNL A   1      30.455  25.634  26.355  1.00  0.00    -0.252 OA
BRANCH   4   6
ATOM      6  C   UNL A   1      31.868  27.427  25.997  1.00  0.00     0.143 C 
ATOM      7  C   UNL A   1      30.795  28.059  25.204  1.00  0.00     0.124 C 
ATOM      8  C   UNL A   1      31.497  29.366  24.832  1.00  0.00     0.132 C 
ATOM      9  C   UNL A   1      33.113  27.964  25.231  1.00  0.00     0.133 C 
ATOM     10  C   UNL A   1      32.339  30.059  25.936  1.00  0.00     0.035 C 
ATOM     11  O   UNL A   1      32.560  28.710  24.090  1.00  0.00    -0.373 OA
ATOM     12  C   UNL A   1      33.631  29.214  25.925  1.00  0.00     0.036 C 
BRANCH   7  13
ATOM     13  C   UNL A   1      30.413  27.405  23.849  1.00  0.00     0.232 C 
ATOM     14  N   UNL A   1      30.833  26.295  23.175  1.00  0.00    -0.302 N 
ATOM     15  H   UNL A   1      30.290  26.226  22.356  1.00  0.00     0.172 HD
ATOM     16  O   UNL A   1      29.416  27.960  23.332  1.00  0.00    -0.274 OA
BRANCH  14  17
ATOM     17  C   UNL A   1      31.715  25.229  23.180  1.00  0.00     0.190 A 
ATOM     18  C   UNL A   1      32.300  23.049  23.067  1.00  0.00     0.086 A 
ATOM     19  N   UNL A   1      31.263  23.988  23.119  1.00  0.00    -0.220 NA
ATOM     20  C   UNL A   1      33.527  23.619  22.802  1.00  0.00     0.031 A 
ATOM     21  S   UNL A   1      33.371  25.361  22.799  1.00  0.00    -0.101 S 
ATOM     22  C   UNL A   1      34.844  22.955  22.629  1.00  0.00     0.059 C 
BRANCH  18  23
ATOM     23  C   UNL A   1      32.072  21.657  23.548  1.00  0.00     0.001 A 
ATOM     24  C   UNL A   1      32.548  16.888  25.124  1.00  0.00     0.044 C 
ATOM     25  C   UNL A   1      32.960  18.256  24.604  1.00  0.00    -0.051 A 
ATOM     26  C   UNL A   1      32.879  19.595  25.805  1.00  0.00     0.004 A 
ATOM     27  C   UNL A   1      32.657  18.586  22.853  1.00  0.00     0.004 A 
ATOM     28  C   UNL A   1      32.496  21.300  25.263  1.00  0.00     0.010 A 
ATOM     29  C   UNL A   1      32.052  20.263  22.360  1.00  0.00     0.010 A 
ENDBRANCH  18  23
ENDBRANCH  14  17
ENDBRANCH   7  13
ENDBRANCH   4   6
ENDBRANCH   3   4
ENDBRANCH   2   3
ENDBRANCH   1   2
BRANCH   1  30
ATOM     30  O   UNL A   1      35.978  23.068  26.114  1.00  0.00    -0.374 OA
BRANCH  30  31
ATOM     31  C   UNL A   1      36.414  21.756  25.739  1.00  0.00     0.202 C 
BRANCH  31  32
ATOM     32  C   UNL A   1      37.864  21.559  25.289  1.00  0.00     0.261 C 
BRANCH  32  33
ATOM     33  O   UNL A   1      38.809  22.123  26.223  1.00  0.00    -0.460 OA
BRANCH  33  34
ATOM     34  C   UNL A   1      40.020  21.502  26.309  1.00  0.00     0.338 C 
ATOM     35  O   UNL A   1      40.196  20.301  26.203  1.00  0.00    -0.246 OA
BRANCH  34  36
ATOM     36  C   UNL A   1      41.045  22.472  26.811  1.00  0.00     0.060 A 
ATOM     37  C   UNL A   1      41.631  22.383  28.085  1.00  0.00     0.016 A 
ATOM     38  C   UNL A   1      41.077  23.680  26.166  1.00  0.00     0.016 A 
ATOM     39  C   UNL A   1      42.120  23.551  28.736  1.00  0.00     0.010 A 
ATOM     40  C   UNL A   1      41.137  24.780  26.981  1.00  0.00     0.010 A 
ATOM     41  C   UNL A   1      41.793  24.823  28.223  1.00  0.00    -0.014 A 
BRANCH  41  42
ATOM     42  C   UNL A   1      41.900  26.338  29.002  1.00  0.00     0.031 A 
ATOM     43  C   UNL A   1      40.348  27.634  29.764  1.00  0.00     0.074 A 
ATOM     44  C   UNL A   1      43.374  26.322  29.118  1.00  0.00     0.049 A 
ATOM     45  N   UNL A   1      40.273  29.020  29.750  1.00  0.00    -0.248 NA
ATOM     46  C   UNL A   1      38.911  27.444  30.598  1.00  0.00     0.031 C 
ATOM     47  C   UNL A   1      44.279  26.868  30.196  1.00  0.00     0.029 A 
ATOM     48  N   UNL A   1      44.359  26.117  28.116  1.00  0.00    -0.354 N 
ATOM     49  C   UNL A   1      39.613  29.580  30.785  1.00  0.00     0.074 A 
ATOM     50  C   UNL A   1      38.659  28.607  31.198  1.00  0.00     0.031 C 
ATOM     51  C   UNL A   1      45.439  27.295  29.734  1.00  0.00     0.029 A 
ATOM     52  C   UNL A   1      45.482  26.902  28.374  1.00  0.00     0.049 A 
ATOM     53  H   UNL A   1      44.263  25.507  27.348  1.00  0.00     0.167 HD
ATOM     54  C   UNL A   1      40.019  30.784  31.284  1.00  0.00     0.037 A 
ATOM     55  C   UNL A   1      46.366  27.492  27.560  1.00  0.00     0.037 A 
ATOM     56  C   UNL A   1      41.449  31.119  31.011  1.00  0.00     0.049 A 
ATOM     57  C   UNL A   1      46.246  28.979  27.745  1.00  0.00     0.074 A 
ATOM     58  C   UNL A   1      42.564  31.105  31.843  1.00  0.00     0.029 A 
ATOM     59  N   UNL A   1      41.973  31.310  29.721  1.00  0.00    -0.354 N 
ATOM     60  N   UNL A   1      45.166  29.519  28.283  1.00  0.00    -0.248 NA
ATOM     61  C   UNL A   1      47.248  29.970  27.388  1.00  0.00     0.031 C 
ATOM     62  C   UNL A   1      43.743  31.230  31.053  1.00  0.00     0.029 A 
ATOM     63  C   UNL A   1      43.380  31.378  29.721  1.00  0.00     0.049 A 
ATOM     64  H   UNL A   1      41.421  31.386  28.909  1.00  0.00     0.167 HD
ATOM     65  C   UNL A   1      45.273  30.881  28.260  1.00  0.00     0.074 A 
ATOM     66  C   UNL A   1      46.606  31.108  27.712  1.00  0.00     0.031 C 
ATOM     67  C   UNL A   1      44.213  31.707  28.539  1.00  0.00     0.037 A 
BRANCH  54  68
ATOM     68  C   UNL A   1      39.132  31.496  32.277  1.00  0.00     0.057 A 
ATOM     69  C   UNL A   1      38.026  32.272  31.907  1.00  0.00     0.134 A 
ATOM     70  C   UNL A   1      39.306  31.351  33.673  1.00  0.00     0.134 A 
ATOM     71  F   UNL A   1      37.665  32.420  30.625  1.00  0.00    -0.206 F 
ATOM     72  C   UNL A   1      37.214  32.921  32.850  1.00  0.00     0.040 A 
ATOM     73  C   UNL A   1      38.555  32.051  34.620  1.00  0.00     0.040 A 
ATOM     74  F   UNL A   1      40.193  30.482  34.183  1.00  0.00    -0.206 F 
ATOM     75  C   UNL A   1      37.497  32.840  34.208  1.00  0.00     0.006 A 
ENDBRANCH  54  68
BRANCH  55  76
ATOM     76  C   UNL A   1      47.093  26.501  26.750  1.00  0.00     0.057 A 
ATOM     77  C   UNL A   1      46.862  26.524  25.354  1.00  0.00     0.134 A 
ATOM     78  C   UNL A   1      48.383  26.145  27.161  1.00  0.00     0.134 A 
ATOM     79  F   UNL A   1      45.665  26.903  24.872  1.00  0.00    -0.206 F 
ATOM     80  C   UNL A   1      47.898  26.354  24.425  1.00  0.00     0.040 A 
ATOM     81  C   UNL A   1      49.430  26.002  26.241  1.00  0.00     0.040 A 
ATOM     82  F   UNL A   1      48.693  26.164  28.465  1.00  0.00    -0.206 F 
ATOM     83  C   UNL A   1      49.199  26.145  24.874  1.00  0.00     0.006 A 
ENDBRANCH  55  76
BRANCH  67  84
ATOM     84  C   UNL A   1      44.012  32.995  27.765  1.00  0.00     0.057 A 
ATOM     85  C   UNL A   1      43.933  33.058  26.357  1.00  0.00     0.134 A 
ATOM     86  C   UNL A   1      43.721  34.207  28.419  1.00  0.00     0.134 A 
ATOM     87  F   UNL A   1      44.041  31.970  25.585  1.00  0.00    -0.206 F 
ATOM     88  C   UNL A   1      43.678  34.244  25.660  1.00  0.00     0.040 A 
ATOM     89  C   UNL A   1      43.393  35.382  27.734  1.00  0.00     0.040 A 
ATOM     90  F   UNL A   1      43.704  34.308  29.755  1.00  0.00    -0.206 F 
ATOM     91  C   UNL A   1      43.395  35.410  26.349  1.00  0.00     0.006 A 
ENDBRANCH  67  84
ENDBRANCH  41  42
ENDBRANCH  34  36
ENDBRANCH  33  34
ENDBRANCH  32  33
ENDBRANCH  31  32
ENDBRANCH  30  31
ENDBRANCH   1  30
TORSDOF 17
ENDMDL
MODEL 3
REMARK VINA RESULT:     -12.1      1.396      4.398
REMARK SMILES Cc1ccc(-c2nc(NC(=O)[C@H]3[C@@H](C(=O)OCCOCCOC(=O)c4ccc(-c5c6nc(c(-c7c(F)cccc7F)c7ccc([nH]7)c(-c7c(F)cccc7F)c7nc(c(-c8c(F)cccc8F)c8ccc5[nH]8)C=C7)C=C6)cc4)[C@@H]4CC[C@H]3O4)sc2C)cc1
REMARK SMILES IDX 18 1 17 2 16 3 14 4 15 5 13 6 12 7 82 8 79 9 81 10 83 11
REMARK SMILES IDX 80 12 10 13 9 14 11 16 8 17 6 18 7 19 85 20 84 21 86 22 5 23
REMARK SMILES IDX 1 24 2 25 3 26 88 27 4 28 87 29 19 30 20 31 21 32 22 33
REMARK SMILES IDX 23 34 24 35 25 36 26 37 78 38 27 39 77 40 28 41 29 42 30 43
REMARK SMILES IDX 71 44 31 45 76 46 70 47 72 48 32 49 75 50 69 51 68 52 33 54
REMARK SMILES IDX 59 55 42 56 58 57 43 58 46 59 57 60 73 61 44 62 45 63 56 65
REMARK SMILES IDX 74 66 47 67 34 68 35 69 40 70 36 71 37 72 39 73 41 74 38 75
REMARK SMILES IDX 60 76 61 77 66 78 62 79 63 80 65 81 67 82 64 83 48 84 49 85
REMARK SMILES IDX 54 86 50 87 51 88 53 89 55 90 52 91
REMARK H PARENT 9 15 72 53 46 64
REMARK Flexibility Score: inf
ROOT
ATOM      1  C   UNL A   1      33.988  29.041  27.251  1.00  0.00     0.202 C 
ENDROOT
BRANCH   1   2
ATOM      2  C   UNL A   1      33.878  27.834  26.279  1.00  0.00     0.261 C 
BRANCH   2   3
ATOM      3  O   UNL A   1      32.702  27.237  25.559  1.00  0.00    -0.463 OA
BRANCH   3   4
ATOM      4  C   UNL A   1      31.419  26.926  25.331  1.00  0.00     0.312 C 
ATOM      5  O   UNL A   1      30.903  25.897  25.770  1.00  0.00    -0.252 OA
BRANCH   4   6
ATOM      6  C   UNL A   1      30.598  27.769  24.450  1.00  0.00     0.143 C 
ATOM      7  C   UNL A   1      30.276  27.090  23.179  1.00  0.00     0.124 C 
ATOM      8  C   UNL A   1      29.798  28.295  22.367  1.00  0.00     0.132 C 
ATOM      9  C   UNL A   1      31.092  29.139  23.898  1.00  0.00     0.133 C 
ATOM     10  C   UNL A   1      28.900  29.330  23.096  1.00  0.00     0.035 C 
ATOM     11  O   UNL A   1      31.074  28.985  22.435  1.00  0.00    -0.373 OA
ATOM     12  C   UNL A   1      29.940  30.132  23.908  1.00  0.00     0.036 C 
BRANCH   7  13
ATOM     13  C   UNL A   1      31.451  26.491  22.359  1.00  0.00     0.232 C 
ATOM     14  N   UNL A   1      32.225  25.373  22.480  1.00  0.00    -0.302 N 
ATOM     15  H   UNL A   1      32.838  25.355  21.709  1.00  0.00     0.172 HD
ATOM     16  O   UNL A   1      31.634  27.116  21.289  1.00  0.00    -0.274 OA
BRANCH  14  17
ATOM     17  C   UNL A   1      32.494  24.256  23.250  1.00  0.00     0.190 A 
ATOM     18  C   UNL A   1      33.575  23.073  24.843  1.00  0.00     0.086 A 
ATOM     19  N   UNL A   1      33.498  24.263  24.109  1.00  0.00    -0.220 NA
ATOM     20  C   UNL A   1      32.443  22.295  24.724  1.00  0.00     0.031 A 
ATOM     21  S   UNL A   1      31.373  23.004  23.537  1.00  0.00    -0.101 S 
ATOM     22  C   UNL A   1      32.131  20.999  25.378  1.00  0.00     0.059 C 
BRANCH  18  23
ATOM     23  C   UNL A   1      34.877  22.634  25.421  1.00  0.00     0.001 A 
ATOM     24  C   UNL A   1      39.730  21.560  26.283  1.00  0.00     0.044 C 
ATOM     25  C   UNL A   1      38.495  22.027  25.529  1.00  0.00    -0.051 A 
ATOM     26  C   UNL A   1      37.816  23.606  26.065  1.00  0.00     0.004 A 
ATOM     27  C   UNL A   1      37.402  20.741  24.882  1.00  0.00     0.004 A 
ATOM     28  C   UNL A   1      36.018  23.926  25.950  1.00  0.00     0.010 A 
ATOM     29  C   UNL A   1      35.574  20.997  24.985  1.00  0.00     0.010 A 
ENDBRANCH  18  23
ENDBRANCH  14  17
ENDBRANCH   7  13
ENDBRANCH   4   6
ENDBRANCH   3   4
ENDBRANCH   2   3
ENDBRANCH   1   2
BRANCH   1  30
ATOM     30  O   UNL A   1      35.197  29.782  27.067  1.00  0.00    -0.374 OA
BRANCH  30  31
ATOM     31  C   UNL A   1      35.403  31.023  27.752  1.00  0.00     0.202 C 
BRANCH  31  32
ATOM     32  C   UNL A   1      34.197  31.924  28.029  1.00  0.00     0.261 C 
BRANCH  32  33
ATOM     33  O   UNL A   1      34.588  33.263  28.401  1.00  0.00    -0.460 OA
BRANCH  33  34
ATOM     34  C   UNL A   1      34.674  33.521  29.738  1.00  0.00     0.338 C 
ATOM     35  O   UNL A   1      33.780  34.001  30.413  1.00  0.00    -0.246 OA
BRANCH  34  36
ATOM     36  C   UNL A   1      36.095  33.376  30.185  1.00  0.00     0.060 A 
ATOM     37  C   UNL A   1      37.183  33.925  29.484  1.00  0.00     0.016 A 
ATOM     38  C   UNL A   1      36.337  32.342  31.050  1.00  0.00     0.016 A 
ATOM     39  C   UNL A   1      38.473  33.329  29.575  1.00  0.00     0.010 A 
ATOM     40  C   UNL A   1      37.433  31.573  30.756  1.00  0.00     0.010 A 
ATOM     41  C   UNL A   1      38.610  32.052  30.157  1.00  0.00    -0.014 A 
BRANCH  41  42
ATOM     42  C   UNL A   1      39.925  30.969  30.033  1.00  0.00     0.031 A 
ATOM     43  C   UNL A   1      40.197  29.234  28.775  1.00  0.00     0.074 A 
ATOM     44  C   UNL A   1      40.818  31.745  30.921  1.00  0.00     0.049 A 
ATOM     45  N   UNL A   1      40.810  28.023  29.066  1.00  0.00    -0.248 NA
ATOM     46  C   UNL A   1      39.870  28.825  27.186  1.00  0.00     0.031 C 
ATOM     47  C   UNL A   1      42.315  31.938  30.881  1.00  0.00     0.029 A 
ATOM     48  N   UNL A   1      40.589  32.230  32.236  1.00  0.00    -0.354 N 
ATOM     49  C   UNL A   1      41.412  27.408  28.026  1.00  0.00     0.074 A 
ATOM     50  C   UNL A   1      40.694  27.826  26.870  1.00  0.00     0.031 C 
ATOM     51  C   UNL A   1      42.853  32.076  32.078  1.00  0.00     0.029 A 
ATOM     52  C   UNL A   1      41.767  32.179  32.981  1.00  0.00     0.049 A 
ATOM     53  H   UNL A   1      39.723  32.556  32.573  1.00  0.00     0.167 HD
ATOM     54  C   UNL A   1      42.554  26.687  28.226  1.00  0.00     0.037 A 
ATOM     55  C   UNL A   1      41.991  31.976  34.284  1.00  0.00     0.037 A 
ATOM     56  C   UNL A   1      43.327  27.073  29.445  1.00  0.00     0.049 A 
ATOM     57  C   UNL A   1      42.762  30.694  34.428  1.00  0.00     0.074 A 
ATOM     58  C   UNL A   1      44.506  27.799  29.585  1.00  0.00     0.029 A 
ATOM     59  N   UNL A   1      42.836  26.939  30.755  1.00  0.00    -0.354 N 
ATOM     60  N   UNL A   1      42.784  29.793  33.461  1.00  0.00    -0.248 NA
ATOM     61  C   UNL A   1      43.555  30.295  35.580  1.00  0.00     0.031 C 
ATOM     62  C   UNL A   1      44.687  28.142  30.956  1.00  0.00     0.029 A 
ATOM     63  C   UNL A   1      43.653  27.589  31.700  1.00  0.00     0.049 A 
ATOM     64  H   UNL A   1      42.015  26.447  30.987  1.00  0.00     0.167 HD
ATOM     65  C   UNL A   1      43.481  28.693  33.872  1.00  0.00     0.074 A 
ATOM     66  C   UNL A   1      43.962  29.070  35.197  1.00  0.00     0.031 C 
ATOM     67  C   UNL A   1      43.474  27.513  33.171  1.00  0.00     0.037 A 
BRANCH  54  68
ATOM     68  C   UNL A   1      43.073  25.822  27.103  1.00  0.00     0.057 A 
ATOM     69  C   UNL A   1      42.568  24.548  26.813  1.00  0.00     0.134 A 
ATOM     70  C   UNL A   1      44.057  26.284  26.198  1.00  0.00     0.134 A 
ATOM     71  F   UNL A   1      41.561  24.012  27.513  1.00  0.00    -0.206 F 
ATOM     72  C   UNL A   1      43.066  23.765  25.760  1.00  0.00     0.040 A 
ATOM     73  C   UNL A   1      44.615  25.488  25.195  1.00  0.00     0.040 A 
ATOM     74  F   UNL A   1      44.491  27.554  26.221  1.00  0.00    -0.206 F 
ATOM     75  C   UNL A   1      44.115  24.219  24.969  1.00  0.00     0.006 A 
ENDBRANCH  54  68
BRANCH  55  76
ATOM     76  C   UNL A   1      41.373  33.030  35.105  1.00  0.00     0.057 A 
ATOM     77  C   UNL A   1      41.733  34.366  34.805  1.00  0.00     0.134 A 
ATOM     78  C   UNL A   1      40.061  32.825  35.549  1.00  0.00     0.134 A 
ATOM     79  F   UNL A   1      42.957  34.645  34.326  1.00  0.00    -0.206 F 
ATOM     80  C   UNL A   1      40.793  35.407  34.801  1.00  0.00     0.040 A 
ATOM     81  C   UNL A   1      39.109  33.853  35.520  1.00  0.00     0.040 A 
ATOM     82  F   UNL A   1      39.630  31.578  35.790  1.00  0.00    -0.206 F 
ATOM     83  C   UNL A   1      39.463  35.136  35.108  1.00  0.00     0.006 A 
ENDBRANCH  55  76
BRANCH  67  84
ATOM     84  C   UNL A   1      43.456  26.183  33.896  1.00  0.00     0.057 A 
ATOM     85  C   UNL A   1      42.393  25.755  34.720  1.00  0.00     0.134 A 
ATOM     86  C   UNL A   1      44.438  25.202  33.658  1.00  0.00     0.134 A 
ATOM     87  F   UNL A   1      41.306  26.507  34.935  1.00  0.00    -0.206 F 
ATOM     88  C   UNL A   1      42.358  24.495  35.327  1.00  0.00     0.040 A 
ATOM     89  C   UNL A   1      44.376  23.915  34.202  1.00  0.00     0.040 A 
ATOM     90  F   UNL A   1      45.490  25.429  32.860  1.00  0.00    -0.206 F 
ATOM     91  C   UNL A   1      43.346  23.564  35.059  1.00  0.00     0.006 A 
ENDBRANCH  67  84
ENDBRANCH  41  42
ENDBRANCH  34  36
ENDBRANCH  33  34
ENDBRANCH  32  33
ENDBRANCH  31  32
ENDBRANCH  30  31
ENDBRANCH   1  30
TORSDOF 17
ENDMDL
