MODEL 1
REMARK VINA RESULT:     -12.2      0.000      0.000
REMARK SMILES Cc1ccc(Oc2cc(C(=O)OCCOCCOC(=O)c3ccc(-c4c5nc(c(-c6c(F)cccc6F)c6ccc([nH]6)c(-c6c(F)cccc6F)c6nc(c(-c7c(F)cccc7F)c7ccc4[nH]7)C=C6)C=C5)cc3)nc3ccccc23)cc1
REMARK SMILES IDX 15 1 14 2 13 3 12 4 10 5 11 6 9 7 7 8 8 9 81 10 76 11 80 12
REMARK SMILES IDX 75 13 77 14 79 15 78 16 6 17 5 18 1 19 2 20 3 21 83 22 4 23
REMARK SMILES IDX 82 24 16 25 17 26 18 27 19 28 20 29 21 30 22 31 74 32 23 33
REMARK SMILES IDX 73 34 24 35 25 36 26 37 67 38 27 39 72 40 66 41 68 42 28 43
REMARK SMILES IDX 71 44 65 45 64 46 29 48 55 49 38 50 54 51 39 52 42 53 53 54
REMARK SMILES IDX 69 55 40 56 41 57 52 59 70 60 43 61 30 62 31 63 36 64 32 65
REMARK SMILES IDX 33 66 35 67 37 68 34 69 56 70 57 71 62 72 58 73 59 74 61 75
REMARK SMILES IDX 63 76 60 77 44 78 45 79 50 80 46 81 47 82 49 83 51 84 48 85
REMARK H PARENT 68 47 42 58
REMARK Flexibility Score: inf
ROOT
ATOM      1  O   UNL A   1      32.841  34.345  28.860  1.00  0.00    -0.374 OA
ENDROOT
BRANCH   1   2
ATOM      2  C   UNL A   1      32.948  33.610  27.657  1.00  0.00     0.202 C 
BRANCH   2   3
ATOM      3  C   UNL A   1      33.649  32.326  28.001  1.00  0.00     0.261 C 
BRANCH   3   4
ATOM      4  O   UNL A   1      33.108  31.202  27.287  1.00  0.00    -0.459 OA
BRANCH   4   5
ATOM      5  C   UNL A   1      33.878  30.135  26.912  1.00  0.00     0.357 C 
ATOM      6  O   UNL A   1      34.932  29.744  27.351  1.00  0.00    -0.244 OA
BRANCH   5   7
ATOM      7  C   UNL A   1      33.107  29.432  25.873  1.00  0.00     0.152 A 
ATOM      8  C   UNL A   1      32.638  27.553  24.560  1.00  0.00     0.139 A 
ATOM      9  C   UNL A   1      33.476  28.169  25.476  1.00  0.00     0.084 A 
ATOM     10  C   UNL A   1      31.447  28.180  24.105  1.00  0.00     0.043 A 
ATOM     11  C   UNL A   1      31.204  29.475  24.585  1.00  0.00     0.075 A 
ATOM     12  C   UNL A   1      30.527  27.640  23.182  1.00  0.00     0.014 A 
ATOM     13  N   UNL A   1      31.999  30.080  25.443  1.00  0.00    -0.240 NA
ATOM     14  C   UNL A   1      30.114  30.205  24.159  1.00  0.00     0.029 A 
ATOM     15  C   UNL A   1      29.433  28.393  22.744  1.00  0.00     0.001 A 
ATOM     16  C   UNL A   1      29.228  29.680  23.231  1.00  0.00     0.002 A 
BRANCH   8  17
ATOM     17  O   UNL A   1      33.051  26.327  24.091  1.00  0.00    -0.457 OA
BRANCH  17  18
ATOM     18  C   UNL A   1      33.298  25.356  25.042  1.00  0.00     0.127 A 
ATOM     19  C   UNL A   1      33.656  21.946  27.625  1.00  0.00     0.044 C 
ATOM     20  C   UNL A   1      33.544  23.182  26.786  1.00  0.00    -0.051 A 
ATOM     21  C   UNL A   1      32.302  23.801  26.596  1.00  0.00     0.007 A 
ATOM     22  C   UNL A   1      34.676  23.716  26.166  1.00  0.00     0.007 A 
ATOM     23  C   UNL A   1      32.179  24.884  25.724  1.00  0.00     0.047 A 
ATOM     24  C   UNL A   1      34.557  24.808  25.312  1.00  0.00     0.047 A 
ENDBRANCH  17  18
ENDBRANCH   8  17
ENDBRANCH   5   7
ENDBRANCH   4   5
ENDBRANCH   3   4
ENDBRANCH   2   3
ENDBRANCH   1   2
BRANCH   1  25
ATOM     25  C   UNL A   1      32.897  35.749  28.750  1.00  0.00     0.202 C 
BRANCH  25  26
ATOM     26  C   UNL A   1      32.904  36.421  30.126  1.00  0.00     0.261 C 
BRANCH  26  27
ATOM     27  O   UNL A   1      32.821  35.424  31.172  1.00  0.00    -0.460 OA
BRANCH  27  28
ATOM     28  C   UNL A   1      33.928  35.278  31.958  1.00  0.00     0.338 C 
ATOM     29  O   UNL A   1      34.409  36.152  32.662  1.00  0.00    -0.246 OA
BRANCH  28  30
ATOM     30  C   UNL A   1      34.626  33.997  31.631  1.00  0.00     0.060 A 
ATOM     31  C   UNL A   1      34.531  32.887  32.497  1.00  0.00     0.016 A 
ATOM     32  C   UNL A   1      35.642  34.049  30.690  1.00  0.00     0.016 A 
ATOM     33  C   UNL A   1      35.564  31.930  32.544  1.00  0.00     0.010 A 
ATOM     34  C   UNL A   1      36.714  33.205  30.856  1.00  0.00     0.010 A 
ATOM     35  C   UNL A   1      36.707  32.148  31.783  1.00  0.00    -0.014 A 
BRANCH  35  36
ATOM     36  C   UNL A   1      37.977  31.410  31.845  1.00  0.00     0.031 A 
ATOM     37  C   UNL A   1      38.118  30.227  30.955  1.00  0.00     0.074 A 
ATOM     38  C   UNL A   1      39.095  31.918  32.427  1.00  0.00     0.049 A 
ATOM     39  N   UNL A   1      39.065  29.359  31.057  1.00  0.00    -0.248 NA
ATOM     40  C   UNL A   1      37.164  29.871  29.905  1.00  0.00     0.031 C 
ATOM     41  C   UNL A   1      40.482  31.682  32.008  1.00  0.00     0.029 A 
ATOM     42  N   UNL A   1      39.244  32.824  33.480  1.00  0.00    -0.354 N 
ATOM     43  C   UNL A   1      39.063  28.605  29.904  1.00  0.00     0.074 A 
ATOM     44  C   UNL A   1      37.778  28.848  29.312  1.00  0.00     0.031 C 
ATOM     45  C   UNL A   1      41.331  32.212  32.905  1.00  0.00     0.029 A 
ATOM     46  C   UNL A   1      40.539  32.700  34.015  1.00  0.00     0.049 A 
ATOM     47  H   UNL A   1      38.553  33.450  33.796  1.00  0.00     0.167 HD
ATOM     48  C   UNL A   1      40.225  28.003  29.522  1.00  0.00     0.037 A 
ATOM     49  C   UNL A   1      40.749  32.480  35.341  1.00  0.00     0.037 A 
ATOM     50  C   UNL A   1      41.282  28.289  30.501  1.00  0.00     0.049 A 
ATOM     51  C   UNL A   1      41.378  31.131  35.507  1.00  0.00     0.074 A 
ATOM     52  C   UNL A   1      42.375  29.141  30.477  1.00  0.00     0.029 A 
ATOM     53  N   UNL A   1      41.123  27.893  31.826  1.00  0.00    -0.354 N 
ATOM     54  N   UNL A   1      41.284  30.219  34.580  1.00  0.00    -0.248 NA
ATOM     55  C   UNL A   1      42.206  30.702  36.628  1.00  0.00     0.031 C 
ATOM     56  C   UNL A   1      42.872  29.251  31.802  1.00  0.00     0.029 A 
ATOM     57  C   UNL A   1      42.093  28.456  32.630  1.00  0.00     0.049 A 
ATOM     58  H   UNL A   1      40.412  27.292  32.147  1.00  0.00     0.167 HD
ATOM     59  C   UNL A   1      42.054  29.151  34.906  1.00  0.00     0.074 A 
ATOM     60  C   UNL A   1      42.578  29.473  36.220  1.00  0.00     0.031 C 
ATOM     61  C   UNL A   1      42.196  28.108  34.042  1.00  0.00     0.037 A 
BRANCH  48  62
ATOM     62  C   UNL A   1      40.525  27.368  28.173  1.00  0.00     0.057 A 
ATOM     63  C   UNL A   1      40.066  26.062  27.896  1.00  0.00     0.134 A 
ATOM     64  C   UNL A   1      41.267  27.933  27.118  1.00  0.00     0.134 A 
ATOM     65  F   UNL A   1      39.278  25.393  28.749  1.00  0.00    -0.206 F 
ATOM     66  C   UNL A   1      40.376  25.365  26.719  1.00  0.00     0.040 A 
ATOM     67  C   UNL A   1      41.591  27.245  25.938  1.00  0.00     0.040 A 
ATOM     68  F   UNL A   1      41.699  29.193  27.129  1.00  0.00    -0.206 F 
ATOM     69  C   UNL A   1      41.154  25.950  25.737  1.00  0.00     0.006 A 
ENDBRANCH  48  62
BRANCH  49  70
ATOM     70  C   UNL A   1      39.716  33.142  36.186  1.00  0.00     0.057 A 
ATOM     71  C   UNL A   1      38.721  32.312  36.740  1.00  0.00     0.134 A 
ATOM     72  C   UNL A   1      40.009  34.324  36.878  1.00  0.00     0.134 A 
ATOM     73  F   UNL A   1      38.382  31.165  36.130  1.00  0.00    -0.206 F 
ATOM     74  C   UNL A   1      38.160  32.566  37.996  1.00  0.00     0.040 A 
ATOM     75  C   UNL A   1      39.476  34.570  38.151  1.00  0.00     0.040 A 
ATOM     76  F   UNL A   1      40.948  35.163  36.419  1.00  0.00    -0.206 F 
ATOM     77  C   UNL A   1      38.580  33.672  38.729  1.00  0.00     0.006 A 
ENDBRANCH  49  70
BRANCH  61  78
ATOM     78  C   UNL A   1      42.542  26.703  34.440  1.00  0.00     0.057 A 
ATOM     79  C   UNL A   1      43.664  26.014  33.957  1.00  0.00     0.134 A 
ATOM     80  C   UNL A   1      41.845  26.052  35.483  1.00  0.00     0.134 A 
ATOM     81  F   UNL A   1      44.501  26.560  33.064  1.00  0.00    -0.206 F 
ATOM     82  C   UNL A   1      44.017  24.743  34.417  1.00  0.00     0.040 A 
ATOM     83  C   UNL A   1      42.230  24.815  35.997  1.00  0.00     0.040 A 
ATOM     84  F   UNL A   1      40.777  26.600  36.081  1.00  0.00    -0.206 F 
ATOM     85  C   UNL A   1      43.307  24.144  35.446  1.00  0.00     0.006 A 
ENDBRANCH  61  78
ENDBRANCH  35  36
ENDBRANCH  28  30
ENDBRANCH  27  28
ENDBRANCH  26  27
ENDBRANCH  25  26
ENDBRANCH   1  25
TORSDOF 16
ENDMDL
MODEL 2
REMARK VINA RESULT:     -11.9      5.346     11.075
REMARK SMILES Cc1ccc(Oc2cc(C(=O)OCCOCCOC(=O)c3ccc(-c4c5nc(c(-c6c(F)cccc6F)c6ccc([nH]6)c(-c6c(F)cccc6F)c6nc(c(-c7c(F)cccc7F)c7ccc4[nH]7)C=C6)C=C5)cc3)nc3ccccc23)cc1
REMARK SMILES IDX 15 1 14 2 13 3 12 4 10 5 11 6 9 7 7 8 8 9 81 10 76 11 80 12
REMARK SMILES IDX 75 13 77 14 79 15 78 16 6 17 5 18 1 19 2 20 3 21 83 22 4 23
REMARK SMILES IDX 82 24 16 25 17 26 18 27 19 28 20 29 21 30 22 31 74 32 23 33
REMARK SMILES IDX 73 34 24 35 25 36 26 37 67 38 27 39 72 40 66 41 68 42 28 43
REMARK SMILES IDX 71 44 65 45 64 46 29 48 55 49 38 50 54 51 39 52 42 53 53 54
REMARK SMILES IDX 69 55 40 56 41 57 52 59 70 60 43 61 30 62 31 63 36 64 32 65
REMARK SMILES IDX 33 66 35 67 37 68 34 69 56 70 57 71 62 72 58 73 59 74 61 75
REMARK SMILES IDX 63 76 60 77 44 78 45 79 50 80 46 81 47 82 49 83 51 84 48 85
REMARK H PARENT 68 47 42 58
REMARK Flexibility Score: inf
ROOT
ATOM      1  O   UNL A   1      41.544  19.588  25.542  1.00  0.00    -0.374 OA
ENDROOT
BRANCH   1   2
ATOM      2  C   UNL A   1      40.452  19.888  26.388  1.00  0.00     0.202 C 
BRANCH   2   3
ATOM      3  C   UNL A   1      40.057  21.307  26.089  1.00  0.00     0.261 C 
BRANCH   3   4
ATOM      4  O   UNL A   1      38.699  21.408  25.628  1.00  0.00    -0.459 OA
BRANCH   4   5
ATOM      5  C   UNL A   1      37.919  22.501  25.887  1.00  0.00     0.357 C 
ATOM      6  O   UNL A   1      38.232  23.641  26.128  1.00  0.00    -0.244 OA
BRANCH   5   7
ATOM      7  C   UNL A   1      36.528  22.048  25.716  1.00  0.00     0.152 A 
ATOM      8  C   UNL A   1      34.222  22.434  25.631  1.00  0.00     0.139 A 
ATOM      9  C   UNL A   1      35.488  22.928  25.903  1.00  0.00     0.084 A 
ATOM     10  C   UNL A   1      34.029  21.114  25.143  1.00  0.00     0.043 A 
ATOM     11  C   UNL A   1      35.180  20.324  25.013  1.00  0.00     0.075 A 
ATOM     12  C   UNL A   1      32.788  20.519  24.831  1.00  0.00     0.014 A 
ATOM     13  N   UNL A   1      36.389  20.774  25.283  1.00  0.00    -0.240 NA
ATOM     14  C   UNL A   1      35.105  19.007  24.613  1.00  0.00     0.029 A 
ATOM     15  C   UNL A   1      32.719  19.177  24.442  1.00  0.00     0.001 A 
ATOM     16  C   UNL A   1      33.880  18.419  24.335  1.00  0.00     0.002 A 
BRANCH   8  17
ATOM     17  O   UNL A   1      33.171  23.280  25.903  1.00  0.00    -0.457 OA
BRANCH  17  18
ATOM     18  C   UNL A   1      32.827  24.174  24.907  1.00  0.00     0.127 A 
ATOM     19  C   UNL A   1      31.176  27.025  22.155  1.00  0.00     0.044 C 
ATOM     20  C   UNL A   1      31.794  25.999  23.056  1.00  0.00    -0.051 A 
ATOM     21  C   UNL A   1      31.169  24.761  23.254  1.00  0.00     0.007 A 
ATOM     22  C   UNL A   1      32.987  26.278  23.725  1.00  0.00     0.007 A 
ATOM     23  C   UNL A   1      31.683  23.851  24.179  1.00  0.00     0.047 A 
ATOM     24  C   UNL A   1      33.511  25.363  24.633  1.00  0.00     0.047 A 
ENDBRANCH  17  18
ENDBRANCH   8  17
ENDBRANCH   5   7
ENDBRANCH   4   5
ENDBRANCH   3   4
ENDBRANCH   2   3
ENDBRANCH   1   2
BRANCH   1  25
ATOM     25  C   UNL A   1      42.363  18.508  25.927  1.00  0.00     0.202 C 
BRANCH  25  26
ATOM     26  C   UNL A   1      43.843  18.805  25.669  1.00  0.00     0.261 C 
BRANCH  26  27
ATOM     27  O   UNL A   1      43.982  19.798  24.626  1.00  0.00    -0.460 OA
BRANCH  27  28
ATOM     28  C   UNL A   1      44.815  20.846  24.895  1.00  0.00     0.338 C 
ATOM     29  O   UNL A   1      46.024  20.762  25.040  1.00  0.00    -0.246 OA
BRANCH  28  30
ATOM     30  C   UNL A   1      44.017  22.057  25.258  1.00  0.00     0.060 A 
ATOM     31  C   UNL A   1      43.876  23.124  24.345  1.00  0.00     0.016 A 
ATOM     32  C   UNL A   1      43.752  22.264  26.603  1.00  0.00     0.016 A 
ATOM     33  C   UNL A   1      43.658  24.435  24.811  1.00  0.00     0.010 A 
ATOM     34  C   UNL A   1      43.702  23.562  27.054  1.00  0.00     0.010 A 
ATOM     35  C   UNL A   1      43.667  24.665  26.182  1.00  0.00    -0.014 A 
BRANCH  35  36
ATOM     36  C   UNL A   1      43.681  25.962  26.873  1.00  0.00     0.031 A 
ATOM     37  C   UNL A   1      42.368  26.622  27.101  1.00  0.00     0.074 A 
ATOM     38  C   UNL A   1      44.762  26.421  27.555  1.00  0.00     0.049 A 
ATOM     39  N   UNL A   1      42.235  27.846  27.483  1.00  0.00    -0.248 NA
ATOM     40  C   UNL A   1      41.075  25.984  26.857  1.00  0.00     0.031 C 
ATOM     41  C   UNL A   1      44.744  27.246  28.769  1.00  0.00     0.029 A 
ATOM     42  N   UNL A   1      46.127  26.189  27.365  1.00  0.00    -0.354 N 
ATOM     43  C   UNL A   1      40.930  28.014  27.891  1.00  0.00     0.074 A 
ATOM     44  C   UNL A   1      40.225  26.897  27.329  1.00  0.00     0.031 C 
ATOM     45  C   UNL A   1      45.991  27.643  29.076  1.00  0.00     0.029 A 
ATOM     46  C   UNL A   1      46.861  27.204  28.004  1.00  0.00     0.049 A 
ATOM     47  H   UNL A   1      46.513  25.434  26.863  1.00  0.00     0.167 HD
ATOM     48  C   UNL A   1      40.656  28.998  28.793  1.00  0.00     0.037 A 
ATOM     49  C   UNL A   1      47.794  27.940  27.342  1.00  0.00     0.037 A 
ATOM     50  C   UNL A   1      41.888  29.723  29.134  1.00  0.00     0.049 A 
ATOM     51  C   UNL A   1      47.329  29.363  27.290  1.00  0.00     0.074 A 
ATOM     52  C   UNL A   1      42.707  29.703  30.252  1.00  0.00     0.029 A 
ATOM     53  N   UNL A   1      42.601  30.379  28.136  1.00  0.00    -0.354 N 
ATOM     54  N   UNL A   1      46.073  29.673  27.449  1.00  0.00    -0.248 NA
ATOM     55  C   UNL A   1      48.180  30.539  27.146  1.00  0.00     0.031 C 
ATOM     56  C   UNL A   1      43.921  30.357  29.914  1.00  0.00     0.029 A 
ATOM     57  C   UNL A   1      43.836  30.787  28.598  1.00  0.00     0.049 A 
ATOM     58  H   UNL A   1      42.270  30.531  27.221  1.00  0.00     0.167 HD
ATOM     59  C   UNL A   1      45.936  31.022  27.504  1.00  0.00     0.074 A 
ATOM     60  C   UNL A   1      47.274  31.530  27.262  1.00  0.00     0.031 C 
ATOM     61  C   UNL A   1      44.726  31.587  27.765  1.00  0.00     0.037 A 
BRANCH  48  62
ATOM     62  C   UNL A   1      39.367  29.184  29.581  1.00  0.00     0.057 A 
ATOM     63  C   UNL A   1      39.218  28.557  30.837  1.00  0.00     0.134 A 
ATOM     64  C   UNL A   1      38.231  29.915  29.185  1.00  0.00     0.134 A 
ATOM     65  F   UNL A   1      40.221  27.882  31.415  1.00  0.00    -0.206 F 
ATOM     66  C   UNL A   1      38.033  28.596  31.587  1.00  0.00     0.040 A 
ATOM     67  C   UNL A   1      37.037  29.957  29.920  1.00  0.00     0.040 A 
ATOM     68  F   UNL A   1      38.200  30.669  28.086  1.00  0.00    -0.206 F 
ATOM     69  C   UNL A   1      36.929  29.287  31.124  1.00  0.00     0.006 A 
ENDBRANCH  48  62
BRANCH  49  70
ATOM     70  C   UNL A   1      48.491  27.144  26.293  1.00  0.00     0.057 A 
ATOM     71  C   UNL A   1      48.125  27.396  24.956  1.00  0.00     0.134 A 
ATOM     72  C   UNL A   1      49.784  26.651  26.513  1.00  0.00     0.134 A 
ATOM     73  F   UNL A   1      46.900  27.865  24.668  1.00  0.00    -0.206 F 
ATOM     74  C   UNL A   1      49.048  27.312  23.908  1.00  0.00     0.040 A 
ATOM     75  C   UNL A   1      50.723  26.594  25.474  1.00  0.00     0.040 A 
ATOM     76  F   UNL A   1      50.209  26.392  27.757  1.00  0.00    -0.206 F 
ATOM     77  C   UNL A   1      50.368  26.962  24.177  1.00  0.00     0.006 A 
ENDBRANCH  49  70
BRANCH  61  78
ATOM     78  C   UNL A   1      44.314  32.969  27.349  1.00  0.00     0.057 A 
ATOM     79  C   UNL A   1      44.114  33.351  26.015  1.00  0.00     0.134 A 
ATOM     80  C   UNL A   1      43.919  33.927  28.310  1.00  0.00     0.134 A 
ATOM     81  F   UNL A   1      44.314  32.503  24.997  1.00  0.00    -0.206 F 
ATOM     82  C   UNL A   1      43.637  34.615  25.661  1.00  0.00     0.040 A 
ATOM     83  C   UNL A   1      43.376  35.165  27.969  1.00  0.00     0.040 A 
ATOM     84  F   UNL A   1      44.005  33.697  29.628  1.00  0.00    -0.206 F 
ATOM     85  C   UNL A   1      43.256  35.523  26.638  1.00  0.00     0.006 A 
ENDBRANCH  61  78
ENDBRANCH  35  36
ENDBRANCH  28  30
ENDBRANCH  27  28
ENDBRANCH  26  27
ENDBRANCH  25  26
ENDBRANCH   1  25
TORSDOF 16
ENDMDL
MODEL 3
REMARK VINA RESULT:     -11.8      2.916      4.999
REMARK SMILES Cc1ccc(Oc2cc(C(=O)OCCOCCOC(=O)c3ccc(-c4c5nc(c(-c6c(F)cccc6F)c6ccc([nH]6)c(-c6c(F)cccc6F)c6nc(c(-c7c(F)cccc7F)c7ccc4[nH]7)C=C6)C=C5)cc3)nc3ccccc23)cc1
REMARK SMILES IDX 15 1 14 2 13 3 12 4 10 5 11 6 9 7 7 8 8 9 81 10 76 11 80 12
REMARK SMILES IDX 75 13 77 14 79 15 78 16 6 17 5 18 1 19 2 20 3 21 83 22 4 23
REMARK SMILES IDX 82 24 16 25 17 26 18 27 19 28 20 29 21 30 22 31 74 32 23 33
REMARK SMILES IDX 73 34 24 35 25 36 26 37 67 38 27 39 72 40 66 41 68 42 28 43
REMARK SMILES IDX 71 44 65 45 64 46 29 48 55 49 38 50 54 51 39 52 42 53 53 54
REMARK SMILES IDX 69 55 40 56 41 57 52 59 70 60 43 61 30 62 31 63 36 64 32 65
REMARK SMILES IDX 33 66 35 67 37 68 34 69 56 70 57 71 62 72 58 73 59 74 61 75
REMARK SMILES IDX 63 76 60 77 44 78 45 79 50 80 46 81 47 82 49 83 51 84 48 85
REMARK H PARENT 68 47 42 58
REMARK Flexibility Score: inf
ROOT
ATOM      1  O   UNL A   1      31.720  28.779  27.020  1.00  0.00    -0.374 OA
ENDROOT
BRANCH   1   2
ATOM      2  C   UNL A   1      32.113  27.876  26.005  1.00  0.00     0.202 C 
BRANCH   2   3
ATOM      3  C   UNL A   1      31.129  26.742  26.039  1.00  0.00     0.261 C 
BRANCH   3   4
ATOM      4  O   UNL A   1      31.567  25.665  26.886  1.00  0.00    -0.459 OA
BRANCH   4   5
ATOM      5  C   UNL A   1      31.128  24.381  26.722  1.00  0.00     0.357 C 
ATOM      6  O   UNL A   1      30.103  23.857  27.082  1.00  0.00    -0.244 OA
BRANCH   5   7
ATOM      7  C   UNL A   1      32.143  23.716  25.887  1.00  0.00     0.152 A 
ATOM      8  C   UNL A   1      32.778  22.298  24.137  1.00  0.00     0.139 A 
ATOM      9  C   UNL A   1      31.761  22.802  24.933  1.00  0.00     0.084 A 
ATOM     10  C   UNL A   1      34.119  22.743  24.276  1.00  0.00     0.043 A 
ATOM     11  C   UNL A   1      34.365  23.669  25.300  1.00  0.00     0.075 A 
ATOM     12  C   UNL A   1      35.222  22.300  23.516  1.00  0.00     0.014 A 
ATOM     13  N   UNL A   1      33.412  24.145  26.075  1.00  0.00    -0.240 NA
ATOM     14  C   UNL A   1      35.640  24.119  25.570  1.00  0.00     0.029 A 
ATOM     15  C   UNL A   1      36.514  22.749  23.807  1.00  0.00     0.001 A 
ATOM     16  C   UNL A   1      36.724  23.658  24.838  1.00  0.00     0.002 A 
BRANCH   8  17
ATOM     17  O   UNL A   1      32.415  21.317  23.243  1.00  0.00    -0.457 OA
BRANCH  17  18
ATOM     18  C   UNL A   1      32.487  20.014  23.698  1.00  0.00     0.127 A 
ATOM     19  C   UNL A   1      33.271  15.922  24.731  1.00  0.00     0.044 C 
ATOM     20  C   UNL A   1      32.921  17.336  24.381  1.00  0.00    -0.051 A 
ATOM     21  C   UNL A   1      32.652  17.693  23.055  1.00  0.00     0.007 A 
ATOM     22  C   UNL A   1      32.883  18.317  25.375  1.00  0.00     0.007 A 
ATOM     23  C   UNL A   1      32.438  19.030  22.712  1.00  0.00     0.047 A 
ATOM     24  C   UNL A   1      32.649  19.646  25.038  1.00  0.00     0.047 A 
ENDBRANCH  17  18
ENDBRANCH   8  17
ENDBRANCH   5   7
ENDBRANCH   4   5
ENDBRANCH   3   4
ENDBRANCH   2   3
ENDBRANCH   1   2
BRANCH   1  25
ATOM     25  C   UNL A   1      32.115  30.123  26.857  1.00  0.00     0.202 C 
BRANCH  25  26
ATOM     26  C   UNL A   1      33.638  30.271  26.917  1.00  0.00     0.261 C 
BRANCH  26  27
ATOM     27  O   UNL A   1      34.009  31.239  27.927  1.00  0.00    -0.460 OA
BRANCH  27  28
ATOM     28  C   UNL A   1      35.329  31.591  27.971  1.00  0.00     0.338 C 
ATOM     29  O   UNL A   1      35.776  32.676  27.636  1.00  0.00    -0.246 OA
BRANCH  28  30
ATOM     30  C   UNL A   1      36.175  30.385  28.223  1.00  0.00     0.060 A 
ATOM     31  C   UNL A   1      36.204  29.783  29.499  1.00  0.00     0.016 A 
ATOM     32  C   UNL A   1      37.186  30.117  27.314  1.00  0.00     0.016 A 
ATOM     33  C   UNL A   1      37.341  29.069  29.924  1.00  0.00     0.010 A 
ATOM     34  C   UNL A   1      38.349  29.561  27.793  1.00  0.00     0.010 A 
ATOM     35  C   UNL A   1      38.458  29.042  29.096  1.00  0.00    -0.014 A 
BRANCH  35  36
ATOM     36  C   UNL A   1      39.805  28.555  29.425  1.00  0.00     0.031 A 
ATOM     37  C   UNL A   1      40.202  27.234  28.871  1.00  0.00     0.074 A 
ATOM     38  C   UNL A   1      40.774  29.360  29.935  1.00  0.00     0.049 A 
ATOM     39  N   UNL A   1      41.246  26.579  29.249  1.00  0.00    -0.248 NA
ATOM     40  C   UNL A   1      39.422  26.490  27.881  1.00  0.00     0.031 C 
ATOM     41  C   UNL A   1      42.216  29.259  29.682  1.00  0.00     0.029 A 
ATOM     42  N   UNL A   1      40.684  30.501  30.735  1.00  0.00    -0.354 N 
ATOM     43  C   UNL A   1      41.470  25.584  28.323  1.00  0.00     0.074 A 
ATOM     44  C   UNL A   1      40.233  25.469  27.604  1.00  0.00     0.031 C 
ATOM     45  C   UNL A   1      42.884  30.115  30.473  1.00  0.00     0.029 A 
ATOM     46  C   UNL A   1      41.920  30.718  31.371  1.00  0.00     0.049 A 
ATOM     47  H   UNL A   1      39.882  31.064  30.839  1.00  0.00     0.167 HD
ATOM     48  C   UNL A   1      42.738  25.104  28.183  1.00  0.00     0.037 A 
ATOM     49  C   UNL A   1      42.019  30.855  32.721  1.00  0.00     0.037 A 
ATOM     50  C   UNL A   1      43.637  25.780  29.128  1.00  0.00     0.049 A 
ATOM     51  C   UNL A   1      42.810  29.703  33.260  1.00  0.00     0.074 A 
ATOM     52  C   UNL A   1      44.596  26.767  28.965  1.00  0.00     0.029 A 
ATOM     53  N   UNL A   1      43.397  25.689  30.496  1.00  0.00    -0.354 N 
ATOM     54  N   UNL A   1      42.941  28.595  32.586  1.00  0.00    -0.248 NA
ATOM     55  C   UNL A   1      43.568  29.692  34.506  1.00  0.00     0.031 C 
ATOM     56  C   UNL A   1      44.931  27.266  30.251  1.00  0.00     0.029 A 
ATOM     57  C   UNL A   1      44.189  26.575  31.197  1.00  0.00     0.049 A 
ATOM     58  H   UNL A   1      42.748  25.074  30.908  1.00  0.00     0.167 HD
ATOM     59  C   UNL A   1      43.815  27.773  33.219  1.00  0.00     0.074 A 
ATOM     60  C   UNL A   1      44.149  28.477  34.444  1.00  0.00     0.031 C 
ATOM     61  C   UNL A   1      44.191  26.593  32.655  1.00  0.00     0.037 A 
BRANCH  48  62
ATOM     62  C   UNL A   1      43.264  24.225  27.058  1.00  0.00     0.057 A 
ATOM     63  C   UNL A   1      43.799  24.821  25.896  1.00  0.00     0.134 A 
ATOM     64  C   UNL A   1      43.261  22.818  27.012  1.00  0.00     0.134 A 
ATOM     65  F   UNL A   1      43.957  26.148  25.789  1.00  0.00    -0.206 F 
ATOM     66  C   UNL A   1      44.219  24.091  24.774  1.00  0.00     0.040 A 
ATOM     67  C   UNL A   1      43.671  22.075  25.894  1.00  0.00     0.040 A 
ATOM     68  F   UNL A   1      42.901  22.058  28.046  1.00  0.00    -0.206 F 
ATOM     69  C   UNL A   1      44.144  22.711  24.762  1.00  0.00     0.006 A 
ENDBRANCH  48  62
BRANCH  49  70
ATOM     70  C   UNL A   1      40.821  31.522  33.302  1.00  0.00     0.057 A 
ATOM     71  C   UNL A   1      39.891  30.695  33.964  1.00  0.00     0.134 A 
ATOM     72  C   UNL A   1      40.876  32.862  33.709  1.00  0.00     0.134 A 
ATOM     73  F   UNL A   1      39.777  29.401  33.624  1.00  0.00    -0.206 F 
ATOM     74  C   UNL A   1      39.168  31.137  35.077  1.00  0.00     0.040 A 
ATOM     75  C   UNL A   1      40.179  33.304  34.842  1.00  0.00     0.040 A 
ATOM     76  F   UNL A   1      41.739  33.710  33.133  1.00  0.00    -0.206 F 
ATOM     77  C   UNL A   1      39.354  32.432  35.551  1.00  0.00     0.006 A 
ENDBRANCH  49  70
BRANCH  61  78
ATOM     78  C   UNL A   1      44.687  25.396  33.413  1.00  0.00     0.057 A 
ATOM     79  C   UNL A   1      46.022  24.967  33.398  1.00  0.00     0.134 A 
ATOM     80  C   UNL A   1      43.858  24.735  34.347  1.00  0.00     0.134 A 
ATOM     81  F   UNL A   1      46.958  25.585  32.664  1.00  0.00    -0.206 F 
ATOM     82  C   UNL A   1      46.478  23.909  34.189  1.00  0.00     0.040 A 
ATOM     83  C   UNL A   1      44.319  23.726  35.191  1.00  0.00     0.040 A 
ATOM     84  F   UNL A   1      42.568  25.059  34.515  1.00  0.00    -0.206 F 
ATOM     85  C   UNL A   1      45.630  23.291  35.096  1.00  0.00     0.006 A 
ENDBRANCH  61  78
ENDBRANCH  35  36
ENDBRANCH  28  30
ENDBRANCH  27  28
ENDBRANCH  26  27
ENDBRANCH  25  26
ENDBRANCH   1  25
TORSDOF 16
ENDMDL
