MODEL 1
REMARK VINA RESULT:      -8.5      0.000      0.000
REMARK SMILES COCCNc1cc(C)nc2cc(C(=O)OCCOCCOC(=O)c3ccc(-c4c5nc(c(-c6c(F)cccc6F)c6ccc([nH]6)c(-c6c(F)cccc6F)c6nc(c(-c7c(F)cccc7F)c7ccc4[nH]7)C=C6)C=C5)cc3)ccc12
REMARK SMILES IDX 18 1 17 2 16 3 14 4 15 5 13 6 6 7 7 8 81 9 8 10 11 11 80 12
REMARK SMILES IDX 9 13 10 14 12 15 79 16 5 17 4 19 3 20 2 21 1 22 19 23 20 24
REMARK SMILES IDX 21 25 22 26 23 27 24 28 25 29 26 30 78 31 27 32 77 33 28 34
REMARK SMILES IDX 29 35 30 36 71 37 31 38 76 39 70 40 72 41 32 42 75 43 69 44
REMARK SMILES IDX 68 45 33 47 59 48 42 49 58 50 43 51 46 52 57 53 73 54 44 55
REMARK SMILES IDX 45 56 56 58 74 59 47 60 34 61 35 62 40 63 36 64 37 65 39 66
REMARK SMILES IDX 41 67 38 68 60 69 61 70 66 71 62 72 63 73 65 74 67 75 64 76
REMARK SMILES IDX 48 77 49 78 54 79 50 80 51 81 53 82 55 83 52 84
REMARK H PARENT 5 18 72 46 46 57
REMARK Flexibility Score: inf
ROOT
ATOM      1  C   UNL A   1      46.379  21.618  24.319  1.00  0.00     0.202 C 
ENDROOT
BRANCH   1   2
ATOM      2  C   UNL A   1      45.598  22.924  24.151  1.00  0.00     0.261 C 
BRANCH   2   3
ATOM      3  O   UNL A   1      46.480  24.060  24.168  1.00  0.00    -0.460 OA
BRANCH   3   4
ATOM      4  C   UNL A   1      46.822  24.488  25.404  1.00  0.00     0.338 C 
ATOM      5  O   UNL A   1      47.658  23.992  26.147  1.00  0.00    -0.246 OA
BRANCH   4   6
ATOM      6  C   UNL A   1      46.167  25.774  25.713  1.00  0.00     0.062 A 
ATOM      7  C   UNL A   1      44.331  29.309  27.053  1.00  0.00     0.045 A 
ATOM      8  C   UNL A   1      42.992  29.510  26.724  1.00  0.00     0.049 A 
ATOM      9  C   UNL A   1      44.985  28.168  26.542  1.00  0.00     0.023 A 
ATOM     10  C   UNL A   1      42.333  28.563  25.952  1.00  0.00     0.040 A 
ATOM     11  C   UNL A   1      44.233  27.243  25.782  1.00  0.00     0.073 A 
ATOM     12  C   UNL A   1      46.341  27.903  26.813  1.00  0.00     0.013 A 
ATOM     13  C   UNL A   1      40.888  28.749  25.589  1.00  0.00     0.067 C 
ATOM     14  N   UNL A   1      42.940  27.448  25.482  1.00  0.00    -0.253 NA
ATOM     15  C   UNL A   1      44.843  26.063  25.362  1.00  0.00     0.044 A 
ATOM     16  C   UNL A   1      46.925  26.709  26.416  1.00  0.00     0.016 A 
BRANCH   7  17
ATOM     17  N   UNL A   1      45.022  30.261  27.795  1.00  0.00    -0.382 N 
ATOM     18  H   UNL A   1      45.700  29.969  28.446  1.00  0.00     0.160 HD
BRANCH  17  19
ATOM     19  C   UNL A   1      44.756  31.685  27.622  1.00  0.00     0.141 C 
BRANCH  19  20
ATOM     20  C   UNL A   1      45.359  32.216  26.312  1.00  0.00     0.181 C 
BRANCH  20  21
ATOM     21  O   UNL A   1      45.517  33.640  26.303  1.00  0.00    -0.383 OA
ATOM     22  C   UNL A   1      44.364  34.336  25.855  1.00  0.00     0.194 C 
ENDBRANCH  20  21
ENDBRANCH  19  20
ENDBRANCH  17  19
ENDBRANCH   7  17
ENDBRANCH   4   6
ENDBRANCH   3   4
ENDBRANCH   2   3
ENDBRANCH   1   2
BRANCH   1  23
ATOM     23  O   UNL A   1      45.968  20.778  25.398  1.00  0.00    -0.374 OA
BRANCH  23  24
ATOM     24  C   UNL A   1      45.803  19.388  25.112  1.00  0.00     0.202 C 
BRANCH  24  25
ATOM     25  C   UNL A   1      44.360  18.870  25.094  1.00  0.00     0.261 C 
BRANCH  25  26
ATOM     26  O   UNL A   1      43.416  19.940  24.904  1.00  0.00    -0.460 OA
BRANCH  26  27
ATOM     27  C   UNL A   1      42.356  19.919  25.741  1.00  0.00     0.338 C 
ATOM     28  O   UNL A   1      41.651  18.957  26.022  1.00  0.00    -0.246 OA
BRANCH  27  29
ATOM     29  C   UNL A   1      42.238  21.209  26.445  1.00  0.00     0.060 A 
ATOM     30  C   UNL A   1      42.420  22.373  25.686  1.00  0.00     0.016 A 
ATOM     31  C   UNL A   1      42.033  21.286  27.824  1.00  0.00     0.016 A 
ATOM     32  C   UNL A   1      42.470  23.615  26.315  1.00  0.00     0.010 A 
ATOM     33  C   UNL A   1      42.092  22.532  28.455  1.00  0.00     0.010 A 
ATOM     34  C   UNL A   1      42.356  23.695  27.708  1.00  0.00    -0.014 A 
BRANCH  34  35
ATOM     35  C   UNL A   1      42.705  24.965  28.390  1.00  0.00     0.031 A 
ATOM     36  C   UNL A   1      41.629  25.999  28.582  1.00  0.00     0.074 A 
ATOM     37  C   UNL A   1      43.941  25.178  28.871  1.00  0.00     0.049 A 
ATOM     38  N   UNL A   1      41.702  27.182  29.138  1.00  0.00    -0.248 NA
ATOM     39  C   UNL A   1      40.291  25.653  28.077  1.00  0.00     0.031 C 
ATOM     40  C   UNL A   1      45.057  24.239  28.783  1.00  0.00     0.029 A 
ATOM     41  N   UNL A   1      44.462  26.262  29.530  1.00  0.00    -0.354 N 
ATOM     42  C   UNL A   1      40.426  27.722  29.044  1.00  0.00     0.074 A 
ATOM     43  C   UNL A   1      39.605  26.752  28.349  1.00  0.00     0.031 C 
ATOM     44  C   UNL A   1      46.138  24.792  29.361  1.00  0.00     0.029 A 
ATOM     45  C   UNL A   1      45.794  26.132  29.836  1.00  0.00     0.049 A 
ATOM     46  H   UNL A   1      43.932  27.058  29.762  1.00  0.00     0.167 HD
ATOM     47  C   UNL A   1      39.973  28.912  29.502  1.00  0.00     0.037 A 
ATOM     48  C   UNL A   1      46.640  27.001  30.420  1.00  0.00     0.037 A 
ATOM     49  C   UNL A   1      40.788  29.876  30.195  1.00  0.00     0.049 A 
ATOM     50  C   UNL A   1      46.127  28.342  30.874  1.00  0.00     0.074 A 
ATOM     51  C   UNL A   1      40.421  31.108  30.707  1.00  0.00     0.029 A 
ATOM     52  N   UNL A   1      42.137  29.714  30.469  1.00  0.00    -0.354 N 
ATOM     53  N   UNL A   1      44.915  28.835  30.798  1.00  0.00    -0.248 NA
ATOM     54  C   UNL A   1      47.102  29.245  31.503  1.00  0.00     0.031 C 
ATOM     55  C   UNL A   1      41.559  31.710  31.255  1.00  0.00     0.029 A 
ATOM     56  C   UNL A   1      42.623  30.830  31.128  1.00  0.00     0.049 A 
ATOM     57  H   UNL A   1      42.671  28.921  30.230  1.00  0.00     0.167 HD
ATOM     58  C   UNL A   1      44.972  30.086  31.398  1.00  0.00     0.074 A 
ATOM     59  C   UNL A   1      46.338  30.276  31.840  1.00  0.00     0.031 C 
ATOM     60  C   UNL A   1      43.982  30.996  31.574  1.00  0.00     0.037 A 
BRANCH  47  61
ATOM     61  C   UNL A   1      38.533  29.247  29.244  1.00  0.00     0.057 A 
ATOM     62  C   UNL A   1      38.088  29.684  27.989  1.00  0.00     0.134 A 
ATOM     63  C   UNL A   1      37.578  29.115  30.259  1.00  0.00     0.134 A 
ATOM     64  F   UNL A   1      38.955  29.848  26.979  1.00  0.00    -0.206 F 
ATOM     65  C   UNL A   1      36.748  30.003  27.762  1.00  0.00     0.040 A 
ATOM     66  C   UNL A   1      36.231  29.407  30.036  1.00  0.00     0.040 A 
ATOM     67  F   UNL A   1      37.937  28.698  31.482  1.00  0.00    -0.206 F 
ATOM     68  C   UNL A   1      35.814  29.859  28.787  1.00  0.00     0.006 A 
ENDBRANCH  47  61
BRANCH  48  69
ATOM     69  C   UNL A   1      48.065  26.634  30.612  1.00  0.00     0.057 A 
ATOM     70  C   UNL A   1      48.464  25.793  31.657  1.00  0.00     0.134 A 
ATOM     71  C   UNL A   1      49.064  27.131  29.766  1.00  0.00     0.134 A 
ATOM     72  F   UNL A   1      47.557  25.306  32.515  1.00  0.00    -0.206 F 
ATOM     73  C   UNL A   1      49.807  25.473  31.864  1.00  0.00     0.040 A 
ATOM     74  C   UNL A   1      50.407  26.799  29.947  1.00  0.00     0.040 A 
ATOM     75  F   UNL A   1      48.745  27.942  28.745  1.00  0.00    -0.206 F 
ATOM     76  C   UNL A   1      50.782  25.972  31.004  1.00  0.00     0.006 A 
ENDBRANCH  48  69
BRANCH  60  77
ATOM     77  C   UNL A   1      44.325  32.254  32.318  1.00  0.00     0.057 A 
ATOM     78  C   UNL A   1      44.800  33.398  31.665  1.00  0.00     0.134 A 
ATOM     79  C   UNL A   1      44.140  32.330  33.704  1.00  0.00     0.134 A 
ATOM     80  F   UNL A   1      45.009  33.386  30.340  1.00  0.00    -0.206 F 
ATOM     81  C   UNL A   1      45.102  34.565  32.368  1.00  0.00     0.040 A 
ATOM     82  C   UNL A   1      44.414  33.500  34.415  1.00  0.00     0.040 A 
ATOM     83  F   UNL A   1      43.679  31.273  34.389  1.00  0.00    -0.206 F 
ATOM     84  C   UNL A   1      44.902  34.620  33.746  1.00  0.00     0.006 A 
ENDBRANCH  60  77
ENDBRANCH  34  35
ENDBRANCH  27  29
ENDBRANCH  26  27
ENDBRANCH  25  26
ENDBRANCH  24  25
ENDBRANCH  23  24
ENDBRANCH   1  23
TORSDOF 18
ENDMDL
MODEL 2
REMARK VINA RESULT:      -8.4      0.458      6.243
REMARK SMILES COCCNc1cc(C)nc2cc(C(=O)OCCOCCOC(=O)c3ccc(-c4c5nc(c(-c6c(F)cccc6F)c6ccc([nH]6)c(-c6c(F)cccc6F)c6nc(c(-c7c(F)cccc7F)c7ccc4[nH]7)C=C6)C=C5)cc3)ccc12
REMARK SMILES IDX 18 1 17 2 16 3 14 4 15 5 13 6 6 7 7 8 81 9 8 10 11 11 80 12
REMARK SMILES IDX 9 13 10 14 12 15 79 16 5 17 4 19 3 20 2 21 1 22 19 23 20 24
REMARK SMILES IDX 21 25 22 26 23 27 24 28 25 29 26 30 78 31 27 32 77 33 28 34
REMARK SMILES IDX 29 35 30 36 71 37 31 38 76 39 70 40 72 41 32 42 75 43 69 44
REMARK SMILES IDX 68 45 33 47 59 48 42 49 58 50 43 51 46 52 57 53 73 54 44 55
REMARK SMILES IDX 45 56 56 58 74 59 47 60 34 61 35 62 40 63 36 64 37 65 39 66
REMARK SMILES IDX 41 67 38 68 60 69 61 70 66 71 62 72 63 73 65 74 67 75 64 76
REMARK SMILES IDX 48 77 49 78 54 79 50 80 51 81 53 82 55 83 52 84
REMARK H PARENT 5 18 72 46 46 57
REMARK Flexibility Score: inf
ROOT
ATOM      1  C   UNL A   1      46.489  21.657  24.310  1.00  0.00     0.202 C 
ENDROOT
BRANCH   1   2
ATOM      2  C   UNL A   1      45.577  22.885  24.229  1.00  0.00     0.261 C 
BRANCH   2   3
ATOM      3  O   UNL A   1      46.345  24.100  24.209  1.00  0.00    -0.460 OA
BRANCH   3   4
ATOM      4  C   UNL A   1      46.720  24.549  25.428  1.00  0.00     0.338 C 
ATOM      5  O   UNL A   1      47.582  24.072  26.153  1.00  0.00    -0.246 OA
BRANCH   4   6
ATOM      6  C   UNL A   1      46.062  25.834  25.738  1.00  0.00     0.062 A 
ATOM      7  C   UNL A   1      44.223  29.366  27.081  1.00  0.00     0.045 A 
ATOM      8  C   UNL A   1      42.881  29.561  26.761  1.00  0.00     0.049 A 
ATOM      9  C   UNL A   1      44.878  28.226  26.569  1.00  0.00     0.023 A 
ATOM     10  C   UNL A   1      42.220  28.610  25.996  1.00  0.00     0.040 A 
ATOM     11  C   UNL A   1      44.124  27.296  25.816  1.00  0.00     0.073 A 
ATOM     12  C   UNL A   1      46.236  27.966  26.831  1.00  0.00     0.013 A 
ATOM     13  C   UNL A   1      40.773  28.790  25.642  1.00  0.00     0.067 C 
ATOM     14  N   UNL A   1      42.828  27.495  25.525  1.00  0.00    -0.253 NA
ATOM     15  C   UNL A   1      44.735  26.117  25.395  1.00  0.00     0.044 A 
ATOM     16  C   UNL A   1      46.822  26.773  26.433  1.00  0.00     0.016 A 
BRANCH   7  17
ATOM     17  N   UNL A   1      44.916  30.322  27.816  1.00  0.00    -0.382 N 
ATOM     18  H   UNL A   1      45.318  30.073  28.679  1.00  0.00     0.160 HD
BRANCH  17  19
ATOM     19  C   UNL A   1      45.054  31.689  27.326  1.00  0.00     0.141 C 
BRANCH  19  20
ATOM     20  C   UNL A   1      46.167  31.799  26.270  1.00  0.00     0.181 C 
BRANCH  20  21
ATOM     21  O   UNL A   1      46.668  33.133  26.119  1.00  0.00    -0.383 OA
ATOM     22  C   UNL A   1      46.677  33.876  27.329  1.00  0.00     0.194 C 
ENDBRANCH  20  21
ENDBRANCH  19  20
ENDBRANCH  17  19
ENDBRANCH   7  17
ENDBRANCH   4   6
ENDBRANCH   3   4
ENDBRANCH   2   3
ENDBRANCH   1   2
BRANCH   1  23
ATOM     23  O   UNL A   1      46.216  20.745  25.373  1.00  0.00    -0.374 OA
BRANCH  23  24
ATOM     24  C   UNL A   1      46.071  19.367  25.023  1.00  0.00     0.202 C 
BRANCH  24  25
ATOM     25  C   UNL A   1      44.639  18.817  25.029  1.00  0.00     0.261 C 
BRANCH  25  26
ATOM     26  O   UNL A   1      43.668  19.873  24.922  1.00  0.00    -0.460 OA
BRANCH  26  27
ATOM     27  C   UNL A   1      42.619  19.769  25.767  1.00  0.00     0.338 C 
ATOM     28  O   UNL A   1      42.011  18.750  26.074  1.00  0.00    -0.246 OA
BRANCH  27  29
ATOM     29  C   UNL A   1      42.380  21.057  26.443  1.00  0.00     0.060 A 
ATOM     30  C   UNL A   1      42.566  22.223  25.689  1.00  0.00     0.016 A 
ATOM     31  C   UNL A   1      42.060  21.134  27.801  1.00  0.00     0.016 A 
ATOM     32  C   UNL A   1      42.503  23.470  26.305  1.00  0.00     0.010 A 
ATOM     33  C   UNL A   1      42.005  22.387  28.420  1.00  0.00     0.010 A 
ATOM     34  C   UNL A   1      42.272  23.555  27.683  1.00  0.00    -0.014 A 
BRANCH  34  35
ATOM     35  C   UNL A   1      42.501  24.846  28.376  1.00  0.00     0.031 A 
ATOM     36  C   UNL A   1      43.875  25.145  28.910  1.00  0.00     0.074 A 
ATOM     37  C   UNL A   1      41.519  25.756  28.490  1.00  0.00     0.049 A 
ATOM     38  N   UNL A   1      44.306  26.199  29.557  1.00  0.00    -0.248 NA
ATOM     39  C   UNL A   1      44.902  24.115  28.685  1.00  0.00     0.031 C 
ATOM     40  C   UNL A   1      40.158  25.601  27.980  1.00  0.00     0.029 A 
ATOM     41  N   UNL A   1      41.521  26.996  29.077  1.00  0.00    -0.354 N 
ATOM     42  C   UNL A   1      45.648  25.956  29.822  1.00  0.00     0.074 A 
ATOM     43  C   UNL A   1      45.953  24.643  29.294  1.00  0.00     0.031 C 
ATOM     44  C   UNL A   1      39.451  26.704  28.285  1.00  0.00     0.029 A 
ATOM     45  C   UNL A   1      40.304  27.629  29.031  1.00  0.00     0.049 A 
ATOM     46  H   UNL A   1      42.320  27.394  29.492  1.00  0.00     0.167 HD
ATOM     47  C   UNL A   1      46.548  26.756  30.438  1.00  0.00     0.037 A 
ATOM     48  C   UNL A   1      39.921  28.812  29.545  1.00  0.00     0.037 A 
ATOM     49  C   UNL A   1      46.245  28.063  30.961  1.00  0.00     0.049 A 
ATOM     50  C   UNL A   1      40.926  29.663  30.275  1.00  0.00     0.074 A 
ATOM     51  C   UNL A   1      47.090  28.956  31.596  1.00  0.00     0.029 A 
ATOM     52  N   UNL A   1      44.995  28.660  30.910  1.00  0.00    -0.354 N 
ATOM     53  N   UNL A   1      42.197  29.434  30.503  1.00  0.00    -0.248 NA
ATOM     54  C   UNL A   1      40.444  30.944  30.813  1.00  0.00     0.031 C 
ATOM     55  C   UNL A   1      46.341  30.079  31.966  1.00  0.00     0.029 A 
ATOM     56  C   UNL A   1      45.041  29.904  31.517  1.00  0.00     0.049 A 
ATOM     57  H   UNL A   1      44.193  28.260  30.503  1.00  0.00     0.167 HD
ATOM     58  C   UNL A   1      42.672  30.551  31.176  1.00  0.00     0.074 A 
ATOM     59  C   UNL A   1      41.555  31.463  31.316  1.00  0.00     0.031 C 
ATOM     60  C   UNL A   1      43.923  30.805  31.634  1.00  0.00     0.037 A 
BRANCH  47  61
ATOM     61  C   UNL A   1      47.942  26.225  30.602  1.00  0.00     0.057 A 
ATOM     62  C   UNL A   1      48.315  25.457  31.713  1.00  0.00     0.134 A 
ATOM     63  C   UNL A   1      48.918  26.475  29.630  1.00  0.00     0.134 A 
ATOM     64  F   UNL A   1      47.432  25.196  32.688  1.00  0.00    -0.206 F 
ATOM     65  C   UNL A   1      49.618  24.976  31.861  1.00  0.00     0.040 A 
ATOM     66  C   UNL A   1      50.216  25.978  29.756  1.00  0.00     0.040 A 
ATOM     67  F   UNL A   1      48.626  27.202  28.542  1.00  0.00    -0.206 F 
ATOM     68  C   UNL A   1      50.571  25.233  30.878  1.00  0.00     0.006 A 
ENDBRANCH  47  61
BRANCH  48  69
ATOM     69  C   UNL A   1      38.517  29.269  29.390  1.00  0.00     0.057 A 
ATOM     70  C   UNL A   1      37.593  29.145  30.433  1.00  0.00     0.134 A 
ATOM     71  C   UNL A   1      38.063  29.826  28.187  1.00  0.00     0.134 A 
ATOM     72  F   UNL A   1      37.962  28.597  31.599  1.00  0.00    -0.206 F 
ATOM     73  C   UNL A   1      36.263  29.541  30.281  1.00  0.00     0.040 A 
ATOM     74  C   UNL A   1      36.743  30.249  28.031  1.00  0.00     0.040 A 
ATOM     75  F   UNL A   1      38.901  29.973  27.150  1.00  0.00    -0.206 F 
ATOM     76  C   UNL A   1      35.837  30.099  29.079  1.00  0.00     0.006 A 
ENDBRANCH  48  69
BRANCH  60  77
ATOM     77  C   UNL A   1      44.164  32.138  32.281  1.00  0.00     0.057 A 
ATOM     78  C   UNL A   1      43.947  32.350  33.648  1.00  0.00     0.134 A 
ATOM     79  C   UNL A   1      44.658  33.211  31.530  1.00  0.00     0.134 A 
ATOM     80  F   UNL A   1      43.464  31.365  34.421  1.00  0.00    -0.206 F 
ATOM     81  C   UNL A   1      44.188  33.591  34.240  1.00  0.00     0.040 A 
ATOM     82  C   UNL A   1      44.927  34.449  32.115  1.00  0.00     0.040 A 
ATOM     83  F   UNL A   1      44.897  33.071  30.217  1.00  0.00    -0.206 F 
ATOM     84  C   UNL A   1      44.687  34.643  33.473  1.00  0.00     0.006 A 
ENDBRANCH  60  77
ENDBRANCH  34  35
ENDBRANCH  27  29
ENDBRANCH  26  27
ENDBRANCH  25  26
ENDBRANCH  24  25
ENDBRANCH  23  24
ENDBRANCH   1  23
TORSDOF 18
ENDMDL
MODEL 3
REMARK VINA RESULT:      -8.3      5.291     11.190
REMARK SMILES COCCNc1cc(C)nc2cc(C(=O)OCCOCCOC(=O)c3ccc(-c4c5nc(c(-c6c(F)cccc6F)c6ccc([nH]6)c(-c6c(F)cccc6F)c6nc(c(-c7c(F)cccc7F)c7ccc4[nH]7)C=C6)C=C5)cc3)ccc12
REMARK SMILES IDX 18 1 17 2 16 3 14 4 15 5 13 6 6 7 7 8 81 9 8 10 11 11 80 12
REMARK SMILES IDX 9 13 10 14 12 15 79 16 5 17 4 19 3 20 2 21 1 22 19 23 20 24
REMARK SMILES IDX 21 25 22 26 23 27 24 28 25 29 26 30 78 31 27 32 77 33 28 34
REMARK SMILES IDX 29 35 30 36 71 37 31 38 76 39 70 40 72 41 32 42 75 43 69 44
REMARK SMILES IDX 68 45 33 47 59 48 42 49 58 50 43 51 46 52 57 53 73 54 44 55
REMARK SMILES IDX 45 56 56 58 74 59 47 60 34 61 35 62 40 63 36 64 37 65 39 66
REMARK SMILES IDX 41 67 38 68 60 69 61 70 66 71 62 72 63 73 65 74 67 75 64 76
REMARK SMILES IDX 48 77 49 78 54 79 50 80 51 81 53 82 55 83 52 84
REMARK H PARENT 5 18 72 46 46 57
REMARK Flexibility Score: inf
ROOT
ATOM      1  C   UNL A   1      33.599  33.639  28.134  1.00  0.00     0.202 C 
ENDROOT
BRANCH   1   2
ATOM      2  C   UNL A   1      34.220  32.244  28.012  1.00  0.00     0.261 C 
BRANCH   2   3
ATOM      3  O   UNL A   1      33.229  31.266  27.656  1.00  0.00    -0.460 OA
BRANCH   3   4
ATOM      4  C   UNL A   1      33.732  30.075  27.259  1.00  0.00     0.338 C 
ATOM      5  O   UNL A   1      34.813  29.595  27.569  1.00  0.00    -0.246 OA
BRANCH   4   6
ATOM      6  C   UNL A   1      32.721  29.305  26.506  1.00  0.00     0.062 A 
ATOM      7  C   UNL A   1      30.215  26.896  24.145  1.00  0.00     0.045 A 
ATOM      8  C   UNL A   1      29.425  27.527  23.185  1.00  0.00     0.049 A 
ATOM      9  C   UNL A   1      31.000  27.697  25.001  1.00  0.00     0.023 A 
ATOM     10  C   UNL A   1      29.473  28.909  23.068  1.00  0.00     0.040 A 
ATOM     11  C   UNL A   1      31.007  29.096  24.798  1.00  0.00     0.073 A 
ATOM     12  C   UNL A   1      31.811  27.138  26.007  1.00  0.00     0.013 A 
ATOM     13  C   UNL A   1      28.638  29.614  22.039  1.00  0.00     0.067 C 
ATOM     14  N   UNL A   1      30.246  29.687  23.862  1.00  0.00    -0.253 NA
ATOM     15  C   UNL A   1      31.858  29.884  25.569  1.00  0.00     0.044 A 
ATOM     16  C   UNL A   1      32.678  27.932  26.744  1.00  0.00     0.016 A 
BRANCH   7  17
ATOM     17  N   UNL A   1      30.157  25.516  24.305  1.00  0.00    -0.382 N 
ATOM     18  H   UNL A   1      29.750  25.138  25.118  1.00  0.00     0.160 HD
BRANCH  17  19
ATOM     19  C   UNL A   1      30.692  24.620  23.286  1.00  0.00     0.141 C 
BRANCH  19  20
ATOM     20  C   UNL A   1      32.227  24.694  23.219  1.00  0.00     0.181 C 
BRANCH  20  21
ATOM     21  O   UNL A   1      32.705  25.425  22.084  1.00  0.00    -0.383 OA
ATOM     22  C   UNL A   1      33.420  26.603  22.428  1.00  0.00     0.194 C 
ENDBRANCH  20  21
ENDBRANCH  19  20
ENDBRANCH  17  19
ENDBRANCH   7  17
ENDBRANCH   4   6
ENDBRANCH   3   4
ENDBRANCH   2   3
ENDBRANCH   1   2
BRANCH   1  23
ATOM     23  O   UNL A   1      33.325  34.088  29.461  1.00  0.00    -0.374 OA
BRANCH  23  24
ATOM     24  C   UNL A   1      34.442  34.511  30.245  1.00  0.00     0.202 C 
BRANCH  24  25
ATOM     25  C   UNL A   1      34.500  33.976  31.681  1.00  0.00     0.261 C 
BRANCH  25  26
ATOM     26  O   UNL A   1      34.721  32.554  31.706  1.00  0.00    -0.460 OA
BRANCH  26  27
ATOM     27  C   UNL A   1      35.701  32.146  32.543  1.00  0.00     0.338 C 
ATOM     28  O   UNL A   1      35.750  32.296  33.757  1.00  0.00    -0.246 OA
BRANCH  27  29
ATOM     29  C   UNL A   1      36.675  31.311  31.816  1.00  0.00     0.060 A 
ATOM     30  C   UNL A   1      37.703  30.724  32.565  1.00  0.00     0.016 A 
ATOM     31  C   UNL A   1      36.637  31.166  30.427  1.00  0.00     0.016 A 
ATOM     32  C   UNL A   1      38.737  30.049  31.922  1.00  0.00     0.010 A 
ATOM     33  C   UNL A   1      37.681  30.495  29.782  1.00  0.00     0.010 A 
ATOM     34  C   UNL A   1      38.757  29.975  30.524  1.00  0.00    -0.014 A 
BRANCH  34  35
ATOM     35  C   UNL A   1      39.994  29.524  29.841  1.00  0.00     0.031 A 
ATOM     36  C   UNL A   1      41.121  30.504  29.668  1.00  0.00     0.074 A 
ATOM     37  C   UNL A   1      40.132  28.255  29.421  1.00  0.00     0.049 A 
ATOM     38  N   UNL A   1      42.287  30.340  29.096  1.00  0.00    -0.248 NA
ATOM     39  C   UNL A   1      40.903  31.854  30.213  1.00  0.00     0.031 C 
ATOM     40  C   UNL A   1      39.128  27.202  29.566  1.00  0.00     0.029 A 
ATOM     41  N   UNL A   1      41.179  27.639  28.784  1.00  0.00    -0.354 N 
ATOM     42  C   UNL A   1      42.937  31.563  29.206  1.00  0.00     0.074 A 
ATOM     43  C   UNL A   1      42.024  32.470  29.870  1.00  0.00     0.031 C 
ATOM     44  C   UNL A   1      39.607  26.068  29.024  1.00  0.00     0.029 A 
ATOM     45  C   UNL A   1      40.937  26.324  28.474  1.00  0.00     0.049 A 
ATOM     46  H   UNL A   1      42.023  28.097  28.570  1.00  0.00     0.167 HD
ATOM     47  C   UNL A   1      44.183  31.900  28.801  1.00  0.00     0.037 A 
ATOM     48  C   UNL A   1      41.699  25.435  27.810  1.00  0.00     0.037 A 
ATOM     49  C   UNL A   1      45.091  30.998  28.142  1.00  0.00     0.049 A 
ATOM     50  C   UNL A   1      43.062  25.847  27.320  1.00  0.00     0.074 A 
ATOM     51  C   UNL A   1      46.380  31.240  27.700  1.00  0.00     0.029 A 
ATOM     52  N   UNL A   1      44.802  29.678  27.830  1.00  0.00    -0.354 N 
ATOM     53  N   UNL A   1      43.675  26.999  27.446  1.00  0.00    -0.248 NA
ATOM     54  C   UNL A   1      43.843  24.830  26.601  1.00  0.00     0.031 C 
ATOM     55  C   UNL A   1      46.856  30.079  27.082  1.00  0.00     0.029 A 
ATOM     56  C   UNL A   1      45.881  29.098  27.185  1.00  0.00     0.049 A 
ATOM     57  H   UNL A   1      43.955  29.222  28.036  1.00  0.00     0.167 HD
ATOM     58  C   UNL A   1      44.922  26.836  26.856  1.00  0.00     0.074 A 
ATOM     59  C   UNL A   1      44.982  25.471  26.377  1.00  0.00     0.031 C 
ATOM     60  C   UNL A   1      45.930  27.733  26.728  1.00  0.00     0.037 A 
BRANCH  47  61
ATOM     61  C   UNL A   1      44.625  33.314  29.038  1.00  0.00     0.057 A 
ATOM     62  C   UNL A   1      44.403  34.327  28.095  1.00  0.00     0.134 A 
ATOM     63  C   UNL A   1      45.269  33.668  30.230  1.00  0.00     0.134 A 
ATOM     64  F   UNL A   1      43.808  34.049  26.926  1.00  0.00    -0.206 F 
ATOM     65  C   UNL A   1      44.828  35.638  28.321  1.00  0.00     0.040 A 
ATOM     66  C   UNL A   1      45.675  34.981  30.476  1.00  0.00     0.040 A 
ATOM     67  F   UNL A   1      45.509  32.748  31.174  1.00  0.00    -0.206 F 
ATOM     68  C   UNL A   1      45.462  35.968  29.518  1.00  0.00     0.006 A 
ENDBRANCH  47  61
BRANCH  48  69
ATOM     69  C   UNL A   1      41.194  24.061  27.566  1.00  0.00     0.057 A 
ATOM     70  C   UNL A   1      40.204  23.810  26.609  1.00  0.00     0.134 A 
ATOM     71  C   UNL A   1      41.678  22.969  28.297  1.00  0.00     0.134 A 
ATOM     72  F   UNL A   1      39.685  24.818  25.896  1.00  0.00    -0.206 F 
ATOM     73  C   UNL A   1      39.701  22.525  26.400  1.00  0.00     0.040 A 
ATOM     74  C   UNL A   1      41.201  21.676  28.080  1.00  0.00     0.040 A 
ATOM     75  F   UNL A   1      42.628  23.144  29.228  1.00  0.00    -0.206 F 
ATOM     76  C   UNL A   1      40.203  21.453  27.134  1.00  0.00     0.006 A 
ENDBRANCH  48  69
BRANCH  60  77
ATOM     77  C   UNL A   1      47.202  27.255  26.089  1.00  0.00     0.057 A 
ATOM     78  C   UNL A   1      47.471  27.451  24.729  1.00  0.00     0.134 A 
ATOM     79  C   UNL A   1      48.187  26.623  26.860  1.00  0.00     0.134 A 
ATOM     80  F   UNL A   1      46.564  28.040  23.935  1.00  0.00    -0.206 F 
ATOM     81  C   UNL A   1      48.664  27.013  24.152  1.00  0.00     0.040 A 
ATOM     82  C   UNL A   1      49.394  26.203  26.299  1.00  0.00     0.040 A 
ATOM     83  F   UNL A   1      47.997  26.413  28.171  1.00  0.00    -0.206 F 
ATOM     84  C   UNL A   1      49.633  26.393  24.940  1.00  0.00     0.006 A 
ENDBRANCH  60  77
ENDBRANCH  34  35
ENDBRANCH  27  29
ENDBRANCH  26  27
ENDBRANCH  25  26
ENDBRANCH  24  25
ENDBRANCH  23  24
ENDBRANCH   1  23
TORSDOF 18
ENDMDL
