MODEL 1
REMARK VINA RESULT:     -10.0      0.000      0.000
REMARK SMILES C=CCN(CC(=O)OCCOCCOC(=O)c1ccc(-c2c3nc(c(-c4c(F)cccc4F)c4ccc([nH]4)c(-c4c(F)cccc4F)c4nc(c(-c5c(F)cccc5F)c5ccc2[nH]5)C=C4)C=C3)cc1)C(=O)[C@@H]1[C@H](C)[C@H](C)O[C@@H]1C
REMARK SMILES IDX 10 1 9 2 8 3 6 4 7 5 5 6 4 7 3 8 2 9 1 10 71 11 72 12 73 13
REMARK SMILES IDX 74 14 79 15 75 16 76 17 78 18 80 19 77 20 11 21 12 22 13 23
REMARK SMILES IDX 14 24 15 25 16 26 17 27 18 28 70 29 19 30 69 31 20 32 21 33
REMARK SMILES IDX 22 34 63 35 23 36 68 37 62 38 64 39 24 40 67 41 61 42 60 43
REMARK SMILES IDX 25 45 51 46 34 47 50 48 35 49 38 50 49 51 65 52 36 53 37 54
REMARK SMILES IDX 48 56 66 57 39 58 26 59 27 60 32 61 28 62 29 63 31 64 33 65
REMARK SMILES IDX 30 66 52 67 53 68 58 69 54 70 55 71 57 72 59 73 56 74 40 75
REMARK SMILES IDX 41 76 46 77 42 78 43 79 45 80 47 81 44 82
REMARK H PARENT 64 44 38 55
REMARK Flexibility Score: inf
ROOT
ATOM      1  C   UNL A   1      30.280  28.659  23.873  1.00  0.00     0.202 C 
ENDROOT
BRANCH   1   2
ATOM      2  C   UNL A   1      31.271  28.097  22.840  1.00  0.00     0.261 C 
BRANCH   2   3
ATOM      3  O   UNL A   1      31.934  26.922  23.373  1.00  0.00    -0.462 OA
BRANCH   3   4
ATOM      4  C   UNL A   1      33.254  27.059  23.691  1.00  0.00     0.325 C 
ATOM      5  O   UNL A   1      34.064  27.691  23.020  1.00  0.00    -0.250 OA
BRANCH   4   6
ATOM      6  C   UNL A   1      33.628  26.434  25.058  1.00  0.00     0.242 C 
BRANCH   6   7
ATOM      7  N   UNL A   1      33.116  25.087  25.301  1.00  0.00    -0.328 N 
BRANCH   7   8
ATOM      8  C   UNL A   1      32.194  24.989  26.438  1.00  0.00     0.147 C 
BRANCH   8   9
ATOM      9  C   UNL A   1      30.808  24.789  25.882  1.00  0.00    -0.014 C 
ATOM     10  C   UNL A   1      29.838  25.716  25.908  1.00  0.00     0.006 C 
ENDBRANCH   8   9
ENDBRANCH   7   8
BRANCH   7  11
ATOM     11  C   UNL A   1      33.483  23.898  24.677  1.00  0.00     0.229 C 
ATOM     12  O   UNL A   1      33.530  23.918  23.441  1.00  0.00    -0.274 OA
BRANCH  11  13
ATOM     13  C   UNL A   1      34.071  22.666  25.452  1.00  0.00     0.113 C 
ATOM     14  C   UNL A   1      35.642  22.649  25.614  1.00  0.00     0.030 C 
ATOM     15  C   UNL A   1      33.742  21.190  25.149  1.00  0.00     0.128 C 
ATOM     16  C   UNL A   1      36.492  23.572  24.735  1.00  0.00     0.011 C 
ATOM     17  C   UNL A   1      36.047  21.172  25.485  1.00  0.00     0.119 C 
ATOM     18  O   UNL A   1      34.967  20.511  24.845  1.00  0.00    -0.374 OA
ATOM     19  C   UNL A   1      32.823  20.806  24.022  1.00  0.00     0.039 C 
ATOM     20  C   UNL A   1      37.306  20.820  24.700  1.00  0.00     0.039 C 
ENDBRANCH  11  13
ENDBRANCH   7  11
ENDBRANCH   6   7
ENDBRANCH   4   6
ENDBRANCH   3   4
ENDBRANCH   2   3
ENDBRANCH   1   2
BRANCH   1  21
ATOM     21  O   UNL A   1      30.841  29.826  24.480  1.00  0.00    -0.374 OA
BRANCH  21  22
ATOM     22  C   UNL A   1      31.584  29.597  25.684  1.00  0.00     0.202 C 
BRANCH  22  23
ATOM     23  C   UNL A   1      31.795  30.879  26.500  1.00  0.00     0.261 C 
BRANCH  23  24
ATOM     24  O   UNL A   1      32.939  30.751  27.349  1.00  0.00    -0.460 OA
BRANCH  24  25
ATOM     25  C   UNL A   1      33.542  31.923  27.611  1.00  0.00     0.338 C 
ATOM     26  O   UNL A   1      33.012  33.003  27.846  1.00  0.00    -0.246 OA
BRANCH  25  27
ATOM     27  C   UNL A   1      34.946  31.641  27.895  1.00  0.00     0.060 A 
ATOM     28  C   UNL A   1      35.292  30.290  27.964  1.00  0.00     0.016 A 
ATOM     29  C   UNL A   1      35.889  32.652  28.108  1.00  0.00     0.016 A 
ATOM     30  C   UNL A   1      36.571  29.938  28.348  1.00  0.00     0.010 A 
ATOM     31  C   UNL A   1      37.181  32.294  28.494  1.00  0.00     0.010 A 
ATOM     32  C   UNL A   1      37.500  30.938  28.668  1.00  0.00    -0.014 A 
BRANCH  32  33
ATOM     33  C   UNL A   1      38.719  30.508  29.379  1.00  0.00     0.031 A 
ATOM     34  C   UNL A   1      38.886  30.927  30.811  1.00  0.00     0.074 A 
ATOM     35  C   UNL A   1      39.546  29.624  28.799  1.00  0.00     0.049 A 
ATOM     36  N   UNL A   1      39.747  30.509  31.701  1.00  0.00    -0.248 NA
ATOM     37  C   UNL A   1      37.944  31.941  31.314  1.00  0.00     0.031 C 
ATOM     38  C   UNL A   1      39.424  29.136  27.426  1.00  0.00     0.029 A 
ATOM     39  N   UNL A   1      40.621  28.945  29.307  1.00  0.00    -0.354 N 
ATOM     40  C   UNL A   1      39.441  31.199  32.867  1.00  0.00     0.074 A 
ATOM     41  C   UNL A   1      38.343  32.089  32.568  1.00  0.00     0.031 C 
ATOM     42  C   UNL A   1      40.371  28.208  27.208  1.00  0.00     0.029 A 
ATOM     43  C   UNL A   1      41.166  28.049  28.422  1.00  0.00     0.049 A 
ATOM     44  H   UNL A   1      40.967  29.086  30.216  1.00  0.00     0.167 HD
ATOM     45  C   UNL A   1      40.019  31.083  34.085  1.00  0.00     0.037 A 
ATOM     46  C   UNL A   1      42.185  27.185  28.590  1.00  0.00     0.037 A 
ATOM     47  C   UNL A   1      41.117  30.196  34.359  1.00  0.00     0.049 A 
ATOM     48  C   UNL A   1      42.834  27.100  29.944  1.00  0.00     0.074 A 
ATOM     49  C   UNL A   1      41.806  30.007  35.542  1.00  0.00     0.029 A 
ATOM     50  N   UNL A   1      41.687  29.348  33.419  1.00  0.00    -0.354 N 
ATOM     51  N   UNL A   1      42.532  27.748  31.045  1.00  0.00    -0.248 NA
ATOM     52  C   UNL A   1      43.954  26.163  30.083  1.00  0.00     0.031 C 
ATOM     53  C   UNL A   1      42.818  29.069  35.307  1.00  0.00     0.029 A 
ATOM     54  C   UNL A   1      42.733  28.644  33.989  1.00  0.00     0.049 A 
ATOM     55  H   UNL A   1      41.391  29.260  32.484  1.00  0.00     0.167 HD
ATOM     56  C   UNL A   1      43.418  27.293  32.011  1.00  0.00     0.074 A 
ATOM     57  C   UNL A   1      44.251  26.294  31.369  1.00  0.00     0.031 C 
ATOM     58  C   UNL A   1      43.543  27.666  33.309  1.00  0.00     0.037 A 
BRANCH  45  59
ATOM     59  C   UNL A   1      39.491  31.958  35.183  1.00  0.00     0.057 A 
ATOM     60  C   UNL A   1      38.497  31.519  36.067  1.00  0.00     0.134 A 
ATOM     61  C   UNL A   1      39.971  33.262  35.350  1.00  0.00     0.134 A 
ATOM     62  F   UNL A   1      37.976  30.287  35.947  1.00  0.00    -0.206 F 
ATOM     63  C   UNL A   1      37.985  32.351  37.065  1.00  0.00     0.040 A 
ATOM     64  C   UNL A   1      39.484  34.098  36.357  1.00  0.00     0.040 A 
ATOM     65  F   UNL A   1      40.918  33.749  34.534  1.00  0.00    -0.206 F 
ATOM     66  C   UNL A   1      38.483  33.645  37.215  1.00  0.00     0.006 A 
ENDBRANCH  45  59
BRANCH  46  67
ATOM     67  C   UNL A   1      42.624  26.332  27.458  1.00  0.00     0.057 A 
ATOM     68  C   UNL A   1      42.104  25.047  27.264  1.00  0.00     0.134 A 
ATOM     69  C   UNL A   1      43.558  26.797  26.524  1.00  0.00     0.134 A 
ATOM     70  F   UNL A   1      41.217  24.539  28.132  1.00  0.00    -0.206 F 
ATOM     71  C   UNL A   1      42.502  24.253  26.185  1.00  0.00     0.040 A 
ATOM     72  C   UNL A   1      43.947  26.023  25.429  1.00  0.00     0.040 A 
ATOM     73  F   UNL A   1      44.089  28.021  26.649  1.00  0.00    -0.206 F 
ATOM     74  C   UNL A   1      43.421  24.745  25.259  1.00  0.00     0.006 A 
ENDBRANCH  46  67
BRANCH  58  75
ATOM     75  C   UNL A   1      44.616  26.987  34.102  1.00  0.00     0.057 A 
ATOM     76  C   UNL A   1      45.887  27.557  34.248  1.00  0.00     0.134 A 
ATOM     77  C   UNL A   1      44.366  25.771  34.750  1.00  0.00     0.134 A 
ATOM     78  F   UNL A   1      46.187  28.716  33.642  1.00  0.00    -0.206 F 
ATOM     79  C   UNL A   1      46.883  26.926  34.993  1.00  0.00     0.040 A 
ATOM     80  C   UNL A   1      45.348  25.143  35.515  1.00  0.00     0.040 A 
ATOM     81  F   UNL A   1      43.165  25.183  34.655  1.00  0.00    -0.206 F 
ATOM     82  C   UNL A   1      46.613  25.718  35.633  1.00  0.00     0.006 A 
ENDBRANCH  58  75
ENDBRANCH  32  33
ENDBRANCH  25  27
ENDBRANCH  24  25
ENDBRANCH  23  24
ENDBRANCH  22  23
ENDBRANCH  21  22
ENDBRANCH   1  21
TORSDOF 19
ENDMDL
MODEL 2
REMARK VINA RESULT:      -9.9      3.631      7.029
REMARK SMILES C=CCN(CC(=O)OCCOCCOC(=O)c1ccc(-c2c3nc(c(-c4c(F)cccc4F)c4ccc([nH]4)c(-c4c(F)cccc4F)c4nc(c(-c5c(F)cccc5F)c5ccc2[nH]5)C=C4)C=C3)cc1)C(=O)[C@@H]1[C@H](C)[C@H](C)O[C@@H]1C
REMARK SMILES IDX 10 1 9 2 8 3 6 4 7 5 5 6 4 7 3 8 2 9 1 10 71 11 72 12 73 13
REMARK SMILES IDX 74 14 79 15 75 16 76 17 78 18 80 19 77 20 11 21 12 22 13 23
REMARK SMILES IDX 14 24 15 25 16 26 17 27 18 28 70 29 19 30 69 31 20 32 21 33
REMARK SMILES IDX 22 34 63 35 23 36 68 37 62 38 64 39 24 40 67 41 61 42 60 43
REMARK SMILES IDX 25 45 51 46 34 47 50 48 35 49 38 50 49 51 65 52 36 53 37 54
REMARK SMILES IDX 48 56 66 57 39 58 26 59 27 60 32 61 28 62 29 63 31 64 33 65
REMARK SMILES IDX 30 66 52 67 53 68 58 69 54 70 55 71 57 72 59 73 56 74 40 75
REMARK SMILES IDX 41 76 46 77 42 78 43 79 45 80 47 81 44 82
REMARK H PARENT 64 44 38 55
REMARK Flexibility Score: inf
ROOT
ATOM      1  C   UNL A   1      33.642  21.058  26.491  1.00  0.00     0.202 C 
ENDROOT
BRANCH   1   2
ATOM      2  C   UNL A   1      32.841  20.820  25.200  1.00  0.00     0.261 C 
BRANCH   2   3
ATOM      3  O   UNL A   1      31.459  21.220  25.390  1.00  0.00    -0.462 OA
BRANCH   3   4
ATOM      4  C   UNL A   1      31.248  22.510  25.781  1.00  0.00     0.325 C 
ATOM      5  O   UNL A   1      30.912  22.842  26.914  1.00  0.00    -0.250 OA
BRANCH   4   6
ATOM      6  C   UNL A   1      31.582  23.551  24.684  1.00  0.00     0.242 C 
BRANCH   6   7
ATOM      7  N   UNL A   1      32.024  24.859  25.163  1.00  0.00    -0.328 N 
BRANCH   7   8
ATOM      8  C   UNL A   1      33.352  24.855  25.787  1.00  0.00     0.147 C 
BRANCH   8   9
ATOM      9  C   UNL A   1      34.370  25.016  24.688  1.00  0.00    -0.014 C 
ATOM     10  C   UNL A   1      35.143  24.026  24.218  1.00  0.00     0.006 C 
ENDBRANCH   8   9
ENDBRANCH   7   8
BRANCH   7  11
ATOM     11  C   UNL A   1      31.306  26.051  25.205  1.00  0.00     0.229 C 
ATOM     12  O   UNL A   1      30.240  26.029  25.832  1.00  0.00    -0.274 OA
BRANCH  11  13
ATOM     13  C   UNL A   1      31.898  27.426  24.735  1.00  0.00     0.113 C 
ATOM     14  C   UNL A   1      32.445  28.362  25.885  1.00  0.00     0.030 C 
ATOM     15  C   UNL A   1      31.189  28.421  23.794  1.00  0.00     0.128 C 
ATOM     16  C   UNL A   1      32.048  28.069  27.336  1.00  0.00     0.011 C 
ATOM     17  C   UNL A   1      32.084  29.792  25.451  1.00  0.00     0.119 C 
ATOM     18  O   UNL A   1      31.056  29.672  24.481  1.00  0.00    -0.374 OA
ATOM     19  C   UNL A   1      29.808  28.150  23.262  1.00  0.00     0.039 C 
ATOM     20  C   UNL A   1      31.585  30.776  26.503  1.00  0.00     0.039 C 
ENDBRANCH  11  13
ENDBRANCH   7  11
ENDBRANCH   6   7
ENDBRANCH   4   6
ENDBRANCH   3   4
ENDBRANCH   2   3
ENDBRANCH   1   2
BRANCH   1  21
ATOM     21  O   UNL A   1      35.008  21.317  26.160  1.00  0.00    -0.374 OA
BRANCH  21  22
ATOM     22  C   UNL A   1      35.499  20.635  24.998  1.00  0.00     0.202 C 
BRANCH  22  23
ATOM     23  C   UNL A   1      37.023  20.462  25.015  1.00  0.00     0.261 C 
BRANCH  23  24
ATOM     24  O   UNL A   1      37.649  21.576  25.658  1.00  0.00    -0.460 OA
BRANCH  24  25
ATOM     25  C   UNL A   1      38.900  21.317  26.074  1.00  0.00     0.338 C 
ATOM     26  O   UNL A   1      39.586  20.335  25.818  1.00  0.00    -0.246 OA
BRANCH  25  27
ATOM     27  C   UNL A   1      39.445  22.555  26.623  1.00  0.00     0.060 A 
ATOM     28  C   UNL A   1      38.836  23.733  26.185  1.00  0.00     0.016 A 
ATOM     29  C   UNL A   1      40.524  22.574  27.513  1.00  0.00     0.016 A 
ATOM     30  C   UNL A   1      39.369  24.951  26.561  1.00  0.00     0.010 A 
ATOM     31  C   UNL A   1      41.060  23.805  27.893  1.00  0.00     0.010 A 
ATOM     32  C   UNL A   1      40.515  24.987  27.368  1.00  0.00    -0.014 A 
BRANCH  32  33
ATOM     33  C   UNL A   1      41.221  26.280  27.459  1.00  0.00     0.031 A 
ATOM     34  C   UNL A   1      40.575  27.383  28.247  1.00  0.00     0.074 A 
ATOM     35  C   UNL A   1      42.477  26.382  26.997  1.00  0.00     0.049 A 
ATOM     36  N   UNL A   1      41.080  28.518  28.648  1.00  0.00    -0.248 NA
ATOM     37  C   UNL A   1      39.176  27.168  28.654  1.00  0.00     0.031 C 
ATOM     38  C   UNL A   1      43.188  25.337  26.259  1.00  0.00     0.029 A 
ATOM     39  N   UNL A   1      43.392  27.392  27.121  1.00  0.00    -0.354 N 
ATOM     40  C   UNL A   1      40.067  29.145  29.363  1.00  0.00     0.074 A 
ATOM     41  C   UNL A   1      38.907  28.286  29.311  1.00  0.00     0.031 C 
ATOM     42  C   UNL A   1      44.444  25.750  26.022  1.00  0.00     0.029 A 
ATOM     43  C   UNL A   1      44.617  27.088  26.583  1.00  0.00     0.049 A 
ATOM     44  H   UNL A   1      43.190  28.253  27.553  1.00  0.00     0.167 HD
ATOM     45  C   UNL A   1      40.112  30.328  30.017  1.00  0.00     0.037 A 
ATOM     46  C   UNL A   1      45.753  27.809  26.566  1.00  0.00     0.037 A 
ATOM     47  C   UNL A   1      41.275  31.172  30.049  1.00  0.00     0.049 A 
ATOM     48  C   UNL A   1      45.766  29.137  27.272  1.00  0.00     0.074 A 
ATOM     49  C   UNL A   1      41.438  32.404  30.653  1.00  0.00     0.029 A 
ATOM     50  N   UNL A   1      42.482  30.860  29.436  1.00  0.00    -0.354 N 
ATOM     51  N   UNL A   1      44.808  29.718  27.954  1.00  0.00    -0.248 NA
ATOM     52  C   UNL A   1      47.016  29.904  27.214  1.00  0.00     0.031 C 
ATOM     53  C   UNL A   1      42.734  32.854  30.375  1.00  0.00     0.029 A 
ATOM     54  C   UNL A   1      43.391  31.884  29.632  1.00  0.00     0.049 A 
ATOM     55  H   UNL A   1      42.664  30.031  28.936  1.00  0.00     0.167 HD
ATOM     56  C   UNL A   1      45.338  30.915  28.415  1.00  0.00     0.074 A 
ATOM     57  C   UNL A   1      46.712  30.962  27.955  1.00  0.00     0.031 C 
ATOM     58  C   UNL A   1      44.747  31.893  29.146  1.00  0.00     0.037 A 
BRANCH  45  59
ATOM     59  C   UNL A   1      38.861  30.776  30.713  1.00  0.00     0.057 A 
ATOM     60  C   UNL A   1      37.917  31.599  30.084  1.00  0.00     0.134 A 
ATOM     61  C   UNL A   1      38.602  30.391  32.034  1.00  0.00     0.134 A 
ATOM     62  F   UNL A   1      38.115  32.024  28.826  1.00  0.00    -0.206 F 
ATOM     63  C   UNL A   1      36.772  32.040  30.751  1.00  0.00     0.040 A 
ATOM     64  C   UNL A   1      37.450  30.807  32.704  1.00  0.00     0.040 A 
ATOM     65  F   UNL A   1      39.466  29.609  32.697  1.00  0.00    -0.206 F 
ATOM     66  C   UNL A   1      36.533  31.640  32.065  1.00  0.00     0.006 A 
ENDBRANCH  45  59
BRANCH  46  67
ATOM     67  C   UNL A   1      46.956  27.276  25.880  1.00  0.00     0.057 A 
ATOM     68  C   UNL A   1      47.906  26.505  26.560  1.00  0.00     0.134 A 
ATOM     69  C   UNL A   1      47.170  27.504  24.515  1.00  0.00     0.134 A 
ATOM     70  F   UNL A   1      47.766  26.264  27.872  1.00  0.00    -0.206 F 
ATOM     71  C   UNL A   1      49.027  25.985  25.909  1.00  0.00     0.040 A 
ATOM     72  C   UNL A   1      48.273  26.971  23.847  1.00  0.00     0.040 A 
ATOM     73  F   UNL A   1      46.294  28.229  23.805  1.00  0.00    -0.206 F 
ATOM     74  C   UNL A   1      49.209  26.212  24.545  1.00  0.00     0.006 A 
ENDBRANCH  46  67
BRANCH  58  75
ATOM     75  C   UNL A   1      45.592  33.082  29.482  1.00  0.00     0.057 A 
ATOM     76  C   UNL A   1      46.386  33.112  30.635  1.00  0.00     0.134 A 
ATOM     77  C   UNL A   1      45.637  34.191  28.629  1.00  0.00     0.134 A 
ATOM     78  F   UNL A   1      46.376  32.082  31.495  1.00  0.00    -0.206 F 
ATOM     79  C   UNL A   1      47.177  34.219  30.942  1.00  0.00     0.040 A 
ATOM     80  C   UNL A   1      46.442  35.294  28.914  1.00  0.00     0.040 A 
ATOM     81  F   UNL A   1      44.908  34.216  27.504  1.00  0.00    -0.206 F 
ATOM     82  C   UNL A   1      47.210  35.311  30.078  1.00  0.00     0.006 A 
ENDBRANCH  58  75
ENDBRANCH  32  33
ENDBRANCH  25  27
ENDBRANCH  24  25
ENDBRANCH  23  24
ENDBRANCH  22  23
ENDBRANCH  21  22
ENDBRANCH   1  21
TORSDOF 19
ENDMDL
MODEL 3
REMARK VINA RESULT:      -9.9      3.834      9.117
REMARK SMILES C=CCN(CC(=O)OCCOCCOC(=O)c1ccc(-c2c3nc(c(-c4c(F)cccc4F)c4ccc([nH]4)c(-c4c(F)cccc4F)c4nc(c(-c5c(F)cccc5F)c5ccc2[nH]5)C=C4)C=C3)cc1)C(=O)[C@@H]1[C@H](C)[C@H](C)O[C@@H]1C
REMARK SMILES IDX 10 1 9 2 8 3 6 4 7 5 5 6 4 7 3 8 2 9 1 10 71 11 72 12 73 13
REMARK SMILES IDX 74 14 79 15 75 16 76 17 78 18 80 19 77 20 11 21 12 22 13 23
REMARK SMILES IDX 14 24 15 25 16 26 17 27 18 28 70 29 19 30 69 31 20 32 21 33
REMARK SMILES IDX 22 34 63 35 23 36 68 37 62 38 64 39 24 40 67 41 61 42 60 43
REMARK SMILES IDX 25 45 51 46 34 47 50 48 35 49 38 50 49 51 65 52 36 53 37 54
REMARK SMILES IDX 48 56 66 57 39 58 26 59 27 60 32 61 28 62 29 63 31 64 33 65
REMARK SMILES IDX 30 66 52 67 53 68 58 69 54 70 55 71 57 72 59 73 56 74 40 75
REMARK SMILES IDX 41 76 46 77 42 78 43 79 45 80 47 81 44 82
REMARK H PARENT 64 44 38 55
REMARK Flexibility Score: inf
ROOT
ATOM      1  C   UNL A   1      35.290  21.513  26.022  1.00  0.00     0.202 C 
ENDROOT
BRANCH   1   2
ATOM      2  C   UNL A   1      34.318  20.987  24.952  1.00  0.00     0.261 C 
BRANCH   2   3
ATOM      3  O   UNL A   1      33.385  22.031  24.571  1.00  0.00    -0.462 OA
BRANCH   3   4
ATOM      4  C   UNL A   1      33.899  23.077  23.862  1.00  0.00     0.325 C 
ATOM      5  O   UNL A   1      34.539  22.959  22.822  1.00  0.00    -0.250 OA
BRANCH   4   6
ATOM      6  C   UNL A   1      33.503  24.462  24.431  1.00  0.00     0.242 C 
BRANCH   6   7
ATOM      7  N   UNL A   1      32.759  25.333  23.523  1.00  0.00    -0.328 N 
BRANCH   7   8
ATOM      8  C   UNL A   1      31.349  24.963  23.354  1.00  0.00     0.147 C 
BRANCH   8   9
ATOM      9  C   UNL A   1      30.727  24.908  24.725  1.00  0.00    -0.014 C 
ATOM     10  C   UNL A   1      30.337  25.984  25.426  1.00  0.00     0.006 C 
ENDBRANCH   8   9
ENDBRANCH   7   8
BRANCH   7  11
ATOM     11  C   UNL A   1      33.244  26.369  22.730  1.00  0.00     0.229 C 
ATOM     12  O   UNL A   1      33.653  26.055  21.605  1.00  0.00    -0.274 OA
BRANCH  11  13
ATOM     13  C   UNL A   1      33.053  27.885  23.088  1.00  0.00     0.113 C 
ATOM     14  C   UNL A   1      33.525  28.310  24.534  1.00  0.00     0.030 C 
ATOM     15  C   UNL A   1      31.743  28.679  22.909  1.00  0.00     0.128 C 
ATOM     16  C   UNL A   1      33.774  27.223  25.586  1.00  0.00     0.011 C 
ATOM     17  C   UNL A   1      32.507  29.362  25.001  1.00  0.00     0.119 C 
ATOM     18  O   UNL A   1      31.356  29.199  24.188  1.00  0.00    -0.374 OA
ATOM     19  C   UNL A   1      30.492  28.022  22.390  1.00  0.00     0.039 C 
ATOM     20  C   UNL A   1      32.031  29.333  26.450  1.00  0.00     0.039 C 
ENDBRANCH  11  13
ENDBRANCH   7  11
ENDBRANCH   6   7
ENDBRANCH   4   6
ENDBRANCH   3   4
ENDBRANCH   2   3
ENDBRANCH   1   2
BRANCH   1  21
ATOM     21  O   UNL A   1      36.634  21.324  25.574  1.00  0.00    -0.374 OA
BRANCH  21  22
ATOM     22  C   UNL A   1      36.870  20.128  24.820  1.00  0.00     0.202 C 
BRANCH  22  23
ATOM     23  C   UNL A   1      38.232  19.494  25.128  1.00  0.00     0.261 C 
BRANCH  23  24
ATOM     24  O   UNL A   1      39.102  20.446  25.746  1.00  0.00    -0.460 OA
BRANCH  24  25
ATOM     25  C   UNL A   1      40.315  19.948  26.040  1.00  0.00     0.338 C 
ATOM     26  O   UNL A   1      40.758  18.840  25.760  1.00  0.00    -0.246 OA
BRANCH  25  27
ATOM     27  C   UNL A   1      41.155  21.062  26.468  1.00  0.00     0.060 A 
ATOM     28  C   UNL A   1      41.187  21.305  27.843  1.00  0.00     0.016 A 
ATOM     29  C   UNL A   1      41.869  21.858  25.565  1.00  0.00     0.016 A 
ATOM     30  C   UNL A   1      41.860  22.414  28.319  1.00  0.00     0.010 A 
ATOM     31  C   UNL A   1      42.549  22.976  26.048  1.00  0.00     0.010 A 
ATOM     32  C   UNL A   1      42.493  23.281  27.417  1.00  0.00    -0.014 A 
BRANCH  32  33
ATOM     33  C   UNL A   1      42.900  24.600  27.941  1.00  0.00     0.031 A 
ATOM     34  C   UNL A   1      44.352  24.975  27.856  1.00  0.00     0.074 A 
ATOM     35  C   UNL A   1      41.961  25.484  28.309  1.00  0.00     0.049 A 
ATOM     36  N   UNL A   1      44.919  26.136  28.046  1.00  0.00    -0.248 NA
ATOM     37  C   UNL A   1      45.289  23.900  27.487  1.00  0.00     0.031 C 
ATOM     38  C   UNL A   1      40.526  25.207  28.376  1.00  0.00     0.029 A 
ATOM     39  N   UNL A   1      42.067  26.806  28.649  1.00  0.00    -0.354 N 
ATOM     40  C   UNL A   1      46.272  25.933  27.809  1.00  0.00     0.074 A 
ATOM     41  C   UNL A   1      46.451  24.533  27.498  1.00  0.00     0.031 C 
ATOM     42  C   UNL A   1      39.879  26.337  28.706  1.00  0.00     0.029 A 
ATOM     43  C   UNL A   1      40.856  27.408  28.881  1.00  0.00     0.049 A 
ATOM     44  H   UNL A   1      42.928  27.277  28.720  1.00  0.00     0.167 HD
ATOM     45  C   UNL A   1      47.273  26.843  27.834  1.00  0.00     0.037 A 
ATOM     46  C   UNL A   1      40.577  28.689  29.184  1.00  0.00     0.037 A 
ATOM     47  C   UNL A   1      47.074  28.230  28.155  1.00  0.00     0.049 A 
ATOM     48  C   UNL A   1      41.711  29.675  29.239  1.00  0.00     0.074 A 
ATOM     49  C   UNL A   1      48.009  29.245  28.240  1.00  0.00     0.029 A 
ATOM     50  N   UNL A   1      45.839  28.793  28.448  1.00  0.00    -0.354 N 
ATOM     51  N   UNL A   1      42.987  29.477  29.004  1.00  0.00    -0.248 NA
ATOM     52  C   UNL A   1      41.370  31.057  29.592  1.00  0.00     0.031 C 
ATOM     53  C   UNL A   1      47.342  30.415  28.621  1.00  0.00     0.029 A 
ATOM     54  C   UNL A   1      45.987  30.138  28.733  1.00  0.00     0.049 A 
ATOM     55  H   UNL A   1      44.983  28.306  28.453  1.00  0.00     0.167 HD
ATOM     56  C   UNL A   1      43.602  30.710  29.172  1.00  0.00     0.074 A 
ATOM     57  C   UNL A   1      42.551  31.653  29.503  1.00  0.00     0.031 C 
ATOM     58  C   UNL A   1      44.914  31.038  29.069  1.00  0.00     0.037 A 
BRANCH  45  59
ATOM     59  C   UNL A   1      48.659  26.349  27.539  1.00  0.00     0.057 A 
ATOM     60  C   UNL A   1      49.464  25.769  28.528  1.00  0.00     0.134 A 
ATOM     61  C   UNL A   1      49.200  26.466  26.254  1.00  0.00     0.134 A 
ATOM     62  F   UNL A   1      49.015  25.647  29.787  1.00  0.00    -0.206 F 
ATOM     63  C   UNL A   1      50.766  25.343  28.254  1.00  0.00     0.040 A 
ATOM     64  C   UNL A   1      50.492  26.025  25.961  1.00  0.00     0.040 A 
ATOM     65  F   UNL A   1      48.485  27.018  25.262  1.00  0.00    -0.206 F 
ATOM     66  C   UNL A   1      51.282  25.466  26.965  1.00  0.00     0.006 A 
ENDBRANCH  45  59
BRANCH  46  67
ATOM     67  C   UNL A   1      39.172  29.100  29.430  1.00  0.00     0.057 A 
ATOM     68  C   UNL A   1      38.355  29.574  28.397  1.00  0.00     0.134 A 
ATOM     69  C   UNL A   1      38.604  29.001  30.706  1.00  0.00     0.134 A 
ATOM     70  F   UNL A   1      38.844  29.706  27.155  1.00  0.00    -0.206 F 
ATOM     71  C   UNL A   1      37.026  29.939  28.625  1.00  0.00     0.040 A 
ATOM     72  C   UNL A   1      37.271  29.341  30.944  1.00  0.00     0.040 A 
ATOM     73  F   UNL A   1      39.331  28.549  31.737  1.00  0.00    -0.206 F 
ATOM     74  C   UNL A   1      36.478  29.816  29.901  1.00  0.00     0.006 A 
ENDBRANCH  46  67
BRANCH  58  75
ATOM     75  C   UNL A   1      45.268  32.471  29.321  1.00  0.00     0.057 A 
ATOM     76  C   UNL A   1      45.634  32.920  30.596  1.00  0.00     0.134 A 
ATOM     77  C   UNL A   1      45.274  33.401  28.274  1.00  0.00     0.134 A 
ATOM     78  F   UNL A   1      45.637  32.076  31.639  1.00  0.00    -0.206 F 
ATOM     79  C   UNL A   1      45.970  34.253  30.827  1.00  0.00     0.040 A 
ATOM     80  C   UNL A   1      45.630  34.732  28.488  1.00  0.00     0.040 A 
ATOM     81  F   UNL A   1      44.943  33.028  27.029  1.00  0.00    -0.206 F 
ATOM     82  C   UNL A   1      45.973  35.162  29.770  1.00  0.00     0.006 A 
ENDBRANCH  58  75
ENDBRANCH  32  33
ENDBRANCH  25  27
ENDBRANCH  24  25
ENDBRANCH  23  24
ENDBRANCH  22  23
ENDBRANCH  21  22
ENDBRANCH   1  21
TORSDOF 19
ENDMDL
