MODEL 1
REMARK VINA RESULT:     -11.9      0.000      0.000
REMARK SMILES Cc1ccc(S(=O)(=O)n2cc(C(=O)C(=O)NCC(=O)N[C@@H](Cc3c[nH]c4ccccc34)C(=O)OCCOCCOC(=O)c3ccc(-c4c5nc(c(-c6c(F)cccc6F)c6ccc([nH]6)c(-c6c(F)cccc6F)c6nc(c(-c7c(F)cccc7F)c7ccc4[nH]7)C=C6)C=C5)cc3)c3ccccc32)cc1
REMARK SMILES IDX 35 1 34 2 32 3 33 4 21 5 20 6 18 7 19 8 17 10 16 11 14 12
REMARK SMILES IDX 15 13 12 15 13 16 11 17 9 18 10 19 102 20 97 21 101 22 98 23
REMARK SMILES IDX 100 24 99 25 6 26 7 27 8 28 5 29 1 30 2 31 3 32 104 33 4 34
REMARK SMILES IDX 103 35 22 36 23 37 24 38 31 39 25 40 26 41 30 42 27 44 29 45
REMARK SMILES IDX 28 46 36 47 37 48 38 49 39 50 40 51 41 52 42 53 43 54 44 55
REMARK SMILES IDX 96 56 45 57 95 58 46 59 47 60 48 61 89 62 49 63 94 64 88 65
REMARK SMILES IDX 90 66 50 67 93 68 87 69 86 70 51 72 77 73 60 74 76 75 61 76
REMARK SMILES IDX 64 77 75 78 91 79 62 80 63 81 74 83 92 84 65 85 52 86 53 87
REMARK SMILES IDX 58 88 54 89 55 90 57 91 59 92 56 93 78 94 79 95 84 96 80 97
REMARK SMILES IDX 81 98 83 99 85 100 82 101 66 102 67 103 72 104 68 105 69 106
REMARK SMILES IDX 71 107 73 108 70 109
REMARK H PARENT 20 9 16 14 25 43 90 71 64 82
REMARK Flexibility Score: inf
ROOT
ATOM      1  C   UNL A   1      36.695  22.083  23.853  1.00  0.00     0.261 C 
ENDROOT
BRANCH   1   2
ATOM      2  O   UNL A   1      35.842  23.105  24.332  1.00  0.00    -0.462 OA
BRANCH   2   3
ATOM      3  C   UNL A   1      34.796  23.489  23.548  1.00  0.00     0.329 C 
ATOM      4  O   UNL A   1      34.684  23.343  22.355  1.00  0.00    -0.250 OA
BRANCH   3   5
ATOM      5  C   UNL A   1      33.758  24.153  24.443  1.00  0.00     0.196 C 
BRANCH   5   6
ATOM      6  N   UNL A   1      33.303  25.398  23.811  1.00  0.00    -0.341 N 
ATOM      7  C   UNL A   1      33.487  26.691  24.190  1.00  0.00     0.240 C 
ATOM      8  O   UNL A   1      33.452  27.542  23.295  1.00  0.00    -0.273 OA
ATOM      9  H   UNL A   1      32.784  25.279  22.982  1.00  0.00     0.164 HD
BRANCH   7  10
ATOM     10  C   UNL A   1      33.868  27.083  25.629  1.00  0.00     0.216 C 
BRANCH  10  11
ATOM     11  N   UNL A   1      32.763  27.197  26.578  1.00  0.00    -0.340 N 
ATOM     12  C   UNL A   1      32.325  28.313  27.283  1.00  0.00     0.292 C 
ATOM     13  O   UNL A   1      31.504  28.189  28.184  1.00  0.00    -0.265 OA
ATOM     14  H   UNL A   1      32.257  26.367  26.741  1.00  0.00     0.164 HD
BRANCH  12  15
ATOM     15  C   UNL A   1      32.869  29.698  26.919  1.00  0.00     0.252 C 
ATOM     16  O   UNL A   1      32.201  30.320  26.090  1.00  0.00    -0.283 OA
BRANCH  15  17
ATOM     17  C   UNL A   1      34.144  30.234  27.432  1.00  0.00     0.054 A 
ATOM     18  N   UNL A   1      36.234  30.586  28.264  1.00  0.00    -0.240 N 
ATOM     19  C   UNL A   1      35.357  29.611  27.758  1.00  0.00     0.117 A 
ATOM     20  C   UNL A   1      35.673  31.835  27.918  1.00  0.00     0.065 A 
ATOM     21  C   UNL A   1      34.304  31.603  27.813  1.00  0.00     0.012 A 
ATOM     22  C   UNL A   1      36.188  33.134  28.082  1.00  0.00     0.028 A 
ATOM     23  C   UNL A   1      33.420  32.672  28.072  1.00  0.00     0.011 A 
ATOM     24  C   UNL A   1      35.298  34.143  28.451  1.00  0.00     0.002 A 
ATOM     25  C   UNL A   1      33.931  33.905  28.481  1.00  0.00     0.001 A 
BRANCH  18  26
ATOM     26  S   UNL A   1      36.785  30.643  29.947  1.00  0.00     0.268 S 
ATOM     27  O   UNL A   1      38.226  30.482  29.827  1.00  0.00    -0.201 OA
ATOM     28  O   UNL A   1      35.970  29.608  30.574  1.00  0.00    -0.201 OA
BRANCH  26  29
ATOM     29  C   UNL A   1      36.568  31.929  31.125  1.00  0.00     0.088 A 
ATOM     30  C   UNL A   1      34.839  35.122  33.473  1.00  0.00     0.044 C 
ATOM     31  C   UNL A   1      35.492  33.977  32.751  1.00  0.00    -0.051 A 
ATOM     32  C   UNL A   1      34.667  32.958  32.304  1.00  0.00     0.005 A 
ATOM     33  C   UNL A   1      36.866  33.938  32.413  1.00  0.00     0.005 A 
ATOM     34  C   UNL A   1      35.205  31.951  31.528  1.00  0.00     0.022 A 
ATOM     35  C   UNL A   1      37.417  32.916  31.587  1.00  0.00     0.022 A 
ENDBRANCH  26  29
ENDBRANCH  18  26
ENDBRANCH  15  17
ENDBRANCH  12  15
ENDBRANCH  10  11
ENDBRANCH   7  10
ENDBRANCH   5   6
BRANCH   5  36
ATOM     36  C   UNL A   1      32.618  23.201  24.791  1.00  0.00     0.074 C 
BRANCH  36  37
ATOM     37  C   UNL A   1      32.926  21.854  25.391  1.00  0.00    -0.020 A 
ATOM     38  C   UNL A   1      33.375  21.496  26.648  1.00  0.00     0.087 A 
ATOM     39  C   UNL A   1      32.749  20.618  24.678  1.00  0.00     0.003 A 
ATOM     40  N   UNL A   1      33.397  20.133  26.738  1.00  0.00    -0.361 N 
ATOM     41  C   UNL A   1      32.985  19.573  25.565  1.00  0.00     0.046 A 
ATOM     42  C   UNL A   1      32.380  20.301  23.358  1.00  0.00     0.010 A 
ATOM     43  H   UNL A   1      33.671  19.627  27.538  1.00  0.00     0.166 HD
ATOM     44  C   UNL A   1      32.807  18.228  25.237  1.00  0.00     0.026 A 
ATOM     45  C   UNL A   1      32.246  18.957  22.992  1.00  0.00     0.001 A 
ATOM     46  C   UNL A   1      32.436  17.940  23.924  1.00  0.00     0.002 A 
ENDBRANCH  36  37
ENDBRANCH   5  36
ENDBRANCH   3   5
ENDBRANCH   2   3
ENDBRANCH   1   2
BRANCH   1  47
ATOM     47  C   UNL A   1      37.138  21.248  24.997  1.00  0.00     0.202 C 
BRANCH  47  48
ATOM     48  O   UNL A   1      38.097  22.014  25.696  1.00  0.00    -0.374 OA
BRANCH  48  49
ATOM     49  C   UNL A   1      39.251  21.270  26.052  1.00  0.00     0.202 C 
BRANCH  49  50
ATOM     50  C   UNL A   1      40.170  21.975  27.072  1.00  0.00     0.261 C 
BRANCH  50  51
ATOM     51  O   UNL A   1      41.549  21.655  26.774  1.00  0.00    -0.460 OA
BRANCH  51  52
ATOM     52  C   UNL A   1      42.311  22.639  26.218  1.00  0.00     0.338 C 
ATOM     53  O   UNL A   1      42.787  22.624  25.094  1.00  0.00    -0.246 OA
BRANCH  52  54
ATOM     54  C   UNL A   1      42.775  23.569  27.291  1.00  0.00     0.060 A 
ATOM     55  C   UNL A   1      42.845  24.951  27.034  1.00  0.00     0.016 A 
ATOM     56  C   UNL A   1      43.482  23.034  28.363  1.00  0.00     0.016 A 
ATOM     57  C   UNL A   1      43.796  25.742  27.696  1.00  0.00     0.010 A 
ATOM     58  C   UNL A   1      44.478  23.795  28.933  1.00  0.00     0.010 A 
ATOM     59  C   UNL A   1      44.705  25.126  28.539  1.00  0.00    -0.014 A 
BRANCH  59  60
ATOM     60  C   UNL A   1      45.939  25.720  29.074  1.00  0.00     0.031 A 
ATOM     61  C   UNL A   1      47.133  25.554  28.219  1.00  0.00     0.074 A 
ATOM     62  C   UNL A   1      45.951  26.571  30.138  1.00  0.00     0.049 A 
ATOM     63  N   UNL A   1      48.304  25.978  28.519  1.00  0.00    -0.248 NA
ATOM     64  C   UNL A   1      47.103  24.870  26.928  1.00  0.00     0.031 C 
ATOM     65  C   UNL A   1      46.979  27.536  30.546  1.00  0.00     0.029 A 
ATOM     66  N   UNL A   1      45.005  26.725  31.166  1.00  0.00    -0.354 N 
ATOM     67  C   UNL A   1      49.111  25.858  27.414  1.00  0.00     0.074 A 
ATOM     68  C   UNL A   1      48.332  25.105  26.472  1.00  0.00     0.031 C 
ATOM     69  C   UNL A   1      46.795  27.867  31.842  1.00  0.00     0.029 A 
ATOM     70  C   UNL A   1      45.704  27.040  32.339  1.00  0.00     0.049 A 
ATOM     71  H   UNL A   1      44.030  26.630  31.078  1.00  0.00     0.167 HD
ATOM     72  C   UNL A   1      50.307  26.509  27.445  1.00  0.00     0.037 A 
ATOM     73  C   UNL A   1      45.699  26.172  33.384  1.00  0.00     0.037 A 
ATOM     74  C   UNL A   1      50.555  26.990  28.819  1.00  0.00     0.049 A 
ATOM     75  C   UNL A   1      47.125  25.742  33.552  1.00  0.00     0.074 A 
ATOM     76  C   UNL A   1      50.453  28.223  29.442  1.00  0.00     0.029 A 
ATOM     77  N   UNL A   1      50.578  26.042  29.850  1.00  0.00    -0.354 N 
ATOM     78  N   UNL A   1      47.957  25.614  32.546  1.00  0.00    -0.248 NA
ATOM     79  C   UNL A   1      47.776  25.698  34.856  1.00  0.00     0.031 C 
ATOM     80  C   UNL A   1      50.308  27.991  30.848  1.00  0.00     0.029 A 
ATOM     81  C   UNL A   1      50.335  26.621  31.082  1.00  0.00     0.049 A 
ATOM     82  H   UNL A   1      50.747  25.082  29.713  1.00  0.00     0.167 HD
ATOM     83  C   UNL A   1      49.229  25.659  33.041  1.00  0.00     0.074 A 
ATOM     84  C   UNL A   1      49.066  25.644  34.489  1.00  0.00     0.031 C 
ATOM     85  C   UNL A   1      50.361  25.809  32.296  1.00  0.00     0.037 A 
BRANCH  72  86
ATOM     86  C   UNL A   1      51.189  26.814  26.249  1.00  0.00     0.057 A 
ATOM     87  C   UNL A   1      51.957  25.793  25.656  1.00  0.00     0.134 A 
ATOM     88  C   UNL A   1      51.363  28.071  25.634  1.00  0.00     0.134 A 
ATOM     89  F   UNL A   1      51.974  24.548  26.153  1.00  0.00    -0.206 F 
ATOM     90  C   UNL A   1      52.772  25.996  24.532  1.00  0.00     0.040 A 
ATOM     91  C   UNL A   1      52.191  28.295  24.528  1.00  0.00     0.040 A 
ATOM     92  F   UNL A   1      50.731  29.171  26.036  1.00  0.00    -0.206 F 
ATOM     93  C   UNL A   1      52.881  27.250  23.954  1.00  0.00     0.006 A 
ENDBRANCH  72  86
BRANCH  73  94
ATOM     94  C   UNL A   1      44.407  25.412  33.481  1.00  0.00     0.057 A 
ATOM     95  C   UNL A   1      44.440  24.055  33.096  1.00  0.00     0.134 A 
ATOM     96  C   UNL A   1      43.392  25.752  34.376  1.00  0.00     0.134 A 
ATOM     97  F   UNL A   1      45.259  23.668  32.112  1.00  0.00    -0.206 F 
ATOM     98  C   UNL A   1      43.707  23.055  33.753  1.00  0.00     0.040 A 
ATOM     99  C   UNL A   1      42.594  24.764  34.989  1.00  0.00     0.040 A 
ATOM    100  F   UNL A   1      43.235  27.021  34.777  1.00  0.00    -0.206 F 
ATOM    101  C   UNL A   1      42.811  23.409  34.748  1.00  0.00     0.006 A 
ENDBRANCH  73  94
BRANCH  85 102
ATOM    102  C   UNL A   1      51.639  25.130  32.705  1.00  0.00     0.057 A 
ATOM    103  C   UNL A   1      51.770  23.733  32.777  1.00  0.00     0.134 A 
ATOM    104  C   UNL A   1      52.842  25.858  32.805  1.00  0.00     0.134 A 
ATOM    105  F   UNL A   1      50.729  22.909  32.586  1.00  0.00    -0.206 F 
ATOM    106  C   UNL A   1      52.998  23.106  32.984  1.00  0.00     0.040 A 
ATOM    107  C   UNL A   1      54.083  25.236  32.935  1.00  0.00     0.040 A 
ATOM    108  F   UNL A   1      52.874  27.196  32.730  1.00  0.00    -0.206 F 
ATOM    109  C   UNL A   1      54.162  23.857  33.042  1.00  0.00     0.006 A 
ENDBRANCH  85 102
ENDBRANCH  59  60
ENDBRANCH  52  54
ENDBRANCH  51  52
ENDBRANCH  50  51
ENDBRANCH  49  50
ENDBRANCH  48  49
ENDBRANCH  47  48
ENDBRANCH   1  47
TORSDOF 23
ENDMDL
MODEL 2
REMARK VINA RESULT:     -11.6      5.171     11.625
REMARK SMILES Cc1ccc(S(=O)(=O)n2cc(C(=O)C(=O)NCC(=O)N[C@@H](Cc3c[nH]c4ccccc34)C(=O)OCCOCCOC(=O)c3ccc(-c4c5nc(c(-c6c(F)cccc6F)c6ccc([nH]6)c(-c6c(F)cccc6F)c6nc(c(-c7c(F)cccc7F)c7ccc4[nH]7)C=C6)C=C5)cc3)c3ccccc32)cc1
REMARK SMILES IDX 35 1 34 2 32 3 33 4 21 5 20 6 18 7 19 8 17 10 16 11 14 12
REMARK SMILES IDX 15 13 12 15 13 16 11 17 9 18 10 19 102 20 97 21 101 22 98 23
REMARK SMILES IDX 100 24 99 25 6 26 7 27 8 28 5 29 1 30 2 31 3 32 104 33 4 34
REMARK SMILES IDX 103 35 22 36 23 37 24 38 31 39 25 40 26 41 30 42 27 44 29 45
REMARK SMILES IDX 28 46 36 47 37 48 38 49 39 50 40 51 41 52 42 53 43 54 44 55
REMARK SMILES IDX 96 56 45 57 95 58 46 59 47 60 48 61 89 62 49 63 94 64 88 65
REMARK SMILES IDX 90 66 50 67 93 68 87 69 86 70 51 72 77 73 60 74 76 75 61 76
REMARK SMILES IDX 64 77 75 78 91 79 62 80 63 81 74 83 92 84 65 85 52 86 53 87
REMARK SMILES IDX 58 88 54 89 55 90 57 91 59 92 56 93 78 94 79 95 84 96 80 97
REMARK SMILES IDX 81 98 83 99 85 100 82 101 66 102 67 103 72 104 68 105 69 106
REMARK SMILES IDX 71 107 73 108 70 109
REMARK H PARENT 20 9 16 14 25 43 90 71 64 82
REMARK Flexibility Score: inf
ROOT
ATOM      1  C   UNL A   1      46.911  26.025  31.832  1.00  0.00     0.261 C 
ENDROOT
BRANCH   1   2
ATOM      2  O   UNL A   1      47.165  25.421  30.578  1.00  0.00    -0.462 OA
BRANCH   2   3
ATOM      3  C   UNL A   1      47.052  26.192  29.460  1.00  0.00     0.329 C 
ATOM      4  O   UNL A   1      47.146  27.393  29.387  1.00  0.00    -0.250 OA
BRANCH   3   5
ATOM      5  C   UNL A   1      46.782  25.267  28.280  1.00  0.00     0.196 C 
BRANCH   5   6
ATOM      6  N   UNL A   1      48.039  24.623  27.877  1.00  0.00    -0.341 N 
ATOM      7  C   UNL A   1      49.038  25.077  27.073  1.00  0.00     0.240 C 
ATOM      8  O   UNL A   1      50.163  24.603  27.265  1.00  0.00    -0.273 OA
ATOM      9  H   UNL A   1      48.182  23.721  28.246  1.00  0.00     0.164 HD
BRANCH   7  10
ATOM     10  C   UNL A   1      48.833  26.227  26.072  1.00  0.00     0.216 C 
BRANCH  10  11
ATOM     11  N   UNL A   1      48.840  27.576  26.633  1.00  0.00    -0.340 N 
ATOM     12  C   UNL A   1      48.028  28.660  26.317  1.00  0.00     0.292 C 
ATOM     13  O   UNL A   1      48.296  29.776  26.748  1.00  0.00    -0.265 OA
ATOM     14  H   UNL A   1      49.515  27.741  27.331  1.00  0.00     0.164 HD
BRANCH  12  15
ATOM     15  C   UNL A   1      46.792  28.448  25.438  1.00  0.00     0.252 C 
ATOM     16  O   UNL A   1      46.886  28.890  24.290  1.00  0.00    -0.283 OA
BRANCH  15  17
ATOM     17  C   UNL A   1      45.535  27.851  25.926  1.00  0.00     0.054 A 
ATOM     18  N   UNL A   1      43.588  26.712  26.237  1.00  0.00    -0.240 N 
ATOM     19  C   UNL A   1      44.697  26.863  25.388  1.00  0.00     0.117 A 
ATOM     20  C   UNL A   1      43.931  27.353  27.448  1.00  0.00     0.065 A 
ATOM     21  C   UNL A   1      44.861  28.327  27.094  1.00  0.00     0.012 A 
ATOM     22  C   UNL A   1      43.235  27.411  28.670  1.00  0.00     0.028 A 
ATOM     23  C   UNL A   1      44.955  29.488  27.891  1.00  0.00     0.011 A 
ATOM     24  C   UNL A   1      43.259  28.615  29.373  1.00  0.00     0.002 A 
ATOM     25  C   UNL A   1      44.082  29.656  28.968  1.00  0.00     0.001 A 
BRANCH  18  26
ATOM     26  S   UNL A   1      41.932  27.161  25.792  1.00  0.00     0.268 S 
ATOM     27  O   UNL A   1      41.327  25.883  25.447  1.00  0.00    -0.201 OA
ATOM     28  O   UNL A   1      42.153  28.181  24.772  1.00  0.00    -0.201 OA
BRANCH  26  29
ATOM     29  C   UNL A   1      40.725  27.987  26.765  1.00  0.00     0.088 A 
ATOM     30  C   UNL A   1      37.135  28.868  29.008  1.00  0.00     0.044 C 
ATOM     31  C   UNL A   1      38.440  28.621  28.306  1.00  0.00    -0.051 A 
ATOM     32  C   UNL A   1      38.918  27.320  28.301  1.00  0.00     0.005 A 
ATOM     33  C   UNL A   1      39.139  29.607  27.570  1.00  0.00     0.005 A 
ATOM     34  C   UNL A   1      40.046  27.025  27.562  1.00  0.00     0.022 A 
ATOM     35  C   UNL A   1      40.286  29.297  26.782  1.00  0.00     0.022 A 
ENDBRANCH  26  29
ENDBRANCH  18  26
ENDBRANCH  15  17
ENDBRANCH  12  15
ENDBRANCH  10  11
ENDBRANCH   7  10
ENDBRANCH   5   6
BRANCH   5  36
ATOM     36  C   UNL A   1      45.664  24.276  28.580  1.00  0.00     0.074 C 
BRANCH  36  37
ATOM     37  C   UNL A   1      44.921  23.619  27.445  1.00  0.00    -0.020 A 
ATOM     38  C   UNL A   1      45.370  23.048  26.270  1.00  0.00     0.087 A 
ATOM     39  C   UNL A   1      43.493  23.450  27.435  1.00  0.00     0.003 A 
ATOM     40  N   UNL A   1      44.309  22.489  25.615  1.00  0.00    -0.361 N 
ATOM     41  C   UNL A   1      43.159  22.687  26.321  1.00  0.00     0.046 A 
ATOM     42  C   UNL A   1      42.460  23.859  28.297  1.00  0.00     0.010 A 
ATOM     43  H   UNL A   1      44.367  22.011  24.756  1.00  0.00     0.166 HD
ATOM     44  C   UNL A   1      41.863  22.246  26.050  1.00  0.00     0.026 A 
ATOM     45  C   UNL A   1      41.145  23.472  28.017  1.00  0.00     0.001 A 
ATOM     46  C   UNL A   1      40.857  22.660  26.922  1.00  0.00     0.002 A 
ENDBRANCH  36  37
ENDBRANCH   5  36
ENDBRANCH   3   5
ENDBRANCH   2   3
ENDBRANCH   1   2
BRANCH   1  47
ATOM     47  C   UNL A   1      47.924  25.551  32.809  1.00  0.00     0.202 C 
BRANCH  47  48
ATOM     48  O   UNL A   1      47.249  24.667  33.679  1.00  0.00    -0.374 OA
BRANCH  48  49
ATOM     49  C   UNL A   1      47.693  24.763  35.023  1.00  0.00     0.202 C 
BRANCH  49  50
ATOM     50  C   UNL A   1      46.565  24.658  36.072  1.00  0.00     0.261 C 
BRANCH  50  51
ATOM     51  O   UNL A   1      45.290  24.567  35.395  1.00  0.00    -0.460 OA
BRANCH  51  52
ATOM     52  C   UNL A   1      44.215  25.134  36.012  1.00  0.00     0.338 C 
ATOM     53  O   UNL A   1      43.785  24.835  37.115  1.00  0.00    -0.246 OA
BRANCH  52  54
ATOM     54  C   UNL A   1      43.428  25.917  35.011  1.00  0.00     0.060 A 
ATOM     55  C   UNL A   1      43.963  26.147  33.730  1.00  0.00     0.016 A 
ATOM     56  C   UNL A   1      42.388  26.715  35.474  1.00  0.00     0.016 A 
ATOM     57  C   UNL A   1      43.619  27.309  33.023  1.00  0.00     0.010 A 
ATOM     58  C   UNL A   1      42.133  27.900  34.821  1.00  0.00     0.010 A 
ATOM     59  C   UNL A   1      42.814  28.251  33.641  1.00  0.00    -0.014 A 
BRANCH  59  60
ATOM     60  C   UNL A   1      42.595  29.636  33.198  1.00  0.00     0.031 A 
ATOM     61  C   UNL A   1      41.379  29.845  32.383  1.00  0.00     0.074 A 
ATOM     62  C   UNL A   1      43.298  30.693  33.692  1.00  0.00     0.049 A 
ATOM     63  N   UNL A   1      41.027  30.970  31.883  1.00  0.00    -0.248 NA
ATOM     64  C   UNL A   1      40.446  28.771  32.050  1.00  0.00     0.031 C 
ATOM     65  C   UNL A   1      42.964  32.122  33.674  1.00  0.00     0.029 A 
ATOM     66  N   UNL A   1      44.558  30.712  34.313  1.00  0.00    -0.354 N 
ATOM     67  C   UNL A   1      39.751  30.850  31.389  1.00  0.00     0.074 A 
ATOM     68  C   UNL A   1      39.460  29.446  31.461  1.00  0.00     0.031 C 
ATOM     69  C   UNL A   1      44.083  32.847  33.888  1.00  0.00     0.029 A 
ATOM     70  C   UNL A   1      45.193  31.905  33.944  1.00  0.00     0.049 A 
ATOM     71  H   UNL A   1      44.928  30.014  34.901  1.00  0.00     0.167 HD
ATOM     72  C   UNL A   1      39.097  32.003  31.071  1.00  0.00     0.037 A 
ATOM     73  C   UNL A   1      46.318  31.866  33.182  1.00  0.00     0.037 A 
ATOM     74  C   UNL A   1      40.059  33.122  31.100  1.00  0.00     0.049 A 
ATOM     75  C   UNL A   1      45.955  32.548  31.898  1.00  0.00     0.074 A 
ATOM     76  C   UNL A   1      40.333  34.135  32.005  1.00  0.00     0.029 A 
ATOM     77  N   UNL A   1      41.179  33.044  30.264  1.00  0.00    -0.354 N 
ATOM     78  N   UNL A   1      44.756  32.487  31.370  1.00  0.00    -0.248 NA
ATOM     79  C   UNL A   1      46.813  33.551  31.280  1.00  0.00     0.031 C 
ATOM     80  C   UNL A   1      41.672  34.583  31.764  1.00  0.00     0.029 A 
ATOM     81  C   UNL A   1      42.206  33.857  30.707  1.00  0.00     0.049 A 
ATOM     82  H   UNL A   1      41.229  32.479  29.459  1.00  0.00     0.167 HD
ATOM     83  C   UNL A   1      44.623  33.531  30.500  1.00  0.00     0.074 A 
ATOM     84  C   UNL A   1      45.951  34.126  30.426  1.00  0.00     0.031 C 
ATOM     85  C   UNL A   1      43.450  33.954  29.947  1.00  0.00     0.037 A 
BRANCH  72  86
ATOM     86  C   UNL A   1      37.603  32.150  30.853  1.00  0.00     0.057 A 
ATOM     87  C   UNL A   1      37.099  32.417  29.564  1.00  0.00     0.134 A 
ATOM     88  C   UNL A   1      36.599  32.071  31.840  1.00  0.00     0.134 A 
ATOM     89  F   UNL A   1      37.913  32.598  28.515  1.00  0.00    -0.206 F 
ATOM     90  C   UNL A   1      35.729  32.539  29.283  1.00  0.00     0.040 A 
ATOM     91  C   UNL A   1      35.231  32.215  31.579  1.00  0.00     0.040 A 
ATOM     92  F   UNL A   1      36.857  31.827  33.122  1.00  0.00    -0.206 F 
ATOM     93  C   UNL A   1      34.787  32.423  30.292  1.00  0.00     0.006 A 
ENDBRANCH  72  86
BRANCH  73  94
ATOM     94  C   UNL A   1      47.151  30.650  33.468  1.00  0.00     0.057 A 
ATOM     95  C   UNL A   1      47.366  29.762  32.392  1.00  0.00     0.134 A 
ATOM     96  C   UNL A   1      48.118  30.610  34.473  1.00  0.00     0.134 A 
ATOM     97  F   UNL A   1      46.410  29.598  31.471  1.00  0.00    -0.206 F 
ATOM     98  C   UNL A   1      48.581  29.090  32.184  1.00  0.00     0.040 A 
ATOM     99  C   UNL A   1      49.312  29.878  34.314  1.00  0.00     0.040 A 
ATOM    100  F   UNL A   1      47.995  31.376  35.566  1.00  0.00    -0.206 F 
ATOM    101  C   UNL A   1      49.586  29.192  33.132  1.00  0.00     0.006 A 
ENDBRANCH  73  94
BRANCH  85 102
ATOM    102  C   UNL A   1      43.421  34.507  28.549  1.00  0.00     0.057 A 
ATOM    103  C   UNL A   1      43.882  33.785  27.434  1.00  0.00     0.134 A 
ATOM    104  C   UNL A   1      42.709  35.687  28.255  1.00  0.00     0.134 A 
ATOM    105  F   UNL A   1      44.476  32.589  27.556  1.00  0.00    -0.206 F 
ATOM    106  C   UNL A   1      43.693  34.227  26.127  1.00  0.00     0.040 A 
ATOM    107  C   UNL A   1      42.450  36.097  26.948  1.00  0.00     0.040 A 
ATOM    108  F   UNL A   1      42.191  36.465  29.216  1.00  0.00    -0.206 F 
ATOM    109  C   UNL A   1      42.957  35.376  25.879  1.00  0.00     0.006 A 
ENDBRANCH  85 102
ENDBRANCH  59  60
ENDBRANCH  52  54
ENDBRANCH  51  52
ENDBRANCH  50  51
ENDBRANCH  49  50
ENDBRANCH  48  49
ENDBRANCH  47  48
ENDBRANCH   1  47
TORSDOF 23
ENDMDL
MODEL 3
REMARK VINA RESULT:     -11.6      4.124      9.342
REMARK SMILES Cc1ccc(S(=O)(=O)n2cc(C(=O)C(=O)NCC(=O)N[C@@H](Cc3c[nH]c4ccccc34)C(=O)OCCOCCOC(=O)c3ccc(-c4c5nc(c(-c6c(F)cccc6F)c6ccc([nH]6)c(-c6c(F)cccc6F)c6nc(c(-c7c(F)cccc7F)c7ccc4[nH]7)C=C6)C=C5)cc3)c3ccccc32)cc1
REMARK SMILES IDX 35 1 34 2 32 3 33 4 21 5 20 6 18 7 19 8 17 10 16 11 14 12
REMARK SMILES IDX 15 13 12 15 13 16 11 17 9 18 10 19 102 20 97 21 101 22 98 23
REMARK SMILES IDX 100 24 99 25 6 26 7 27 8 28 5 29 1 30 2 31 3 32 104 33 4 34
REMARK SMILES IDX 103 35 22 36 23 37 24 38 31 39 25 40 26 41 30 42 27 44 29 45
REMARK SMILES IDX 28 46 36 47 37 48 38 49 39 50 40 51 41 52 42 53 43 54 44 55
REMARK SMILES IDX 96 56 45 57 95 58 46 59 47 60 48 61 89 62 49 63 94 64 88 65
REMARK SMILES IDX 90 66 50 67 93 68 87 69 86 70 51 72 77 73 60 74 76 75 61 76
REMARK SMILES IDX 64 77 75 78 91 79 62 80 63 81 74 83 92 84 65 85 52 86 53 87
REMARK SMILES IDX 58 88 54 89 55 90 57 91 59 92 56 93 78 94 79 95 84 96 80 97
REMARK SMILES IDX 81 98 83 99 85 100 82 101 66 102 67 103 72 104 68 105 69 106
REMARK SMILES IDX 71 107 73 108 70 109
REMARK H PARENT 20 9 16 14 25 43 90 71 64 82
REMARK Flexibility Score: inf
ROOT
ATOM      1  C   UNL A   1      31.384  26.893  26.510  1.00  0.00     0.261 C 
ENDROOT
BRANCH   1   2
ATOM      2  O   UNL A   1      32.296  25.862  26.182  1.00  0.00    -0.462 OA
BRANCH   2   3
ATOM      3  C   UNL A   1      31.890  24.571  26.343  1.00  0.00     0.329 C 
ATOM      4  O   UNL A   1      31.553  24.032  27.369  1.00  0.00    -0.250 OA
BRANCH   3   5
ATOM      5  C   UNL A   1      31.928  23.895  24.978  1.00  0.00     0.196 C 
BRANCH   5   6
ATOM      6  N   UNL A   1      32.540  24.810  24.005  1.00  0.00    -0.341 N 
ATOM      7  C   UNL A   1      33.821  24.878  23.552  1.00  0.00     0.240 C 
ATOM      8  O   UNL A   1      33.987  25.370  22.432  1.00  0.00    -0.273 OA
ATOM      9  H   UNL A   1      31.929  25.479  23.622  1.00  0.00     0.164 HD
BRANCH   7  10
ATOM     10  C   UNL A   1      35.000  24.246  24.314  1.00  0.00     0.216 C 
BRANCH  10  11
ATOM     11  N   UNL A   1      35.865  23.360  23.538  1.00  0.00    -0.340 N 
ATOM     12  C   UNL A   1      36.887  22.527  23.980  1.00  0.00     0.292 C 
ATOM     13  O   UNL A   1      37.640  21.996  23.172  1.00  0.00    -0.265 OA
ATOM     14  H   UNL A   1      35.700  23.351  22.567  1.00  0.00     0.164 HD
BRANCH  12  15
ATOM     15  C   UNL A   1      37.059  22.271  25.480  1.00  0.00     0.252 C 
ATOM     16  O   UNL A   1      36.125  21.674  26.019  1.00  0.00    -0.283 OA
BRANCH  15  17
ATOM     17  C   UNL A   1      38.200  22.775  26.268  1.00  0.00     0.054 A 
ATOM     18  N   UNL A   1      39.734  23.988  27.433  1.00  0.00    -0.240 N 
ATOM     19  C   UNL A   1      38.464  24.032  26.834  1.00  0.00     0.117 A 
ATOM     20  C   UNL A   1      40.077  22.621  27.529  1.00  0.00     0.065 A 
ATOM     21  C   UNL A   1      39.378  21.998  26.500  1.00  0.00     0.012 A 
ATOM     22  C   UNL A   1      41.184  22.007  28.143  1.00  0.00     0.028 A 
ATOM     23  C   UNL A   1      39.915  20.819  25.940  1.00  0.00     0.011 A 
ATOM     24  C   UNL A   1      41.759  20.913  27.497  1.00  0.00     0.002 A 
ATOM     25  C   UNL A   1      41.151  20.346  26.386  1.00  0.00     0.001 A 
BRANCH  18  26
ATOM     26  S   UNL A   1      41.137  24.899  26.847  1.00  0.00     0.268 S 
ATOM     27  O   UNL A   1      41.392  25.841  27.926  1.00  0.00    -0.201 OA
ATOM     28  O   UNL A   1      40.678  25.365  25.543  1.00  0.00    -0.201 OA
BRANCH  26  29
ATOM     29  C   UNL A   1      42.721  24.291  26.391  1.00  0.00     0.088 A 
ATOM     30  C   UNL A   1      45.879  21.861  24.711  1.00  0.00     0.044 C 
ATOM     31  C   UNL A   1      44.843  22.796  25.267  1.00  0.00    -0.051 A 
ATOM     32  C   UNL A   1      43.632  22.868  24.598  1.00  0.00     0.005 A 
ATOM     33  C   UNL A   1      44.996  23.513  26.479  1.00  0.00     0.005 A 
ATOM     34  C   UNL A   1      42.608  23.617  25.144  1.00  0.00     0.022 A 
ATOM     35  C   UNL A   1      43.931  24.261  27.059  1.00  0.00     0.022 A 
ENDBRANCH  26  29
ENDBRANCH  18  26
ENDBRANCH  15  17
ENDBRANCH  12  15
ENDBRANCH  10  11
ENDBRANCH   7  10
ENDBRANCH   5   6
BRANCH   5  36
ATOM     36  C   UNL A   1      32.609  22.533  25.038  1.00  0.00     0.074 C 
BRANCH  36  37
ATOM     37  C   UNL A   1      32.318  21.503  23.978  1.00  0.00    -0.020 A 
ATOM     38  C   UNL A   1      31.911  21.635  22.664  1.00  0.00     0.087 A 
ATOM     39  C   UNL A   1      32.465  20.089  24.195  1.00  0.00     0.003 A 
ATOM     40  N   UNL A   1      31.888  20.400  22.081  1.00  0.00    -0.361 N 
ATOM     41  C   UNL A   1      32.257  19.444  22.981  1.00  0.00     0.046 A 
ATOM     42  C   UNL A   1      32.787  19.306  25.319  1.00  0.00     0.010 A 
ATOM     43  H   UNL A   1      31.640  20.226  21.144  1.00  0.00     0.166 HD
ATOM     44  C   UNL A   1      32.418  18.069  22.800  1.00  0.00     0.026 A 
ATOM     45  C   UNL A   1      32.903  17.919  25.173  1.00  0.00     0.001 A 
ATOM     46  C   UNL A   1      32.741  17.316  23.928  1.00  0.00     0.002 A 
ENDBRANCH  36  37
ENDBRANCH   5  36
ENDBRANCH   3   5
ENDBRANCH   2   3
ENDBRANCH   1   2
BRANCH   1  47
ATOM     47  C   UNL A   1      31.282  27.829  25.363  1.00  0.00     0.202 C 
BRANCH  47  48
ATOM     48  O   UNL A   1      32.404  28.684  25.451  1.00  0.00    -0.374 OA
BRANCH  48  49
ATOM     49  C   UNL A   1      32.058  30.026  25.753  1.00  0.00     0.202 C 
BRANCH  49  50
ATOM     50  C   UNL A   1      32.432  30.470  27.183  1.00  0.00     0.261 C 
BRANCH  50  51
ATOM     51  O   UNL A   1      33.256  31.656  27.115  1.00  0.00    -0.460 OA
BRANCH  51  52
ATOM     52  C   UNL A   1      33.956  31.995  28.235  1.00  0.00     0.338 C 
ATOM     53  O   UNL A   1      33.579  32.762  29.107  1.00  0.00    -0.246 OA
BRANCH  52  54
ATOM     54  C   UNL A   1      35.381  31.578  28.071  1.00  0.00     0.060 A 
ATOM     55  C   UNL A   1      35.751  30.244  28.324  1.00  0.00     0.016 A 
ATOM     56  C   UNL A   1      36.356  32.569  28.054  1.00  0.00     0.016 A 
ATOM     57  C   UNL A   1      37.042  29.948  28.787  1.00  0.00     0.010 A 
ATOM     58  C   UNL A   1      37.586  32.285  28.604  1.00  0.00     0.010 A 
ATOM     59  C   UNL A   1      37.907  30.994  29.061  1.00  0.00    -0.014 A 
BRANCH  59  60
ATOM     60  C   UNL A   1      39.162  30.910  29.822  1.00  0.00     0.031 A 
ATOM     61  C   UNL A   1      40.179  30.002  29.250  1.00  0.00     0.074 A 
ATOM     62  C   UNL A   1      39.480  31.772  30.828  1.00  0.00     0.049 A 
ATOM     63  N   UNL A   1      41.324  29.773  29.775  1.00  0.00    -0.248 NA
ATOM     64  C   UNL A   1      39.974  29.253  28.012  1.00  0.00     0.031 C 
ATOM     65  C   UNL A   1      40.793  32.086  31.405  1.00  0.00     0.029 A 
ATOM     66  N   UNL A   1      38.633  32.563  31.623  1.00  0.00    -0.354 N 
ATOM     67  C   UNL A   1      42.089  29.073  28.873  1.00  0.00     0.074 A 
ATOM     68  C   UNL A   1      41.180  28.720  27.819  1.00  0.00     0.031 C 
ATOM     69  C   UNL A   1      40.625  32.657  32.617  1.00  0.00     0.029 A 
ATOM     70  C   UNL A   1      39.197  32.630  32.903  1.00  0.00     0.049 A 
ATOM     71  H   UNL A   1      37.796  32.993  31.333  1.00  0.00     0.167 HD
ATOM     72  C   UNL A   1      43.423  28.978  29.132  1.00  0.00     0.037 A 
ATOM     73  C   UNL A   1      38.549  32.071  33.959  1.00  0.00     0.037 A 
ATOM     74  C   UNL A   1      43.679  29.455  30.505  1.00  0.00     0.049 A 
ATOM     75  C   UNL A   1      39.450  30.976  34.446  1.00  0.00     0.074 A 
ATOM     76  C   UNL A   1      44.184  30.629  31.040  1.00  0.00     0.029 A 
ATOM     77  N   UNL A   1      43.013  28.813  31.556  1.00  0.00    -0.354 N 
ATOM     78  N   UNL A   1      40.216  30.271  33.647  1.00  0.00    -0.248 NA
ATOM     79  C   UNL A   1      39.756  30.790  35.859  1.00  0.00     0.031 C 
ATOM     80  C   UNL A   1      43.718  30.728  32.391  1.00  0.00     0.029 A 
ATOM     81  C   UNL A   1      42.945  29.611  32.683  1.00  0.00     0.049 A 
ATOM     82  H   UNL A   1      42.639  27.904  31.499  1.00  0.00     0.167 HD
ATOM     83  C   UNL A   1      41.203  29.703  34.399  1.00  0.00     0.074 A 
ATOM     84  C   UNL A   1      40.837  29.999  35.778  1.00  0.00     0.031 C 
ATOM     85  C   UNL A   1      42.327  29.108  33.907  1.00  0.00     0.037 A 
BRANCH  72  86
ATOM     86  C   UNL A   1      44.498  28.578  28.139  1.00  0.00     0.057 A 
ATOM     87  C   UNL A   1      44.657  29.298  26.938  1.00  0.00     0.134 A 
ATOM     88  C   UNL A   1      45.396  27.497  28.265  1.00  0.00     0.134 A 
ATOM     89  F   UNL A   1      43.844  30.313  26.615  1.00  0.00    -0.206 F 
ATOM     90  C   UNL A   1      45.647  29.002  25.988  1.00  0.00     0.040 A 
ATOM     91  C   UNL A   1      46.371  27.174  27.315  1.00  0.00     0.040 A 
ATOM     92  F   UNL A   1      45.416  26.688  29.321  1.00  0.00    -0.206 F 
ATOM     93  C   UNL A   1      46.519  27.943  26.181  1.00  0.00     0.006 A 
ENDBRANCH  72  86
BRANCH  73  94
ATOM     94  C   UNL A   1      37.057  32.146  33.810  1.00  0.00     0.057 A 
ATOM     95  C   UNL A   1      36.437  33.338  34.241  1.00  0.00     0.134 A 
ATOM     96  C   UNL A   1      36.352  31.424  32.846  1.00  0.00     0.134 A 
ATOM     97  F   UNL A   1      36.942  34.006  35.284  1.00  0.00    -0.206 F 
ATOM     98  C   UNL A   1      35.346  33.918  33.574  1.00  0.00     0.040 A 
ATOM     99  C   UNL A   1      35.209  31.959  32.219  1.00  0.00     0.040 A 
ATOM    100  F   UNL A   1      36.823  30.253  32.395  1.00  0.00    -0.206 F 
ATOM    101  C   UNL A   1      34.758  33.244  32.516  1.00  0.00     0.006 A 
ENDBRANCH  73  94
BRANCH  85 102
ATOM    102  C   UNL A   1      42.932  27.923  34.607  1.00  0.00     0.057 A 
ATOM    103  C   UNL A   1      44.216  27.949  35.179  1.00  0.00     0.134 A 
ATOM    104  C   UNL A   1      42.146  26.800  34.934  1.00  0.00     0.134 A 
ATOM    105  F   UNL A   1      45.032  29.005  35.047  1.00  0.00    -0.206 F 
ATOM    106  C   UNL A   1      44.701  26.914  35.975  1.00  0.00     0.040 A 
ATOM    107  C   UNL A   1      42.596  25.797  35.791  1.00  0.00     0.040 A 
ATOM    108  F   UNL A   1      40.893  26.650  34.481  1.00  0.00    -0.206 F 
ATOM    109  C   UNL A   1      43.883  25.843  36.301  1.00  0.00     0.006 A 
ENDBRANCH  85 102
ENDBRANCH  59  60
ENDBRANCH  52  54
ENDBRANCH  51  52
ENDBRANCH  50  51
ENDBRANCH  49  50
ENDBRANCH  48  49
ENDBRANCH  47  48
ENDBRANCH   1  47
TORSDOF 23
ENDMDL
