MODEL 1
REMARK VINA RESULT:     -10.6      0.000      0.000
REMARK SMILES C[C@H](NC(=O)c1cc(S(=O)(=O)N(C)C)cs1)C(=O)OCCOCCOC(=O)c1ccc(-c2c3nc(c(-c4c(F)cccc4F)c4ccc([nH]4)c(-c4c(F)cccc4F)c4nc(c(-c5c(F)cccc5F)c5ccc2[nH]5)C=C4)C=C3)cc1
REMARK SMILES IDX 21 1 20 2 19 3 17 4 18 5 2 6 1 7 3 8 4 9 5 11 6 12 7 13
REMARK SMILES IDX 16 14 8 15 15 16 9 17 10 18 11 19 12 20 13 21 14 22 22 23
REMARK SMILES IDX 23 24 24 25 25 26 26 27 27 28 28 29 29 30 81 31 30 32 80 33
REMARK SMILES IDX 31 34 32 35 33 36 74 37 34 38 79 39 73 40 75 41 35 42 78 43
REMARK SMILES IDX 72 44 71 45 36 47 62 48 45 49 61 50 46 51 49 52 60 53 76 54
REMARK SMILES IDX 47 55 48 56 59 58 77 59 50 60 37 61 38 62 43 63 39 64 40 65
REMARK SMILES IDX 42 66 44 67 41 68 63 69 64 70 69 71 65 72 66 73 68 74 70 75
REMARK SMILES IDX 67 76 51 77 52 78 57 79 53 80 54 81 56 82 58 83 55 84
REMARK H PARENT 3 10 75 46 49 57
REMARK Flexibility Score: inf
ROOT
ATOM      1  C   UNL A   1      33.817  31.602  27.713  1.00  0.00     0.202 C 
ENDROOT
BRANCH   1   2
ATOM      2  C   UNL A   1      34.634  30.362  27.345  1.00  0.00     0.261 C 
BRANCH   2   3
ATOM      3  O   UNL A   1      33.858  29.156  27.498  1.00  0.00    -0.462 OA
BRANCH   3   4
ATOM      4  C   UNL A   1      33.429  28.588  26.336  1.00  0.00     0.328 C 
ATOM      5  O   UNL A   1      34.096  28.530  25.308  1.00  0.00    -0.250 OA
BRANCH   4   6
ATOM      6  C   UNL A   1      31.950  28.166  26.375  1.00  0.00     0.189 C 
ATOM      7  C   UNL A   1      31.577  28.056  27.853  1.00  0.00     0.043 C 
BRANCH   6   8
ATOM      8  N   UNL A   1      31.531  26.920  25.717  1.00  0.00    -0.338 N 
ATOM      9  C   UNL A   1      30.672  26.756  24.649  1.00  0.00     0.262 C 
ATOM     10  H   UNL A   1      31.913  26.092  26.089  1.00  0.00     0.164 HD
ATOM     11  O   UNL A   1      30.208  25.636  24.449  1.00  0.00    -0.268 OA
BRANCH   9  12
ATOM     12  C   UNL A   1      30.498  27.851  23.718  1.00  0.00     0.093 A 
ATOM     13  C   UNL A   1      29.425  28.718  23.681  1.00  0.00     0.047 A 
ATOM     14  S   UNL A   1      31.693  28.318  22.593  1.00  0.00    -0.137 S 
ATOM     15  C   UNL A   1      29.443  29.573  22.550  1.00  0.00     0.094 A 
ATOM     16  C   UNL A   1      30.658  29.508  21.900  1.00  0.00     0.087 A 
BRANCH  15  17
ATOM     17  S   UNL A   1      28.097  30.546  22.019  1.00  0.00     0.243 S 
ATOM     18  O   UNL A   1      27.734  29.978  20.741  1.00  0.00    -0.207 OA
ATOM     19  O   UNL A   1      27.217  30.505  23.166  1.00  0.00    -0.207 OA
BRANCH  17  20
ATOM     20  N   UNL A   1      28.606  32.158  21.781  1.00  0.00    -0.204 NA
ATOM     21  C   UNL A   1      27.942  32.908  20.695  1.00  0.00     0.124 C 
ATOM     22  C   UNL A   1      28.704  32.977  23.013  1.00  0.00     0.124 C 
ENDBRANCH  17  20
ENDBRANCH  15  17
ENDBRANCH   9  12
ENDBRANCH   6   8
ENDBRANCH   4   6
ENDBRANCH   3   4
ENDBRANCH   2   3
ENDBRANCH   1   2
BRANCH   1  23
ATOM     23  O   UNL A   1      34.551  32.782  28.029  1.00  0.00    -0.374 OA
BRANCH  23  24
ATOM     24  C   UNL A   1      33.935  33.704  28.916  1.00  0.00     0.202 C 
BRANCH  24  25
ATOM     25  C   UNL A   1      34.328  33.662  30.394  1.00  0.00     0.261 C 
BRANCH  25  26
ATOM     26  O   UNL A   1      34.561  32.341  30.858  1.00  0.00    -0.460 OA
BRANCH  26  27
ATOM     27  C   UNL A   1      35.463  32.270  31.863  1.00  0.00     0.338 C 
ATOM     28  O   UNL A   1      35.332  32.612  33.025  1.00  0.00    -0.246 OA
BRANCH  27  29
ATOM     29  C   UNL A   1      36.610  31.525  31.344  1.00  0.00     0.060 A 
ATOM     30  C   UNL A   1      37.453  30.895  32.268  1.00  0.00     0.016 A 
ATOM     31  C   UNL A   1      36.821  31.428  29.968  1.00  0.00     0.016 A 
ATOM     32  C   UNL A   1      38.553  30.185  31.810  1.00  0.00     0.010 A 
ATOM     33  C   UNL A   1      37.925  30.723  29.513  1.00  0.00     0.010 A 
ATOM     34  C   UNL A   1      38.807  30.133  30.435  1.00  0.00    -0.014 A 
BRANCH  34  35
ATOM     35  C   UNL A   1      40.094  29.619  29.940  1.00  0.00     0.031 A 
ATOM     36  C   UNL A   1      41.221  30.591  29.782  1.00  0.00     0.074 A 
ATOM     37  C   UNL A   1      40.216  28.333  29.584  1.00  0.00     0.049 A 
ATOM     38  N   UNL A   1      42.383  30.427  29.212  1.00  0.00    -0.248 NA
ATOM     39  C   UNL A   1      40.991  31.944  30.318  1.00  0.00     0.031 C 
ATOM     40  C   UNL A   1      39.175  27.316  29.724  1.00  0.00     0.029 A 
ATOM     41  N   UNL A   1      41.262  27.677  28.994  1.00  0.00    -0.354 N 
ATOM     42  C   UNL A   1      43.013  31.662  29.296  1.00  0.00     0.074 A 
ATOM     43  C   UNL A   1      42.093  32.570  29.943  1.00  0.00     0.031 C 
ATOM     44  C   UNL A   1      39.625  26.165  29.196  1.00  0.00     0.029 A 
ATOM     45  C   UNL A   1      40.960  26.385  28.647  1.00  0.00     0.049 A 
ATOM     46  H   UNL A   1      42.141  28.090  28.834  1.00  0.00     0.167 HD
ATOM     47  C   UNL A   1      44.250  32.000  28.866  1.00  0.00     0.037 A 
ATOM     48  C   UNL A   1      41.672  25.500  27.925  1.00  0.00     0.037 A 
ATOM     49  C   UNL A   1      45.139  31.074  28.216  1.00  0.00     0.049 A 
ATOM     50  C   UNL A   1      43.028  25.904  27.413  1.00  0.00     0.074 A 
ATOM     51  C   UNL A   1      46.431  31.285  27.773  1.00  0.00     0.029 A 
ATOM     52  N   UNL A   1      44.813  29.761  27.900  1.00  0.00    -0.354 N 
ATOM     53  N   UNL A   1      43.643  27.058  27.528  1.00  0.00    -0.248 NA
ATOM     54  C   UNL A   1      43.790  24.887  26.679  1.00  0.00     0.031 C 
ATOM     55  C   UNL A   1      46.861  30.120  27.129  1.00  0.00     0.029 A 
ATOM     56  C   UNL A   1      45.866  29.160  27.237  1.00  0.00     0.049 A 
ATOM     57  H   UNL A   1      43.957  29.324  28.116  1.00  0.00     0.167 HD
ATOM     58  C   UNL A   1      44.875  26.899  26.909  1.00  0.00     0.074 A 
ATOM     59  C   UNL A   1      44.919  25.534  26.421  1.00  0.00     0.031 C 
ATOM     60  C   UNL A   1      45.884  27.795  26.766  1.00  0.00     0.037 A 
BRANCH  47  61
ATOM     61  C   UNL A   1      44.672  33.429  29.042  1.00  0.00     0.057 A 
ATOM     62  C   UNL A   1      45.432  33.859  30.139  1.00  0.00     0.134 A 
ATOM     63  C   UNL A   1      44.290  34.400  28.108  1.00  0.00     0.134 A 
ATOM     64  F   UNL A   1      45.818  32.985  31.083  1.00  0.00    -0.206 F 
ATOM     65  C   UNL A   1      45.757  35.204  30.323  1.00  0.00     0.040 A 
ATOM     66  C   UNL A   1      44.638  35.742  28.262  1.00  0.00     0.040 A 
ATOM     67  F   UNL A   1      43.562  34.062  27.032  1.00  0.00    -0.206 F 
ATOM     68  C   UNL A   1      45.363  36.150  29.380  1.00  0.00     0.006 A 
ENDBRANCH  47  61
BRANCH  48  69
ATOM     69  C   UNL A   1      41.095  24.164  27.642  1.00  0.00     0.057 A 
ATOM     70  C   UNL A   1      40.109  23.993  26.665  1.00  0.00     0.134 A 
ATOM     71  C   UNL A   1      41.556  23.019  28.303  1.00  0.00     0.134 A 
ATOM     72  F   UNL A   1      39.620  25.053  26.007  1.00  0.00    -0.206 F 
ATOM     73  C   UNL A   1      39.599  22.730  26.357  1.00  0.00     0.040 A 
ATOM     74  C   UNL A   1      41.073  21.748  27.989  1.00  0.00     0.040 A 
ATOM     75  F   UNL A   1      42.510  23.116  29.242  1.00  0.00    -0.206 F 
ATOM     76  C   UNL A   1      40.089  21.602  27.014  1.00  0.00     0.006 A 
ENDBRANCH  48  69
BRANCH  60  77
ATOM     77  C   UNL A   1      47.141  27.320  26.096  1.00  0.00     0.057 A 
ATOM     78  C   UNL A   1      48.145  26.637  26.791  1.00  0.00     0.134 A 
ATOM     79  C   UNL A   1      47.307  27.485  24.714  1.00  0.00     0.134 A 
ATOM     80  F   UNL A   1      48.052  26.456  28.118  1.00  0.00    -0.206 F 
ATOM     81  C   UNL A   1      49.275  26.143  26.138  1.00  0.00     0.040 A 
ATOM     82  C   UNL A   1      48.417  26.971  24.045  1.00  0.00     0.040 A 
ATOM     83  F   UNL A   1      46.376  28.123  23.987  1.00  0.00    -0.206 F 
ATOM     84  C   UNL A   1      49.408  26.301  24.759  1.00  0.00     0.006 A 
ENDBRANCH  60  77
ENDBRANCH  34  35
ENDBRANCH  27  29
ENDBRANCH  26  27
ENDBRANCH  25  26
ENDBRANCH  24  25
ENDBRANCH  23  24
ENDBRANCH   1  23
TORSDOF 18
ENDMDL
MODEL 2
REMARK VINA RESULT:     -10.4      4.888      9.778
REMARK SMILES C[C@H](NC(=O)c1cc(S(=O)(=O)N(C)C)cs1)C(=O)OCCOCCOC(=O)c1ccc(-c2c3nc(c(-c4c(F)cccc4F)c4ccc([nH]4)c(-c4c(F)cccc4F)c4nc(c(-c5c(F)cccc5F)c5ccc2[nH]5)C=C4)C=C3)cc1
REMARK SMILES IDX 21 1 20 2 19 3 17 4 18 5 2 6 1 7 3 8 4 9 5 11 6 12 7 13
REMARK SMILES IDX 16 14 8 15 15 16 9 17 10 18 11 19 12 20 13 21 14 22 22 23
REMARK SMILES IDX 23 24 24 25 25 26 26 27 27 28 28 29 29 30 81 31 30 32 80 33
REMARK SMILES IDX 31 34 32 35 33 36 74 37 34 38 79 39 73 40 75 41 35 42 78 43
REMARK SMILES IDX 72 44 71 45 36 47 62 48 45 49 61 50 46 51 49 52 60 53 76 54
REMARK SMILES IDX 47 55 48 56 59 58 77 59 50 60 37 61 38 62 43 63 39 64 40 65
REMARK SMILES IDX 42 66 44 67 41 68 63 69 64 70 69 71 65 72 66 73 68 74 70 75
REMARK SMILES IDX 67 76 51 77 52 78 57 79 53 80 54 81 56 82 58 83 55 84
REMARK H PARENT 3 10 75 46 49 57
REMARK Flexibility Score: inf
ROOT
ATOM      1  C   UNL A   1      39.900  21.402  25.746  1.00  0.00     0.202 C 
ENDROOT
BRANCH   1   2
ATOM      2  C   UNL A   1      38.629  22.141  26.167  1.00  0.00     0.261 C 
BRANCH   2   3
ATOM      3  O   UNL A   1      37.621  22.086  25.135  1.00  0.00    -0.462 OA
BRANCH   3   4
ATOM      4  C   UNL A   1      36.782  21.014  25.199  1.00  0.00     0.328 C 
ATOM      5  O   UNL A   1      37.125  19.853  25.002  1.00  0.00    -0.250 OA
BRANCH   4   6
ATOM      6  C   UNL A   1      35.306  21.409  25.380  1.00  0.00     0.189 C 
ATOM      7  C   UNL A   1      35.152  21.828  26.841  1.00  0.00     0.043 C 
BRANCH   6   8
ATOM      8  N   UNL A   1      34.249  20.430  25.085  1.00  0.00    -0.338 N 
ATOM      9  C   UNL A   1      32.898  20.648  24.906  1.00  0.00     0.262 C 
ATOM     10  H   UNL A   1      34.544  19.494  25.007  1.00  0.00     0.164 HD
ATOM     11  O   UNL A   1      32.143  19.681  24.981  1.00  0.00    -0.268 OA
BRANCH   9  12
ATOM     12  C   UNL A   1      32.453  21.954  24.467  1.00  0.00     0.093 A 
ATOM     13  C   UNL A   1      32.033  22.983  25.285  1.00  0.00     0.047 A 
ATOM     14  S   UNL A   1      32.516  22.462  22.839  1.00  0.00    -0.137 S 
ATOM     15  C   UNL A   1      31.488  24.076  24.565  1.00  0.00     0.094 A 
ATOM     16  C   UNL A   1      31.744  23.956  23.215  1.00  0.00     0.087 A 
BRANCH  15  17
ATOM     17  S   UNL A   1      30.575  25.379  25.278  1.00  0.00     0.243 S 
ATOM     18  O   UNL A   1      29.688  25.809  24.221  1.00  0.00    -0.207 OA
ATOM     19  O   UNL A   1      30.092  24.780  26.503  1.00  0.00    -0.207 OA
BRANCH  17  20
ATOM     20  N   UNL A   1      31.621  26.667  25.677  1.00  0.00    -0.204 NA
ATOM     21  C   UNL A   1      33.062  26.349  25.759  1.00  0.00     0.124 C 
ATOM     22  C   UNL A   1      31.394  27.922  24.921  1.00  0.00     0.124 C 
ENDBRANCH  17  20
ENDBRANCH  15  17
ENDBRANCH   9  12
ENDBRANCH   6   8
ENDBRANCH   4   6
ENDBRANCH   3   4
ENDBRANCH   2   3
ENDBRANCH   1   2
BRANCH   1  23
ATOM     23  O   UNL A   1      40.367  20.380  26.621  1.00  0.00    -0.374 OA
BRANCH  23  24
ATOM     24  C   UNL A   1      41.705  20.492  27.084  1.00  0.00     0.202 C 
BRANCH  24  25
ATOM     25  C   UNL A   1      42.756  21.066  26.132  1.00  0.00     0.261 C 
BRANCH  25  26
ATOM     26  O   UNL A   1      43.371  22.240  26.641  1.00  0.00    -0.460 OA
BRANCH  26  27
ATOM     27  C   UNL A   1      43.241  23.315  25.833  1.00  0.00     0.338 C 
ATOM     28  O   UNL A   1      43.354  23.371  24.620  1.00  0.00    -0.246 OA
BRANCH  27  29
ATOM     29  C   UNL A   1      42.753  24.411  26.669  1.00  0.00     0.060 A 
ATOM     30  C   UNL A   1      43.436  25.632  26.613  1.00  0.00     0.016 A 
ATOM     31  C   UNL A   1      41.620  24.237  27.465  1.00  0.00     0.016 A 
ATOM     32  C   UNL A   1      43.003  26.690  27.398  1.00  0.00     0.010 A 
ATOM     33  C   UNL A   1      41.192  25.294  28.254  1.00  0.00     0.010 A 
ATOM     34  C   UNL A   1      41.904  26.506  28.245  1.00  0.00    -0.014 A 
BRANCH  34  35
ATOM     35  C   UNL A   1      41.586  27.510  29.272  1.00  0.00     0.031 A 
ATOM     36  C   UNL A   1      42.327  27.443  30.570  1.00  0.00     0.074 A 
ATOM     37  C   UNL A   1      40.614  28.409  29.060  1.00  0.00     0.049 A 
ATOM     38  N   UNL A   1      42.115  28.093  31.681  1.00  0.00    -0.248 NA
ATOM     39  C   UNL A   1      43.446  26.487  30.628  1.00  0.00     0.031 C 
ATOM     40  C   UNL A   1      39.857  28.557  27.818  1.00  0.00     0.029 A 
ATOM     41  N   UNL A   1      40.075  29.340  29.905  1.00  0.00    -0.354 N 
ATOM     42  C   UNL A   1      43.054  27.607  32.580  1.00  0.00     0.074 A 
ATOM     43  C   UNL A   1      43.817  26.587  31.894  1.00  0.00     0.031 C 
ATOM     44  C   UNL A   1      38.921  29.503  27.996  1.00  0.00     0.029 A 
ATOM     45  C   UNL A   1      38.989  29.987  29.372  1.00  0.00     0.049 A 
ATOM     46  H   UNL A   1      40.429  29.527  30.804  1.00  0.00     0.167 HD
ATOM     47  C   UNL A   1      43.256  27.982  33.863  1.00  0.00     0.037 A 
ATOM     48  C   UNL A   1      38.126  30.839  29.953  1.00  0.00     0.037 A 
ATOM     49  C   UNL A   1      42.474  28.995  34.521  1.00  0.00     0.049 A 
ATOM     50  C   UNL A   1      38.333  31.213  31.395  1.00  0.00     0.074 A 
ATOM     51  C   UNL A   1      42.609  29.491  35.803  1.00  0.00     0.029 A 
ATOM     52  N   UNL A   1      41.394  29.651  33.944  1.00  0.00    -0.354 N 
ATOM     53  N   UNL A   1      39.248  30.786  32.235  1.00  0.00    -0.248 NA
ATOM     54  C   UNL A   1      37.399  32.188  31.969  1.00  0.00     0.031 C 
ATOM     55  C   UNL A   1      41.568  30.400  36.024  1.00  0.00     0.029 A 
ATOM     56  C   UNL A   1      40.831  30.524  34.856  1.00  0.00     0.049 A 
ATOM     57  H   UNL A   1      41.076  29.514  33.022  1.00  0.00     0.167 HD
ATOM     58  C   UNL A   1      39.019  31.461  33.426  1.00  0.00     0.074 A 
ATOM     59  C   UNL A   1      37.879  32.327  33.199  1.00  0.00     0.031 C 
ATOM     60  C   UNL A   1      39.697  31.380  34.599  1.00  0.00     0.037 A 
BRANCH  47  61
ATOM     61  C   UNL A   1      44.321  27.255  34.633  1.00  0.00     0.057 A 
ATOM     62  C   UNL A   1      44.061  26.073  35.341  1.00  0.00     0.134 A 
ATOM     63  C   UNL A   1      45.625  27.761  34.686  1.00  0.00     0.134 A 
ATOM     64  F   UNL A   1      42.828  25.542  35.348  1.00  0.00    -0.206 F 
ATOM     65  C   UNL A   1      45.045  25.448  36.107  1.00  0.00     0.040 A 
ATOM     66  C   UNL A   1      46.627  27.127  35.420  1.00  0.00     0.040 A 
ATOM     67  F   UNL A   1      45.947  28.887  34.031  1.00  0.00    -0.206 F 
ATOM     68  C   UNL A   1      46.335  25.973  36.146  1.00  0.00     0.006 A 
ENDBRANCH  47  61
BRANCH  48  69
ATOM     69  C   UNL A   1      36.988  31.369  29.164  1.00  0.00     0.057 A 
ATOM     70  C   UNL A   1      35.850  30.594  28.921  1.00  0.00     0.134 A 
ATOM     71  C   UNL A   1      36.990  32.685  28.681  1.00  0.00     0.134 A 
ATOM     72  F   UNL A   1      35.795  29.325  29.349  1.00  0.00    -0.206 F 
ATOM     73  C   UNL A   1      34.754  31.105  28.223  1.00  0.00     0.040 A 
ATOM     74  C   UNL A   1      35.892  33.216  28.002  1.00  0.00     0.040 A 
ATOM     75  F   UNL A   1      38.047  33.483  28.892  1.00  0.00    -0.206 F 
ATOM     76  C   UNL A   1      34.770  32.423  27.770  1.00  0.00     0.006 A 
ENDBRANCH  48  69
BRANCH  60  77
ATOM     77  C   UNL A   1      39.257  32.284  35.715  1.00  0.00     0.057 A 
ATOM     78  C   UNL A   1      39.724  33.597  35.841  1.00  0.00     0.134 A 
ATOM     79  C   UNL A   1      38.289  31.850  36.632  1.00  0.00     0.134 A 
ATOM     80  F   UNL A   1      40.659  34.070  35.002  1.00  0.00    -0.206 F 
ATOM     81  C   UNL A   1      39.252  34.444  36.844  1.00  0.00     0.040 A 
ATOM     82  C   UNL A   1      37.788  32.695  37.620  1.00  0.00     0.040 A 
ATOM     83  F   UNL A   1      37.793  30.605  36.560  1.00  0.00    -0.206 F 
ATOM     84  C   UNL A   1      38.273  33.997  37.731  1.00  0.00     0.006 A 
ENDBRANCH  60  77
ENDBRANCH  34  35
ENDBRANCH  27  29
ENDBRANCH  26  27
ENDBRANCH  25  26
ENDBRANCH  24  25
ENDBRANCH  23  24
ENDBRANCH   1  23
TORSDOF 18
ENDMDL
MODEL 3
REMARK VINA RESULT:     -10.3      3.233      8.163
REMARK SMILES C[C@H](NC(=O)c1cc(S(=O)(=O)N(C)C)cs1)C(=O)OCCOCCOC(=O)c1ccc(-c2c3nc(c(-c4c(F)cccc4F)c4ccc([nH]4)c(-c4c(F)cccc4F)c4nc(c(-c5c(F)cccc5F)c5ccc2[nH]5)C=C4)C=C3)cc1
REMARK SMILES IDX 21 1 20 2 19 3 17 4 18 5 2 6 1 7 3 8 4 9 5 11 6 12 7 13
REMARK SMILES IDX 16 14 8 15 15 16 9 17 10 18 11 19 12 20 13 21 14 22 22 23
REMARK SMILES IDX 23 24 24 25 25 26 26 27 27 28 28 29 29 30 81 31 30 32 80 33
REMARK SMILES IDX 31 34 32 35 33 36 74 37 34 38 79 39 73 40 75 41 35 42 78 43
REMARK SMILES IDX 72 44 71 45 36 47 62 48 45 49 61 50 46 51 49 52 60 53 76 54
REMARK SMILES IDX 47 55 48 56 59 58 77 59 50 60 37 61 38 62 43 63 39 64 40 65
REMARK SMILES IDX 42 66 44 67 41 68 63 69 64 70 69 71 65 72 66 73 68 74 70 75
REMARK SMILES IDX 67 76 51 77 52 78 57 79 53 80 54 81 56 82 58 83 55 84
REMARK H PARENT 3 10 75 46 49 57
REMARK Flexibility Score: inf
ROOT
ATOM      1  C   UNL A   1      36.720  22.464  24.973  1.00  0.00     0.202 C 
ENDROOT
BRANCH   1   2
ATOM      2  C   UNL A   1      35.661  22.675  23.890  1.00  0.00     0.261 C 
BRANCH   2   3
ATOM      3  O   UNL A   1      34.402  23.092  24.459  1.00  0.00    -0.462 OA
BRANCH   3   4
ATOM      4  C   UNL A   1      33.737  22.135  25.165  1.00  0.00     0.328 C 
ATOM      5  O   UNL A   1      33.437  21.031  24.722  1.00  0.00    -0.250 OA
BRANCH   4   6
ATOM      6  C   UNL A   1      33.241  22.627  26.536  1.00  0.00     0.189 C 
ATOM      7  C   UNL A   1      34.026  21.838  27.582  1.00  0.00     0.043 C 
BRANCH   6   8
ATOM      8  N   UNL A   1      31.814  22.517  26.876  1.00  0.00    -0.338 N 
ATOM      9  C   UNL A   1      30.850  23.505  26.875  1.00  0.00     0.262 C 
ATOM     10  H   UNL A   1      31.506  21.620  27.140  1.00  0.00     0.164 HD
ATOM     11  O   UNL A   1      29.804  23.289  27.483  1.00  0.00    -0.268 OA
BRANCH   9  12
ATOM     12  C   UNL A   1      31.034  24.661  26.023  1.00  0.00     0.093 A 
ATOM     13  C   UNL A   1      31.597  25.862  26.401  1.00  0.00     0.047 A 
ATOM     14  S   UNL A   1      30.694  24.650  24.351  1.00  0.00    -0.137 S 
ATOM     15  C   UNL A   1      31.480  26.866  25.406  1.00  0.00     0.094 A 
ATOM     16  C   UNL A   1      31.062  26.327  24.207  1.00  0.00     0.087 A 
BRANCH  15  17
ATOM     17  S   UNL A   1      31.778  28.563  25.669  1.00  0.00     0.243 S 
ATOM     18  O   UNL A   1      31.026  29.220  24.624  1.00  0.00    -0.207 OA
ATOM     19  O   UNL A   1      31.459  28.718  27.071  1.00  0.00    -0.207 OA
BRANCH  17  20
ATOM     20  N   UNL A   1      33.437  28.900  25.447  1.00  0.00    -0.204 NA
ATOM     21  C   UNL A   1      34.327  28.631  26.596  1.00  0.00     0.124 C 
ATOM     22  C   UNL A   1      34.023  28.384  24.187  1.00  0.00     0.124 C 
ENDBRANCH  17  20
ENDBRANCH  15  17
ENDBRANCH   9  12
ENDBRANCH   6   8
ENDBRANCH   4   6
ENDBRANCH   3   4
ENDBRANCH   2   3
ENDBRANCH   1   2
BRANCH   1  23
ATOM     23  O   UNL A   1      37.784  21.569  24.663  1.00  0.00    -0.374 OA
BRANCH  23  24
ATOM     24  C   UNL A   1      37.588  20.200  24.986  1.00  0.00     0.202 C 
BRANCH  24  25
ATOM     25  C   UNL A   1      38.811  19.366  25.376  1.00  0.00     0.261 C 
BRANCH  25  26
ATOM     26  O   UNL A   1      39.649  20.030  26.309  1.00  0.00    -0.460 OA
BRANCH  26  27
ATOM     27  C   UNL A   1      40.956  19.708  26.190  1.00  0.00     0.338 C 
ATOM     28  O   UNL A   1      41.448  18.682  25.751  1.00  0.00    -0.246 OA
BRANCH  27  29
ATOM     29  C   UNL A   1      41.716  20.911  26.527  1.00  0.00     0.060 A 
ATOM     30  C   UNL A   1      42.047  21.122  27.871  1.00  0.00     0.016 A 
ATOM     31  C   UNL A   1      42.119  21.793  25.523  1.00  0.00     0.016 A 
ATOM     32  C   UNL A   1      42.762  22.256  28.226  1.00  0.00     0.010 A 
ATOM     33  C   UNL A   1      42.828  22.930  25.880  1.00  0.00     0.010 A 
ATOM     34  C   UNL A   1      43.117  23.176  27.234  1.00  0.00    -0.014 A 
BRANCH  34  35
ATOM     35  C   UNL A   1      43.638  24.501  27.606  1.00  0.00     0.031 A 
ATOM     36  C   UNL A   1      42.654  25.542  28.038  1.00  0.00     0.074 A 
ATOM     37  C   UNL A   1      44.946  24.770  27.493  1.00  0.00     0.049 A 
ATOM     38  N   UNL A   1      42.835  26.817  28.249  1.00  0.00    -0.248 NA
ATOM     39  C   UNL A   1      41.267  25.084  28.231  1.00  0.00     0.031 C 
ATOM     40  C   UNL A   1      45.974  23.808  27.100  1.00  0.00     0.029 A 
ATOM     41  N   UNL A   1      45.622  25.947  27.663  1.00  0.00    -0.354 N 
ATOM     42  C   UNL A   1      41.582  27.319  28.573  1.00  0.00     0.074 A 
ATOM     43  C   UNL A   1      40.646  26.220  28.501  1.00  0.00     0.031 C 
ATOM     44  C   UNL A   1      47.153  24.447  27.022  1.00  0.00     0.029 A 
ATOM     45  C   UNL A   1      46.946  25.863  27.316  1.00  0.00     0.049 A 
ATOM     46  H   UNL A   1      45.201  26.771  27.999  1.00  0.00     0.167 HD
ATOM     47  C   UNL A   1      41.249  28.589  28.899  1.00  0.00     0.037 A 
ATOM     48  C   UNL A   1      47.869  26.835  27.206  1.00  0.00     0.037 A 
ATOM     49  C   UNL A   1      42.203  29.665  28.953  1.00  0.00     0.049 A 
ATOM     50  C   UNL A   1      47.476  28.251  27.527  1.00  0.00     0.074 A 
ATOM     51  C   UNL A   1      41.996  30.984  29.310  1.00  0.00     0.029 A 
ATOM     52  N   UNL A   1      43.546  29.542  28.619  1.00  0.00    -0.354 N 
ATOM     53  N   UNL A   1      46.300  28.721  27.875  1.00  0.00    -0.248 NA
ATOM     54  C   UNL A   1      48.530  29.268  27.448  1.00  0.00     0.031 C 
ATOM     55  C   UNL A   1      43.199  31.673  29.128  1.00  0.00     0.029 A 
ATOM     56  C   UNL A   1      44.173  30.769  28.729  1.00  0.00     0.049 A 
ATOM     57  H   UNL A   1      43.985  28.705  28.345  1.00  0.00     0.167 HD
ATOM     58  C   UNL A   1      46.479  30.082  28.086  1.00  0.00     0.074 A 
ATOM     59  C   UNL A   1      47.879  30.360  27.827  1.00  0.00     0.031 C 
ATOM     60  C   UNL A   1      45.572  31.015  28.469  1.00  0.00     0.037 A 
BRANCH  47  61
ATOM     61  C   UNL A   1      39.799  28.874  29.163  1.00  0.00     0.057 A 
ATOM     62  C   UNL A   1      39.233  28.763  30.441  1.00  0.00     0.134 A 
ATOM     63  C   UNL A   1      38.948  29.242  28.114  1.00  0.00     0.134 A 
ATOM     64  F   UNL A   1      39.986  28.396  31.490  1.00  0.00    -0.206 F 
ATOM     65  C   UNL A   1      37.868  28.964  30.657  1.00  0.00     0.040 A 
ATOM     66  C   UNL A   1      37.589  29.480  28.323  1.00  0.00     0.040 A 
ATOM     67  F   UNL A   1      39.421  29.369  26.865  1.00  0.00    -0.206 F 
ATOM     68  C   UNL A   1      37.042  29.328  29.595  1.00  0.00     0.006 A 
ENDBRANCH  47  61
BRANCH  48  69
ATOM     69  C   UNL A   1      49.239  26.487  26.758  1.00  0.00     0.057 A 
ATOM     70  C   UNL A   1      49.615  26.606  25.417  1.00  0.00     0.134 A 
ATOM     71  C   UNL A   1      50.221  26.080  27.672  1.00  0.00     0.134 A 
ATOM     72  F   UNL A   1      48.717  26.980  24.495  1.00  0.00    -0.206 F 
ATOM     73  C   UNL A   1      50.918  26.330  24.997  1.00  0.00     0.040 A 
ATOM     74  C   UNL A   1      51.532  25.824  27.270  1.00  0.00     0.040 A 
ATOM     75  F   UNL A   1      49.926  25.959  28.975  1.00  0.00    -0.206 F 
ATOM     76  C   UNL A   1      51.883  25.947  25.927  1.00  0.00     0.006 A 
ENDBRANCH  48  69
BRANCH  60  77
ATOM     77  C   UNL A   1      46.068  32.417  28.679  1.00  0.00     0.057 A 
ATOM     78  C   UNL A   1      46.612  32.842  29.896  1.00  0.00     0.134 A 
ATOM     79  C   UNL A   1      46.071  33.329  27.615  1.00  0.00     0.134 A 
ATOM     80  F   UNL A   1      46.630  32.020  30.957  1.00  0.00    -0.206 F 
ATOM     81  C   UNL A   1      47.132  34.128  30.052  1.00  0.00     0.040 A 
ATOM     82  C   UNL A   1      46.613  34.606  27.748  1.00  0.00     0.040 A 
ATOM     83  F   UNL A   1      45.573  32.981  26.417  1.00  0.00    -0.206 F 
ATOM     84  C   UNL A   1      47.142  35.011  28.972  1.00  0.00     0.006 A 
ENDBRANCH  60  77
ENDBRANCH  34  35
ENDBRANCH  27  29
ENDBRANCH  26  27
ENDBRANCH  25  26
ENDBRANCH  24  25
ENDBRANCH  23  24
ENDBRANCH   1  23
TORSDOF 18
ENDMDL
