MODEL 1
REMARK VINA RESULT:     -11.2      0.000      0.000
REMARK SMILES C[C@H]1CC[C@@](C[C@@H]2CSc3ccccc32)(C(=O)OCCOCCOC(=O)c2ccc(-c3c4nc(c(-c5c(F)cccc5F)c5ccc([nH]5)c(-c5c(F)cccc5F)c5nc(c(-c6c(F)cccc6F)c6ccc3[nH]6)C=C5)C=C4)cc2)CC1
REMARK SMILES IDX 21 1 20 2 19 3 18 4 16 5 17 6 5 7 1 8 2 9 82 10 3 11 81 12
REMARK SMILES IDX 4 13 6 14 7 15 8 16 15 17 9 18 10 19 14 20 11 21 13 22 12 23
REMARK SMILES IDX 22 24 23 25 24 26 25 27 26 28 27 29 28 30 80 31 29 32 79 33
REMARK SMILES IDX 30 34 31 35 32 36 73 37 33 38 78 39 72 40 74 41 34 42 77 43
REMARK SMILES IDX 71 44 70 45 35 47 61 48 44 49 60 50 45 51 48 52 59 53 75 54
REMARK SMILES IDX 46 55 47 56 58 58 76 59 49 60 36 61 37 62 42 63 38 64 39 65
REMARK SMILES IDX 41 66 43 67 40 68 62 69 63 70 68 71 64 72 65 73 67 74 69 75
REMARK SMILES IDX 66 76 50 77 51 78 56 79 52 80 53 81 55 82 57 83 54 84
REMARK H PARENT 74 46 48 57
REMARK Flexibility Score: inf
ROOT
ATOM      1  O   UNL A   1      32.056  30.777  26.310  1.00  0.00    -0.374 OA
ENDROOT
BRANCH   1   2
ATOM      2  C   UNL A   1      32.891  30.043  27.202  1.00  0.00     0.202 C 
BRANCH   2   3
ATOM      3  C   UNL A   1      34.043  29.244  26.590  1.00  0.00     0.261 C 
BRANCH   3   4
ATOM      4  O   UNL A   1      33.715  27.868  26.288  1.00  0.00    -0.463 OA
BRANCH   4   5
ATOM      5  C   UNL A   1      33.707  27.558  24.966  1.00  0.00     0.312 C 
ATOM      6  O   UNL A   1      34.331  28.195  24.120  1.00  0.00    -0.252 OA
BRANCH   5   7
ATOM      7  C   UNL A   1      32.753  26.412  24.575  1.00  0.00     0.069 C 
ATOM      8  C   UNL A   1      29.326  28.618  22.752  1.00  0.00     0.007 C 
ATOM      9  C   UNL A   1      30.100  27.459  23.385  1.00  0.00    -0.014 C 
ATOM     10  C   UNL A   1      30.600  27.813  24.781  1.00  0.00     0.004 C 
ATOM     11  C   UNL A   1      31.241  27.048  22.463  1.00  0.00     0.004 C 
ATOM     12  C   UNL A   1      31.429  26.664  25.361  1.00  0.00     0.019 C 
ATOM     13  C   UNL A   1      32.386  26.256  23.087  1.00  0.00     0.019 C 
BRANCH   7  14
ATOM     14  C   UNL A   1      33.423  25.103  25.164  1.00  0.00     0.028 C 
BRANCH  14  15
ATOM     15  C   UNL A   1      33.193  23.676  24.570  1.00  0.00     0.032 C 
ATOM     16  C   UNL A   1      32.248  22.741  25.348  1.00  0.00     0.083 C 
ATOM     17  C   UNL A   1      34.463  22.905  24.301  1.00  0.00    -0.030 A 
ATOM     18  S   UNL A   1      33.236  21.420  26.114  1.00  0.00    -0.125 SA
ATOM     19  C   UNL A   1      34.645  21.779  25.108  1.00  0.00     0.011 A 
ATOM     20  C   UNL A   1      35.480  23.333  23.448  1.00  0.00     0.005 A 
ATOM     21  C   UNL A   1      35.872  21.133  25.158  1.00  0.00     0.015 A 
ATOM     22  C   UNL A   1      36.715  22.683  23.491  1.00  0.00     0.000 A 
ATOM     23  C   UNL A   1      36.918  21.604  24.360  1.00  0.00     0.001 A 
ENDBRANCH  14  15
ENDBRANCH   7  14
ENDBRANCH   5   7
ENDBRANCH   4   5
ENDBRANCH   3   4
ENDBRANCH   2   3
ENDBRANCH   1   2
BRANCH   1  24
ATOM     24  C   UNL A   1      31.480  31.986  26.795  1.00  0.00     0.202 C 
BRANCH  24  25
ATOM     25  C   UNL A   1      32.409  33.198  26.926  1.00  0.00     0.261 C 
BRANCH  25  26
ATOM     26  O   UNL A   1      32.154  33.989  28.102  1.00  0.00    -0.460 OA
BRANCH  26  27
ATOM     27  C   UNL A   1      33.215  34.723  28.523  1.00  0.00     0.338 C 
ATOM     28  O   UNL A   1      33.246  35.921  28.743  1.00  0.00    -0.246 OA
BRANCH  27  29
ATOM     29  C   UNL A   1      34.357  33.849  28.852  1.00  0.00     0.060 A 
ATOM     30  C   UNL A   1      35.664  34.220  28.541  1.00  0.00     0.016 A 
ATOM     31  C   UNL A   1      34.105  32.704  29.617  1.00  0.00     0.016 A 
ATOM     32  C   UNL A   1      36.728  33.448  29.023  1.00  0.00     0.010 A 
ATOM     33  C   UNL A   1      35.165  31.932  30.091  1.00  0.00     0.010 A 
ATOM     34  C   UNL A   1      36.487  32.311  29.818  1.00  0.00    -0.014 A 
BRANCH  34  35
ATOM     35  C   UNL A   1      37.605  31.581  30.468  1.00  0.00     0.031 A 
ATOM     36  C   UNL A   1      38.007  31.870  31.883  1.00  0.00     0.074 A 
ATOM     37  C   UNL A   1      38.309  30.694  29.739  1.00  0.00     0.049 A 
ATOM     38  N   UNL A   1      38.957  31.323  32.599  1.00  0.00    -0.248 NA
ATOM     39  C   UNL A   1      37.255  32.922  32.580  1.00  0.00     0.031 C 
ATOM     40  C   UNL A   1      38.055  30.369  28.334  1.00  0.00     0.029 A 
ATOM     41  N   UNL A   1      39.389  29.917  30.072  1.00  0.00    -0.354 N 
ATOM     42  C   UNL A   1      38.909  31.948  33.837  1.00  0.00     0.074 A 
ATOM     43  C   UNL A   1      37.869  32.955  33.756  1.00  0.00     0.031 C 
ATOM     44  C   UNL A   1      38.945  29.448  27.931  1.00  0.00     0.029 A 
ATOM     45  C   UNL A   1      39.844  29.136  29.037  1.00  0.00     0.049 A 
ATOM     46  H   UNL A   1      39.798  29.917  30.968  1.00  0.00     0.167 HD
ATOM     47  C   UNL A   1      39.650  31.694  34.944  1.00  0.00     0.037 A 
ATOM     48  C   UNL A   1      40.871  28.267  28.986  1.00  0.00     0.037 A 
ATOM     49  C   UNL A   1      40.698  30.706  35.015  1.00  0.00     0.049 A 
ATOM     50  C   UNL A   1      41.703  28.034  30.215  1.00  0.00     0.074 A 
ATOM     51  C   UNL A   1      41.469  30.339  36.108  1.00  0.00     0.029 A 
ATOM     52  N   UNL A   1      41.139  29.939  33.946  1.00  0.00    -0.354 N 
ATOM     53  N   UNL A   1      41.584  28.562  31.409  1.00  0.00    -0.248 NA
ATOM     54  C   UNL A   1      42.810  27.075  30.090  1.00  0.00     0.031 C 
ATOM     55  C   UNL A   1      42.406  29.389  35.687  1.00  0.00     0.029 A 
ATOM     56  C   UNL A   1      42.189  29.124  34.344  1.00  0.00     0.049 A 
ATOM     57  H   UNL A   1      40.761  29.969  33.037  1.00  0.00     0.167 HD
ATOM     58  C   UNL A   1      42.582  27.981  32.182  1.00  0.00     0.074 A 
ATOM     59  C   UNL A   1      43.284  27.048  31.327  1.00  0.00     0.031 C 
ATOM     60  C   UNL A   1      42.886  28.203  33.485  1.00  0.00     0.037 A 
BRANCH  47  61
ATOM     61  C   UNL A   1      39.350  32.500  36.175  1.00  0.00     0.057 A 
ATOM     62  C   UNL A   1      40.009  33.712  36.421  1.00  0.00     0.134 A 
ATOM     63  C   UNL A   1      38.437  32.056  37.140  1.00  0.00     0.134 A 
ATOM     64  F   UNL A   1      40.905  34.191  35.545  1.00  0.00    -0.206 F 
ATOM     65  C   UNL A   1      39.767  34.453  37.579  1.00  0.00     0.040 A 
ATOM     66  C   UNL A   1      38.167  32.801  38.289  1.00  0.00     0.040 A 
ATOM     67  F   UNL A   1      37.768  30.906  36.964  1.00  0.00    -0.206 F 
ATOM     68  C   UNL A   1      38.837  34.001  38.514  1.00  0.00     0.006 A 
ENDBRANCH  47  61
BRANCH  48  69
ATOM     69  C   UNL A   1      41.159  27.529  27.732  1.00  0.00     0.057 A 
ATOM     70  C   UNL A   1      41.990  28.065  26.742  1.00  0.00     0.134 A 
ATOM     71  C   UNL A   1      40.624  26.256  27.507  1.00  0.00     0.134 A 
ATOM     72  F   UNL A   1      42.531  29.282  26.896  1.00  0.00    -0.206 F 
ATOM     73  C   UNL A   1      42.277  27.361  25.571  1.00  0.00     0.040 A 
ATOM     74  C   UNL A   1      40.921  25.531  26.353  1.00  0.00     0.040 A 
ATOM     75  F   UNL A   1      39.837  25.683  28.430  1.00  0.00    -0.206 F 
ATOM     76  C   UNL A   1      41.749  26.087  25.378  1.00  0.00     0.006 A 
ENDBRANCH  48  69
BRANCH  60  77
ATOM     77  C   UNL A   1      44.015  27.398  34.064  1.00  0.00     0.057 A 
ATOM     78  C   UNL A   1      43.776  26.149  34.650  1.00  0.00     0.134 A 
ATOM     79  C   UNL A   1      45.339  27.860  34.046  1.00  0.00     0.134 A 
ATOM     80  F   UNL A   1      42.532  25.650  34.706  1.00  0.00    -0.206 F 
ATOM     81  C   UNL A   1      44.811  25.386  35.192  1.00  0.00     0.040 A 
ATOM     82  C   UNL A   1      46.386  27.094  34.561  1.00  0.00     0.040 A 
ATOM     83  F   UNL A   1      45.639  29.040  33.484  1.00  0.00    -0.206 F 
ATOM     84  C   UNL A   1      46.122  25.854  35.142  1.00  0.00     0.006 A 
ENDBRANCH  60  77
ENDBRANCH  34  35
ENDBRANCH  27  29
ENDBRANCH  26  27
ENDBRANCH  25  26
ENDBRANCH  24  25
ENDBRANCH   1  24
TORSDOF 16
ENDMDL
MODEL 2
REMARK VINA RESULT:     -11.2      1.125      2.211
REMARK SMILES C[C@H]1CC[C@@](C[C@@H]2CSc3ccccc32)(C(=O)OCCOCCOC(=O)c2ccc(-c3c4nc(c(-c5c(F)cccc5F)c5ccc([nH]5)c(-c5c(F)cccc5F)c5nc(c(-c6c(F)cccc6F)c6ccc3[nH]6)C=C5)C=C4)cc2)CC1
REMARK SMILES IDX 21 1 20 2 19 3 18 4 16 5 17 6 5 7 1 8 2 9 82 10 3 11 81 12
REMARK SMILES IDX 4 13 6 14 7 15 8 16 15 17 9 18 10 19 14 20 11 21 13 22 12 23
REMARK SMILES IDX 22 24 23 25 24 26 25 27 26 28 27 29 28 30 80 31 29 32 79 33
REMARK SMILES IDX 30 34 31 35 32 36 73 37 33 38 78 39 72 40 74 41 34 42 77 43
REMARK SMILES IDX 71 44 70 45 35 47 61 48 44 49 60 50 45 51 48 52 59 53 75 54
REMARK SMILES IDX 46 55 47 56 58 58 76 59 49 60 36 61 37 62 42 63 38 64 39 65
REMARK SMILES IDX 41 66 43 67 40 68 62 69 63 70 68 71 64 72 65 73 67 74 69 75
REMARK SMILES IDX 66 76 50 77 51 78 56 79 52 80 53 81 55 82 57 83 54 84
REMARK H PARENT 74 46 48 57
REMARK Flexibility Score: inf
ROOT
ATOM      1  O   UNL A   1      30.874  31.504  25.589  1.00  0.00    -0.374 OA
ENDROOT
BRANCH   1   2
ATOM      2  C   UNL A   1      31.356  30.282  25.036  1.00  0.00     0.202 C 
BRANCH   2   3
ATOM      3  C   UNL A   1      30.449  29.553  24.043  1.00  0.00     0.261 C 
BRANCH   3   4
ATOM      4  O   UNL A   1      30.371  28.125  24.251  1.00  0.00    -0.463 OA
BRANCH   4   5
ATOM      5  C   UNL A   1      31.373  27.407  23.680  1.00  0.00     0.312 C 
ATOM      6  O   UNL A   1      31.582  27.385  22.470  1.00  0.00    -0.252 OA
BRANCH   5   7
ATOM      7  C   UNL A   1      32.166  26.513  24.654  1.00  0.00     0.069 C 
ATOM      8  C   UNL A   1      34.382  29.520  27.100  1.00  0.00     0.007 C 
ATOM      9  C   UNL A   1      34.020  28.160  26.499  1.00  0.00    -0.014 C 
ATOM     10  C   UNL A   1      34.107  28.177  24.977  1.00  0.00     0.004 C 
ATOM     11  C   UNL A   1      32.635  27.746  26.981  1.00  0.00     0.004 C 
ATOM     12  C   UNL A   1      33.673  26.827  24.401  1.00  0.00     0.019 C 
ATOM     13  C   UNL A   1      31.905  26.684  26.163  1.00  0.00     0.019 C 
BRANCH   7  14
ATOM     14  C   UNL A   1      31.892  25.031  24.167  1.00  0.00     0.028 C 
BRANCH  14  15
ATOM     15  C   UNL A   1      33.027  24.013  23.822  1.00  0.00     0.032 C 
ATOM     16  C   UNL A   1      32.757  23.037  22.662  1.00  0.00     0.083 C 
ATOM     17  C   UNL A   1      33.502  23.193  24.996  1.00  0.00    -0.030 A 
ATOM     18  S   UNL A   1      32.530  21.367  23.348  1.00  0.00    -0.125 SA
ATOM     19  C   UNL A   1      33.211  21.829  24.913  1.00  0.00     0.011 A 
ATOM     20  C   UNL A   1      34.041  23.729  26.166  1.00  0.00     0.005 A 
ATOM     21  C   UNL A   1      33.348  21.005  26.021  1.00  0.00     0.015 A 
ATOM     22  C   UNL A   1      34.186  22.903  27.282  1.00  0.00     0.000 A 
ATOM     23  C   UNL A   1      33.818  21.554  27.217  1.00  0.00     0.001 A 
ENDBRANCH  14  15
ENDBRANCH   7  14
ENDBRANCH   5   7
ENDBRANCH   4   5
ENDBRANCH   3   4
ENDBRANCH   2   3
ENDBRANCH   1   2
BRANCH   1  24
ATOM     24  C   UNL A   1      31.403  31.909  26.848  1.00  0.00     0.202 C 
BRANCH  24  25
ATOM     25  C   UNL A   1      32.225  33.204  26.875  1.00  0.00     0.261 C 
BRANCH  25  26
ATOM     26  O   UNL A   1      32.156  33.898  28.135  1.00  0.00    -0.460 OA
BRANCH  26  27
ATOM     27  C   UNL A   1      33.260  34.629  28.432  1.00  0.00     0.338 C 
ATOM     28  O   UNL A   1      33.339  35.840  28.537  1.00  0.00    -0.246 OA
BRANCH  27  29
ATOM     29  C   UNL A   1      34.390  33.749  28.782  1.00  0.00     0.060 A 
ATOM     30  C   UNL A   1      35.690  34.046  28.376  1.00  0.00     0.016 A 
ATOM     31  C   UNL A   1      34.143  32.685  29.659  1.00  0.00     0.016 A 
ATOM     32  C   UNL A   1      36.754  33.282  28.875  1.00  0.00     0.010 A 
ATOM     33  C   UNL A   1      35.203  31.922  30.149  1.00  0.00     0.010 A 
ATOM     34  C   UNL A   1      36.520  32.229  29.779  1.00  0.00    -0.014 A 
BRANCH  34  35
ATOM     35  C   UNL A   1      37.647  31.522  30.437  1.00  0.00     0.031 A 
ATOM     36  C   UNL A   1      38.055  31.845  31.843  1.00  0.00     0.074 A 
ATOM     37  C   UNL A   1      38.354  30.625  29.723  1.00  0.00     0.049 A 
ATOM     38  N   UNL A   1      39.014  31.319  32.565  1.00  0.00    -0.248 NA
ATOM     39  C   UNL A   1      37.300  32.906  32.523  1.00  0.00     0.031 C 
ATOM     40  C   UNL A   1      38.093  30.268  28.327  1.00  0.00     0.029 A 
ATOM     41  N   UNL A   1      39.441  29.863  30.066  1.00  0.00    -0.354 N 
ATOM     42  C   UNL A   1      38.969  31.971  33.790  1.00  0.00     0.074 A 
ATOM     43  C   UNL A   1      37.921  32.969  33.694  1.00  0.00     0.031 C 
ATOM     44  C   UNL A   1      38.987  29.345  27.938  1.00  0.00     0.029 A 
ATOM     45  C   UNL A   1      39.896  29.064  29.045  1.00  0.00     0.049 A 
ATOM     46  H   UNL A   1      39.856  29.886  30.959  1.00  0.00     0.167 HD
ATOM     47  C   UNL A   1      39.719  31.746  34.897  1.00  0.00     0.037 A 
ATOM     48  C   UNL A   1      40.928  28.201  29.006  1.00  0.00     0.037 A 
ATOM     49  C   UNL A   1      40.775  30.767  34.983  1.00  0.00     0.049 A 
ATOM     50  C   UNL A   1      41.770  28.001  30.235  1.00  0.00     0.074 A 
ATOM     51  C   UNL A   1      41.555  30.430  36.078  1.00  0.00     0.029 A 
ATOM     52  N   UNL A   1      41.214  29.981  33.927  1.00  0.00    -0.354 N 
ATOM     53  N   UNL A   1      41.655  28.553  31.417  1.00  0.00    -0.248 NA
ATOM     54  C   UNL A   1      42.883  27.047  30.123  1.00  0.00     0.031 C 
ATOM     55  C   UNL A   1      42.496  29.477  35.671  1.00  0.00     0.029 A 
ATOM     56  C   UNL A   1      42.273  29.183  34.336  1.00  0.00     0.049 A 
ATOM     57  H   UNL A   1      40.831  29.989  33.020  1.00  0.00     0.167 HD
ATOM     58  C   UNL A   1      42.661  27.997  32.197  1.00  0.00     0.074 A 
ATOM     59  C   UNL A   1      43.365  27.050  31.357  1.00  0.00     0.031 C 
ATOM     60  C   UNL A   1      42.972  28.248  33.492  1.00  0.00     0.037 A 
BRANCH  47  61
ATOM     61  C   UNL A   1      39.421  32.577  36.112  1.00  0.00     0.057 A 
ATOM     62  C   UNL A   1      38.448  32.177  37.037  1.00  0.00     0.134 A 
ATOM     63  C   UNL A   1      40.070  33.796  36.346  1.00  0.00     0.134 A 
ATOM     64  F   UNL A   1      37.778  31.027  36.869  1.00  0.00    -0.206 F 
ATOM     65  C   UNL A   1      38.134  32.959  38.151  1.00  0.00     0.040 A 
ATOM     66  C   UNL A   1      39.785  34.573  37.470  1.00  0.00     0.040 A 
ATOM     67  F   UNL A   1      41.017  34.235  35.502  1.00  0.00    -0.206 F 
ATOM     68  C   UNL A   1      38.810  34.157  38.374  1.00  0.00     0.006 A 
ENDBRANCH  47  61
BRANCH  48  69
ATOM     69  C   UNL A   1      41.215  27.438  27.767  1.00  0.00     0.057 A 
ATOM     70  C   UNL A   1      40.664  26.171  27.544  1.00  0.00     0.134 A 
ATOM     71  C   UNL A   1      42.032  27.972  26.765  1.00  0.00     0.134 A 
ATOM     72  F   UNL A   1      39.875  25.602  28.468  1.00  0.00    -0.206 F 
ATOM     73  C   UNL A   1      40.917  25.462  26.369  1.00  0.00     0.040 A 
ATOM     74  C   UNL A   1      42.274  27.286  25.575  1.00  0.00     0.040 A 
ATOM     75  F   UNL A   1      42.571  29.192  26.913  1.00  0.00    -0.206 F 
ATOM     76  C   UNL A   1      41.718  26.023  25.377  1.00  0.00     0.006 A 
ENDBRANCH  48  69
BRANCH  60  77
ATOM     77  C   UNL A   1      44.111  27.465  34.082  1.00  0.00     0.057 A 
ATOM     78  C   UNL A   1      43.895  26.196  34.634  1.00  0.00     0.134 A 
ATOM     79  C   UNL A   1      45.420  27.965  34.106  1.00  0.00     0.134 A 
ATOM     80  F   UNL A   1      42.665  25.659  34.650  1.00  0.00    -0.206 F 
ATOM     81  C   UNL A   1      44.939  25.452  35.185  1.00  0.00     0.040 A 
ATOM     82  C   UNL A   1      46.477  27.219  34.630  1.00  0.00     0.040 A 
ATOM     83  F   UNL A   1      45.698  29.166  33.577  1.00  0.00    -0.206 F 
ATOM     84  C   UNL A   1      46.237  25.960  35.177  1.00  0.00     0.006 A 
ENDBRANCH  60  77
ENDBRANCH  34  35
ENDBRANCH  27  29
ENDBRANCH  26  27
ENDBRANCH  25  26
ENDBRANCH  24  25
ENDBRANCH   1  24
TORSDOF 16
ENDMDL
MODEL 3
REMARK VINA RESULT:     -11.1      0.457      6.066
REMARK SMILES C[C@H]1CC[C@@](C[C@@H]2CSc3ccccc32)(C(=O)OCCOCCOC(=O)c2ccc(-c3c4nc(c(-c5c(F)cccc5F)c5ccc([nH]5)c(-c5c(F)cccc5F)c5nc(c(-c6c(F)cccc6F)c6ccc3[nH]6)C=C5)C=C4)cc2)CC1
REMARK SMILES IDX 21 1 20 2 19 3 18 4 16 5 17 6 5 7 1 8 2 9 82 10 3 11 81 12
REMARK SMILES IDX 4 13 6 14 7 15 8 16 15 17 9 18 10 19 14 20 11 21 13 22 12 23
REMARK SMILES IDX 22 24 23 25 24 26 25 27 26 28 27 29 28 30 80 31 29 32 79 33
REMARK SMILES IDX 30 34 31 35 32 36 73 37 33 38 78 39 72 40 74 41 34 42 77 43
REMARK SMILES IDX 71 44 70 45 35 47 61 48 44 49 60 50 45 51 48 52 59 53 75 54
REMARK SMILES IDX 46 55 47 56 58 58 76 59 49 60 36 61 37 62 42 63 38 64 39 65
REMARK SMILES IDX 41 66 43 67 40 68 62 69 63 70 68 71 64 72 65 73 67 74 69 75
REMARK SMILES IDX 66 76 50 77 51 78 56 79 52 80 53 81 55 82 57 83 54 84
REMARK H PARENT 74 46 48 57
REMARK Flexibility Score: inf
ROOT
ATOM      1  O   UNL A   1      32.100  30.511  26.170  1.00  0.00    -0.374 OA
ENDROOT
BRANCH   1   2
ATOM      2  C   UNL A   1      32.790  29.687  27.105  1.00  0.00     0.202 C 
BRANCH   2   3
ATOM      3  C   UNL A   1      34.024  28.934  26.604  1.00  0.00     0.261 C 
BRANCH   3   4
ATOM      4  O   UNL A   1      33.741  27.612  26.091  1.00  0.00    -0.463 OA
BRANCH   4   5
ATOM      5  C   UNL A   1      33.640  27.532  24.738  1.00  0.00     0.312 C 
ATOM      6  O   UNL A   1      34.085  28.387  23.977  1.00  0.00    -0.252 OA
BRANCH   5   7
ATOM      7  C   UNL A   1      32.811  26.340  24.221  1.00  0.00     0.069 C 
ATOM      8  C   UNL A   1      28.945  28.286  23.125  1.00  0.00     0.007 C 
ATOM      9  C   UNL A   1      29.930  27.165  23.466  1.00  0.00    -0.014 C 
ATOM     10  C   UNL A   1      30.525  27.345  24.858  1.00  0.00     0.004 C 
ATOM     11  C   UNL A   1      31.010  27.095  22.394  1.00  0.00     0.004 C 
ATOM     12  C   UNL A   1      31.556  26.251  25.145  1.00  0.00     0.019 C 
ATOM     13  C   UNL A   1      32.311  26.388  22.765  1.00  0.00     0.019 C 
BRANCH   7  14
ATOM     14  C   UNL A   1      33.708  25.064  24.500  1.00  0.00     0.028 C 
BRANCH  14  15
ATOM     15  C   UNL A   1      33.557  23.717  23.722  1.00  0.00     0.032 C 
ATOM     16  C   UNL A   1      32.252  22.929  23.941  1.00  0.00     0.083 C 
ATOM     17  C   UNL A   1      34.700  22.753  23.923  1.00  0.00    -0.030 A 
ATOM     18  S   UNL A   1      32.629  21.435  24.907  1.00  0.00    -0.125 SA
ATOM     19  C   UNL A   1      34.366  21.585  24.613  1.00  0.00     0.011 A 
ATOM     20  C   UNL A   1      36.032  23.033  23.613  1.00  0.00     0.005 A 
ATOM     21  C   UNL A   1      35.354  20.741  25.099  1.00  0.00     0.015 A 
ATOM     22  C   UNL A   1      37.029  22.183  24.095  1.00  0.00     0.000 A 
ATOM     23  C   UNL A   1      36.694  21.056  24.854  1.00  0.00     0.001 A 
ENDBRANCH  14  15
ENDBRANCH   7  14
ENDBRANCH   5   7
ENDBRANCH   4   5
ENDBRANCH   3   4
ENDBRANCH   2   3
ENDBRANCH   1   2
BRANCH   1  24
ATOM     24  C   UNL A   1      31.580  31.750  26.644  1.00  0.00     0.202 C 
BRANCH  24  25
ATOM     25  C   UNL A   1      32.587  32.881  26.887  1.00  0.00     0.261 C 
BRANCH  25  26
ATOM     26  O   UNL A   1      32.153  33.828  27.881  1.00  0.00    -0.460 OA
BRANCH  26  27
ATOM     27  C   UNL A   1      33.147  34.599  28.391  1.00  0.00     0.338 C 
ATOM     28  O   UNL A   1      33.100  35.787  28.654  1.00  0.00    -0.246 OA
BRANCH  27  29
ATOM     29  C   UNL A   1      34.313  33.773  28.756  1.00  0.00     0.060 A 
ATOM     30  C   UNL A   1      35.613  34.201  28.491  1.00  0.00     0.016 A 
ATOM     31  C   UNL A   1      34.084  32.614  29.509  1.00  0.00     0.016 A 
ATOM     32  C   UNL A   1      36.692  33.472  29.008  1.00  0.00     0.010 A 
ATOM     33  C   UNL A   1      35.160  31.886  30.017  1.00  0.00     0.010 A 
ATOM     34  C   UNL A   1      36.473  32.322  29.790  1.00  0.00    -0.014 A 
BRANCH  34  35
ATOM     35  C   UNL A   1      37.598  31.638  30.476  1.00  0.00     0.031 A 
ATOM     36  C   UNL A   1      38.398  30.573  29.788  1.00  0.00     0.074 A 
ATOM     37  C   UNL A   1      37.849  31.939  31.764  1.00  0.00     0.049 A 
ATOM     38  N   UNL A   1      39.412  29.880  30.244  1.00  0.00    -0.248 NA
ATOM     39  C   UNL A   1      37.999  30.229  28.417  1.00  0.00     0.031 C 
ATOM     40  C   UNL A   1      37.103  32.915  32.561  1.00  0.00     0.029 A 
ATOM     41  N   UNL A   1      38.790  31.447  32.632  1.00  0.00    -0.354 N 
ATOM     42  C   UNL A   1      39.786  29.030  29.213  1.00  0.00     0.074 A 
ATOM     43  C   UNL A   1      38.854  29.257  28.125  1.00  0.00     0.031 C 
ATOM     44  C   UNL A   1      37.625  32.960  33.798  1.00  0.00     0.029 A 
ATOM     45  C   UNL A   1      38.723  32.002  33.887  1.00  0.00     0.049 A 
ATOM     46  H   UNL A   1      39.451  30.762  32.380  1.00  0.00     0.167 HD
ATOM     47  C   UNL A   1      40.821  28.154  29.170  1.00  0.00     0.037 A 
ATOM     48  C   UNL A   1      39.464  31.767  34.986  1.00  0.00     0.037 A 
ATOM     49  C   UNL A   1      41.733  27.914  30.260  1.00  0.00     0.049 A 
ATOM     50  C   UNL A   1      40.579  30.761  34.924  1.00  0.00     0.074 A 
ATOM     51  C   UNL A   1      42.844  27.086  30.293  1.00  0.00     0.029 A 
ATOM     52  N   UNL A   1      41.631  28.488  31.520  1.00  0.00    -0.354 N 
ATOM     53  N   UNL A   1      40.984  30.035  33.911  1.00  0.00    -0.248 NA
ATOM     54  C   UNL A   1      41.346  30.551  36.160  1.00  0.00     0.031 C 
ATOM     55  C   UNL A   1      43.382  27.121  31.584  1.00  0.00     0.029 A 
ATOM     56  C   UNL A   1      42.639  28.008  32.344  1.00  0.00     0.049 A 
ATOM     57  H   UNL A   1      40.944  29.140  31.789  1.00  0.00     0.167 HD
ATOM     58  C   UNL A   1      42.066  29.301  34.379  1.00  0.00     0.074 A 
ATOM     59  C   UNL A   1      42.266  29.685  35.760  1.00  0.00     0.031 C 
ATOM     60  C   UNL A   1      42.826  28.391  33.720  1.00  0.00     0.037 A 
BRANCH  47  61
ATOM     61  C   UNL A   1      41.023  27.388  27.894  1.00  0.00     0.057 A 
ATOM     62  C   UNL A   1      41.793  27.916  26.850  1.00  0.00     0.134 A 
ATOM     63  C   UNL A   1      40.419  26.141  27.682  1.00  0.00     0.134 A 
ATOM     64  F   UNL A   1      42.389  29.110  26.979  1.00  0.00    -0.206 F 
ATOM     65  C   UNL A   1      41.957  27.230  25.644  1.00  0.00     0.040 A 
ATOM     66  C   UNL A   1      40.598  25.434  26.492  1.00  0.00     0.040 A 
ATOM     67  F   UNL A   1      39.673  25.575  28.643  1.00  0.00    -0.206 F 
ATOM     68  C   UNL A   1      41.365  25.982  25.466  1.00  0.00     0.006 A 
ENDBRANCH  47  61
BRANCH  48  69
ATOM     69  C   UNL A   1      39.195  32.514  36.239  1.00  0.00     0.057 A 
ATOM     70  C   UNL A   1      39.788  33.757  36.492  1.00  0.00     0.134 A 
ATOM     71  C   UNL A   1      38.320  32.008  37.206  1.00  0.00     0.134 A 
ATOM     72  F   UNL A   1      40.641  34.294  35.606  1.00  0.00    -0.206 F 
ATOM     73  C   UNL A   1      39.520  34.469  37.661  1.00  0.00     0.040 A 
ATOM     74  C   UNL A   1      38.023  32.720  38.368  1.00  0.00     0.040 A 
ATOM     75  F   UNL A   1      37.706  30.832  37.009  1.00  0.00    -0.206 F 
ATOM     76  C   UNL A   1      38.628  33.954  38.600  1.00  0.00     0.006 A 
ENDBRANCH  48  69
BRANCH  60  77
ATOM     77  C   UNL A   1      43.959  27.771  34.487  1.00  0.00     0.057 A 
ATOM     78  C   UNL A   1      43.781  26.564  35.176  1.00  0.00     0.134 A 
ATOM     79  C   UNL A   1      45.226  28.367  34.549  1.00  0.00     0.134 A 
ATOM     80  F   UNL A   1      42.592  25.942  35.164  1.00  0.00    -0.206 F 
ATOM     81  C   UNL A   1      44.820  25.971  35.893  1.00  0.00     0.040 A 
ATOM     82  C   UNL A   1      46.282  27.770  35.241  1.00  0.00     0.040 A 
ATOM     83  F   UNL A   1      45.470  29.514  33.897  1.00  0.00    -0.206 F 
ATOM     84  C   UNL A   1      46.079  26.570  35.920  1.00  0.00     0.006 A 
ENDBRANCH  60  77
ENDBRANCH  34  35
ENDBRANCH  27  29
ENDBRANCH  26  27
ENDBRANCH  25  26
ENDBRANCH  24  25
ENDBRANCH   1  24
TORSDOF 16
ENDMDL
