MODEL 1
REMARK VINA RESULT:     -11.6      0.000      0.000
REMARK SMILES O=C(OCCOCCOC(=O)[C@@H]1CCCC[C@@H]1NS(=O)(=O)c1ccc2ccccc2c1)c1ccc(-c2c3nc(c(-c4c(F)cccc4F)c4ccc([nH]4)c(-c4c(F)cccc4F)c4nc(c(-c5c(F)cccc5F)c5ccc2[nH]5)C=C4)C=C3)cc1
REMARK SMILES IDX 7 1 6 2 5 3 4 4 3 5 2 6 1 7 32 8 33 9 85 10 34 11 84 12
REMARK SMILES IDX 35 13 36 14 37 15 78 16 38 17 83 18 77 19 79 20 39 21 82 22
REMARK SMILES IDX 76 23 75 24 40 26 66 27 49 28 65 29 50 30 53 31 64 32 80 33
REMARK SMILES IDX 51 34 52 35 63 37 81 38 54 39 41 40 42 41 47 42 43 43 44 44
REMARK SMILES IDX 46 45 48 46 45 47 67 48 68 49 73 50 69 51 70 52 72 53 74 54
REMARK SMILES IDX 71 55 55 56 56 57 61 58 57 59 58 60 60 61 62 62 59 63 8 64
REMARK SMILES IDX 9 65 10 66 11 67 12 68 13 69 17 70 14 71 16 72 15 73 18 74
REMARK SMILES IDX 19 76 20 77 21 78 22 79 23 80 31 81 24 82 30 83 25 84 29 85
REMARK SMILES IDX 26 86 28 87 27 88
REMARK H PARENT 79 25 53 36 18 75
REMARK Flexibility Score: inf
ROOT
ATOM      1  C   UNL A   1      33.013  29.544  25.901  1.00  0.00     0.202 C 
ENDROOT
BRANCH   1   2
ATOM      2  O   UNL A   1      31.778  30.247  25.737  1.00  0.00    -0.374 OA
BRANCH   2   3
ATOM      3  C   UNL A   1      31.583  31.466  26.463  1.00  0.00     0.202 C 
BRANCH   3   4
ATOM      4  C   UNL A   1      32.786  32.080  27.202  1.00  0.00     0.261 C 
BRANCH   4   5
ATOM      5  O   UNL A   1      32.499  33.415  27.643  1.00  0.00    -0.460 OA
BRANCH   5   6
ATOM      6  C   UNL A   1      33.169  34.168  28.544  1.00  0.00     0.338 C 
ATOM      7  O   UNL A   1      32.752  35.279  28.855  1.00  0.00    -0.246 OA
BRANCH   6   8
ATOM      8  C   UNL A   1      34.421  33.689  29.153  1.00  0.00     0.060 A 
ATOM      9  C   UNL A   1      34.436  32.729  30.158  1.00  0.00     0.016 A 
ATOM     10  C   UNL A   1      35.634  34.137  28.620  1.00  0.00     0.016 A 
ATOM     11  C   UNL A   1      35.593  32.248  30.685  1.00  0.00     0.010 A 
ATOM     12  C   UNL A   1      36.828  33.617  29.104  1.00  0.00     0.010 A 
ATOM     13  C   UNL A   1      36.785  32.670  30.133  1.00  0.00    -0.014 A 
BRANCH  13  14
ATOM     14  C   UNL A   1      37.963  32.130  30.783  1.00  0.00     0.031 A 
ATOM     15  C   UNL A   1      38.666  31.026  30.088  1.00  0.00     0.074 A 
ATOM     16  C   UNL A   1      38.455  32.804  31.834  1.00  0.00     0.049 A 
ATOM     17  N   UNL A   1      39.686  30.330  30.487  1.00  0.00    -0.248 NA
ATOM     18  C   UNL A   1      38.160  30.665  28.750  1.00  0.00     0.031 C 
ATOM     19  C   UNL A   1      37.879  34.036  32.394  1.00  0.00     0.029 A 
ATOM     20  N   UNL A   1      39.563  32.579  32.588  1.00  0.00    -0.354 N 
ATOM     21  C   UNL A   1      39.905  29.402  29.483  1.00  0.00     0.074 A 
ATOM     22  C   UNL A   1      38.936  29.641  28.441  1.00  0.00     0.031 C 
ATOM     23  C   UNL A   1      38.642  34.449  33.415  1.00  0.00     0.029 A 
ATOM     24  C   UNL A   1      39.688  33.461  33.631  1.00  0.00     0.049 A 
ATOM     25  H   UNL A   1      40.210  31.860  32.406  1.00  0.00     0.167 HD
ATOM     26  C   UNL A   1      40.828  28.417  29.484  1.00  0.00     0.037 A 
ATOM     27  C   UNL A   1      40.518  33.403  34.685  1.00  0.00     0.037 A 
ATOM     28  C   UNL A   1      41.746  28.248  30.576  1.00  0.00     0.049 A 
ATOM     29  C   UNL A   1      41.468  32.243  34.721  1.00  0.00     0.074 A 
ATOM     30  C   UNL A   1      42.688  27.264  30.778  1.00  0.00     0.029 A 
ATOM     31  N   UNL A   1      41.818  29.113  31.668  1.00  0.00    -0.354 N 
ATOM     32  N   UNL A   1      41.623  31.283  33.835  1.00  0.00    -0.248 NA
ATOM     33  C   UNL A   1      42.335  32.131  35.893  1.00  0.00     0.031 C 
ATOM     34  C   UNL A   1      43.292  27.503  32.018  1.00  0.00     0.029 A 
ATOM     35  C   UNL A   1      42.771  28.673  32.563  1.00  0.00     0.049 A 
ATOM     36  H   UNL A   1      41.267  29.921  31.784  1.00  0.00     0.167 HD
ATOM     37  C   UNL A   1      42.613  30.455  34.331  1.00  0.00     0.074 A 
ATOM     38  C   UNL A   1      43.029  31.039  35.597  1.00  0.00     0.031 C 
ATOM     39  C   UNL A   1      43.136  29.320  33.804  1.00  0.00     0.037 A 
BRANCH  26  40
ATOM     40  C   UNL A   1      40.753  27.430  28.361  1.00  0.00     0.057 A 
ATOM     41  C   UNL A   1      41.462  27.591  27.163  1.00  0.00     0.134 A 
ATOM     42  C   UNL A   1      39.858  26.355  28.439  1.00  0.00     0.134 A 
ATOM     43  F   UNL A   1      42.301  28.626  27.002  1.00  0.00    -0.206 F 
ATOM     44  C   UNL A   1      41.252  26.744  26.070  1.00  0.00     0.040 A 
ATOM     45  C   UNL A   1      39.660  25.487  27.364  1.00  0.00     0.040 A 
ATOM     46  F   UNL A   1      39.130  26.154  29.548  1.00  0.00    -0.206 F 
ATOM     47  C   UNL A   1      40.349  25.688  26.170  1.00  0.00     0.006 A 
ENDBRANCH  26  40
BRANCH  27  48
ATOM     48  C   UNL A   1      40.393  34.400  35.775  1.00  0.00     0.057 A 
ATOM     49  C   UNL A   1      41.085  35.614  35.743  1.00  0.00     0.134 A 
ATOM     50  C   UNL A   1      39.516  34.189  36.852  1.00  0.00     0.134 A 
ATOM     51  F   UNL A   1      41.940  35.876  34.746  1.00  0.00    -0.206 F 
ATOM     52  C   UNL A   1      40.912  36.579  36.739  1.00  0.00     0.040 A 
ATOM     53  C   UNL A   1      39.314  35.155  37.838  1.00  0.00     0.040 A 
ATOM     54  F   UNL A   1      38.810  33.051  36.937  1.00  0.00    -0.206 F 
ATOM     55  C   UNL A   1      40.017  36.354  37.785  1.00  0.00     0.006 A 
ENDBRANCH  27  48
BRANCH  39  56
ATOM     56  C   UNL A   1      44.236  28.672  34.581  1.00  0.00     0.057 A 
ATOM     57  C   UNL A   1      45.574  29.037  34.403  1.00  0.00     0.134 A 
ATOM     58  C   UNL A   1      43.931  27.743  35.583  1.00  0.00     0.134 A 
ATOM     59  F   UNL A   1      45.921  29.912  33.447  1.00  0.00    -0.206 F 
ATOM     60  C   UNL A   1      46.579  28.494  35.200  1.00  0.00     0.040 A 
ATOM     61  C   UNL A   1      44.923  27.216  36.404  1.00  0.00     0.040 A 
ATOM     62  F   UNL A   1      42.661  27.368  35.800  1.00  0.00    -0.206 F 
ATOM     63  C   UNL A   1      46.252  27.592  36.213  1.00  0.00     0.006 A 
ENDBRANCH  39  56
ENDBRANCH  13  14
ENDBRANCH   6   8
ENDBRANCH   5   6
ENDBRANCH   4   5
ENDBRANCH   3   4
ENDBRANCH   2   3
ENDBRANCH   1   2
BRANCH   1  64
ATOM     64  C   UNL A   1      33.435  28.865  24.605  1.00  0.00     0.261 C 
BRANCH  64  65
ATOM     65  O   UNL A   1      32.446  29.213  23.625  1.00  0.00    -0.463 OA
BRANCH  65  66
ATOM     66  C   UNL A   1      32.146  28.208  22.762  1.00  0.00     0.310 C 
ATOM     67  O   UNL A   1      32.959  27.576  22.099  1.00  0.00    -0.252 OA
BRANCH  66  68
ATOM     68  C   UNL A   1      30.658  27.981  22.669  1.00  0.00     0.117 C 
ATOM     69  C   UNL A   1      30.037  29.376  22.604  1.00  0.00     0.017 C 
ATOM     70  C   UNL A   1      29.964  26.980  23.658  1.00  0.00     0.084 C 
ATOM     71  C   UNL A   1      28.545  29.297  22.357  1.00  0.00     0.001 C 
ATOM     72  C   UNL A   1      28.453  27.020  23.406  1.00  0.00     0.021 C 
ATOM     73  C   UNL A   1      27.883  28.433  23.421  1.00  0.00     0.002 C 
BRANCH  70  74
ATOM     74  N   UNL A   1      30.342  27.168  25.070  1.00  0.00    -0.207 NA
ATOM     75  H   UNL A   1      29.479  27.457  25.531  1.00  0.00     0.141 HD
BRANCH  74  76
ATOM     76  S   UNL A   1      31.032  26.049  26.123  1.00  0.00     0.240 S 
ATOM     77  O   UNL A   1      31.629  26.849  27.170  1.00  0.00    -0.207 OA
ATOM     78  O   UNL A   1      30.034  25.052  26.445  1.00  0.00    -0.207 OA
BRANCH  76  79
ATOM     79  C   UNL A   1      32.367  25.217  25.267  1.00  0.00     0.083 A 
ATOM     80  C   UNL A   1      32.137  24.635  24.020  1.00  0.00     0.022 A 
ATOM     81  C   UNL A   1      33.590  24.978  25.910  1.00  0.00     0.030 A 
ATOM     82  C   UNL A   1      33.160  23.926  23.372  1.00  0.00     0.010 A 
ATOM     83  C   UNL A   1      34.646  24.298  25.249  1.00  0.00    -0.017 A 
ATOM     84  C   UNL A   1      34.431  23.789  23.952  1.00  0.00    -0.018 A 
ATOM     85  C   UNL A   1      35.925  24.144  25.826  1.00  0.00     0.009 A 
ATOM     86  C   UNL A   1      35.493  23.165  23.268  1.00  0.00     0.009 A 
ATOM     87  C   UNL A   1      36.984  23.574  25.113  1.00  0.00     0.001 A 
ATOM     88  C   UNL A   1      36.767  23.082  23.834  1.00  0.00     0.001 A 
ENDBRANCH  76  79
ENDBRANCH  74  76
ENDBRANCH  70  74
ENDBRANCH  66  68
ENDBRANCH  65  66
ENDBRANCH  64  65
ENDBRANCH   1  64
TORSDOF 17
ENDMDL
MODEL 2
REMARK VINA RESULT:     -11.6      4.654      8.981
REMARK SMILES O=C(OCCOCCOC(=O)[C@@H]1CCCC[C@@H]1NS(=O)(=O)c1ccc2ccccc2c1)c1ccc(-c2c3nc(c(-c4c(F)cccc4F)c4ccc([nH]4)c(-c4c(F)cccc4F)c4nc(c(-c5c(F)cccc5F)c5ccc2[nH]5)C=C4)C=C3)cc1
REMARK SMILES IDX 7 1 6 2 5 3 4 4 3 5 2 6 1 7 32 8 33 9 85 10 34 11 84 12
REMARK SMILES IDX 35 13 36 14 37 15 78 16 38 17 83 18 77 19 79 20 39 21 82 22
REMARK SMILES IDX 76 23 75 24 40 26 66 27 49 28 65 29 50 30 53 31 64 32 80 33
REMARK SMILES IDX 51 34 52 35 63 37 81 38 54 39 41 40 42 41 47 42 43 43 44 44
REMARK SMILES IDX 46 45 48 46 45 47 67 48 68 49 73 50 69 51 70 52 72 53 74 54
REMARK SMILES IDX 71 55 55 56 56 57 61 58 57 59 58 60 60 61 62 62 59 63 8 64
REMARK SMILES IDX 9 65 10 66 11 67 12 68 13 69 17 70 14 71 16 72 15 73 18 74
REMARK SMILES IDX 19 76 20 77 21 78 22 79 23 80 31 81 24 82 30 83 25 84 29 85
REMARK SMILES IDX 26 86 28 87 27 88
REMARK H PARENT 79 25 53 36 18 75
REMARK Flexibility Score: inf
ROOT
ATOM      1  C   UNL A   1      36.787  22.798  23.726  1.00  0.00     0.202 C 
ENDROOT
BRANCH   1   2
ATOM      2  O   UNL A   1      36.714  21.735  24.681  1.00  0.00    -0.374 OA
BRANCH   2   3
ATOM      3  C   UNL A   1      37.920  21.316  25.330  1.00  0.00     0.202 C 
BRANCH   3   4
ATOM      4  C   UNL A   1      38.552  19.976  24.912  1.00  0.00     0.261 C 
BRANCH   4   5
ATOM      5  O   UNL A   1      39.478  19.505  25.902  1.00  0.00    -0.460 OA
BRANCH   5   6
ATOM      6  C   UNL A   1      40.804  19.746  25.999  1.00  0.00     0.338 C 
ATOM      7  O   UNL A   1      41.616  18.889  25.664  1.00  0.00    -0.246 OA
BRANCH   6   8
ATOM      8  C   UNL A   1      41.306  21.025  26.529  1.00  0.00     0.060 A 
ATOM      9  C   UNL A   1      41.644  22.088  25.700  1.00  0.00     0.016 A 
ATOM     10  C   UNL A   1      41.335  21.205  27.916  1.00  0.00     0.016 A 
ATOM     11  C   UNL A   1      42.059  23.287  26.190  1.00  0.00     0.010 A 
ATOM     12  C   UNL A   1      41.701  22.439  28.438  1.00  0.00     0.010 A 
ATOM     13  C   UNL A   1      42.054  23.468  27.558  1.00  0.00    -0.014 A 
BRANCH  13  14
ATOM     14  C   UNL A   1      42.544  24.763  27.986  1.00  0.00     0.031 A 
ATOM     15  C   UNL A   1      41.529  25.765  28.387  1.00  0.00     0.074 A 
ATOM     16  C   UNL A   1      43.863  24.887  28.200  1.00  0.00     0.049 A 
ATOM     17  N   UNL A   1      41.699  27.005  28.734  1.00  0.00    -0.248 NA
ATOM     18  C   UNL A   1      40.128  25.305  28.418  1.00  0.00     0.031 C 
ATOM     19  C   UNL A   1      44.855  23.818  28.012  1.00  0.00     0.029 A 
ATOM     20  N   UNL A   1      44.590  25.941  28.659  1.00  0.00    -0.354 N 
ATOM     21  C   UNL A   1      40.425  27.495  28.958  1.00  0.00     0.074 A 
ATOM     22  C   UNL A   1      39.490  26.416  28.742  1.00  0.00     0.031 C 
ATOM     23  C   UNL A   1      46.067  24.283  28.347  1.00  0.00     0.029 A 
ATOM     24  C   UNL A   1      45.938  25.695  28.671  1.00  0.00     0.049 A 
ATOM     25  H   UNL A   1      44.190  26.791  28.952  1.00  0.00     0.167 HD
ATOM     26  C   UNL A   1      40.095  28.763  29.280  1.00  0.00     0.037 A 
ATOM     27  C   UNL A   1      46.948  26.563  28.848  1.00  0.00     0.037 A 
ATOM     28  C   UNL A   1      41.096  29.777  29.463  1.00  0.00     0.049 A 
ATOM     29  C   UNL A   1      46.563  27.990  29.102  1.00  0.00     0.074 A 
ATOM     30  C   UNL A   1      40.939  31.123  29.713  1.00  0.00     0.029 A 
ATOM     31  N   UNL A   1      42.468  29.530  29.405  1.00  0.00    -0.354 N 
ATOM     32  N   UNL A   1      45.358  28.506  29.211  1.00  0.00    -0.248 NA
ATOM     33  C   UNL A   1      47.651  28.958  29.234  1.00  0.00     0.031 C 
ATOM     34  C   UNL A   1      42.214  31.699  29.752  1.00  0.00     0.029 A 
ATOM     35  C   UNL A   1      43.171  30.703  29.589  1.00  0.00     0.049 A 
ATOM     36  H   UNL A   1      42.876  28.647  29.254  1.00  0.00     0.167 HD
ATOM     37  C   UNL A   1      45.537  29.859  29.436  1.00  0.00     0.074 A 
ATOM     38  C   UNL A   1      46.975  30.078  29.458  1.00  0.00     0.031 C 
ATOM     39  C   UNL A   1      44.611  30.836  29.607  1.00  0.00     0.037 A 
BRANCH  26  40
ATOM     40  C   UNL A   1      38.634  29.091  29.299  1.00  0.00     0.057 A 
ATOM     41  C   UNL A   1      37.955  29.586  28.176  1.00  0.00     0.134 A 
ATOM     42  C   UNL A   1      37.921  29.021  30.503  1.00  0.00     0.134 A 
ATOM     43  F   UNL A   1      38.590  29.725  27.003  1.00  0.00    -0.206 F 
ATOM     44  C   UNL A   1      36.634  30.037  28.262  1.00  0.00     0.040 A 
ATOM     45  C   UNL A   1      36.594  29.442  30.593  1.00  0.00     0.040 A 
ATOM     46  F   UNL A   1      38.515  28.578  31.621  1.00  0.00    -0.206 F 
ATOM     47  C   UNL A   1      35.950  29.965  29.473  1.00  0.00     0.006 A 
ENDBRANCH  26  40
BRANCH  27  48
ATOM     48  C   UNL A   1      48.349  26.103  28.689  1.00  0.00     0.057 A 
ATOM     49  C   UNL A   1      49.006  26.163  27.457  1.00  0.00     0.134 A 
ATOM     50  C   UNL A   1      49.093  25.654  29.792  1.00  0.00     0.134 A 
ATOM     51  F   UNL A   1      48.353  26.578  26.364  1.00  0.00    -0.206 F 
ATOM     52  C   UNL A   1      50.347  25.792  27.327  1.00  0.00     0.040 A 
ATOM     53  C   UNL A   1      50.439  25.307  29.681  1.00  0.00     0.040 A 
ATOM     54  F   UNL A   1      48.528  25.586  31.008  1.00  0.00    -0.206 F 
ATOM     55  C   UNL A   1      51.070  25.372  28.443  1.00  0.00     0.006 A 
ENDBRANCH  27  48
BRANCH  39  56
ATOM     56  C   UNL A   1      45.138  32.210  29.873  1.00  0.00     0.057 A 
ATOM     57  C   UNL A   1      45.336  33.132  28.841  1.00  0.00     0.134 A 
ATOM     58  C   UNL A   1      45.355  32.633  31.189  1.00  0.00     0.134 A 
ATOM     59  F   UNL A   1      45.156  32.773  27.561  1.00  0.00    -0.206 F 
ATOM     60  C   UNL A   1      45.737  34.438  29.112  1.00  0.00     0.040 A 
ATOM     61  C   UNL A   1      45.727  33.943  31.474  1.00  0.00     0.040 A 
ATOM     62  F   UNL A   1      45.169  31.788  32.215  1.00  0.00    -0.206 F 
ATOM     63  C   UNL A   1      45.920  34.850  30.432  1.00  0.00     0.006 A 
ENDBRANCH  39  56
ENDBRANCH  13  14
ENDBRANCH   6   8
ENDBRANCH   5   6
ENDBRANCH   4   5
ENDBRANCH   3   4
ENDBRANCH   2   3
ENDBRANCH   1   2
BRANCH   1  64
ATOM     64  C   UNL A   1      35.414  23.113  23.150  1.00  0.00     0.261 C 
BRANCH  64  65
ATOM     65  O   UNL A   1      34.891  24.203  23.924  1.00  0.00    -0.463 OA
BRANCH  65  66
ATOM     66  C   UNL A   1      33.915  24.908  23.297  1.00  0.00     0.310 C 
ATOM     67  O   UNL A   1      33.664  24.862  22.099  1.00  0.00    -0.252 OA
BRANCH  66  68
ATOM     68  C   UNL A   1      33.183  25.817  24.253  1.00  0.00     0.117 C 
ATOM     69  C   UNL A   1      34.118  27.003  24.482  1.00  0.00     0.017 C 
ATOM     70  C   UNL A   1      32.529  25.216  25.546  1.00  0.00     0.084 C 
ATOM     71  C   UNL A   1      33.445  28.075  25.313  1.00  0.00     0.001 C 
ATOM     72  C   UNL A   1      31.947  26.365  26.374  1.00  0.00     0.021 C 
ATOM     73  C   UNL A   1      32.949  27.486  26.626  1.00  0.00     0.002 C 
BRANCH  70  74
ATOM     74  N   UNL A   1      33.415  24.316  26.307  1.00  0.00    -0.207 NA
ATOM     75  H   UNL A   1      33.741  24.880  27.093  1.00  0.00     0.141 HD
BRANCH  74  76
ATOM     76  S   UNL A   1      33.048  22.818  26.983  1.00  0.00     0.240 S 
ATOM     77  O   UNL A   1      34.226  22.459  27.742  1.00  0.00    -0.207 OA
ATOM     78  O   UNL A   1      31.760  22.917  27.637  1.00  0.00    -0.207 OA
BRANCH  76  79
ATOM     79  C   UNL A   1      32.888  21.623  25.658  1.00  0.00     0.083 A 
ATOM     80  C   UNL A   1      32.203  21.967  24.492  1.00  0.00     0.022 A 
ATOM     81  C   UNL A   1      33.278  20.290  25.847  1.00  0.00     0.030 A 
ATOM     82  C   UNL A   1      32.019  21.017  23.476  1.00  0.00     0.010 A 
ATOM     83  C   UNL A   1      33.135  19.330  24.811  1.00  0.00    -0.017 A 
ATOM     84  C   UNL A   1      32.519  19.711  23.601  1.00  0.00    -0.018 A 
ATOM     85  C   UNL A   1      33.622  18.011  24.928  1.00  0.00     0.009 A 
ATOM     86  C   UNL A   1      32.426  18.779  22.548  1.00  0.00     0.009 A 
ATOM     87  C   UNL A   1      33.575  17.117  23.856  1.00  0.00     0.001 A 
ATOM     88  C   UNL A   1      32.974  17.500  22.665  1.00  0.00     0.001 A 
ENDBRANCH  76  79
ENDBRANCH  74  76
ENDBRANCH  70  74
ENDBRANCH  66  68
ENDBRANCH  65  66
ENDBRANCH  64  65
ENDBRANCH   1  64
TORSDOF 17
ENDMDL
MODEL 3
REMARK VINA RESULT:     -11.5      1.898      2.740
REMARK SMILES O=C(OCCOCCOC(=O)[C@@H]1CCCC[C@@H]1NS(=O)(=O)c1ccc2ccccc2c1)c1ccc(-c2c3nc(c(-c4c(F)cccc4F)c4ccc([nH]4)c(-c4c(F)cccc4F)c4nc(c(-c5c(F)cccc5F)c5ccc2[nH]5)C=C4)C=C3)cc1
REMARK SMILES IDX 7 1 6 2 5 3 4 4 3 5 2 6 1 7 32 8 33 9 85 10 34 11 84 12
REMARK SMILES IDX 35 13 36 14 37 15 78 16 38 17 83 18 77 19 79 20 39 21 82 22
REMARK SMILES IDX 76 23 75 24 40 26 66 27 49 28 65 29 50 30 53 31 64 32 80 33
REMARK SMILES IDX 51 34 52 35 63 37 81 38 54 39 41 40 42 41 47 42 43 43 44 44
REMARK SMILES IDX 46 45 48 46 45 47 67 48 68 49 73 50 69 51 70 52 72 53 74 54
REMARK SMILES IDX 71 55 55 56 56 57 61 58 57 59 58 60 60 61 62 62 59 63 8 64
REMARK SMILES IDX 9 65 10 66 11 67 12 68 13 69 17 70 14 71 16 72 15 73 18 74
REMARK SMILES IDX 19 76 20 77 21 78 22 79 23 80 31 81 24 82 30 83 25 84 29 85
REMARK SMILES IDX 26 86 28 87 27 88
REMARK H PARENT 79 25 53 36 18 75
REMARK Flexibility Score: inf
ROOT
ATOM      1  C   UNL A   1      34.312  29.869  27.242  1.00  0.00     0.202 C 
ENDROOT
BRANCH   1   2
ATOM      2  O   UNL A   1      33.103  30.497  27.681  1.00  0.00    -0.374 OA
BRANCH   2   3
ATOM      3  C   UNL A   1      32.300  31.184  26.714  1.00  0.00     0.202 C 
BRANCH   3   4
ATOM      4  C   UNL A   1      31.644  32.516  27.119  1.00  0.00     0.261 C 
BRANCH   4   5
ATOM      5  O   UNL A   1      32.618  33.564  27.230  1.00  0.00    -0.460 OA
BRANCH   5   6
ATOM      6  C   UNL A   1      33.086  34.166  28.346  1.00  0.00     0.338 C 
ATOM      7  O   UNL A   1      32.502  35.137  28.817  1.00  0.00    -0.246 OA
BRANCH   6   8
ATOM      8  C   UNL A   1      34.313  33.692  29.007  1.00  0.00     0.060 A 
ATOM      9  C   UNL A   1      34.294  32.699  29.979  1.00  0.00     0.016 A 
ATOM     10  C   UNL A   1      35.543  34.182  28.557  1.00  0.00     0.016 A 
ATOM     11  C   UNL A   1      35.430  32.223  30.554  1.00  0.00     0.010 A 
ATOM     12  C   UNL A   1      36.720  33.669  29.090  1.00  0.00     0.010 A 
ATOM     13  C   UNL A   1      36.642  32.687  30.082  1.00  0.00    -0.014 A 
BRANCH  13  14
ATOM     14  C   UNL A   1      37.793  32.149  30.779  1.00  0.00     0.031 A 
ATOM     15  C   UNL A   1      38.552  31.078  30.091  1.00  0.00     0.074 A 
ATOM     16  C   UNL A   1      38.218  32.801  31.872  1.00  0.00     0.049 A 
ATOM     17  N   UNL A   1      39.563  30.388  30.524  1.00  0.00    -0.248 NA
ATOM     18  C   UNL A   1      38.123  30.746  28.720  1.00  0.00     0.031 C 
ATOM     19  C   UNL A   1      37.590  34.007  32.435  1.00  0.00     0.029 A 
ATOM     20  N   UNL A   1      39.289  32.574  32.678  1.00  0.00    -0.354 N 
ATOM     21  C   UNL A   1      39.851  29.493  29.509  1.00  0.00     0.074 A 
ATOM     22  C   UNL A   1      38.933  29.745  28.423  1.00  0.00     0.031 C 
ATOM     23  C   UNL A   1      38.292  34.404  33.506  1.00  0.00     0.029 A 
ATOM     24  C   UNL A   1      39.343  33.428  33.749  1.00  0.00     0.049 A 
ATOM     25  H   UNL A   1      39.957  31.871  32.509  1.00  0.00     0.167 HD
ATOM     26  C   UNL A   1      40.790  28.525  29.531  1.00  0.00     0.037 A 
ATOM     27  C   UNL A   1      40.118  33.354  34.843  1.00  0.00     0.037 A 
ATOM     28  C   UNL A   1      41.653  28.340  30.664  1.00  0.00     0.049 A 
ATOM     29  C   UNL A   1      41.085  32.210  34.898  1.00  0.00     0.074 A 
ATOM     30  C   UNL A   1      42.602  27.366  30.889  1.00  0.00     0.029 A 
ATOM     31  N   UNL A   1      41.652  29.175  31.782  1.00  0.00    -0.354 N 
ATOM     32  N   UNL A   1      41.304  31.279  33.994  1.00  0.00    -0.248 NA
ATOM     33  C   UNL A   1      41.892  32.080  36.110  1.00  0.00     0.031 C 
ATOM     34  C   UNL A   1      43.136  27.581  32.165  1.00  0.00     0.029 A 
ATOM     35  C   UNL A   1      42.566  28.725  32.713  1.00  0.00     0.049 A 
ATOM     36  H   UNL A   1      41.081  29.970  31.892  1.00  0.00     0.167 HD
ATOM     37  C   UNL A   1      42.283  30.454  34.520  1.00  0.00     0.074 A 
ATOM     38  C   UNL A   1      42.621  31.008  35.821  1.00  0.00     0.031 C 
ATOM     39  C   UNL A   1      42.853  29.343  33.989  1.00  0.00     0.037 A 
BRANCH  26  40
ATOM     40  C   UNL A   1      40.793  27.568  28.379  1.00  0.00     0.057 A 
ATOM     41  C   UNL A   1      41.508  27.808  27.197  1.00  0.00     0.134 A 
ATOM     42  C   UNL A   1      39.964  26.439  28.411  1.00  0.00     0.134 A 
ATOM     43  F   UNL A   1      42.285  28.896  27.080  1.00  0.00    -0.206 F 
ATOM     44  C   UNL A   1      41.366  26.983  26.078  1.00  0.00     0.040 A 
ATOM     45  C   UNL A   1      39.836  25.593  27.308  1.00  0.00     0.040 A 
ATOM     46  F   UNL A   1      39.234  26.161  29.502  1.00  0.00    -0.206 F 
ATOM     47  C   UNL A   1      40.528  25.872  26.132  1.00  0.00     0.006 A 
ENDBRANCH  26  40
BRANCH  27  48
ATOM     48  C   UNL A   1      39.918  34.318  35.953  1.00  0.00     0.057 A 
ATOM     49  C   UNL A   1      39.158  33.993  37.079  1.00  0.00     0.134 A 
ATOM     50  C   UNL A   1      40.546  35.573  35.942  1.00  0.00     0.134 A 
ATOM     51  F   UNL A   1      38.528  32.812  37.150  1.00  0.00    -0.206 F 
ATOM     52  C   UNL A   1      39.028  34.878  38.152  1.00  0.00     0.040 A 
ATOM     53  C   UNL A   1      40.447  36.456  37.019  1.00  0.00     0.040 A 
ATOM     54  F   UNL A   1      41.303  35.944  34.898  1.00  0.00    -0.206 F 
ATOM     55  C   UNL A   1      39.682  36.110  38.128  1.00  0.00     0.006 A 
ENDBRANCH  27  48
BRANCH  39  56
ATOM     56  C   UNL A   1      43.923  28.692  34.805  1.00  0.00     0.057 A 
ATOM     57  C   UNL A   1      45.267  29.054  34.676  1.00  0.00     0.134 A 
ATOM     58  C   UNL A   1      43.580  27.764  35.795  1.00  0.00     0.134 A 
ATOM     59  F   UNL A   1      45.650  29.929  33.734  1.00  0.00    -0.206 F 
ATOM     60  C   UNL A   1      46.241  28.508  35.508  1.00  0.00     0.040 A 
ATOM     61  C   UNL A   1      44.540  27.234  36.651  1.00  0.00     0.040 A 
ATOM     62  F   UNL A   1      42.302  27.391  35.966  1.00  0.00    -0.206 F 
ATOM     63  C   UNL A   1      45.876  27.606  36.508  1.00  0.00     0.006 A 
ENDBRANCH  39  56
ENDBRANCH  13  14
ENDBRANCH   6   8
ENDBRANCH   5   6
ENDBRANCH   4   5
ENDBRANCH   3   4
ENDBRANCH   2   3
ENDBRANCH   1   2
BRANCH   1  64
ATOM     64  C   UNL A   1      34.018  28.690  26.325  1.00  0.00     0.261 C 
BRANCH  64  65
ATOM     65  O   UNL A   1      33.229  27.769  27.092  1.00  0.00    -0.463 OA
BRANCH  65  66
ATOM     66  C   UNL A   1      32.442  26.957  26.340  1.00  0.00     0.310 C 
ATOM     67  O   UNL A   1      31.296  26.624  26.616  1.00  0.00    -0.252 OA
BRANCH  66  68
ATOM     68  C   UNL A   1      33.170  26.456  25.117  1.00  0.00     0.117 C 
ATOM     69  C   UNL A   1      32.581  27.238  23.945  1.00  0.00     0.017 C 
ATOM     70  C   UNL A   1      33.324  24.912  24.886  1.00  0.00     0.084 C 
ATOM     71  C   UNL A   1      33.328  26.942  22.661  1.00  0.00     0.001 C 
ATOM     72  C   UNL A   1      34.009  24.691  23.534  1.00  0.00     0.021 C 
ATOM     73  C   UNL A   1      33.334  25.444  22.393  1.00  0.00     0.002 C 
BRANCH  70  74
ATOM     74  N   UNL A   1      32.075  24.149  25.059  1.00  0.00    -0.207 NA
ATOM     75  H   UNL A   1      31.885  23.755  24.137  1.00  0.00     0.141 HD
BRANCH  74  76
ATOM     76  S   UNL A   1      31.763  22.888  26.131  1.00  0.00     0.240 S 
ATOM     77  O   UNL A   1      32.314  23.333  27.393  1.00  0.00    -0.207 OA
ATOM     78  O   UNL A   1      30.361  22.540  26.029  1.00  0.00    -0.207 OA
BRANCH  76  79
ATOM     79  C   UNL A   1      32.711  21.459  25.616  1.00  0.00     0.083 A 
ATOM     80  C   UNL A   1      34.064  21.368  25.943  1.00  0.00     0.022 A 
ATOM     81  C   UNL A   1      32.163  20.519  24.731  1.00  0.00     0.030 A 
ATOM     82  C   UNL A   1      34.829  20.283  25.489  1.00  0.00     0.010 A 
ATOM     83  C   UNL A   1      32.914  19.395  24.298  1.00  0.00    -0.017 A 
ATOM     84  C   UNL A   1      34.258  19.266  24.706  1.00  0.00    -0.018 A 
ATOM     85  C   UNL A   1      32.356  18.373  23.502  1.00  0.00     0.009 A 
ATOM     86  C   UNL A   1      34.991  18.124  24.328  1.00  0.00     0.009 A 
ATOM     87  C   UNL A   1      33.076  17.219  23.183  1.00  0.00     0.001 A 
ATOM     88  C   UNL A   1      34.396  17.095  23.594  1.00  0.00     0.001 A 
ENDBRANCH  76  79
ENDBRANCH  74  76
ENDBRANCH  70  74
ENDBRANCH  66  68
ENDBRANCH  65  66
ENDBRANCH  64  65
ENDBRANCH   1  64
TORSDOF 17
ENDMDL
