MODEL 1
REMARK VINA RESULT:     -10.5      0.000      0.000
REMARK SMILES C[C@H](O)C[C@H](Cc1cccc(Br)c1)C(=O)OCCOCCOC(=O)c1ccc(-c2c3nc(c(-c4c(F)cccc4F)c4ccc([nH]4)c(-c4c(F)cccc4F)c4nc(c(-c5c(F)cccc5F)c5ccc2[nH]5)C=C4)C=C3)cc1
REMARK SMILES IDX 18 1 17 2 16 3 14 4 15 5 5 6 4 7 2 8 1 9 3 10 6 12 7 13 8 14
REMARK SMILES IDX 13 15 9 16 11 17 10 18 12 19 19 20 20 21 21 22 22 23 23 24
REMARK SMILES IDX 24 25 25 26 26 27 78 28 27 29 77 30 28 31 29 32 30 33 71 34
REMARK SMILES IDX 31 35 76 36 70 37 72 38 32 39 75 40 69 41 68 42 33 44 59 45
REMARK SMILES IDX 42 46 58 47 43 48 46 49 57 50 73 51 44 52 45 53 56 55 74 56
REMARK SMILES IDX 47 57 34 58 35 59 40 60 36 61 37 62 39 63 41 64 38 65 60 66
REMARK SMILES IDX 61 67 66 68 62 69 63 70 65 71 67 72 64 73 48 74 49 75 54 76
REMARK SMILES IDX 50 77 51 78 53 79 55 80 52 81
REMARK H PARENT 3 11 72 43 46 54
REMARK Flexibility Score: inf
ROOT
ATOM      1  C   UNL A   1      40.203  20.427  26.374  1.00  0.00     0.202 C 
ENDROOT
BRANCH   1   2
ATOM      2  C   UNL A   1      39.357  21.676  26.118  1.00  0.00     0.261 C 
BRANCH   2   3
ATOM      3  O   UNL A   1      38.180  21.380  25.348  1.00  0.00    -0.463 OA
BRANCH   3   4
ATOM      4  C   UNL A   1      37.388  22.439  25.039  1.00  0.00     0.309 C 
ATOM      5  O   UNL A   1      37.609  23.604  25.353  1.00  0.00    -0.252 OA
BRANCH   4   6
ATOM      6  C   UNL A   1      36.107  22.019  24.350  1.00  0.00     0.106 C 
BRANCH   6   7
ATOM      7  C   UNL A   1      35.622  23.187  23.471  1.00  0.00     0.047 C 
BRANCH   7   8
ATOM      8  C   UNL A   1      34.490  24.025  24.079  1.00  0.00     0.112 C 
ATOM      9  C   UNL A   1      33.733  24.771  22.991  1.00  0.00     0.038 C 
BRANCH   8  10
ATOM     10  O   UNL A   1      35.017  24.976  24.995  1.00  0.00    -0.393 OA
ATOM     11  H   UNL A   1      34.711  24.765  25.891  1.00  0.00     0.210 HD
ENDBRANCH   8  10
ENDBRANCH   7   8
ENDBRANCH   6   7
BRANCH   6  12
ATOM     12  C   UNL A   1      35.048  21.483  25.341  1.00  0.00     0.051 C 
BRANCH  12  13
ATOM     13  C   UNL A   1      34.135  20.447  24.727  1.00  0.00    -0.046 A 
ATOM     14  C   UNL A   1      32.987  20.862  24.033  1.00  0.00     0.004 A 
ATOM     15  C   UNL A   1      34.471  19.088  24.741  1.00  0.00     0.019 A 
ATOM     16  C   UNL A   1      32.217  19.943  23.321  1.00  0.00     0.001 A 
ATOM     17  C   UNL A   1      33.688  18.172  24.037  1.00  0.00     0.018 A 
ATOM     18  C   UNL A   1      32.572  18.595  23.316  1.00  0.00     0.016 A 
ATOM     19  Br  UNL A   1      34.161  16.342  24.030  1.00  0.00    -0.051 Br
ENDBRANCH  12  13
ENDBRANCH   6  12
ENDBRANCH   4   6
ENDBRANCH   3   4
ENDBRANCH   2   3
ENDBRANCH   1   2
BRANCH   1  20
ATOM     20  O   UNL A   1      41.351  20.270  25.544  1.00  0.00    -0.374 OA
BRANCH  20  21
ATOM     21  C   UNL A   1      42.633  20.384  26.161  1.00  0.00     0.202 C 
BRANCH  21  22
ATOM     22  C   UNL A   1      43.576  21.435  25.567  1.00  0.00     0.261 C 
BRANCH  22  23
ATOM     23  O   UNL A   1      42.851  22.560  25.040  1.00  0.00    -0.460 OA
BRANCH  23  24
ATOM     24  C   UNL A   1      43.539  23.724  25.032  1.00  0.00     0.338 C 
ATOM     25  O   UNL A   1      44.531  23.995  24.366  1.00  0.00    -0.246 OA
BRANCH  24  26
ATOM     26  C   UNL A   1      42.837  24.740  25.834  1.00  0.00     0.060 A 
ATOM     27  C   UNL A   1      43.365  26.039  25.839  1.00  0.00     0.016 A 
ATOM     28  C   UNL A   1      41.744  24.413  26.640  1.00  0.00     0.016 A 
ATOM     29  C   UNL A   1      42.850  26.999  26.707  1.00  0.00     0.010 A 
ATOM     30  C   UNL A   1      41.235  25.375  27.516  1.00  0.00     0.010 A 
ATOM     31  C   UNL A   1      41.817  26.655  27.585  1.00  0.00    -0.014 A 
BRANCH  31  32
ATOM     32  C   UNL A   1      41.479  27.555  28.713  1.00  0.00     0.031 A 
ATOM     33  C   UNL A   1      42.288  27.453  29.977  1.00  0.00     0.074 A 
ATOM     34  C   UNL A   1      40.479  28.445  28.618  1.00  0.00     0.049 A 
ATOM     35  N   UNL A   1      42.115  28.051  31.126  1.00  0.00    -0.248 NA
ATOM     36  C   UNL A   1      43.447  26.545  29.937  1.00  0.00     0.031 C 
ATOM     37  C   UNL A   1      39.661  28.675  27.430  1.00  0.00     0.029 A 
ATOM     38  N   UNL A   1      39.973  29.312  29.553  1.00  0.00    -0.354 N 
ATOM     39  C   UNL A   1      43.128  27.580  31.951  1.00  0.00     0.074 A 
ATOM     40  C   UNL A   1      43.900  26.632  31.178  1.00  0.00     0.031 C 
ATOM     41  C   UNL A   1      38.736  29.607  27.715  1.00  0.00     0.029 A 
ATOM     42  C   UNL A   1      38.876  30.010  29.113  1.00  0.00     0.049 A 
ATOM     43  H   UNL A   1      40.359  29.423  30.452  1.00  0.00     0.167 HD
ATOM     44  C   UNL A   1      43.392  27.909  33.238  1.00  0.00     0.037 A 
ATOM     45  C   UNL A   1      38.061  30.851  29.777  1.00  0.00     0.037 A 
ATOM     46  C   UNL A   1      42.623  28.855  34.002  1.00  0.00     0.049 A 
ATOM     47  C   UNL A   1      38.331  31.155  31.227  1.00  0.00     0.074 A 
ATOM     48  C   UNL A   1      42.815  29.269  35.308  1.00  0.00     0.029 A 
ATOM     49  N   UNL A   1      41.511  29.532  33.525  1.00  0.00    -0.354 N 
ATOM     50  N   UNL A   1      39.292  30.709  31.999  1.00  0.00    -0.248 NA
ATOM     51  C   UNL A   1      37.402  32.078  31.897  1.00  0.00     0.031 C 
ATOM     52  C   UNL A   1      41.790  30.165  35.635  1.00  0.00     0.029 A 
ATOM     53  C   UNL A   1      40.991  30.344  34.518  1.00  0.00     0.049 A 
ATOM     54  H   UNL A   1      41.144  29.446  32.615  1.00  0.00     0.167 HD
ATOM     55  C   UNL A   1      39.104  31.319  33.234  1.00  0.00     0.074 A 
ATOM     56  C   UNL A   1      37.937  32.167  33.107  1.00  0.00     0.031 C 
ATOM     57  C   UNL A   1      39.836  31.193  34.368  1.00  0.00     0.037 A 
BRANCH  44  58
ATOM     58  C   UNL A   1      44.538  27.208  33.905  1.00  0.00     0.057 A 
ATOM     59  C   UNL A   1      45.824  27.762  33.948  1.00  0.00     0.134 A 
ATOM     60  C   UNL A   1      44.351  25.962  34.515  1.00  0.00     0.134 A 
ATOM     61  F   UNL A   1      46.074  28.945  33.367  1.00  0.00    -0.206 F 
ATOM     62  C   UNL A   1      46.889  27.090  34.551  1.00  0.00     0.040 A 
ATOM     63  C   UNL A   1      45.400  25.290  35.143  1.00  0.00     0.040 A 
ATOM     64  F   UNL A   1      43.144  25.375  34.510  1.00  0.00    -0.206 F 
ATOM     65  C   UNL A   1      46.676  25.852  35.156  1.00  0.00     0.006 A 
ENDBRANCH  44  58
BRANCH  45  66
ATOM     66  C   UNL A   1      36.899  31.454  29.079  1.00  0.00     0.057 A 
ATOM     67  C   UNL A   1      36.922  32.784  28.647  1.00  0.00     0.134 A 
ATOM     68  C   UNL A   1      35.739  30.711  28.823  1.00  0.00     0.134 A 
ATOM     69  F   UNL A   1      37.995  33.551  28.884  1.00  0.00    -0.206 F 
ATOM     70  C   UNL A   1      35.831  33.358  27.992  1.00  0.00     0.040 A 
ATOM     71  C   UNL A   1      34.650  31.265  28.149  1.00  0.00     0.040 A 
ATOM     72  F   UNL A   1      35.657  29.429  29.209  1.00  0.00    -0.206 F 
ATOM     73  C   UNL A   1      34.693  32.595  27.736  1.00  0.00     0.006 A 
ENDBRANCH  45  66
BRANCH  57  74
ATOM     74  C   UNL A   1      39.430  32.023  35.550  1.00  0.00     0.057 A 
ATOM     75  C   UNL A   1      39.902  33.327  35.737  1.00  0.00     0.134 A 
ATOM     76  C   UNL A   1      38.502  31.530  36.476  1.00  0.00     0.134 A 
ATOM     77  F   UNL A   1      40.801  33.853  34.891  1.00  0.00    -0.206 F 
ATOM     78  C   UNL A   1      39.477  34.107  36.814  1.00  0.00     0.040 A 
ATOM     79  C   UNL A   1      38.051  32.308  37.543  1.00  0.00     0.040 A 
ATOM     80  F   UNL A   1      38.003  30.291  36.348  1.00  0.00    -0.206 F 
ATOM     81  C   UNL A   1      38.542  33.600  37.715  1.00  0.00     0.006 A 
ENDBRANCH  57  74
ENDBRANCH  31  32
ENDBRANCH  24  26
ENDBRANCH  23  24
ENDBRANCH  22  23
ENDBRANCH  21  22
ENDBRANCH  20  21
ENDBRANCH   1  20
TORSDOF 19
ENDMDL
MODEL 2
REMARK VINA RESULT:     -10.2      3.416      8.310
REMARK SMILES C[C@H](O)C[C@H](Cc1cccc(Br)c1)C(=O)OCCOCCOC(=O)c1ccc(-c2c3nc(c(-c4c(F)cccc4F)c4ccc([nH]4)c(-c4c(F)cccc4F)c4nc(c(-c5c(F)cccc5F)c5ccc2[nH]5)C=C4)C=C3)cc1
REMARK SMILES IDX 18 1 17 2 16 3 14 4 15 5 5 6 4 7 2 8 1 9 3 10 6 12 7 13 8 14
REMARK SMILES IDX 13 15 9 16 11 17 10 18 12 19 19 20 20 21 21 22 22 23 23 24
REMARK SMILES IDX 24 25 25 26 26 27 78 28 27 29 77 30 28 31 29 32 30 33 71 34
REMARK SMILES IDX 31 35 76 36 70 37 72 38 32 39 75 40 69 41 68 42 33 44 59 45
REMARK SMILES IDX 42 46 58 47 43 48 46 49 57 50 73 51 44 52 45 53 56 55 74 56
REMARK SMILES IDX 47 57 34 58 35 59 40 60 36 61 37 62 39 63 41 64 38 65 60 66
REMARK SMILES IDX 61 67 66 68 62 69 63 70 65 71 67 72 64 73 48 74 49 75 54 76
REMARK SMILES IDX 50 77 51 78 53 79 55 80 52 81
REMARK H PARENT 3 11 72 43 46 54
REMARK Flexibility Score: inf
ROOT
ATOM      1  C   UNL A   1      31.890  29.658  27.098  1.00  0.00     0.202 C 
ENDROOT
BRANCH   1   2
ATOM      2  C   UNL A   1      32.865  28.498  26.882  1.00  0.00     0.261 C 
BRANCH   2   3
ATOM      3  O   UNL A   1      32.434  27.624  25.826  1.00  0.00    -0.463 OA
BRANCH   3   4
ATOM      4  C   UNL A   1      31.856  26.458  26.216  1.00  0.00     0.309 C 
ATOM      5  O   UNL A   1      30.830  26.365  26.882  1.00  0.00    -0.252 OA
BRANCH   4   6
ATOM      6  C   UNL A   1      32.683  25.248  25.837  1.00  0.00     0.106 C 
BRANCH   6   7
ATOM      7  C   UNL A   1      32.461  24.155  26.899  1.00  0.00     0.047 C 
BRANCH   7   8
ATOM      8  C   UNL A   1      31.389  23.118  26.541  1.00  0.00     0.112 C 
ATOM      9  C   UNL A   1      31.035  23.203  25.064  1.00  0.00     0.038 C 
BRANCH   8  10
ATOM     10  O   UNL A   1      30.208  23.345  27.301  1.00  0.00    -0.393 OA
ATOM     11  H   UNL A   1      29.916  24.261  27.176  1.00  0.00     0.210 HD
ENDBRANCH   8  10
ENDBRANCH   7   8
ENDBRANCH   6   7
BRANCH   6  12
ATOM     12  C   UNL A   1      34.167  25.601  25.585  1.00  0.00     0.051 C 
BRANCH  12  13
ATOM     13  C   UNL A   1      34.959  24.449  25.012  1.00  0.00    -0.046 A 
ATOM     14  C   UNL A   1      34.602  23.918  23.762  1.00  0.00     0.004 A 
ATOM     15  C   UNL A   1      36.111  23.974  25.651  1.00  0.00     0.019 A 
ATOM     16  C   UNL A   1      35.408  22.968  23.137  1.00  0.00     0.001 A 
ATOM     17  C   UNL A   1      36.906  23.013  25.026  1.00  0.00     0.018 A 
ATOM     18  C   UNL A   1      36.568  22.519  23.766  1.00  0.00     0.016 A 
ATOM     19  Br  UNL A   1      38.478  22.397  25.876  1.00  0.00    -0.051 Br
ENDBRANCH  12  13
ENDBRANCH   6  12
ENDBRANCH   4   6
ENDBRANCH   3   4
ENDBRANCH   2   3
ENDBRANCH   1   2
BRANCH   1  20
ATOM     20  O   UNL A   1      32.410  30.963  26.857  1.00  0.00    -0.374 OA
BRANCH  20  21
ATOM     21  C   UNL A   1      31.475  32.032  26.719  1.00  0.00     0.202 C 
BRANCH  21  22
ATOM     22  C   UNL A   1      32.044  33.447  26.857  1.00  0.00     0.261 C 
BRANCH  22  23
ATOM     23  O   UNL A   1      32.441  33.730  28.211  1.00  0.00    -0.460 OA
BRANCH  23  24
ATOM     24  C   UNL A   1      33.597  34.420  28.329  1.00  0.00     0.338 C 
ATOM     25  O   UNL A   1      33.732  35.637  28.394  1.00  0.00    -0.246 OA
BRANCH  24  26
ATOM     26  C   UNL A   1      34.726  33.499  28.543  1.00  0.00     0.060 A 
ATOM     27  C   UNL A   1      34.433  32.223  29.043  1.00  0.00     0.016 A 
ATOM     28  C   UNL A   1      36.049  33.901  28.350  1.00  0.00     0.016 A 
ATOM     29  C   UNL A   1      35.465  31.369  29.426  1.00  0.00     0.010 A 
ATOM     30  C   UNL A   1      37.083  33.046  28.743  1.00  0.00     0.010 A 
ATOM     31  C   UNL A   1      36.792  31.798  29.325  1.00  0.00    -0.014 A 
BRANCH  31  32
ATOM     32  C   UNL A   1      37.865  31.041  30.010  1.00  0.00     0.031 A 
ATOM     33  C   UNL A   1      38.127  31.325  31.463  1.00  0.00     0.074 A 
ATOM     34  C   UNL A   1      38.591  30.118  29.358  1.00  0.00     0.049 A 
ATOM     35  N   UNL A   1      39.074  30.874  32.242  1.00  0.00    -0.248 NA
ATOM     36  C   UNL A   1      37.193  32.253  32.124  1.00  0.00     0.031 C 
ATOM     37  C   UNL A   1      38.396  29.715  27.968  1.00  0.00     0.029 A 
ATOM     38  N   UNL A   1      39.654  29.363  29.786  1.00  0.00    -0.354 N 
ATOM     39  C   UNL A   1      38.864  31.475  33.476  1.00  0.00     0.074 A 
ATOM     40  C   UNL A   1      37.711  32.338  33.339  1.00  0.00     0.031 C 
ATOM     41  C   UNL A   1      39.328  28.801  27.647  1.00  0.00     0.029 A 
ATOM     42  C   UNL A   1      40.203  28.585  28.798  1.00  0.00     0.049 A 
ATOM     43  H   UNL A   1      39.990  29.378  30.711  1.00  0.00     0.167 HD
ATOM     44  C   UNL A   1      39.567  31.320  34.623  1.00  0.00     0.037 A 
ATOM     45  C   UNL A   1      41.306  27.812  28.816  1.00  0.00     0.037 A 
ATOM     46  C   UNL A   1      40.711  30.458  34.757  1.00  0.00     0.049 A 
ATOM     47  C   UNL A   1      42.114  27.703  30.082  1.00  0.00     0.074 A 
ATOM     48  C   UNL A   1      41.487  30.220  35.878  1.00  0.00     0.029 A 
ATOM     49  N   UNL A   1      41.245  29.695  33.729  1.00  0.00    -0.354 N 
ATOM     50  N   UNL A   1      41.907  28.271  31.245  1.00  0.00    -0.248 NA
ATOM     51  C   UNL A   1      43.309  26.848  30.035  1.00  0.00     0.031 C 
ATOM     52  C   UNL A   1      42.518  29.345  35.515  1.00  0.00     0.029 A 
ATOM     53  C   UNL A   1      42.353  29.001  34.183  1.00  0.00     0.049 A 
ATOM     54  H   UNL A   1      40.889  29.654  32.812  1.00  0.00     0.167 HD
ATOM     55  C   UNL A   1      42.925  27.818  32.077  1.00  0.00     0.074 A 
ATOM     56  C   UNL A   1      43.748  26.928  31.284  1.00  0.00     0.031 C 
ATOM     57  C   UNL A   1      43.152  28.109  33.382  1.00  0.00     0.037 A 
BRANCH  44  58
ATOM     58  C   UNL A   1      39.137  32.132  35.808  1.00  0.00     0.057 A 
ATOM     59  C   UNL A   1      38.260  31.626  36.776  1.00  0.00     0.134 A 
ATOM     60  C   UNL A   1      39.609  33.439  35.984  1.00  0.00     0.134 A 
ATOM     61  F   UNL A   1      37.757  30.388  36.658  1.00  0.00    -0.206 F 
ATOM     62  C   UNL A   1      37.848  32.400  37.863  1.00  0.00     0.040 A 
ATOM     63  C   UNL A   1      39.225  34.214  37.079  1.00  0.00     0.040 A 
ATOM     64  F   UNL A   1      40.452  33.984  35.094  1.00  0.00    -0.206 F 
ATOM     65  C   UNL A   1      38.335  33.697  38.019  1.00  0.00     0.006 A 
ENDBRANCH  44  58
BRANCH  45  66
ATOM     66  C   UNL A   1      41.720  27.093  27.586  1.00  0.00     0.057 A 
ATOM     67  C   UNL A   1      41.285  25.789  27.327  1.00  0.00     0.134 A 
ATOM     68  C   UNL A   1      42.558  27.696  26.638  1.00  0.00     0.134 A 
ATOM     69  F   UNL A   1      40.501  25.153  28.208  1.00  0.00    -0.206 F 
ATOM     70  C   UNL A   1      41.673  25.106  26.174  1.00  0.00     0.040 A 
ATOM     71  C   UNL A   1      42.935  27.033  25.470  1.00  0.00     0.040 A 
ATOM     72  F   UNL A   1      43.006  28.946  26.828  1.00  0.00    -0.206 F 
ATOM     73  C   UNL A   1      42.496  25.731  25.238  1.00  0.00     0.006 A 
ENDBRANCH  45  66
BRANCH  57  74
ATOM     74  C   UNL A   1      44.307  27.425  34.051  1.00  0.00     0.057 A 
ATOM     75  C   UNL A   1      45.572  28.018  34.139  1.00  0.00     0.134 A 
ATOM     76  C   UNL A   1      44.130  26.181  34.672  1.00  0.00     0.134 A 
ATOM     77  F   UNL A   1      45.808  29.203  33.556  1.00  0.00    -0.206 F 
ATOM     78  C   UNL A   1      46.625  27.392  34.808  1.00  0.00     0.040 A 
ATOM     79  C   UNL A   1      45.168  25.556  35.364  1.00  0.00     0.040 A 
ATOM     80  F   UNL A   1      42.940  25.563  34.633  1.00  0.00    -0.206 F 
ATOM     81  C   UNL A   1      46.421  26.162  35.431  1.00  0.00     0.006 A 
ENDBRANCH  57  74
ENDBRANCH  31  32
ENDBRANCH  24  26
ENDBRANCH  23  24
ENDBRANCH  22  23
ENDBRANCH  21  22
ENDBRANCH  20  21
ENDBRANCH   1  20
TORSDOF 19
ENDMDL
MODEL 3
REMARK VINA RESULT:      -9.8      4.375      6.959
REMARK SMILES C[C@H](O)C[C@H](Cc1cccc(Br)c1)C(=O)OCCOCCOC(=O)c1ccc(-c2c3nc(c(-c4c(F)cccc4F)c4ccc([nH]4)c(-c4c(F)cccc4F)c4nc(c(-c5c(F)cccc5F)c5ccc2[nH]5)C=C4)C=C3)cc1
REMARK SMILES IDX 18 1 17 2 16 3 14 4 15 5 5 6 4 7 2 8 1 9 3 10 6 12 7 13 8 14
REMARK SMILES IDX 13 15 9 16 11 17 10 18 12 19 19 20 20 21 21 22 22 23 23 24
REMARK SMILES IDX 24 25 25 26 26 27 78 28 27 29 77 30 28 31 29 32 30 33 71 34
REMARK SMILES IDX 31 35 76 36 70 37 72 38 32 39 75 40 69 41 68 42 33 44 59 45
REMARK SMILES IDX 42 46 58 47 43 48 46 49 57 50 73 51 44 52 45 53 56 55 74 56
REMARK SMILES IDX 47 57 34 58 35 59 40 60 36 61 37 62 39 63 41 64 38 65 60 66
REMARK SMILES IDX 61 67 66 68 62 69 63 70 65 71 67 72 64 73 48 74 49 75 54 76
REMARK SMILES IDX 50 77 51 78 53 79 55 80 52 81
REMARK H PARENT 3 11 72 43 46 54
REMARK Flexibility Score: inf
ROOT
ATOM      1  C   UNL A   1      33.965  21.622  25.881  1.00  0.00     0.202 C 
ENDROOT
BRANCH   1   2
ATOM      2  C   UNL A   1      33.363  22.327  27.098  1.00  0.00     0.261 C 
BRANCH   2   3
ATOM      3  O   UNL A   1      33.121  23.722  26.846  1.00  0.00    -0.463 OA
BRANCH   3   4
ATOM      4  C   UNL A   1      31.819  24.107  26.827  1.00  0.00     0.309 C 
ATOM      5  O   UNL A   1      30.882  23.458  27.279  1.00  0.00    -0.252 OA
BRANCH   4   6
ATOM      6  C   UNL A   1      31.612  25.402  26.069  1.00  0.00     0.106 C 
BRANCH   6   7
ATOM      7  C   UNL A   1      30.683  25.122  24.873  1.00  0.00     0.047 C 
BRANCH   7   8
ATOM      8  C   UNL A   1      31.386  24.579  23.623  1.00  0.00     0.112 C 
ATOM      9  C   UNL A   1      31.417  25.634  22.527  1.00  0.00     0.038 C 
BRANCH   8  10
ATOM     10  O   UNL A   1      30.700  23.435  23.128  1.00  0.00    -0.393 OA
ATOM     11  H   UNL A   1      30.922  23.307  22.193  1.00  0.00     0.210 HD
ENDBRANCH   8  10
ENDBRANCH   7   8
ENDBRANCH   6   7
BRANCH   6  12
ATOM     12  C   UNL A   1      32.945  26.089  25.694  1.00  0.00     0.051 C 
BRANCH  12  13
ATOM     13  C   UNL A   1      32.980  27.553  26.065  1.00  0.00    -0.046 A 
ATOM     14  C   UNL A   1      31.820  28.332  25.916  1.00  0.00     0.004 A 
ATOM     15  C   UNL A   1      34.112  28.122  26.660  1.00  0.00     0.019 A 
ATOM     16  C   UNL A   1      31.776  29.638  26.399  1.00  0.00     0.001 A 
ATOM     17  C   UNL A   1      34.064  29.436  27.130  1.00  0.00     0.018 A 
ATOM     18  C   UNL A   1      32.897  30.190  27.016  1.00  0.00     0.016 A 
ATOM     19  Br  UNL A   1      35.584  30.191  27.962  1.00  0.00    -0.051 Br
ENDBRANCH  12  13
ENDBRANCH   6  12
ENDBRANCH   4   6
ENDBRANCH   3   4
ENDBRANCH   2   3
ENDBRANCH   1   2
BRANCH   1  20
ATOM     20  O   UNL A   1      35.380  21.454  25.894  1.00  0.00    -0.374 OA
BRANCH  20  21
ATOM     21  C   UNL A   1      35.939  20.491  25.001  1.00  0.00     0.202 C 
BRANCH  21  22
ATOM     22  C   UNL A   1      37.461  20.325  25.056  1.00  0.00     0.261 C 
BRANCH  22  23
ATOM     23  O   UNL A   1      38.115  21.551  25.428  1.00  0.00    -0.460 OA
BRANCH  23  24
ATOM     24  C   UNL A   1      39.262  21.393  26.127  1.00  0.00     0.338 C 
ATOM     25  O   UNL A   1      39.979  20.399  26.159  1.00  0.00    -0.246 OA
BRANCH  24  26
ATOM     26  C   UNL A   1      39.661  22.664  26.753  1.00  0.00     0.060 A 
ATOM     27  C   UNL A   1      38.961  23.819  26.377  1.00  0.00     0.016 A 
ATOM     28  C   UNL A   1      40.757  22.746  27.615  1.00  0.00     0.016 A 
ATOM     29  C   UNL A   1      39.398  25.071  26.802  1.00  0.00     0.010 A 
ATOM     30  C   UNL A   1      41.200  24.004  28.033  1.00  0.00     0.010 A 
ATOM     31  C   UNL A   1      40.550  25.171  27.589  1.00  0.00    -0.014 A 
BRANCH  31  32
ATOM     32  C   UNL A   1      41.198  26.489  27.782  1.00  0.00     0.031 A 
ATOM     33  C   UNL A   1      42.604  26.676  27.280  1.00  0.00     0.074 A 
ATOM     34  C   UNL A   1      40.554  27.500  28.386  1.00  0.00     0.049 A 
ATOM     35  N   UNL A   1      43.411  27.693  27.426  1.00  0.00    -0.248 NA
ATOM     36  C   UNL A   1      43.176  25.557  26.512  1.00  0.00     0.031 C 
ATOM     37  C   UNL A   1      39.176  27.459  28.865  1.00  0.00     0.029 A 
ATOM     38  N   UNL A   1      40.990  28.759  28.713  1.00  0.00    -0.354 N 
ATOM     39  C   UNL A   1      44.591  27.331  26.789  1.00  0.00     0.074 A 
ATOM     40  C   UNL A   1      44.401  25.994  26.270  1.00  0.00     0.031 C 
ATOM     41  C   UNL A   1      38.884  28.633  29.449  1.00  0.00     0.029 A 
ATOM     42  C   UNL A   1      40.067  29.492  29.416  1.00  0.00     0.049 A 
ATOM     43  H   UNL A   1      41.880  29.103  28.468  1.00  0.00     0.167 HD
ATOM     44  C   UNL A   1      45.730  28.049  26.646  1.00  0.00     0.037 A 
ATOM     45  C   UNL A   1      40.179  30.704  29.992  1.00  0.00     0.037 A 
ATOM     46  C   UNL A   1      45.913  29.380  27.161  1.00  0.00     0.049 A 
ATOM     47  C   UNL A   1      41.476  31.461  29.880  1.00  0.00     0.074 A 
ATOM     48  C   UNL A   1      47.023  30.199  27.060  1.00  0.00     0.029 A 
ATOM     49  N   UNL A   1      44.957  30.084  27.879  1.00  0.00    -0.354 N 
ATOM     50  N   UNL A   1      42.584  31.114  29.272  1.00  0.00    -0.248 NA
ATOM     51  C   UNL A   1      41.535  32.776  30.535  1.00  0.00     0.031 C 
ATOM     52  C   UNL A   1      46.754  31.384  27.756  1.00  0.00     0.029 A 
ATOM     53  C   UNL A   1      45.460  31.320  28.246  1.00  0.00     0.049 A 
ATOM     54  H   UNL A   1      44.056  29.753  28.096  1.00  0.00     0.167 HD
ATOM     55  C   UNL A   1      43.462  32.178  29.444  1.00  0.00     0.074 A 
ATOM     56  C   UNL A   1      42.756  33.183  30.211  1.00  0.00     0.031 C 
ATOM     57  C   UNL A   1      44.736  32.313  28.999  1.00  0.00     0.037 A 
BRANCH  44  58
ATOM     58  C   UNL A   1      46.875  27.388  25.938  1.00  0.00     0.057 A 
ATOM     59  C   UNL A   1      47.080  27.535  24.560  1.00  0.00     0.134 A 
ATOM     60  C   UNL A   1      47.787  26.596  26.646  1.00  0.00     0.134 A 
ATOM     61  F   UNL A   1      46.233  28.267  23.821  1.00  0.00    -0.206 F 
ATOM     62  C   UNL A   1      48.136  26.896  23.907  1.00  0.00     0.040 A 
ATOM     63  C   UNL A   1      48.860  25.971  26.010  1.00  0.00     0.040 A 
ATOM     64  F   UNL A   1      47.648  26.414  27.968  1.00  0.00    -0.206 F 
ATOM     65  C   UNL A   1      49.033  26.115  24.635  1.00  0.00     0.006 A 
ENDBRANCH  44  58
BRANCH  45  66
ATOM     66  C   UNL A   1      39.032  31.269  30.744  1.00  0.00     0.057 A 
ATOM     67  C   UNL A   1      38.860  31.010  32.108  1.00  0.00     0.134 A 
ATOM     68  C   UNL A   1      38.082  32.086  30.116  1.00  0.00     0.134 A 
ATOM     69  F   UNL A   1      39.724  30.217  32.757  1.00  0.00    -0.206 F 
ATOM     70  C   UNL A   1      37.782  31.536  32.820  1.00  0.00     0.040 A 
ATOM     71  C   UNL A   1      37.012  32.637  30.821  1.00  0.00     0.040 A 
ATOM     72  F   UNL A   1      38.194  32.374  28.811  1.00  0.00    -0.206 F 
ATOM     73  C   UNL A   1      36.857  32.358  32.178  1.00  0.00     0.006 A 
ENDBRANCH  45  66
BRANCH  57  74
ATOM     74  C   UNL A   1      45.436  33.609  29.288  1.00  0.00     0.057 A 
ATOM     75  C   UNL A   1      46.245  33.779  30.416  1.00  0.00     0.134 A 
ATOM     76  C   UNL A   1      45.346  34.677  28.386  1.00  0.00     0.134 A 
ATOM     77  F   UNL A   1      46.364  32.797  31.323  1.00  0.00    -0.206 F 
ATOM     78  C   UNL A   1      46.931  34.973  30.646  1.00  0.00     0.040 A 
ATOM     79  C   UNL A   1      46.044  35.867  28.593  1.00  0.00     0.040 A 
ATOM     80  F   UNL A   1      44.593  34.574  27.280  1.00  0.00    -0.206 F 
ATOM     81  C   UNL A   1      46.837  36.018  29.728  1.00  0.00     0.006 A 
ENDBRANCH  57  74
ENDBRANCH  31  32
ENDBRANCH  24  26
ENDBRANCH  23  24
ENDBRANCH  22  23
ENDBRANCH  21  22
ENDBRANCH  20  21
ENDBRANCH   1  20
TORSDOF 19
ENDMDL
