MODEL 1
REMARK VINA RESULT:     -10.3      0.000      0.000
REMARK SMILES CC[C@H](C)[C@@H](NC(=O)c1csc(NC(C)=O)n1)C(=O)OCCOCCOC(=O)c1ccc(-c2c3nc(c(-c4c(F)cccc4F)c4ccc([nH]4)c(-c4c(F)cccc4F)c4nc(c(-c5c(F)cccc5F)c5ccc2[nH]5)C=C4)C=C3)cc1
REMARK SMILES IDX 22 1 21 2 20 3 18 4 19 5 5 6 3 7 4 8 2 9 1 10 6 11 7 12 8 14
REMARK SMILES IDX 9 15 10 16 17 17 11 18 12 19 13 20 14 21 15 23 16 24 23 25
REMARK SMILES IDX 24 26 25 27 26 28 27 29 28 30 29 31 30 32 82 33 31 34 81 35
REMARK SMILES IDX 32 36 33 37 34 38 75 39 35 40 80 41 74 42 76 43 36 44 79 45
REMARK SMILES IDX 73 46 72 47 37 49 63 50 46 51 62 52 47 53 50 54 61 55 77 56
REMARK SMILES IDX 48 57 49 58 60 60 78 61 51 62 38 63 39 64 44 65 40 66 41 67
REMARK SMILES IDX 43 68 45 69 42 70 64 71 65 72 70 73 66 74 67 75 69 76 71 77
REMARK SMILES IDX 68 78 52 79 53 80 58 81 54 82 55 83 57 84 59 85 56 86
REMARK H PARENT 6 13 13 22 76 48 50 59
REMARK Flexibility Score: inf
ROOT
ATOM      1  C   UNL A   1      32.875  30.044  25.953  1.00  0.00     0.202 C 
ENDROOT
BRANCH   1   2
ATOM      2  C   UNL A   1      33.062  29.152  27.196  1.00  0.00     0.261 C 
BRANCH   2   3
ATOM      3  O   UNL A   1      32.517  27.832  27.276  1.00  0.00    -0.462 OA
BRANCH   3   4
ATOM      4  C   UNL A   1      32.338  27.158  26.109  1.00  0.00     0.329 C 
ATOM      5  O   UNL A   1      33.229  26.885  25.311  1.00  0.00    -0.250 OA
BRANCH   4   6
ATOM      6  C   UNL A   1      30.858  26.796  25.872  1.00  0.00     0.195 C 
BRANCH   6   7
ATOM      7  C   UNL A   1      30.441  26.854  24.347  1.00  0.00     0.019 C 
ATOM      8  C   UNL A   1      29.048  26.233  24.130  1.00  0.00     0.010 C 
BRANCH   7   9
ATOM      9  C   UNL A   1      30.474  28.263  23.711  1.00  0.00     0.002 C 
ATOM     10  C   UNL A   1      31.562  28.471  22.662  1.00  0.00     0.004 C 
ENDBRANCH   7   9
ENDBRANCH   6   7
BRANCH   6  11
ATOM     11  N   UNL A   1      30.396  25.484  26.409  1.00  0.00    -0.337 N 
ATOM     12  C   UNL A   1      30.894  24.214  26.539  1.00  0.00     0.271 C 
ATOM     13  H   UNL A   1      29.481  25.548  26.767  1.00  0.00     0.164 HD
ATOM     14  O   UNL A   1      30.211  23.427  27.200  1.00  0.00    -0.267 OA
BRANCH  12  15
ATOM     15  C   UNL A   1      32.079  23.754  25.825  1.00  0.00     0.141 A 
ATOM     16  C   UNL A   1      32.019  23.256  24.533  1.00  0.00     0.102 A 
ATOM     17  N   UNL A   1      33.349  23.729  26.369  1.00  0.00    -0.215 NA
ATOM     18  S   UNL A   1      33.594  22.898  23.962  1.00  0.00    -0.104 S 
ATOM     19  C   UNL A   1      34.234  23.442  25.442  1.00  0.00     0.190 A 
BRANCH  19  20
ATOM     20  N   UNL A   1      35.568  23.688  25.652  1.00  0.00    -0.302 N 
ATOM     21  C   UNL A   1      36.555  22.746  25.834  1.00  0.00     0.223 C 
ATOM     22  H   UNL A   1      35.847  24.632  25.673  1.00  0.00     0.172 HD
ATOM     23  C   UNL A   1      37.945  23.339  25.858  1.00  0.00     0.114 C 
ATOM     24  O   UNL A   1      36.413  21.530  25.909  1.00  0.00    -0.275 OA
ENDBRANCH  19  20
ENDBRANCH  12  15
ENDBRANCH   6  11
ENDBRANCH   4   6
ENDBRANCH   3   4
ENDBRANCH   2   3
ENDBRANCH   1   2
BRANCH   1  25
ATOM     25  O   UNL A   1      31.721  30.842  25.776  1.00  0.00    -0.374 OA
BRANCH  25  26
ATOM     26  C   UNL A   1      31.375  31.761  26.810  1.00  0.00     0.202 C 
BRANCH  26  27
ATOM     27  C   UNL A   1      32.110  33.105  26.838  1.00  0.00     0.261 C 
BRANCH  27  28
ATOM     28  O   UNL A   1      32.324  33.566  28.189  1.00  0.00    -0.460 OA
BRANCH  28  29
ATOM     29  C   UNL A   1      33.455  34.295  28.354  1.00  0.00     0.338 C 
ATOM     30  O   UNL A   1      33.536  35.492  28.571  1.00  0.00    -0.246 OA
BRANCH  29  31
ATOM     31  C   UNL A   1      34.629  33.409  28.439  1.00  0.00     0.060 A 
ATOM     32  C   UNL A   1      34.428  32.108  28.922  1.00  0.00     0.016 A 
ATOM     33  C   UNL A   1      35.918  33.886  28.198  1.00  0.00     0.016 A 
ATOM     34  C   UNL A   1      35.521  31.301  29.232  1.00  0.00     0.010 A 
ATOM     35  C   UNL A   1      37.015  33.081  28.528  1.00  0.00     0.010 A 
ATOM     36  C   UNL A   1      36.818  31.809  29.098  1.00  0.00    -0.014 A 
BRANCH  36  37
ATOM     37  C   UNL A   1      37.937  31.107  29.776  1.00  0.00     0.031 A 
ATOM     38  C   UNL A   1      38.198  31.414  31.228  1.00  0.00     0.074 A 
ATOM     39  C   UNL A   1      38.673  30.177  29.144  1.00  0.00     0.049 A 
ATOM     40  N   UNL A   1      39.119  30.939  32.027  1.00  0.00    -0.248 NA
ATOM     41  C   UNL A   1      37.293  32.387  31.865  1.00  0.00     0.031 C 
ATOM     42  C   UNL A   1      38.487  29.743  27.762  1.00  0.00     0.029 A 
ATOM     43  N   UNL A   1      39.730  29.426  29.596  1.00  0.00    -0.354 N 
ATOM     44  C   UNL A   1      38.908  31.556  33.254  1.00  0.00     0.074 A 
ATOM     45  C   UNL A   1      37.791  32.459  33.090  1.00  0.00     0.031 C 
ATOM     46  C   UNL A   1      39.408  28.807  27.473  1.00  0.00     0.029 A 
ATOM     47  C   UNL A   1      40.263  28.596  28.641  1.00  0.00     0.049 A 
ATOM     48  H   UNL A   1      40.074  29.479  30.517  1.00  0.00     0.167 HD
ATOM     49  C   UNL A   1      39.579  31.382  34.418  1.00  0.00     0.037 A 
ATOM     50  C   UNL A   1      41.328  27.773  28.702  1.00  0.00     0.037 A 
ATOM     51  C   UNL A   1      40.685  30.480  34.590  1.00  0.00     0.049 A 
ATOM     52  C   UNL A   1      42.108  27.657  29.985  1.00  0.00     0.074 A 
ATOM     53  C   UNL A   1      41.416  30.222  35.737  1.00  0.00     0.029 A 
ATOM     54  N   UNL A   1      41.224  29.693  33.585  1.00  0.00    -0.354 N 
ATOM     55  N   UNL A   1      41.890  28.232  31.143  1.00  0.00    -0.248 NA
ATOM     56  C   UNL A   1      43.286  26.775  29.968  1.00  0.00     0.031 C 
ATOM     57  C   UNL A   1      42.427  29.311  35.414  1.00  0.00     0.029 A 
ATOM     58  C   UNL A   1      42.296  28.970  34.077  1.00  0.00     0.049 A 
ATOM     59  H   UNL A   1      40.894  29.656  32.658  1.00  0.00     0.167 HD
ATOM     60  C   UNL A   1      42.881  27.760  31.996  1.00  0.00     0.074 A 
ATOM     61  C   UNL A   1      43.696  26.845  31.226  1.00  0.00     0.031 C 
ATOM     62  C   UNL A   1      43.094  28.055  33.302  1.00  0.00     0.037 A 
BRANCH  49  63
ATOM     63  C   UNL A   1      39.146  32.206  35.593  1.00  0.00     0.057 A 
ATOM     64  C   UNL A   1      39.579  33.526  35.769  1.00  0.00     0.134 A 
ATOM     65  C   UNL A   1      38.263  31.681  36.543  1.00  0.00     0.134 A 
ATOM     66  F   UNL A   1      40.439  34.082  34.902  1.00  0.00    -0.206 F 
ATOM     67  C   UNL A   1      39.160  34.290  36.860  1.00  0.00     0.040 A 
ATOM     68  C   UNL A   1      37.820  32.441  37.626  1.00  0.00     0.040 A 
ATOM     69  F   UNL A   1      37.811  30.422  36.431  1.00  0.00    -0.206 F 
ATOM     70  C   UNL A   1      38.272  33.750  37.789  1.00  0.00     0.006 A 
ENDBRANCH  49  63
BRANCH  50  71
ATOM     71  C   UNL A   1      41.739  26.999  27.503  1.00  0.00     0.057 A 
ATOM     72  C   UNL A   1      41.339  25.670  27.326  1.00  0.00     0.134 A 
ATOM     73  C   UNL A   1      42.571  27.558  26.527  1.00  0.00     0.134 A 
ATOM     74  F   UNL A   1      40.564  25.070  28.242  1.00  0.00    -0.206 F 
ATOM     75  C   UNL A   1      41.763  24.919  26.228  1.00  0.00     0.040 A 
ATOM     76  C   UNL A   1      42.985  26.827  25.413  1.00  0.00     0.040 A 
ATOM     77  F   UNL A   1      42.993  28.826  26.644  1.00  0.00    -0.206 F 
ATOM     78  C   UNL A   1      42.587  25.501  25.266  1.00  0.00     0.006 A 
ENDBRANCH  50  71
BRANCH  62  79
ATOM     79  C   UNL A   1      44.229  27.359  33.992  1.00  0.00     0.057 A 
ATOM     80  C   UNL A   1      45.508  27.924  34.064  1.00  0.00     0.134 A 
ATOM     81  C   UNL A   1      44.027  26.129  34.633  1.00  0.00     0.134 A 
ATOM     82  F   UNL A   1      45.769  29.093  33.462  1.00  0.00    -0.206 F 
ATOM     83  C   UNL A   1      46.552  27.281  34.733  1.00  0.00     0.040 A 
ATOM     84  C   UNL A   1      45.057  25.489  35.325  1.00  0.00     0.040 A 
ATOM     85  F   UNL A   1      42.823  25.539  34.611  1.00  0.00    -0.206 F 
ATOM     86  C   UNL A   1      46.325  26.063  35.372  1.00  0.00     0.006 A 
ENDBRANCH  62  79
ENDBRANCH  36  37
ENDBRANCH  29  31
ENDBRANCH  28  29
ENDBRANCH  27  28
ENDBRANCH  26  27
ENDBRANCH  25  26
ENDBRANCH   1  25
TORSDOF 19
ENDMDL
MODEL 2
REMARK VINA RESULT:     -10.1      4.110      7.626
REMARK SMILES CC[C@H](C)[C@@H](NC(=O)c1csc(NC(C)=O)n1)C(=O)OCCOCCOC(=O)c1ccc(-c2c3nc(c(-c4c(F)cccc4F)c4ccc([nH]4)c(-c4c(F)cccc4F)c4nc(c(-c5c(F)cccc5F)c5ccc2[nH]5)C=C4)C=C3)cc1
REMARK SMILES IDX 22 1 21 2 20 3 18 4 19 5 5 6 3 7 4 8 2 9 1 10 6 11 7 12 8 14
REMARK SMILES IDX 9 15 10 16 17 17 11 18 12 19 13 20 14 21 15 23 16 24 23 25
REMARK SMILES IDX 24 26 25 27 26 28 27 29 28 30 29 31 30 32 82 33 31 34 81 35
REMARK SMILES IDX 32 36 33 37 34 38 75 39 35 40 80 41 74 42 76 43 36 44 79 45
REMARK SMILES IDX 73 46 72 47 37 49 63 50 46 51 62 52 47 53 50 54 61 55 77 56
REMARK SMILES IDX 48 57 49 58 60 60 78 61 51 62 38 63 39 64 44 65 40 66 41 67
REMARK SMILES IDX 43 68 45 69 42 70 64 71 65 72 70 73 66 74 67 75 69 76 71 77
REMARK SMILES IDX 68 78 52 79 53 80 58 81 54 82 55 83 57 84 59 85 56 86
REMARK H PARENT 6 13 13 22 76 48 50 59
REMARK Flexibility Score: inf
ROOT
ATOM      1  C   UNL A   1      36.510  22.714  25.383  1.00  0.00     0.202 C 
ENDROOT
BRANCH   1   2
ATOM      2  C   UNL A   1      35.930  24.077  24.961  1.00  0.00     0.261 C 
BRANCH   2   3
ATOM      3  O   UNL A   1      35.067  24.835  25.813  1.00  0.00    -0.462 OA
BRANCH   3   4
ATOM      4  C   UNL A   1      34.029  25.490  25.228  1.00  0.00     0.329 C 
ATOM      5  O   UNL A   1      33.860  25.601  24.018  1.00  0.00    -0.250 OA
BRANCH   4   6
ATOM      6  C   UNL A   1      33.085  26.124  26.270  1.00  0.00     0.195 C 
BRANCH   6   7
ATOM      7  C   UNL A   1      32.743  27.637  25.958  1.00  0.00     0.019 C 
ATOM      8  C   UNL A   1      31.308  27.780  25.415  1.00  0.00     0.010 C 
BRANCH   7   9
ATOM      9  C   UNL A   1      32.937  28.610  27.143  1.00  0.00     0.002 C 
ATOM     10  C   UNL A   1      34.076  29.611  26.976  1.00  0.00     0.004 C 
ENDBRANCH   7   9
ENDBRANCH   6   7
BRANCH   6  11
ATOM     11  N   UNL A   1      31.795  25.420  26.519  1.00  0.00    -0.337 N 
ATOM     12  C   UNL A   1      31.371  24.136  26.743  1.00  0.00     0.271 C 
ATOM     13  H   UNL A   1      31.039  26.052  26.523  1.00  0.00     0.164 HD
ATOM     14  O   UNL A   1      30.186  24.002  27.060  1.00  0.00    -0.267 OA
BRANCH  12  15
ATOM     15  C   UNL A   1      32.209  22.972  26.483  1.00  0.00     0.141 A 
ATOM     16  C   UNL A   1      32.967  22.369  27.473  1.00  0.00     0.102 A 
ATOM     17  N   UNL A   1      32.363  22.392  25.237  1.00  0.00    -0.215 NA
ATOM     18  S   UNL A   1      33.754  20.979  26.854  1.00  0.00    -0.104 S 
ATOM     19  C   UNL A   1      33.026  21.264  25.343  1.00  0.00     0.190 A 
BRANCH  19  20
ATOM     20  N   UNL A   1      33.011  20.348  24.319  1.00  0.00    -0.302 N 
ATOM     21  C   UNL A   1      32.524  19.063  24.378  1.00  0.00     0.223 C 
ATOM     22  H   UNL A   1      33.386  20.641  23.457  1.00  0.00     0.172 HD
ATOM     23  C   UNL A   1      32.491  18.377  23.032  1.00  0.00     0.114 C 
ATOM     24  O   UNL A   1      32.080  18.484  25.364  1.00  0.00    -0.275 OA
ENDBRANCH  19  20
ENDBRANCH  12  15
ENDBRANCH   6  11
ENDBRANCH   4   6
ENDBRANCH   3   4
ENDBRANCH   2   3
ENDBRANCH   1   2
BRANCH   1  25
ATOM     25  O   UNL A   1      36.685  21.660  24.456  1.00  0.00    -0.374 OA
BRANCH  25  26
ATOM     26  C   UNL A   1      36.940  20.353  24.965  1.00  0.00     0.202 C 
BRANCH  26  27
ATOM     27  C   UNL A   1      38.364  19.806  24.828  1.00  0.00     0.261 C 
BRANCH  27  28
ATOM     28  O   UNL A   1      38.986  19.614  26.116  1.00  0.00    -0.460 OA
BRANCH  28  29
ATOM     29  C   UNL A   1      40.303  19.932  26.150  1.00  0.00     0.338 C 
ATOM     30  O   UNL A   1      41.222  19.325  25.628  1.00  0.00    -0.246 OA
BRANCH  29  31
ATOM     31  C   UNL A   1      40.495  21.263  26.752  1.00  0.00     0.060 A 
ATOM     32  C   UNL A   1      39.915  22.361  26.100  1.00  0.00     0.016 A 
ATOM     33  C   UNL A   1      41.345  21.451  27.842  1.00  0.00     0.016 A 
ATOM     34  C   UNL A   1      40.242  23.657  26.492  1.00  0.00     0.010 A 
ATOM     35  C   UNL A   1      41.687  22.754  28.221  1.00  0.00     0.010 A 
ATOM     36  C   UNL A   1      41.179  23.859  27.511  1.00  0.00    -0.014 A 
BRANCH  36  37
ATOM     37  C   UNL A   1      41.799  25.200  27.661  1.00  0.00     0.031 A 
ATOM     38  C   UNL A   1      41.021  26.272  28.380  1.00  0.00     0.074 A 
ATOM     39  C   UNL A   1      43.044  25.454  27.223  1.00  0.00     0.049 A 
ATOM     40  N   UNL A   1      41.346  27.515  28.623  1.00  0.00    -0.248 NA
ATOM     41  C   UNL A   1      39.697  25.884  28.897  1.00  0.00     0.031 C 
ATOM     42  C   UNL A   1      43.925  24.492  26.567  1.00  0.00     0.029 A 
ATOM     43  N   UNL A   1      43.782  26.611  27.272  1.00  0.00    -0.354 N 
ATOM     44  C   UNL A   1      40.270  28.058  29.315  1.00  0.00     0.074 A 
ATOM     45  C   UNL A   1      39.271  27.019  29.430  1.00  0.00     0.031 C 
ATOM     46  C   UNL A   1      45.085  25.102  26.264  1.00  0.00     0.029 A 
ATOM     47  C   UNL A   1      45.016  26.502  26.682  1.00  0.00     0.049 A 
ATOM     48  H   UNL A   1      43.456  27.441  27.690  1.00  0.00     0.167 HD
ATOM     49  C   UNL A   1      40.128  29.307  29.817  1.00  0.00     0.037 A 
ATOM     50  C   UNL A   1      45.972  27.432  26.488  1.00  0.00     0.037 A 
ATOM     51  C   UNL A   1      41.120  30.342  29.713  1.00  0.00     0.049 A 
ATOM     52  C   UNL A   1      45.757  28.837  26.986  1.00  0.00     0.074 A 
ATOM     53  C   UNL A   1      41.073  31.635  30.208  1.00  0.00     0.029 A 
ATOM     54  N   UNL A   1      42.337  30.205  29.064  1.00  0.00    -0.354 N 
ATOM     55  N   UNL A   1      44.743  29.335  27.653  1.00  0.00    -0.248 NA
ATOM     56  C   UNL A   1      46.821  29.812  26.701  1.00  0.00     0.031 C 
ATOM     57  C   UNL A   1      42.244  32.293  29.819  1.00  0.00     0.029 A 
ATOM     58  C   UNL A   1      43.038  31.397  29.122  1.00  0.00     0.049 A 
ATOM     59  H   UNL A   1      42.654  29.382  28.627  1.00  0.00     0.167 HD
ATOM     60  C   UNL A   1      45.061  30.667  27.893  1.00  0.00     0.074 A 
ATOM     61  C   UNL A   1      46.364  30.898  27.307  1.00  0.00     0.031 C 
ATOM     62  C   UNL A   1      44.339  31.612  28.543  1.00  0.00     0.037 A 
BRANCH  49  63
ATOM     63  C   UNL A   1      38.836  29.630  30.506  1.00  0.00     0.057 A 
ATOM     64  C   UNL A   1      37.740  30.156  29.812  1.00  0.00     0.134 A 
ATOM     65  C   UNL A   1      38.680  29.383  31.875  1.00  0.00     0.134 A 
ATOM     66  F   UNL A   1      37.832  30.430  28.502  1.00  0.00    -0.206 F 
ATOM     67  C   UNL A   1      36.536  30.441  30.460  1.00  0.00     0.040 A 
ATOM     68  C   UNL A   1      37.475  29.644  32.530  1.00  0.00     0.040 A 
ATOM     69  F   UNL A   1      39.692  28.879  32.597  1.00  0.00    -0.206 F 
ATOM     70  C   UNL A   1      36.400  30.178  31.822  1.00  0.00     0.006 A 
ENDBRANCH  49  63
BRANCH  50  71
ATOM     71  C   UNL A   1      47.223  27.075  25.773  1.00  0.00     0.057 A 
ATOM     72  C   UNL A   1      48.300  26.486  26.445  1.00  0.00     0.134 A 
ATOM     73  C   UNL A   1      47.384  27.348  24.410  1.00  0.00     0.134 A 
ATOM     74  F   UNL A   1      48.216  26.226  27.758  1.00  0.00    -0.206 F 
ATOM     75  C   UNL A   1      49.498  26.195  25.791  1.00  0.00     0.040 A 
ATOM     76  C   UNL A   1      48.568  27.042  23.738  1.00  0.00     0.040 A 
ATOM     77  F   UNL A   1      46.390  27.917  23.712  1.00  0.00    -0.206 F 
ATOM     78  C   UNL A   1      49.633  26.470  24.431  1.00  0.00     0.006 A 
ENDBRANCH  50  71
BRANCH  62  79
ATOM     79  C   UNL A   1      44.953  32.973  28.688  1.00  0.00     0.057 A 
ATOM     80  C   UNL A   1      45.805  33.289  29.753  1.00  0.00     0.134 A 
ATOM     81  C   UNL A   1      44.725  33.964  27.725  1.00  0.00     0.134 A 
ATOM     82  F   UNL A   1      46.056  32.387  30.714  1.00  0.00    -0.206 F 
ATOM     83  C   UNL A   1      46.394  34.550  29.864  1.00  0.00     0.040 A 
ATOM     84  C   UNL A   1      45.327  35.220  27.813  1.00  0.00     0.040 A 
ATOM     85  F   UNL A   1      43.926  33.722  26.674  1.00  0.00    -0.206 F 
ATOM     86  C   UNL A   1      46.161  35.517  28.888  1.00  0.00     0.006 A 
ENDBRANCH  62  79
ENDBRANCH  36  37
ENDBRANCH  29  31
ENDBRANCH  28  29
ENDBRANCH  27  28
ENDBRANCH  26  27
ENDBRANCH  25  26
ENDBRANCH   1  25
TORSDOF 19
ENDMDL
MODEL 3
REMARK VINA RESULT:     -10.0      3.986      9.176
REMARK SMILES CC[C@H](C)[C@@H](NC(=O)c1csc(NC(C)=O)n1)C(=O)OCCOCCOC(=O)c1ccc(-c2c3nc(c(-c4c(F)cccc4F)c4ccc([nH]4)c(-c4c(F)cccc4F)c4nc(c(-c5c(F)cccc5F)c5ccc2[nH]5)C=C4)C=C3)cc1
REMARK SMILES IDX 22 1 21 2 20 3 18 4 19 5 5 6 3 7 4 8 2 9 1 10 6 11 7 12 8 14
REMARK SMILES IDX 9 15 10 16 17 17 11 18 12 19 13 20 14 21 15 23 16 24 23 25
REMARK SMILES IDX 24 26 25 27 26 28 27 29 28 30 29 31 30 32 82 33 31 34 81 35
REMARK SMILES IDX 32 36 33 37 34 38 75 39 35 40 80 41 74 42 76 43 36 44 79 45
REMARK SMILES IDX 73 46 72 47 37 49 63 50 46 51 62 52 47 53 50 54 61 55 77 56
REMARK SMILES IDX 48 57 49 58 60 60 78 61 51 62 38 63 39 64 44 65 40 66 41 67
REMARK SMILES IDX 43 68 45 69 42 70 64 71 65 72 70 73 66 74 67 75 69 76 71 77
REMARK SMILES IDX 68 78 52 79 53 80 58 81 54 82 55 83 57 84 59 85 56 86
REMARK H PARENT 6 13 13 22 76 48 50 59
REMARK Flexibility Score: inf
ROOT
ATOM      1  C   UNL A   1      36.542  22.671  25.266  1.00  0.00     0.202 C 
ENDROOT
BRANCH   1   2
ATOM      2  C   UNL A   1      35.899  23.987  24.790  1.00  0.00     0.261 C 
BRANCH   2   3
ATOM      3  O   UNL A   1      35.116  24.811  25.657  1.00  0.00    -0.462 OA
BRANCH   3   4
ATOM      4  C   UNL A   1      34.129  25.555  25.091  1.00  0.00     0.329 C 
ATOM      5  O   UNL A   1      34.005  25.758  23.888  1.00  0.00    -0.250 OA
BRANCH   4   6
ATOM      6  C   UNL A   1      33.183  26.160  26.147  1.00  0.00     0.195 C 
BRANCH   6   7
ATOM      7  C   UNL A   1      32.902  27.700  25.920  1.00  0.00     0.019 C 
ATOM      8  C   UNL A   1      31.527  27.921  25.260  1.00  0.00     0.010 C 
BRANCH   7   9
ATOM      9  C   UNL A   1      33.004  28.580  27.187  1.00  0.00     0.002 C 
ATOM     10  C   UNL A   1      33.795  29.872  27.013  1.00  0.00     0.004 C 
ENDBRANCH   7   9
ENDBRANCH   6   7
BRANCH   6  11
ATOM     11  N   UNL A   1      31.863  25.490  26.325  1.00  0.00    -0.337 N 
ATOM     12  C   UNL A   1      31.395  24.220  26.536  1.00  0.00     0.271 C 
ATOM     13  H   UNL A   1      31.124  26.139  26.275  1.00  0.00     0.164 HD
ATOM     14  O   UNL A   1      30.191  24.117  26.781  1.00  0.00    -0.267 OA
BRANCH  12  15
ATOM     15  C   UNL A   1      32.219  23.033  26.341  1.00  0.00     0.141 A 
ATOM     16  C   UNL A   1      32.945  22.457  27.371  1.00  0.00     0.102 A 
ATOM     17  N   UNL A   1      32.391  22.401  25.123  1.00  0.00    -0.215 NA
ATOM     18  S   UNL A   1      33.722  21.032  26.825  1.00  0.00    -0.104 S 
ATOM     19  C   UNL A   1      33.032  21.268  25.287  1.00  0.00     0.190 A 
BRANCH  19  20
ATOM     20  N   UNL A   1      33.025  20.313  24.300  1.00  0.00    -0.302 N 
ATOM     21  C   UNL A   1      32.521  19.036  24.401  1.00  0.00     0.223 C 
ATOM     22  H   UNL A   1      33.419  20.567  23.435  1.00  0.00     0.172 HD
ATOM     23  C   UNL A   1      32.504  18.299  23.082  1.00  0.00     0.114 C 
ATOM     24  O   UNL A   1      32.053  18.502  25.401  1.00  0.00    -0.275 OA
ENDBRANCH  19  20
ENDBRANCH  12  15
ENDBRANCH   6  11
ENDBRANCH   4   6
ENDBRANCH   3   4
ENDBRANCH   2   3
ENDBRANCH   1   2
BRANCH   1  25
ATOM     25  O   UNL A   1      36.790  21.599  24.378  1.00  0.00    -0.374 OA
BRANCH  25  26
ATOM     26  C   UNL A   1      37.093  20.321  24.934  1.00  0.00     0.202 C 
BRANCH  26  27
ATOM     27  C   UNL A   1      38.538  19.827  24.825  1.00  0.00     0.261 C 
BRANCH  27  28
ATOM     28  O   UNL A   1      39.171  19.747  26.120  1.00  0.00    -0.460 OA
BRANCH  28  29
ATOM     29  C   UNL A   1      40.462  20.161  26.133  1.00  0.00     0.338 C 
ATOM     30  O   UNL A   1      41.399  19.676  25.522  1.00  0.00    -0.246 OA
BRANCH  29  31
ATOM     31  C   UNL A   1      40.583  21.444  26.849  1.00  0.00     0.060 A 
ATOM     32  C   UNL A   1      39.804  22.517  26.395  1.00  0.00     0.016 A 
ATOM     33  C   UNL A   1      41.544  21.632  27.843  1.00  0.00     0.016 A 
ATOM     34  C   UNL A   1      40.033  23.801  26.884  1.00  0.00     0.010 A 
ATOM     35  C   UNL A   1      41.786  22.926  28.318  1.00  0.00     0.010 A 
ATOM     36  C   UNL A   1      41.069  24.022  27.799  1.00  0.00    -0.014 A 
BRANCH  36  37
ATOM     37  C   UNL A   1      41.551  25.408  28.018  1.00  0.00     0.031 A 
ATOM     38  C   UNL A   1      42.915  25.783  27.498  1.00  0.00     0.074 A 
ATOM     39  C   UNL A   1      40.782  26.337  28.613  1.00  0.00     0.049 A 
ATOM     40  N   UNL A   1      43.553  26.922  27.578  1.00  0.00    -0.248 NA
ATOM     41  C   UNL A   1      43.657  24.726  26.789  1.00  0.00     0.031 C 
ATOM     42  C   UNL A   1      39.424  26.124  29.107  1.00  0.00     0.029 A 
ATOM     43  N   UNL A   1      41.043  27.654  28.897  1.00  0.00    -0.354 N 
ATOM     44  C   UNL A   1      44.768  26.719  26.935  1.00  0.00     0.074 A 
ATOM     45  C   UNL A   1      44.792  25.342  26.495  1.00  0.00     0.031 C 
ATOM     46  C   UNL A   1      38.973  27.271  29.644  1.00  0.00     0.029 A 
ATOM     47  C   UNL A   1      40.019  28.289  29.555  1.00  0.00     0.049 A 
ATOM     48  H   UNL A   1      41.886  28.101  28.654  1.00  0.00     0.167 HD
ATOM     49  C   UNL A   1      45.773  27.602  26.723  1.00  0.00     0.037 A 
ATOM     50  C   UNL A   1      39.944  29.543  30.042  1.00  0.00     0.037 A 
ATOM     51  C   UNL A   1      45.752  28.974  27.151  1.00  0.00     0.049 A 
ATOM     52  C   UNL A   1      41.108  30.483  29.863  1.00  0.00     0.074 A 
ATOM     53  C   UNL A   1      46.717  29.950  26.964  1.00  0.00     0.029 A 
ATOM     54  N   UNL A   1      44.716  29.564  27.857  1.00  0.00    -0.354 N 
ATOM     55  N   UNL A   1      42.245  30.286  29.241  1.00  0.00    -0.248 NA
ATOM     56  C   UNL A   1      40.977  31.822  30.459  1.00  0.00     0.031 C 
ATOM     57  C   UNL A   1      46.282  31.119  27.597  1.00  0.00     0.029 A 
ATOM     58  C   UNL A   1      45.029  30.882  28.138  1.00  0.00     0.049 A 
ATOM     59  H   UNL A   1      43.882  29.111  28.120  1.00  0.00     0.167 HD
ATOM     60  C   UNL A   1      42.948  31.481  29.343  1.00  0.00     0.074 A 
ATOM     61  C   UNL A   1      42.108  32.400  30.080  1.00  0.00     0.031 C 
ATOM     62  C   UNL A   1      44.179  31.790  28.865  1.00  0.00     0.037 A 
BRANCH  49  63
ATOM     63  C   UNL A   1      46.994  27.098  26.014  1.00  0.00     0.057 A 
ATOM     64  C   UNL A   1      48.050  26.489  26.702  1.00  0.00     0.134 A 
ATOM     65  C   UNL A   1      47.100  27.199  24.622  1.00  0.00     0.134 A 
ATOM     66  F   UNL A   1      48.016  26.377  28.039  1.00  0.00    -0.206 F 
ATOM     67  C   UNL A   1      49.177  26.011  26.031  1.00  0.00     0.040 A 
ATOM     68  C   UNL A   1      48.211  26.707  23.937  1.00  0.00     0.040 A 
ATOM     69  F   UNL A   1      46.122  27.773  23.904  1.00  0.00    -0.206 F 
ATOM     70  C   UNL A   1      49.257  26.114  24.643  1.00  0.00     0.006 A 
ENDBRANCH  49  63
BRANCH  50  71
ATOM     71  C   UNL A   1      38.727  29.989  30.765  1.00  0.00     0.057 A 
ATOM     72  C   UNL A   1      37.695  30.662  30.102  1.00  0.00     0.134 A 
ATOM     73  C   UNL A   1      38.584  29.784  32.143  1.00  0.00     0.134 A 
ATOM     74  F   UNL A   1      37.788  30.913  28.788  1.00  0.00    -0.206 F 
ATOM     75  C   UNL A   1      36.571  31.130  30.785  1.00  0.00     0.040 A 
ATOM     76  C   UNL A   1      37.455  30.226  32.834  1.00  0.00     0.040 A 
ATOM     77  F   UNL A   1      39.542  29.150  32.835  1.00  0.00    -0.206 F 
ATOM     78  C   UNL A   1      36.448  30.909  32.155  1.00  0.00     0.006 A 
ENDBRANCH  50  71
BRANCH  62  79
ATOM     79  C   UNL A   1      44.678  33.186  29.092  1.00  0.00     0.057 A 
ATOM     80  C   UNL A   1      45.416  33.531  30.231  1.00  0.00     0.134 A 
ATOM     81  C   UNL A   1      44.457  34.186  28.136  1.00  0.00     0.134 A 
ATOM     82  F   UNL A   1      45.652  32.622  31.188  1.00  0.00    -0.206 F 
ATOM     83  C   UNL A   1      45.900  34.826  30.420  1.00  0.00     0.040 A 
ATOM     84  C   UNL A   1      44.957  35.479  28.302  1.00  0.00     0.040 A 
ATOM     85  F   UNL A   1      43.767  33.919  27.017  1.00  0.00    -0.206 F 
ATOM     86  C   UNL A   1      45.677  35.803  29.450  1.00  0.00     0.006 A 
ENDBRANCH  62  79
ENDBRANCH  36  37
ENDBRANCH  29  31
ENDBRANCH  28  29
ENDBRANCH  27  28
ENDBRANCH  26  27
ENDBRANCH  25  26
ENDBRANCH   1  25
TORSDOF 19
ENDMDL
