MODEL 1
REMARK VINA RESULT:     -12.0      0.000      0.000
REMARK SMILES O=C(OCCOCCOC(=O)c1cc(-c2ccccn2)nc2ccc(F)cc12)c1ccc(-c2c3nc(c(-c4c(F)cccc4F)c4ccc([nH]4)c(-c4c(F)cccc4F)c4nc(c(-c5c(F)cccc5F)c5ccc2[nH]5)C=C4)C=C3)cc1
REMARK SMILES IDX 5 1 4 2 3 3 2 4 1 5 29 6 30 7 82 8 31 9 81 10 32 11 33 12
REMARK SMILES IDX 34 13 75 14 35 15 80 16 74 17 76 18 36 19 79 20 73 21 72 22
REMARK SMILES IDX 37 24 63 25 46 26 62 27 47 28 50 29 61 30 77 31 48 32 49 33
REMARK SMILES IDX 60 35 78 36 51 37 38 38 39 39 44 40 40 41 41 42 43 43 45 44
REMARK SMILES IDX 42 45 64 46 65 47 70 48 66 49 67 50 69 51 71 52 68 53 52 54
REMARK SMILES IDX 53 55 58 56 54 57 55 58 57 59 59 60 56 61 6 62 7 63 8 64
REMARK SMILES IDX 9 65 10 66 11 67 12 68 13 69 28 70 14 71 22 72 27 73 21 74
REMARK SMILES IDX 23 75 25 76 24 77 26 78 15 79 16 80 20 81 17 82 19 83 18 84
REMARK H PARENT 76 23 50 34
REMARK Flexibility Score: inf
ROOT
ATOM      1  C   UNL A   1      32.268  31.192  26.491  1.00  0.00     0.202 C 
ENDROOT
BRANCH   1   2
ATOM      2  C   UNL A   1      31.399  32.288  27.106  1.00  0.00     0.261 C 
BRANCH   2   3
ATOM      3  O   UNL A   1      32.073  33.549  27.084  1.00  0.00    -0.460 OA
BRANCH   3   4
ATOM      4  C   UNL A   1      32.890  34.063  28.031  1.00  0.00     0.338 C 
ATOM      5  O   UNL A   1      32.522  35.090  28.605  1.00  0.00    -0.246 OA
BRANCH   4   6
ATOM      6  C   UNL A   1      34.198  33.463  28.470  1.00  0.00     0.060 A 
ATOM      7  C   UNL A   1      34.134  32.627  29.601  1.00  0.00     0.016 A 
ATOM      8  C   UNL A   1      35.464  33.727  27.938  1.00  0.00     0.016 A 
ATOM      9  C   UNL A   1      35.291  32.132  30.205  1.00  0.00     0.010 A 
ATOM     10  C   UNL A   1      36.624  33.256  28.540  1.00  0.00     0.010 A 
ATOM     11  C   UNL A   1      36.541  32.471  29.685  1.00  0.00    -0.014 A 
BRANCH  11  12
ATOM     12  C   UNL A   1      37.787  31.918  30.227  1.00  0.00     0.031 A 
ATOM     13  C   UNL A   1      38.356  30.643  29.696  1.00  0.00     0.074 A 
ATOM     14  C   UNL A   1      38.284  32.520  31.318  1.00  0.00     0.049 A 
ATOM     15  N   UNL A   1      39.464  30.037  30.029  1.00  0.00    -0.248 NA
ATOM     16  C   UNL A   1      37.561  29.937  28.679  1.00  0.00     0.031 C 
ATOM     17  C   UNL A   1      37.679  33.681  31.979  1.00  0.00     0.029 A 
ATOM     18  N   UNL A   1      39.374  32.224  32.083  1.00  0.00    -0.354 N 
ATOM     19  C   UNL A   1      39.516  28.890  29.249  1.00  0.00     0.074 A 
ATOM     20  C   UNL A   1      38.293  28.849  28.475  1.00  0.00     0.031 C 
ATOM     21  C   UNL A   1      38.410  34.000  33.055  1.00  0.00     0.029 A 
ATOM     22  C   UNL A   1      39.532  33.074  33.147  1.00  0.00     0.049 A 
ATOM     23  H   UNL A   1      39.984  31.477  31.891  1.00  0.00     0.167 HD
ATOM     24  C   UNL A   1      40.511  27.973  29.183  1.00  0.00     0.037 A 
ATOM     25  C   UNL A   1      40.498  33.107  34.079  1.00  0.00     0.037 A 
ATOM     26  C   UNL A   1      41.687  28.036  30.017  1.00  0.00     0.049 A 
ATOM     27  C   UNL A   1      41.619  32.122  33.956  1.00  0.00     0.074 A 
ATOM     28  C   UNL A   1      42.817  27.239  29.996  1.00  0.00     0.029 A 
ATOM     29  N   UNL A   1      41.864  28.948  31.054  1.00  0.00    -0.354 N 
ATOM     30  N   UNL A   1      41.758  31.137  33.100  1.00  0.00    -0.248 NA
ATOM     31  C   UNL A   1      42.728  32.271  34.901  1.00  0.00     0.031 C 
ATOM     32  C   UNL A   1      43.650  27.635  31.051  1.00  0.00     0.029 A 
ATOM     33  C   UNL A   1      43.065  28.712  31.702  1.00  0.00     0.049 A 
ATOM     34  H   UNL A   1      41.225  29.658  31.293  1.00  0.00     0.167 HD
ATOM     35  C   UNL A   1      42.975  30.546  33.395  1.00  0.00     0.074 A 
ATOM     36  C   UNL A   1      43.546  31.310  34.492  1.00  0.00     0.031 C 
ATOM     37  C   UNL A   1      43.572  29.470  32.820  1.00  0.00     0.037 A 
BRANCH  24  38
ATOM     38  C   UNL A   1      40.364  26.854  28.190  1.00  0.00     0.057 A 
ATOM     39  C   UNL A   1      39.578  25.728  28.471  1.00  0.00     0.134 A 
ATOM     40  C   UNL A   1      41.013  26.880  26.944  1.00  0.00     0.134 A 
ATOM     41  F   UNL A   1      38.934  25.622  29.642  1.00  0.00    -0.206 F 
ATOM     42  C   UNL A   1      39.434  24.684  27.552  1.00  0.00     0.040 A 
ATOM     43  C   UNL A   1      40.853  25.856  26.006  1.00  0.00     0.040 A 
ATOM     44  F   UNL A   1      41.782  27.925  26.601  1.00  0.00    -0.206 F 
ATOM     45  C   UNL A   1      40.063  24.752  26.311  1.00  0.00     0.006 A 
ENDBRANCH  24  38
BRANCH  25  46
ATOM     46  C   UNL A   1      40.466  34.171  35.107  1.00  0.00     0.057 A 
ATOM     47  C   UNL A   1      39.811  33.987  36.331  1.00  0.00     0.134 A 
ATOM     48  C   UNL A   1      40.992  35.439  34.839  1.00  0.00     0.134 A 
ATOM     49  F   UNL A   1      39.258  32.802  36.631  1.00  0.00    -0.206 F 
ATOM     50  C   UNL A   1      39.667  35.031  37.245  1.00  0.00     0.040 A 
ATOM     51  C   UNL A   1      40.873  36.486  35.753  1.00  0.00     0.040 A 
ATOM     52  F   UNL A   1      41.625  35.676  33.681  1.00  0.00    -0.206 F 
ATOM     53  C   UNL A   1      40.199  36.285  36.957  1.00  0.00     0.006 A 
ENDBRANCH  25  46
BRANCH  37  54
ATOM     54  C   UNL A   1      44.890  29.063  33.407  1.00  0.00     0.057 A 
ATOM     55  C   UNL A   1      44.953  28.122  34.441  1.00  0.00     0.134 A 
ATOM     56  C   UNL A   1      46.097  29.593  32.933  1.00  0.00     0.134 A 
ATOM     57  F   UNL A   1      43.833  27.581  34.943  1.00  0.00    -0.206 F 
ATOM     58  C   UNL A   1      46.174  27.715  34.978  1.00  0.00     0.040 A 
ATOM     59  C   UNL A   1      47.325  29.172  33.442  1.00  0.00     0.040 A 
ATOM     60  F   UNL A   1      46.100  30.486  31.931  1.00  0.00    -0.206 F 
ATOM     61  C   UNL A   1      47.365  28.232  34.470  1.00  0.00     0.006 A 
ENDBRANCH  37  54
ENDBRANCH  11  12
ENDBRANCH   4   6
ENDBRANCH   3   4
ENDBRANCH   2   3
ENDBRANCH   1   2
BRANCH   1  62
ATOM     62  O   UNL A   1      32.730  30.250  27.456  1.00  0.00    -0.374 OA
BRANCH  62  63
ATOM     63  C   UNL A   1      33.996  29.653  27.194  1.00  0.00     0.202 C 
BRANCH  63  64
ATOM     64  C   UNL A   1      33.910  28.829  25.912  1.00  0.00     0.261 C 
BRANCH  64  65
ATOM     65  O   UNL A   1      33.451  27.510  26.241  1.00  0.00    -0.460 OA
BRANCH  65  66
ATOM     66  C   UNL A   1      32.125  27.248  26.098  1.00  0.00     0.338 C 
ATOM     67  O   UNL A   1      31.317  27.012  26.976  1.00  0.00    -0.246 OA
BRANCH  66  68
ATOM     68  C   UNL A   1      31.817  27.441  24.659  1.00  0.00     0.071 A 
ATOM     69  C   UNL A   1      30.949  28.484  24.353  1.00  0.00     0.047 A 
ATOM     70  C   UNL A   1      32.266  26.565  23.644  1.00  0.00     0.018 A 
ATOM     71  C   UNL A   1      30.512  28.643  23.053  1.00  0.00     0.090 A 
ATOM     72  C   UNL A   1      31.690  26.752  22.367  1.00  0.00     0.072 A 
ATOM     73  C   UNL A   1      33.201  25.512  23.821  1.00  0.00     0.050 A 
ATOM     74  N   UNL A   1      30.853  27.765  22.080  1.00  0.00    -0.246 NA
ATOM     75  C   UNL A   1      31.987  25.838  21.360  1.00  0.00     0.032 A 
ATOM     76  C   UNL A   1      33.473  24.622  22.791  1.00  0.00     0.123 A 
ATOM     77  C   UNL A   1      32.858  24.764  21.562  1.00  0.00     0.041 A 
ATOM     78  F   UNL A   1      34.314  23.602  23.002  1.00  0.00    -0.207 F 
BRANCH  71  79
ATOM     79  C   UNL A   1      29.686  29.815  22.712  1.00  0.00     0.089 A 
ATOM     80  C   UNL A   1      29.336  30.738  23.706  1.00  0.00     0.030 A 
ATOM     81  N   UNL A   1      29.192  29.898  21.453  1.00  0.00    -0.255 NA
ATOM     82  C   UNL A   1      28.441  31.758  23.412  1.00  0.00     0.004 A 
ATOM     83  C   UNL A   1      28.335  30.911  21.190  1.00  0.00     0.112 A 
ATOM     84  C   UNL A   1      27.926  31.847  22.128  1.00  0.00     0.020 A 
ENDBRANCH  71  79
ENDBRANCH  66  68
ENDBRANCH  65  66
ENDBRANCH  64  65
ENDBRANCH  63  64
ENDBRANCH  62  63
ENDBRANCH   1  62
TORSDOF 15
ENDMDL
MODEL 2
REMARK VINA RESULT:     -11.9      5.110     10.043
REMARK SMILES O=C(OCCOCCOC(=O)c1cc(-c2ccccn2)nc2ccc(F)cc12)c1ccc(-c2c3nc(c(-c4c(F)cccc4F)c4ccc([nH]4)c(-c4c(F)cccc4F)c4nc(c(-c5c(F)cccc5F)c5ccc2[nH]5)C=C4)C=C3)cc1
REMARK SMILES IDX 5 1 4 2 3 3 2 4 1 5 29 6 30 7 82 8 31 9 81 10 32 11 33 12
REMARK SMILES IDX 34 13 75 14 35 15 80 16 74 17 76 18 36 19 79 20 73 21 72 22
REMARK SMILES IDX 37 24 63 25 46 26 62 27 47 28 50 29 61 30 77 31 48 32 49 33
REMARK SMILES IDX 60 35 78 36 51 37 38 38 39 39 44 40 40 41 41 42 43 43 45 44
REMARK SMILES IDX 42 45 64 46 65 47 70 48 66 49 67 50 69 51 71 52 68 53 52 54
REMARK SMILES IDX 53 55 58 56 54 57 55 58 57 59 59 60 56 61 6 62 7 63 8 64
REMARK SMILES IDX 9 65 10 66 11 67 12 68 13 69 28 70 14 71 22 72 27 73 21 74
REMARK SMILES IDX 23 75 25 76 24 77 26 78 15 79 16 80 20 81 17 82 19 83 18 84
REMARK H PARENT 76 23 50 34
REMARK Flexibility Score: inf
ROOT
ATOM      1  C   UNL A   1      38.154  19.628  24.840  1.00  0.00     0.202 C 
ENDROOT
BRANCH   1   2
ATOM      2  C   UNL A   1      39.196  19.797  25.944  1.00  0.00     0.261 C 
BRANCH   2   3
ATOM      3  O   UNL A   1      40.367  19.025  25.664  1.00  0.00    -0.460 OA
BRANCH   3   4
ATOM      4  C   UNL A   1      41.649  19.337  25.957  1.00  0.00     0.338 C 
ATOM      5  O   UNL A   1      42.486  18.435  25.891  1.00  0.00    -0.246 OA
BRANCH   4   6
ATOM      6  C   UNL A   1      42.147  20.708  26.325  1.00  0.00     0.060 A 
ATOM      7  C   UNL A   1      42.124  21.015  27.699  1.00  0.00     0.016 A 
ATOM      8  C   UNL A   1      42.529  21.727  25.447  1.00  0.00     0.016 A 
ATOM      9  C   UNL A   1      42.411  22.299  28.162  1.00  0.00     0.010 A 
ATOM     10  C   UNL A   1      42.798  23.015  25.893  1.00  0.00     0.010 A 
ATOM     11  C   UNL A   1      42.723  23.308  27.250  1.00  0.00    -0.014 A 
BRANCH  11  12
ATOM     12  C   UNL A   1      43.111  24.656  27.680  1.00  0.00     0.031 A 
ATOM     13  C   UNL A   1      42.078  25.697  27.969  1.00  0.00     0.074 A 
ATOM     14  C   UNL A   1      44.420  24.946  27.635  1.00  0.00     0.049 A 
ATOM     15  N   UNL A   1      42.243  26.920  28.396  1.00  0.00    -0.248 NA
ATOM     16  C   UNL A   1      40.677  25.328  27.714  1.00  0.00     0.031 C 
ATOM     17  C   UNL A   1      45.466  24.012  27.206  1.00  0.00     0.029 A 
ATOM     18  N   UNL A   1      45.089  26.102  27.910  1.00  0.00    -0.354 N 
ATOM     19  C   UNL A   1      40.968  27.463  28.486  1.00  0.00     0.074 A 
ATOM     20  C   UNL A   1      40.045  26.458  28.002  1.00  0.00     0.031 C 
ATOM     21  C   UNL A   1      46.651  24.636  27.248  1.00  0.00     0.029 A 
ATOM     22  C   UNL A   1      46.442  26.001  27.713  1.00  0.00     0.049 A 
ATOM     23  H   UNL A   1      44.646  26.925  28.218  1.00  0.00     0.167 HD
ATOM     24  C   UNL A   1      40.616  28.686  28.951  1.00  0.00     0.037 A 
ATOM     25  C   UNL A   1      47.406  26.914  27.913  1.00  0.00     0.037 A 
ATOM     26  C   UNL A   1      41.583  29.669  29.374  1.00  0.00     0.049 A 
ATOM     27  C   UNL A   1      47.003  28.240  28.480  1.00  0.00     0.074 A 
ATOM     28  C   UNL A   1      41.375  30.907  29.954  1.00  0.00     0.029 A 
ATOM     29  N   UNL A   1      42.960  29.526  29.227  1.00  0.00    -0.354 N 
ATOM     30  N   UNL A   1      45.798  28.694  28.734  1.00  0.00    -0.248 NA
ATOM     31  C   UNL A   1      48.088  29.164  28.820  1.00  0.00     0.031 C 
ATOM     32  C   UNL A   1      42.620  31.531  30.109  1.00  0.00     0.029 A 
ATOM     33  C   UNL A   1      43.611  30.664  29.672  1.00  0.00     0.049 A 
ATOM     34  H   UNL A   1      43.406  28.729  28.858  1.00  0.00     0.167 HD
ATOM     35  C   UNL A   1      45.973  29.959  29.270  1.00  0.00     0.074 A 
ATOM     36  C   UNL A   1      47.408  30.181  29.333  1.00  0.00     0.031 C 
ATOM     37  C   UNL A   1      45.041  30.860  29.673  1.00  0.00     0.037 A 
BRANCH  24  38
ATOM     38  C   UNL A   1      39.148  29.008  29.023  1.00  0.00     0.057 A 
ATOM     39  C   UNL A   1      38.444  29.455  27.896  1.00  0.00     0.134 A 
ATOM     40  C   UNL A   1      38.422  28.887  30.219  1.00  0.00     0.134 A 
ATOM     41  F   UNL A   1      39.067  29.606  26.719  1.00  0.00    -0.206 F 
ATOM     42  C   UNL A   1      37.080  29.754  27.954  1.00  0.00     0.040 A 
ATOM     43  C   UNL A   1      37.052  29.156  30.282  1.00  0.00     0.040 A 
ATOM     44  F   UNL A   1      39.026  28.464  31.340  1.00  0.00    -0.206 F 
ATOM     45  C   UNL A   1      36.377  29.594  29.147  1.00  0.00     0.006 A 
ENDBRANCH  24  38
BRANCH  25  46
ATOM     46  C   UNL A   1      48.816  26.535  27.669  1.00  0.00     0.057 A 
ATOM     47  C   UNL A   1      49.420  26.730  26.421  1.00  0.00     0.134 A 
ATOM     48  C   UNL A   1      49.553  25.859  28.646  1.00  0.00     0.134 A 
ATOM     49  F   UNL A   1      48.751  27.344  25.433  1.00  0.00    -0.206 F 
ATOM     50  C   UNL A   1      50.704  26.254  26.150  1.00  0.00     0.040 A 
ATOM     51  C   UNL A   1      50.844  25.395  28.395  1.00  0.00     0.040 A 
ATOM     52  F   UNL A   1      49.023  25.637  29.858  1.00  0.00    -0.206 F 
ATOM     53  C   UNL A   1      51.419  25.584  27.140  1.00  0.00     0.006 A 
ENDBRANCH  25  46
BRANCH  37  54
ATOM     54  C   UNL A   1      45.573  32.167  30.181  1.00  0.00     0.057 A 
ATOM     55  C   UNL A   1      45.756  33.250  29.315  1.00  0.00     0.134 A 
ATOM     56  C   UNL A   1      45.884  32.353  31.534  1.00  0.00     0.134 A 
ATOM     57  F   UNL A   1      45.482  33.134  28.007  1.00  0.00    -0.206 F 
ATOM     58  C   UNL A   1      46.225  34.479  29.780  1.00  0.00     0.040 A 
ATOM     59  C   UNL A   1      46.326  33.585  32.015  1.00  0.00     0.040 A 
ATOM     60  F   UNL A   1      45.711  31.356  32.415  1.00  0.00    -0.206 F 
ATOM     61  C   UNL A   1      46.500  34.652  31.135  1.00  0.00     0.006 A 
ENDBRANCH  37  54
ENDBRANCH  11  12
ENDBRANCH   4   6
ENDBRANCH   3   4
ENDBRANCH   2   3
ENDBRANCH   1   2
BRANCH   1  62
ATOM     62  O   UNL A   1      37.442  20.833  24.567  1.00  0.00    -0.374 OA
BRANCH  62  63
ATOM     63  C   UNL A   1      37.725  21.937  25.422  1.00  0.00     0.202 C 
BRANCH  63  64
ATOM     64  C   UNL A   1      37.289  23.230  24.738  1.00  0.00     0.261 C 
BRANCH  64  65
ATOM     65  O   UNL A   1      35.900  23.455  25.019  1.00  0.00    -0.460 OA
BRANCH  65  66
ATOM     66  C   UNL A   1      35.002  23.172  24.038  1.00  0.00     0.338 C 
ATOM     67  O   UNL A   1      35.097  23.426  22.852  1.00  0.00    -0.246 OA
BRANCH  66  68
ATOM     68  C   UNL A   1      33.932  22.366  24.675  1.00  0.00     0.071 A 
ATOM     69  C   UNL A   1      34.017  20.988  24.500  1.00  0.00     0.047 A 
ATOM     70  C   UNL A   1      32.815  22.935  25.328  1.00  0.00     0.018 A 
ATOM     71  C   UNL A   1      32.990  20.183  24.950  1.00  0.00     0.090 A 
ATOM     72  C   UNL A   1      31.775  22.040  25.666  1.00  0.00     0.072 A 
ATOM     73  C   UNL A   1      32.648  24.312  25.624  1.00  0.00     0.050 A 
ATOM     74  N   UNL A   1      31.867  20.709  25.495  1.00  0.00    -0.246 NA
ATOM     75  C   UNL A   1      30.591  22.556  26.186  1.00  0.00     0.032 A 
ATOM     76  C   UNL A   1      31.453  24.789  26.144  1.00  0.00     0.123 A 
ATOM     77  C   UNL A   1      30.411  23.923  26.413  1.00  0.00     0.041 A 
ATOM     78  F   UNL A   1      31.301  26.102  26.360  1.00  0.00    -0.207 F 
BRANCH  71  79
ATOM     79  C   UNL A   1      33.137  18.720  24.866  1.00  0.00     0.089 A 
ATOM     80  C   UNL A   1      33.869  18.148  23.818  1.00  0.00     0.030 A 
ATOM     81  N   UNL A   1      32.452  17.962  25.757  1.00  0.00    -0.255 NA
ATOM     82  C   UNL A   1      33.883  16.768  23.662  1.00  0.00     0.004 A 
ATOM     83  C   UNL A   1      32.496  16.620  25.590  1.00  0.00     0.112 A 
ATOM     84  C   UNL A   1      33.179  15.985  24.564  1.00  0.00     0.020 A 
ENDBRANCH  71  79
ENDBRANCH  66  68
ENDBRANCH  65  66
ENDBRANCH  64  65
ENDBRANCH  63  64
ENDBRANCH  62  63
ENDBRANCH   1  62
TORSDOF 15
ENDMDL
MODEL 3
REMARK VINA RESULT:     -11.8      0.462      6.183
REMARK SMILES O=C(OCCOCCOC(=O)c1cc(-c2ccccn2)nc2ccc(F)cc12)c1ccc(-c2c3nc(c(-c4c(F)cccc4F)c4ccc([nH]4)c(-c4c(F)cccc4F)c4nc(c(-c5c(F)cccc5F)c5ccc2[nH]5)C=C4)C=C3)cc1
REMARK SMILES IDX 5 1 4 2 3 3 2 4 1 5 29 6 30 7 82 8 31 9 81 10 32 11 33 12
REMARK SMILES IDX 34 13 75 14 35 15 80 16 74 17 76 18 36 19 79 20 73 21 72 22
REMARK SMILES IDX 37 24 63 25 46 26 62 27 47 28 50 29 61 30 77 31 48 32 49 33
REMARK SMILES IDX 60 35 78 36 51 37 38 38 39 39 44 40 40 41 41 42 43 43 45 44
REMARK SMILES IDX 42 45 64 46 65 47 70 48 66 49 67 50 69 51 71 52 68 53 52 54
REMARK SMILES IDX 53 55 58 56 54 57 55 58 57 59 59 60 56 61 6 62 7 63 8 64
REMARK SMILES IDX 9 65 10 66 11 67 12 68 13 69 28 70 14 71 22 72 27 73 21 74
REMARK SMILES IDX 23 75 25 76 24 77 26 78 15 79 16 80 20 81 17 82 19 83 18 84
REMARK H PARENT 76 23 50 34
REMARK Flexibility Score: inf
ROOT
ATOM      1  C   UNL A   1      32.354  31.204  26.516  1.00  0.00     0.202 C 
ENDROOT
BRANCH   1   2
ATOM      2  C   UNL A   1      31.434  32.300  27.054  1.00  0.00     0.261 C 
BRANCH   2   3
ATOM      3  O   UNL A   1      32.100  33.566  27.065  1.00  0.00    -0.460 OA
BRANCH   3   4
ATOM      4  C   UNL A   1      32.893  34.071  28.036  1.00  0.00     0.338 C 
ATOM      5  O   UNL A   1      32.528  35.111  28.586  1.00  0.00    -0.246 OA
BRANCH   4   6
ATOM      6  C   UNL A   1      34.170  33.446  28.528  1.00  0.00     0.060 A 
ATOM      7  C   UNL A   1      34.060  32.685  29.707  1.00  0.00     0.016 A 
ATOM      8  C   UNL A   1      35.452  33.625  27.998  1.00  0.00     0.016 A 
ATOM      9  C   UNL A   1      35.188  32.181  30.356  1.00  0.00     0.010 A 
ATOM     10  C   UNL A   1      36.584  33.145  28.644  1.00  0.00     0.010 A 
ATOM     11  C   UNL A   1      36.456  32.436  29.833  1.00  0.00    -0.014 A 
BRANCH  11  12
ATOM     12  C   UNL A   1      37.672  31.867  30.424  1.00  0.00     0.031 A 
ATOM     13  C   UNL A   1      38.339  32.523  31.590  1.00  0.00     0.074 A 
ATOM     14  C   UNL A   1      38.236  30.844  29.766  1.00  0.00     0.049 A 
ATOM     15  N   UNL A   1      39.392  32.135  32.258  1.00  0.00    -0.248 NA
ATOM     16  C   UNL A   1      37.768  33.800  32.046  1.00  0.00     0.031 C 
ATOM     17  C   UNL A   1      37.712  30.261  28.526  1.00  0.00     0.029 A 
ATOM     18  N   UNL A   1      39.378  30.142  30.014  1.00  0.00    -0.354 N 
ATOM     19  C   UNL A   1      39.599  33.103  33.231  1.00  0.00     0.074 A 
ATOM     20  C   UNL A   1      38.604  34.134  33.020  1.00  0.00     0.031 C 
ATOM     21  C   UNL A   1      38.536  29.285  28.122  1.00  0.00     0.029 A 
ATOM     22  C   UNL A   1      39.630  29.174  29.077  1.00  0.00     0.049 A 
ATOM     23  H   UNL A   1      39.962  30.313  30.787  1.00  0.00     0.167 HD
ATOM     24  C   UNL A   1      40.531  33.108  34.214  1.00  0.00     0.037 A 
ATOM     25  C   UNL A   1      40.631  28.280  29.018  1.00  0.00     0.037 A 
ATOM     26  C   UNL A   1      41.533  32.078  34.346  1.00  0.00     0.049 A 
ATOM     27  C   UNL A   1      41.618  28.264  30.144  1.00  0.00     0.074 A 
ATOM     28  C   UNL A   1      42.476  31.899  35.342  1.00  0.00     0.029 A 
ATOM     29  N   UNL A   1      41.737  31.061  33.418  1.00  0.00    -0.354 N 
ATOM     30  N   UNL A   1      41.711  29.079  31.169  1.00  0.00    -0.248 NA
ATOM     31  C   UNL A   1      42.614  27.190  30.127  1.00  0.00     0.031 C 
ATOM     32  C   UNL A   1      43.280  30.806  34.989  1.00  0.00     0.029 A 
ATOM     33  C   UNL A   1      42.809  30.272  33.798  1.00  0.00     0.049 A 
ATOM     34  H   UNL A   1      41.195  30.924  32.607  1.00  0.00     0.167 HD
ATOM     35  C   UNL A   1      42.774  28.617  31.927  1.00  0.00     0.074 A 
ATOM     36  C   UNL A   1      43.270  27.428  31.255  1.00  0.00     0.031 C 
ATOM     37  C   UNL A   1      43.298  29.124  33.072  1.00  0.00     0.037 A 
BRANCH  24  38
ATOM     38  C   UNL A   1      40.497  34.242  35.202  1.00  0.00     0.057 A 
ATOM     39  C   UNL A   1      41.261  35.401  35.007  1.00  0.00     0.134 A 
ATOM     40  C   UNL A   1      39.710  34.188  36.364  1.00  0.00     0.134 A 
ATOM     41  F   UNL A   1      42.045  35.527  33.927  1.00  0.00    -0.206 F 
ATOM     42  C   UNL A   1      41.233  36.461  35.918  1.00  0.00     0.040 A 
ATOM     43  C   UNL A   1      39.652  35.253  37.267  1.00  0.00     0.040 A 
ATOM     44  F   UNL A   1      38.950  33.112  36.620  1.00  0.00    -0.206 F 
ATOM     45  C   UNL A   1      40.418  36.394  37.047  1.00  0.00     0.006 A 
ENDBRANCH  24  38
BRANCH  25  46
ATOM     46  C   UNL A   1      40.649  27.295  27.914  1.00  0.00     0.057 A 
ATOM     47  C   UNL A   1      40.006  26.056  28.027  1.00  0.00     0.134 A 
ATOM     48  C   UNL A   1      41.412  27.525  26.765  1.00  0.00     0.134 A 
ATOM     49  F   UNL A   1      39.285  25.765  29.120  1.00  0.00    -0.206 F 
ATOM     50  C   UNL A   1      40.133  25.076  27.041  1.00  0.00     0.040 A 
ATOM     51  C   UNL A   1      41.531  26.562  25.762  1.00  0.00     0.040 A 
ATOM     52  F   UNL A   1      42.056  28.691  26.605  1.00  0.00    -0.206 F 
ATOM     53  C   UNL A   1      40.897  25.329  25.905  1.00  0.00     0.006 A 
ENDBRANCH  25  46
BRANCH  37  54
ATOM     54  C   UNL A   1      44.484  28.394  33.626  1.00  0.00     0.057 A 
ATOM     55  C   UNL A   1      44.316  27.308  34.494  1.00  0.00     0.134 A 
ATOM     56  C   UNL A   1      45.793  28.758  33.283  1.00  0.00     0.134 A 
ATOM     57  F   UNL A   1      43.089  26.914  34.865  1.00  0.00    -0.206 F 
ATOM     58  C   UNL A   1      45.410  26.604  34.995  1.00  0.00     0.040 A 
ATOM     59  C   UNL A   1      46.893  28.043  33.755  1.00  0.00     0.040 A 
ATOM     60  F   UNL A   1      46.016  29.778  32.442  1.00  0.00    -0.206 F 
ATOM     61  C   UNL A   1      46.703  26.964  34.617  1.00  0.00     0.006 A 
ENDBRANCH  37  54
ENDBRANCH  11  12
ENDBRANCH   4   6
ENDBRANCH   3   4
ENDBRANCH   2   3
ENDBRANCH   1   2
BRANCH   1  62
ATOM     62  O   UNL A   1      32.820  30.327  27.539  1.00  0.00    -0.374 OA
BRANCH  62  63
ATOM     63  C   UNL A   1      34.046  29.651  27.275  1.00  0.00     0.202 C 
BRANCH  63  64
ATOM     64  C   UNL A   1      33.931  28.896  25.953  1.00  0.00     0.261 C 
BRANCH  64  65
ATOM     65  O   UNL A   1      33.512  27.551  26.226  1.00  0.00    -0.460 OA
BRANCH  65  66
ATOM     66  C   UNL A   1      32.188  27.264  26.109  1.00  0.00     0.338 C 
ATOM     67  O   UNL A   1      31.403  27.012  27.004  1.00  0.00    -0.246 OA
BRANCH  66  68
ATOM     68  C   UNL A   1      31.847  27.452  24.677  1.00  0.00     0.071 A 
ATOM     69  C   UNL A   1      30.945  28.471  24.391  1.00  0.00     0.047 A 
ATOM     70  C   UNL A   1      32.301  26.591  23.651  1.00  0.00     0.018 A 
ATOM     71  C   UNL A   1      30.479  28.622  23.100  1.00  0.00     0.090 A 
ATOM     72  C   UNL A   1      31.695  26.765  22.387  1.00  0.00     0.072 A 
ATOM     73  C   UNL A   1      33.267  25.564  23.807  1.00  0.00     0.050 A 
ATOM     74  N   UNL A   1      30.826  27.756  22.119  1.00  0.00    -0.246 NA
ATOM     75  C   UNL A   1      31.997  25.862  21.371  1.00  0.00     0.032 A 
ATOM     76  C   UNL A   1      33.543  24.684  22.770  1.00  0.00     0.123 A 
ATOM     77  C   UNL A   1      32.901  24.812  21.553  1.00  0.00     0.041 A 
ATOM     78  F   UNL A   1      34.416  23.687  22.961  1.00  0.00    -0.207 F 
BRANCH  71  79
ATOM     79  C   UNL A   1      29.616  29.771  22.779  1.00  0.00     0.089 A 
ATOM     80  C   UNL A   1      29.455  30.808  23.708  1.00  0.00     0.030 A 
ATOM     81  N   UNL A   1      28.907  29.729  21.625  1.00  0.00    -0.255 NA
ATOM     82  C   UNL A   1      28.530  31.814  23.462  1.00  0.00     0.004 A 
ATOM     83  C   UNL A   1      28.026  30.731  21.403  1.00  0.00     0.112 A 
ATOM     84  C   UNL A   1      27.796  31.775  22.286  1.00  0.00     0.020 A 
ENDBRANCH  71  79
ENDBRANCH  66  68
ENDBRANCH  65  66
ENDBRANCH  64  65
ENDBRANCH  63  64
ENDBRANCH  62  63
ENDBRANCH   1  62
TORSDOF 15
ENDMDL
