MODEL 1
REMARK VINA RESULT:     -11.4      0.000      0.000
REMARK SMILES CCOc1ccc(-c2csc3ncn([C@H](C)C(=O)OCCOCCOC(=O)c4ccc(-c5c6nc(c(-c7c(F)cccc7F)c7ccc([nH]7)c(-c7c(F)cccc7F)c7nc(c(-c8c(F)cccc8F)c8ccc5[nH]8)C=C7)C=C6)cc4)c(=O)c23)cc1
REMARK SMILES IDX 21 1 20 2 19 3 17 4 18 5 15 6 16 7 14 8 8 9 9 10 84 11 10 12
REMARK SMILES IDX 11 13 82 14 12 15 83 16 13 17 7 18 4 19 5 20 86 21 6 22
REMARK SMILES IDX 85 23 3 24 2 25 1 26 22 27 23 28 24 29 25 30 26 31 27 32
REMARK SMILES IDX 28 33 29 34 81 35 30 36 80 37 31 38 32 39 33 40 74 41 34 42
REMARK SMILES IDX 79 43 73 44 75 45 35 46 78 47 72 48 71 49 36 51 62 52 45 53
REMARK SMILES IDX 61 54 46 55 49 56 60 57 76 58 47 59 48 60 59 62 77 63 50 64
REMARK SMILES IDX 37 65 38 66 43 67 39 68 40 69 42 70 44 71 41 72 63 73 64 74
REMARK SMILES IDX 69 75 65 76 66 77 68 78 70 79 67 80 51 81 52 82 57 83 53 84
REMARK SMILES IDX 54 85 56 86 58 87 55 88
REMARK H PARENT 75 50 49 61
REMARK Flexibility Score: inf
ROOT
ATOM      1  C   UNL A   1      33.410  32.853  27.976  1.00  0.00     0.202 C 
ENDROOT
BRANCH   1   2
ATOM      2  C   UNL A   1      34.163  31.553  27.720  1.00  0.00     0.261 C 
BRANCH   2   3
ATOM      3  O   UNL A   1      33.262  30.447  27.546  1.00  0.00    -0.462 OA
BRANCH   3   4
ATOM      4  C   UNL A   1      33.846  29.258  27.225  1.00  0.00     0.329 C 
ATOM      5  O   UNL A   1      35.003  29.125  26.846  1.00  0.00    -0.250 OA
BRANCH   4   6
ATOM      6  C   UNL A   1      32.825  28.125  27.214  1.00  0.00     0.198 C 
ATOM      7  C   UNL A   1      31.458  28.392  27.825  1.00  0.00     0.044 C 
BRANCH   6   8
ATOM      8  N   UNL A   1      32.757  27.670  25.830  1.00  0.00    -0.284 N 
ATOM      9  C   UNL A   1      33.121  24.740  23.497  1.00  0.00     0.007 A 
ATOM     10  C   UNL A   1      33.175  24.896  22.124  1.00  0.00     0.076 A 
ATOM     11  C   UNL A   1      32.990  26.004  24.151  1.00  0.00     0.085 A 
ATOM     12  S   UNL A   1      33.012  26.525  21.639  1.00  0.00    -0.123 S 
ATOM     13  C   UNL A   1      32.839  27.040  23.253  1.00  0.00     0.131 A 
ATOM     14  C   UNL A   1      32.970  26.323  25.564  1.00  0.00     0.263 A 
ATOM     15  N   UNL A   1      32.578  28.336  23.547  1.00  0.00    -0.227 NA
ATOM     16  O   UNL A   1      33.108  25.481  26.448  1.00  0.00    -0.268 OA
ATOM     17  C   UNL A   1      32.531  28.585  24.813  1.00  0.00     0.204 A 
BRANCH   9  18
ATOM     18  C   UNL A   1      33.173  23.411  24.090  1.00  0.00    -0.016 A 
ATOM     19  C   UNL A   1      33.270  20.796  25.078  1.00  0.00     0.119 A 
ATOM     20  C   UNL A   1      32.053  21.469  25.022  1.00  0.00     0.047 A 
ATOM     21  C   UNL A   1      34.431  21.419  24.624  1.00  0.00     0.047 A 
ATOM     22  C   UNL A   1      32.003  22.776  24.529  1.00  0.00     0.012 A 
ATOM     23  C   UNL A   1      34.389  22.730  24.156  1.00  0.00     0.012 A 
BRANCH  19  24
ATOM     24  O   UNL A   1      33.263  19.480  25.447  1.00  0.00    -0.494 OA
BRANCH  24  25
ATOM     25  C   UNL A   1      33.676  18.580  24.411  1.00  0.00     0.226 C 
ATOM     26  C   UNL A   1      32.540  18.199  23.474  1.00  0.00     0.049 C 
ENDBRANCH  24  25
ENDBRANCH  19  24
ENDBRANCH   9  18
ENDBRANCH   6   8
ENDBRANCH   4   6
ENDBRANCH   3   4
ENDBRANCH   2   3
ENDBRANCH   1   2
BRANCH   1  27
ATOM     27  O   UNL A   1      34.185  34.040  28.132  1.00  0.00    -0.374 OA
BRANCH  27  28
ATOM     28  C   UNL A   1      34.376  34.609  29.423  1.00  0.00     0.202 C 
BRANCH  28  29
ATOM     29  C   UNL A   1      33.271  35.497  29.978  1.00  0.00     0.261 C 
BRANCH  29  30
ATOM     30  O   UNL A   1      32.622  34.915  31.104  1.00  0.00    -0.460 OA
BRANCH  30  31
ATOM     31  C   UNL A   1      32.969  35.474  32.279  1.00  0.00     0.338 C 
ATOM     32  O   UNL A   1      32.536  36.526  32.754  1.00  0.00    -0.246 OA
BRANCH  31  33
ATOM     33  C   UNL A   1      34.106  34.754  32.850  1.00  0.00     0.060 A 
ATOM     34  C   UNL A   1      35.288  35.487  32.954  1.00  0.00     0.016 A 
ATOM     35  C   UNL A   1      34.086  33.352  32.905  1.00  0.00     0.016 A 
ATOM     36  C   UNL A   1      36.475  34.810  32.830  1.00  0.00     0.010 A 
ATOM     37  C   UNL A   1      35.276  32.676  32.783  1.00  0.00     0.010 A 
ATOM     38  C   UNL A   1      36.440  33.424  32.642  1.00  0.00    -0.014 A 
BRANCH  38  39
ATOM     39  C   UNL A   1      37.695  32.759  32.390  1.00  0.00     0.031 A 
ATOM     40  C   UNL A   1      38.543  32.703  33.594  1.00  0.00     0.074 A 
ATOM     41  C   UNL A   1      38.017  32.220  31.201  1.00  0.00     0.049 A 
ATOM     42  N   UNL A   1      39.624  33.373  33.805  1.00  0.00    -0.248 NA
ATOM     43  C   UNL A   1      38.022  31.998  34.774  1.00  0.00     0.031 C 
ATOM     44  C   UNL A   1      37.182  32.041  30.013  1.00  0.00     0.029 A 
ATOM     45  N   UNL A   1      39.188  31.631  30.844  1.00  0.00    -0.354 N 
ATOM     46  C   UNL A   1      40.041  33.005  35.076  1.00  0.00     0.074 A 
ATOM     47  C   UNL A   1      38.929  32.330  35.692  1.00  0.00     0.031 C 
ATOM     48  C   UNL A   1      37.799  31.185  29.163  1.00  0.00     0.029 A 
ATOM     49  C   UNL A   1      39.115  30.861  29.691  1.00  0.00     0.049 A 
ATOM     50  H   UNL A   1      40.020  31.742  31.359  1.00  0.00     0.167 HD
ATOM     51  C   UNL A   1      41.358  33.045  35.406  1.00  0.00     0.037 A 
ATOM     52  C   UNL A   1      40.052  29.970  29.281  1.00  0.00     0.037 A 
ATOM     53  C   UNL A   1      42.097  33.887  34.497  1.00  0.00     0.049 A 
ATOM     54  C   UNL A   1      41.335  30.344  29.939  1.00  0.00     0.074 A 
ATOM     55  C   UNL A   1      42.016  35.219  34.131  1.00  0.00     0.029 A 
ATOM     56  N   UNL A   1      42.839  33.276  33.516  1.00  0.00    -0.354 N 
ATOM     57  N   UNL A   1      42.000  31.426  29.640  1.00  0.00    -0.248 NA
ATOM     58  C   UNL A   1      41.609  29.793  31.260  1.00  0.00     0.031 C 
ATOM     59  C   UNL A   1      42.282  35.234  32.729  1.00  0.00     0.029 A 
ATOM     60  C   UNL A   1      42.582  33.930  32.337  1.00  0.00     0.049 A 
ATOM     61  H   UNL A   1      43.446  32.510  33.635  1.00  0.00     0.167 HD
ATOM     62  C   UNL A   1      42.411  31.936  30.864  1.00  0.00     0.074 A 
ATOM     63  C   UNL A   1      42.210  30.848  31.819  1.00  0.00     0.031 C 
ATOM     64  C   UNL A   1      42.584  33.279  31.048  1.00  0.00     0.037 A 
BRANCH  51  65
ATOM     65  C   UNL A   1      42.021  32.008  36.274  1.00  0.00     0.057 A 
ATOM     66  C   UNL A   1      42.832  32.433  37.338  1.00  0.00     0.134 A 
ATOM     67  C   UNL A   1      42.144  30.645  35.930  1.00  0.00     0.134 A 
ATOM     68  F   UNL A   1      42.812  33.710  37.750  1.00  0.00    -0.206 F 
ATOM     69  C   UNL A   1      43.759  31.587  37.954  1.00  0.00     0.040 A 
ATOM     70  C   UNL A   1      43.027  29.779  36.576  1.00  0.00     0.040 A 
ATOM     71  F   UNL A   1      41.504  30.096  34.892  1.00  0.00    -0.206 F 
ATOM     72  C   UNL A   1      43.866  30.257  37.567  1.00  0.00     0.006 A 
ENDBRANCH  51  65
BRANCH  52  73
ATOM     73  C   UNL A   1      39.839  28.649  28.639  1.00  0.00     0.057 A 
ATOM     74  C   UNL A   1      40.398  28.348  27.389  1.00  0.00     0.134 A 
ATOM     75  C   UNL A   1      39.312  27.556  29.352  1.00  0.00     0.134 A 
ATOM     76  F   UNL A   1      40.965  29.311  26.646  1.00  0.00    -0.206 F 
ATOM     77  C   UNL A   1      40.455  27.039  26.889  1.00  0.00     0.040 A 
ATOM     78  C   UNL A   1      39.355  26.246  28.863  1.00  0.00     0.040 A 
ATOM     79  F   UNL A   1      38.817  27.703  30.588  1.00  0.00    -0.206 F 
ATOM     80  C   UNL A   1      39.941  25.980  27.634  1.00  0.00     0.006 A 
ENDBRANCH  52  73
BRANCH  64  81
ATOM     81  C   UNL A   1      42.537  34.165  29.832  1.00  0.00     0.057 A 
ATOM     82  C   UNL A   1      43.617  34.362  28.958  1.00  0.00     0.134 A 
ATOM     83  C   UNL A   1      41.315  34.734  29.458  1.00  0.00     0.134 A 
ATOM     84  F   UNL A   1      44.796  33.764  29.166  1.00  0.00    -0.206 F 
ATOM     85  C   UNL A   1      43.502  35.140  27.802  1.00  0.00     0.040 A 
ATOM     86  C   UNL A   1      41.177  35.482  28.287  1.00  0.00     0.040 A 
ATOM     87  F   UNL A   1      40.220  34.536  30.208  1.00  0.00    -0.206 F 
ATOM     88  C   UNL A   1      42.276  35.701  27.462  1.00  0.00     0.006 A 
ENDBRANCH  64  81
ENDBRANCH  38  39
ENDBRANCH  31  33
ENDBRANCH  30  31
ENDBRANCH  29  30
ENDBRANCH  28  29
ENDBRANCH  27  28
ENDBRANCH   1  27
TORSDOF 18
ENDMDL
MODEL 2
REMARK VINA RESULT:     -10.6      1.509      2.040
REMARK SMILES CCOc1ccc(-c2csc3ncn([C@H](C)C(=O)OCCOCCOC(=O)c4ccc(-c5c6nc(c(-c7c(F)cccc7F)c7ccc([nH]7)c(-c7c(F)cccc7F)c7nc(c(-c8c(F)cccc8F)c8ccc5[nH]8)C=C7)C=C6)cc4)c(=O)c23)cc1
REMARK SMILES IDX 21 1 20 2 19 3 17 4 18 5 15 6 16 7 14 8 8 9 9 10 84 11 10 12
REMARK SMILES IDX 11 13 82 14 12 15 83 16 13 17 7 18 4 19 5 20 86 21 6 22
REMARK SMILES IDX 85 23 3 24 2 25 1 26 22 27 23 28 24 29 25 30 26 31 27 32
REMARK SMILES IDX 28 33 29 34 81 35 30 36 80 37 31 38 32 39 33 40 74 41 34 42
REMARK SMILES IDX 79 43 73 44 75 45 35 46 78 47 72 48 71 49 36 51 62 52 45 53
REMARK SMILES IDX 61 54 46 55 49 56 60 57 76 58 47 59 48 60 59 62 77 63 50 64
REMARK SMILES IDX 37 65 38 66 43 67 39 68 40 69 42 70 44 71 41 72 63 73 64 74
REMARK SMILES IDX 69 75 65 76 66 77 68 78 70 79 67 80 51 81 52 82 57 83 53 84
REMARK SMILES IDX 54 85 56 86 58 87 55 88
REMARK H PARENT 75 50 49 61
REMARK Flexibility Score: inf
ROOT
ATOM      1  C   UNL A   1      32.097  33.329  27.637  1.00  0.00     0.202 C 
ENDROOT
BRANCH   1   2
ATOM      2  C   UNL A   1      31.841  32.256  26.585  1.00  0.00     0.261 C 
BRANCH   2   3
ATOM      3  O   UNL A   1      32.394  30.990  26.977  1.00  0.00    -0.462 OA
BRANCH   3   4
ATOM      4  C   UNL A   1      32.483  30.056  25.987  1.00  0.00     0.329 C 
ATOM      5  O   UNL A   1      31.744  29.995  25.013  1.00  0.00    -0.250 OA
BRANCH   4   6
ATOM      6  C   UNL A   1      33.501  28.976  26.336  1.00  0.00     0.198 C 
ATOM      7  C   UNL A   1      34.418  29.219  27.526  1.00  0.00     0.044 C 
BRANCH   6   8
ATOM      8  N   UNL A   1      32.741  27.736  26.440  1.00  0.00    -0.284 N 
ATOM      9  C   UNL A   1      32.714  24.037  25.750  1.00  0.00     0.007 A 
ATOM     10  C   UNL A   1      31.560  23.280  25.845  1.00  0.00     0.076 A 
ATOM     11  C   UNL A   1      32.452  25.408  26.052  1.00  0.00     0.085 A 
ATOM     12  S   UNL A   1      30.209  24.197  26.343  1.00  0.00    -0.123 S 
ATOM     13  C   UNL A   1      31.152  25.611  26.466  1.00  0.00     0.131 A 
ATOM     14  C   UNL A   1      33.335  26.556  26.008  1.00  0.00     0.263 A 
ATOM     15  N   UNL A   1      30.619  26.765  26.933  1.00  0.00    -0.227 NA
ATOM     16  O   UNL A   1      34.507  26.493  25.644  1.00  0.00    -0.268 OA
ATOM     17  C   UNL A   1      31.439  27.762  26.915  1.00  0.00     0.204 A 
BRANCH   9  18
ATOM     18  C   UNL A   1      33.981  23.407  25.407  1.00  0.00    -0.016 A 
ATOM     19  C   UNL A   1      36.487  22.342  24.764  1.00  0.00     0.119 A 
ATOM     20  C   UNL A   1      35.601  22.687  23.747  1.00  0.00     0.047 A 
ATOM     21  C   UNL A   1      36.131  22.545  26.096  1.00  0.00     0.047 A 
ATOM     22  C   UNL A   1      34.348  23.219  24.067  1.00  0.00     0.012 A 
ATOM     23  C   UNL A   1      34.874  23.052  26.419  1.00  0.00     0.012 A 
BRANCH  19  24
ATOM     24  O   UNL A   1      37.746  21.944  24.414  1.00  0.00    -0.494 OA
BRANCH  24  25
ATOM     25  C   UNL A   1      38.328  20.990  25.311  1.00  0.00     0.226 C 
ATOM     26  C   UNL A   1      38.065  19.551  24.894  1.00  0.00     0.049 C 
ENDBRANCH  24  25
ENDBRANCH  19  24
ENDBRANCH   9  18
ENDBRANCH   6   8
ENDBRANCH   4   6
ENDBRANCH   3   4
ENDBRANCH   2   3
ENDBRANCH   1   2
BRANCH   1  27
ATOM     27  O   UNL A   1      33.430  33.819  27.765  1.00  0.00    -0.374 OA
BRANCH  27  28
ATOM     28  C   UNL A   1      33.944  34.177  29.043  1.00  0.00     0.202 C 
BRANCH  28  29
ATOM     29  C   UNL A   1      33.285  35.340  29.773  1.00  0.00     0.261 C 
BRANCH  29  30
ATOM     30  O   UNL A   1      32.568  34.918  30.928  1.00  0.00    -0.460 OA
BRANCH  30  31
ATOM     31  C   UNL A   1      32.955  35.534  32.062  1.00  0.00     0.338 C 
ATOM     32  O   UNL A   1      32.568  36.628  32.478  1.00  0.00    -0.246 OA
BRANCH  31  33
ATOM     33  C   UNL A   1      34.073  34.808  32.659  1.00  0.00     0.060 A 
ATOM     34  C   UNL A   1      35.260  35.532  32.783  1.00  0.00     0.016 A 
ATOM     35  C   UNL A   1      34.041  33.406  32.722  1.00  0.00     0.016 A 
ATOM     36  C   UNL A   1      36.444  34.845  32.686  1.00  0.00     0.010 A 
ATOM     37  C   UNL A   1      35.228  32.721  32.627  1.00  0.00     0.010 A 
ATOM     38  C   UNL A   1      36.401  33.458  32.505  1.00  0.00    -0.014 A 
BRANCH  38  39
ATOM     39  C   UNL A   1      37.655  32.782  32.282  1.00  0.00     0.031 A 
ATOM     40  C   UNL A   1      38.492  32.755  33.494  1.00  0.00     0.074 A 
ATOM     41  C   UNL A   1      37.984  32.210  31.111  1.00  0.00     0.049 A 
ATOM     42  N   UNL A   1      39.574  33.427  33.697  1.00  0.00    -0.248 NA
ATOM     43  C   UNL A   1      37.958  32.084  34.689  1.00  0.00     0.031 C 
ATOM     44  C   UNL A   1      37.159  32.001  29.921  1.00  0.00     0.029 A 
ATOM     45  N   UNL A   1      39.156  31.607  30.780  1.00  0.00    -0.354 N 
ATOM     46  C   UNL A   1      39.979  33.091  34.980  1.00  0.00     0.074 A 
ATOM     47  C   UNL A   1      38.859  32.438  35.605  1.00  0.00     0.031 C 
ATOM     48  C   UNL A   1      37.780  31.120  29.100  1.00  0.00     0.029 A 
ATOM     49  C   UNL A   1      39.090  30.806  29.648  1.00  0.00     0.049 A 
ATOM     50  H   UNL A   1      39.984  31.728  31.299  1.00  0.00     0.167 HD
ATOM     51  C   UNL A   1      41.293  33.136  35.321  1.00  0.00     0.037 A 
ATOM     52  C   UNL A   1      40.027  29.900  29.270  1.00  0.00     0.037 A 
ATOM     53  C   UNL A   1      42.044  33.950  34.396  1.00  0.00     0.049 A 
ATOM     54  C   UNL A   1      41.305  30.287  29.929  1.00  0.00     0.074 A 
ATOM     55  C   UNL A   1      41.971  35.271  33.993  1.00  0.00     0.029 A 
ATOM     56  N   UNL A   1      42.791  33.309  33.437  1.00  0.00    -0.354 N 
ATOM     57  N   UNL A   1      41.978  31.358  29.607  1.00  0.00    -0.248 NA
ATOM     58  C   UNL A   1      41.566  29.771  31.267  1.00  0.00     0.031 C 
ATOM     59  C   UNL A   1      42.249  35.247  32.594  1.00  0.00     0.029 A 
ATOM     60  C   UNL A   1      42.547  33.932  32.240  1.00  0.00     0.049 A 
ATOM     61  H   UNL A   1      43.394  32.544  33.583  1.00  0.00     0.167 HD
ATOM     62  C   UNL A   1      42.380  31.900  30.820  1.00  0.00     0.074 A 
ATOM     63  C   UNL A   1      42.166  30.839  31.802  1.00  0.00     0.031 C 
ATOM     64  C   UNL A   1      42.558  33.246  30.969  1.00  0.00     0.037 A 
BRANCH  51  65
ATOM     65  C   UNL A   1      41.945  32.120  36.222  1.00  0.00     0.057 A 
ATOM     66  C   UNL A   1      42.697  32.571  37.318  1.00  0.00     0.134 A 
ATOM     67  C   UNL A   1      42.118  30.759  35.891  1.00  0.00     0.134 A 
ATOM     68  F   UNL A   1      42.626  33.848  37.722  1.00  0.00    -0.206 F 
ATOM     69  C   UNL A   1      43.618  31.752  37.978  1.00  0.00     0.040 A 
ATOM     70  C   UNL A   1      42.994  29.919  36.579  1.00  0.00     0.040 A 
ATOM     71  F   UNL A   1      41.538  30.189  34.829  1.00  0.00    -0.206 F 
ATOM     72  C   UNL A   1      43.776  30.423  37.604  1.00  0.00     0.006 A 
ENDBRANCH  51  65
BRANCH  52  73
ATOM     73  C   UNL A   1      39.814  28.563  28.663  1.00  0.00     0.057 A 
ATOM     74  C   UNL A   1      40.330  28.247  27.398  1.00  0.00     0.134 A 
ATOM     75  C   UNL A   1      39.334  27.475  29.416  1.00  0.00     0.134 A 
ATOM     76  F   UNL A   1      40.851  29.205  26.616  1.00  0.00    -0.206 F 
ATOM     77  C   UNL A   1      40.392  26.929  26.922  1.00  0.00     0.040 A 
ATOM     78  C   UNL A   1      39.383  26.157  28.951  1.00  0.00     0.040 A 
ATOM     79  F   UNL A   1      38.884  27.639  30.667  1.00  0.00    -0.206 F 
ATOM     80  C   UNL A   1      39.926  25.877  27.706  1.00  0.00     0.006 A 
ENDBRANCH  52  73
BRANCH  64  81
ATOM     81  C   UNL A   1      42.524  34.099  29.729  1.00  0.00     0.057 A 
ATOM     82  C   UNL A   1      41.380  34.762  29.259  1.00  0.00     0.134 A 
ATOM     83  C   UNL A   1      43.724  34.368  29.061  1.00  0.00     0.134 A 
ATOM     84  F   UNL A   1      40.209  34.663  29.899  1.00  0.00    -0.206 F 
ATOM     85  C   UNL A   1      41.416  35.601  28.141  1.00  0.00     0.040 A 
ATOM     86  C   UNL A   1      43.782  35.232  27.966  1.00  0.00     0.040 A 
ATOM     87  F   UNL A   1      44.873  33.824  29.491  1.00  0.00    -0.206 F 
ATOM     88  C   UNL A   1      42.623  35.840  27.491  1.00  0.00     0.006 A 
ENDBRANCH  64  81
ENDBRANCH  38  39
ENDBRANCH  31  33
ENDBRANCH  30  31
ENDBRANCH  29  30
ENDBRANCH  28  29
ENDBRANCH  27  28
ENDBRANCH   1  27
TORSDOF 18
ENDMDL
MODEL 3
REMARK VINA RESULT:     -10.5      5.460     11.102
REMARK SMILES CCOc1ccc(-c2csc3ncn([C@H](C)C(=O)OCCOCCOC(=O)c4ccc(-c5c6nc(c(-c7c(F)cccc7F)c7ccc([nH]7)c(-c7c(F)cccc7F)c7nc(c(-c8c(F)cccc8F)c8ccc5[nH]8)C=C7)C=C6)cc4)c(=O)c23)cc1
REMARK SMILES IDX 21 1 20 2 19 3 17 4 18 5 15 6 16 7 14 8 8 9 9 10 84 11 10 12
REMARK SMILES IDX 11 13 82 14 12 15 83 16 13 17 7 18 4 19 5 20 86 21 6 22
REMARK SMILES IDX 85 23 3 24 2 25 1 26 22 27 23 28 24 29 25 30 26 31 27 32
REMARK SMILES IDX 28 33 29 34 81 35 30 36 80 37 31 38 32 39 33 40 74 41 34 42
REMARK SMILES IDX 79 43 73 44 75 45 35 46 78 47 72 48 71 49 36 51 62 52 45 53
REMARK SMILES IDX 61 54 46 55 49 56 60 57 76 58 47 59 48 60 59 62 77 63 50 64
REMARK SMILES IDX 37 65 38 66 43 67 39 68 40 69 42 70 44 71 41 72 63 73 64 74
REMARK SMILES IDX 69 75 65 76 66 77 68 78 70 79 67 80 51 81 52 82 57 83 53 84
REMARK SMILES IDX 54 85 56 86 58 87 55 88
REMARK H PARENT 75 50 49 61
REMARK Flexibility Score: inf
ROOT
ATOM      1  C   UNL A   1      43.110  18.822  25.459  1.00  0.00     0.202 C 
ENDROOT
BRANCH   1   2
ATOM      2  C   UNL A   1      43.928  20.095  25.641  1.00  0.00     0.261 C 
BRANCH   2   3
ATOM      3  O   UNL A   1      43.481  21.140  24.762  1.00  0.00    -0.462 OA
BRANCH   3   4
ATOM      4  C   UNL A   1      44.087  22.350  24.932  1.00  0.00     0.329 C 
ATOM      5  O   UNL A   1      43.599  23.428  24.617  1.00  0.00    -0.250 OA
BRANCH   4   6
ATOM      6  C   UNL A   1      45.532  22.186  25.392  1.00  0.00     0.198 C 
ATOM      7  C   UNL A   1      46.468  21.364  24.519  1.00  0.00     0.044 C 
BRANCH   6   8
ATOM      8  N   UNL A   1      46.020  23.536  25.646  1.00  0.00    -0.284 N 
ATOM      9  C   UNL A   1      46.256  26.339  28.146  1.00  0.00     0.007 A 
ATOM     10  C   UNL A   1      46.663  27.611  27.788  1.00  0.00     0.076 A 
ATOM     11  C   UNL A   1      46.244  25.467  27.014  1.00  0.00     0.085 A 
ATOM     12  S   UNL A   1      47.077  27.730  26.135  1.00  0.00    -0.123 S 
ATOM     13  C   UNL A   1      46.744  26.078  25.882  1.00  0.00     0.131 A 
ATOM     14  C   UNL A   1      45.822  24.086  26.907  1.00  0.00     0.263 A 
ATOM     15  N   UNL A   1      46.975  25.497  24.682  1.00  0.00    -0.227 NA
ATOM     16  O   UNL A   1      45.351  23.450  27.847  1.00  0.00    -0.268 OA
ATOM     17  C   UNL A   1      46.621  24.256  24.626  1.00  0.00     0.204 A 
BRANCH   9  18
ATOM     18  C   UNL A   1      45.931  26.033  29.532  1.00  0.00    -0.016 A 
ATOM     19  C   UNL A   1      45.290  25.605  32.221  1.00  0.00     0.119 A 
ATOM     20  C   UNL A   1      46.624  25.621  31.823  1.00  0.00     0.047 A 
ATOM     21  C   UNL A   1      44.281  25.821  31.285  1.00  0.00     0.047 A 
ATOM     22  C   UNL A   1      46.946  25.834  30.479  1.00  0.00     0.012 A 
ATOM     23  C   UNL A   1      44.597  26.009  29.941  1.00  0.00     0.012 A 
BRANCH  19  24
ATOM     24  O   UNL A   1      45.018  25.519  33.557  1.00  0.00    -0.494 OA
BRANCH  24  25
ATOM     25  C   UNL A   1      44.758  24.187  34.016  1.00  0.00     0.226 C 
ATOM     26  C   UNL A   1      43.354  24.021  34.579  1.00  0.00     0.049 C 
ENDBRANCH  24  25
ENDBRANCH  19  24
ENDBRANCH   9  18
ENDBRANCH   6   8
ENDBRANCH   4   6
ENDBRANCH   3   4
ENDBRANCH   2   3
ENDBRANCH   1   2
BRANCH   1  27
ATOM     27  O   UNL A   1      41.851  18.750  26.124  1.00  0.00    -0.374 OA
BRANCH  27  28
ATOM     28  C   UNL A   1      41.554  19.639  27.197  1.00  0.00     0.202 C 
BRANCH  28  29
ATOM     29  C   UNL A   1      40.499  20.711  26.959  1.00  0.00     0.261 C 
BRANCH  29  30
ATOM     30  O   UNL A   1      41.067  22.008  26.819  1.00  0.00    -0.460 OA
BRANCH  30  31
ATOM     31  C   UNL A   1      40.154  22.994  26.731  1.00  0.00     0.338 C 
ATOM     32  O   UNL A   1      38.974  22.881  26.392  1.00  0.00    -0.246 OA
BRANCH  31  33
ATOM     33  C   UNL A   1      40.809  24.289  26.902  1.00  0.00     0.060 A 
ATOM     34  C   UNL A   1      41.595  24.416  28.048  1.00  0.00     0.016 A 
ATOM     35  C   UNL A   1      40.353  25.402  26.179  1.00  0.00     0.016 A 
ATOM     36  C   UNL A   1      41.688  25.655  28.628  1.00  0.00     0.010 A 
ATOM     37  C   UNL A   1      40.448  26.642  26.762  1.00  0.00     0.010 A 
ATOM     38  C   UNL A   1      41.022  26.729  28.026  1.00  0.00    -0.014 A 
BRANCH  38  39
ATOM     39  C   UNL A   1      41.034  27.990  28.725  1.00  0.00     0.031 A 
ATOM     40  C   UNL A   1      42.172  28.835  28.322  1.00  0.00     0.074 A 
ATOM     41  C   UNL A   1      40.084  28.353  29.604  1.00  0.00     0.049 A 
ATOM     42  N   UNL A   1      43.213  29.112  29.031  1.00  0.00    -0.248 NA
ATOM     43  C   UNL A   1      42.272  29.234  26.911  1.00  0.00     0.031 C 
ATOM     44  C   UNL A   1      38.819  27.690  29.923  1.00  0.00     0.029 A 
ATOM     45  N   UNL A   1      40.035  29.483  30.357  1.00  0.00    -0.354 N 
ATOM     46  C   UNL A   1      44.007  29.910  28.220  1.00  0.00     0.074 A 
ATOM     47  C   UNL A   1      43.487  29.782  26.884  1.00  0.00     0.031 C 
ATOM     48  C   UNL A   1      38.034  28.546  30.620  1.00  0.00     0.029 A 
ATOM     49  C   UNL A   1      38.787  29.758  30.898  1.00  0.00     0.049 A 
ATOM     50  H   UNL A   1      40.819  30.059  30.506  1.00  0.00     0.167 HD
ATOM     51  C   UNL A   1      44.852  30.821  28.768  1.00  0.00     0.037 A 
ATOM     52  C   UNL A   1      38.412  30.940  31.450  1.00  0.00     0.037 A 
ATOM     53  C   UNL A   1      45.112  30.523  30.156  1.00  0.00     0.049 A 
ATOM     54  C   UNL A   1      39.657  31.654  31.850  1.00  0.00     0.074 A 
ATOM     55  C   UNL A   1      45.643  29.436  30.827  1.00  0.00     0.029 A 
ATOM     56  N   UNL A   1      44.446  31.258  31.106  1.00  0.00    -0.354 N 
ATOM     57  N   UNL A   1      40.424  31.256  32.827  1.00  0.00    -0.248 NA
ATOM     58  C   UNL A   1      40.307  32.499  30.855  1.00  0.00     0.031 C 
ATOM     59  C   UNL A   1      44.864  29.320  32.017  1.00  0.00     0.029 A 
ATOM     60  C   UNL A   1      43.958  30.380  32.040  1.00  0.00     0.049 A 
ATOM     61  H   UNL A   1      44.339  32.237  31.116  1.00  0.00     0.167 HD
ATOM     62  C   UNL A   1      41.716  31.407  32.345  1.00  0.00     0.074 A 
ATOM     63  C   UNL A   1      41.586  32.249  31.157  1.00  0.00     0.031 C 
ATOM     64  C   UNL A   1      42.729  30.592  32.767  1.00  0.00     0.037 A 
BRANCH  51  65
ATOM     65  C   UNL A   1      45.093  32.183  28.171  1.00  0.00     0.057 A 
ATOM     66  C   UNL A   1      44.027  33.094  28.110  1.00  0.00     0.134 A 
ATOM     67  C   UNL A   1      46.221  32.521  27.393  1.00  0.00     0.134 A 
ATOM     68  F   UNL A   1      42.896  32.876  28.798  1.00  0.00    -0.206 F 
ATOM     69  C   UNL A   1      44.047  34.210  27.268  1.00  0.00     0.040 A 
ATOM     70  C   UNL A   1      46.271  33.662  26.592  1.00  0.00     0.040 A 
ATOM     71  F   UNL A   1      47.289  31.725  27.276  1.00  0.00    -0.206 F 
ATOM     72  C   UNL A   1      45.168  34.493  26.498  1.00  0.00     0.006 A 
ENDBRANCH  51  65
BRANCH  52  73
ATOM     73  C   UNL A   1      37.098  31.622  31.348  1.00  0.00     0.057 A 
ATOM     74  C   UNL A   1      36.334  31.905  32.489  1.00  0.00     0.134 A 
ATOM     75  C   UNL A   1      36.682  32.255  30.162  1.00  0.00     0.134 A 
ATOM     76  F   UNL A   1      36.669  31.385  33.680  1.00  0.00    -0.206 F 
ATOM     77  C   UNL A   1      35.241  32.783  32.459  1.00  0.00     0.040 A 
ATOM     78  C   UNL A   1      35.590  33.127  30.117  1.00  0.00     0.040 A 
ATOM     79  F   UNL A   1      37.374  32.122  29.021  1.00  0.00    -0.206 F 
ATOM     80  C   UNL A   1      34.873  33.407  31.270  1.00  0.00     0.006 A 
ENDBRANCH  52  73
BRANCH  64  81
ATOM     81  C   UNL A   1      42.454  29.677  33.931  1.00  0.00     0.057 A 
ATOM     82  C   UNL A   1      41.959  28.370  33.806  1.00  0.00     0.134 A 
ATOM     83  C   UNL A   1      42.829  30.087  35.215  1.00  0.00     0.134 A 
ATOM     84  F   UNL A   1      41.681  27.845  32.607  1.00  0.00    -0.206 F 
ATOM     85  C   UNL A   1      41.786  27.535  34.914  1.00  0.00     0.040 A 
ATOM     86  C   UNL A   1      42.698  29.250  36.324  1.00  0.00     0.040 A 
ATOM     87  F   UNL A   1      43.373  31.299  35.405  1.00  0.00    -0.206 F 
ATOM     88  C   UNL A   1      42.159  27.974  36.180  1.00  0.00     0.006 A 
ENDBRANCH  64  81
ENDBRANCH  38  39
ENDBRANCH  31  33
ENDBRANCH  30  31
ENDBRANCH  29  30
ENDBRANCH  28  29
ENDBRANCH  27  28
ENDBRANCH   1  27
TORSDOF 18
ENDMDL
