MODEL 1
REMARK VINA RESULT:     -11.4      0.000      0.000
REMARK SMILES Cc1cc(=O)oc2cc(O[C@@H](C)C(=O)N[C@H](CC(C)C)C(=O)OCCOCCOC(=O)c3ccc(-c4c5nc(c(-c6c(F)cccc6F)c6ccc([nH]6)c(-c6c(F)cccc6F)c6nc(c(-c7c(F)cccc7F)c7ccc4[nH]7)C=C6)C=C5)cc3)ccc12
REMARK SMILES IDX 25 1 24 2 23 3 21 4 22 5 16 6 15 7 13 8 14 9 11 11 12 12
REMARK SMILES IDX 10 13 9 14 1 15 2 16 3 17 88 18 4 19 7 20 87 21 5 22 6 23
REMARK SMILES IDX 8 24 86 25 17 26 18 27 19 28 20 29 26 30 27 31 28 32 29 33
REMARK SMILES IDX 30 34 31 35 32 36 33 37 85 38 34 39 84 40 35 41 36 42 37 43
REMARK SMILES IDX 78 44 38 45 83 46 77 47 79 48 39 49 82 50 76 51 75 52 40 54
REMARK SMILES IDX 66 55 49 56 65 57 50 58 53 59 64 60 80 61 51 62 52 63 63 65
REMARK SMILES IDX 81 66 54 67 41 68 42 69 47 70 43 71 44 72 46 73 48 74 45 75
REMARK SMILES IDX 67 76 68 77 73 78 69 79 70 80 72 81 74 82 71 83 55 84 56 85
REMARK SMILES IDX 61 86 57 87 58 88 60 89 62 90 59 91
REMARK H PARENT 15 10 79 53 53 64
REMARK Flexibility Score: inf
ROOT
ATOM      1  C   UNL A   1      40.080  21.811  26.843  1.00  0.00     0.202 C 
ENDROOT
BRANCH   1   2
ATOM      2  C   UNL A   1      39.199  20.989  25.766  1.00  0.00     0.261 C 
BRANCH   2   3
ATOM      3  O   UNL A   1      37.952  21.615  25.128  1.00  0.00    -0.462 OA
BRANCH   3   4
ATOM      4  C   UNL A   1      36.787  22.169  25.606  1.00  0.00     0.328 C 
ATOM      5  O   UNL A   1      36.722  23.309  26.075  1.00  0.00    -0.250 OA
BRANCH   4   6
ATOM      6  C   UNL A   1      35.443  21.756  25.089  1.00  0.00     0.192 C 
BRANCH   6   7
ATOM      7  N   UNL A   1      35.345  20.338  25.212  1.00  0.00    -0.339 N 
ATOM      8  C   UNL A   1      34.213  19.687  24.747  1.00  0.00     0.261 C 
ATOM      9  O   UNL A   1      34.390  18.505  24.417  1.00  0.00    -0.271 OA
ATOM     10  H   UNL A   1      36.077  19.824  25.625  1.00  0.00     0.164 HD
BRANCH   8  11
ATOM     11  C   UNL A   1      32.647  20.342  24.692  1.00  0.00     0.258 C 
ATOM     12  C   UNL A   1      32.134  20.293  23.252  1.00  0.00     0.064 C 
BRANCH  11  13
ATOM     13  O   UNL A   1      31.740  21.160  25.454  1.00  0.00    -0.481 OA
BRANCH  13  14
ATOM     14  C   UNL A   1      31.411  22.477  25.396  1.00  0.00     0.124 A 
ATOM     15  C   UNL A   1      31.881  27.486  26.976  1.00  0.00     0.045 C 
ATOM     16  C   UNL A   1      31.461  26.795  25.699  1.00  0.00    -0.033 A 
ATOM     17  C   UNL A   1      31.258  27.415  24.534  1.00  0.00     0.098 A 
ATOM     18  C   UNL A   1      31.308  25.348  25.658  1.00  0.00     0.021 A 
ATOM     19  C   UNL A   1      30.866  26.688  23.308  1.00  0.00     0.336 A 
ATOM     20  C   UNL A   1      30.789  24.645  24.560  1.00  0.00     0.142 A 
ATOM     21  C   UNL A   1      31.808  24.602  26.667  1.00  0.00     0.016 A 
ATOM     22  O   UNL A   1      30.915  27.251  22.220  1.00  0.00    -0.246 OA
ATOM     23  O   UNL A   1      30.389  25.388  23.434  1.00  0.00    -0.423 OA
ATOM     24  C   UNL A   1      30.787  23.217  24.428  1.00  0.00     0.094 A 
ATOM     25  C   UNL A   1      31.782  23.221  26.520  1.00  0.00     0.047 A 
ENDBRANCH  13  14
ENDBRANCH  11  13
ENDBRANCH   8  11
ENDBRANCH   6   7
BRANCH   6  26
ATOM     26  C   UNL A   1      35.390  22.605  23.745  1.00  0.00     0.040 C 
BRANCH  26  27
ATOM     27  C   UNL A   1      34.132  23.520  23.458  1.00  0.00    -0.015 C 
ATOM     28  C   UNL A   1      34.310  25.037  23.560  1.00  0.00     0.007 C 
ATOM     29  C   UNL A   1      33.484  23.254  22.072  1.00  0.00     0.007 C 
ENDBRANCH  26  27
ENDBRANCH   6  26
ENDBRANCH   4   6
ENDBRANCH   3   4
ENDBRANCH   2   3
ENDBRANCH   1   2
BRANCH   1  30
ATOM     30  O   UNL A   1      41.250  21.113  27.312  1.00  0.00    -0.374 OA
BRANCH  30  31
ATOM     31  C   UNL A   1      42.472  20.849  26.578  1.00  0.00     0.202 C 
BRANCH  31  32
ATOM     32  C   UNL A   1      43.350  21.830  25.746  1.00  0.00     0.261 C 
BRANCH  32  33
ATOM     33  O   UNL A   1      43.904  22.922  26.467  1.00  0.00    -0.460 OA
BRANCH  33  34
ATOM     34  C   UNL A   1      43.863  24.096  25.805  1.00  0.00     0.338 C 
ATOM     35  O   UNL A   1      44.209  24.315  24.674  1.00  0.00    -0.246 OA
BRANCH  34  36
ATOM     36  C   UNL A   1      43.073  25.043  26.612  1.00  0.00     0.060 A 
ATOM     37  C   UNL A   1      43.506  26.365  26.538  1.00  0.00     0.016 A 
ATOM     38  C   UNL A   1      42.002  24.675  27.433  1.00  0.00     0.016 A 
ATOM     39  C   UNL A   1      42.967  27.308  27.392  1.00  0.00     0.010 A 
ATOM     40  C   UNL A   1      41.444  25.638  28.286  1.00  0.00     0.010 A 
ATOM     41  C   UNL A   1      41.981  26.937  28.317  1.00  0.00    -0.014 A 
BRANCH  41  42
ATOM     42  C   UNL A   1      41.717  27.888  29.424  1.00  0.00     0.031 A 
ATOM     43  C   UNL A   1      40.514  28.791  29.338  1.00  0.00     0.074 A 
ATOM     44  C   UNL A   1      42.414  27.796  30.571  1.00  0.00     0.049 A 
ATOM     45  N   UNL A   1      39.986  29.559  30.257  1.00  0.00    -0.248 NA
ATOM     46  C   UNL A   1      39.799  28.822  28.051  1.00  0.00     0.031 C 
ATOM     47  C   UNL A   1      43.556  26.908  30.794  1.00  0.00     0.029 A 
ATOM     48  N   UNL A   1      42.230  28.420  31.778  1.00  0.00    -0.354 N 
ATOM     49  C   UNL A   1      38.880  30.155  29.662  1.00  0.00     0.074 A 
ATOM     50  C   UNL A   1      38.839  29.700  28.291  1.00  0.00     0.031 C 
ATOM     51  C   UNL A   1      43.947  27.017  32.074  1.00  0.00     0.029 A 
ATOM     52  C   UNL A   1      43.110  28.007  32.748  1.00  0.00     0.049 A 
ATOM     53  H   UNL A   1      41.534  29.098  31.934  1.00  0.00     0.167 HD
ATOM     54  C   UNL A   1      37.967  30.988  30.214  1.00  0.00     0.037 A 
ATOM     55  C   UNL A   1      43.227  28.387  34.035  1.00  0.00     0.037 A 
ATOM     56  C   UNL A   1      38.004  31.435  31.582  1.00  0.00     0.049 A 
ATOM     57  C   UNL A   1      42.252  29.386  34.598  1.00  0.00     0.074 A 
ATOM     58  C   UNL A   1      37.129  32.284  32.234  1.00  0.00     0.029 A 
ATOM     59  N   UNL A   1      38.972  31.070  32.506  1.00  0.00    -0.354 N 
ATOM     60  N   UNL A   1      41.207  29.936  34.028  1.00  0.00    -0.248 NA
ATOM     61  C   UNL A   1      42.470  29.811  35.987  1.00  0.00     0.031 C 
ATOM     62  C   UNL A   1      37.601  32.482  33.536  1.00  0.00     0.029 A 
ATOM     63  C   UNL A   1      38.733  31.702  33.714  1.00  0.00     0.049 A 
ATOM     64  H   UNL A   1      39.719  30.454  32.328  1.00  0.00     0.167 HD
ATOM     65  C   UNL A   1      40.630  30.751  34.995  1.00  0.00     0.074 A 
ATOM     66  C   UNL A   1      41.430  30.606  36.193  1.00  0.00     0.031 C 
ATOM     67  C   UNL A   1      39.536  31.546  34.900  1.00  0.00     0.037 A 
BRANCH  54  68
ATOM     68  C   UNL A   1      36.865  31.493  29.328  1.00  0.00     0.057 A 
ATOM     69  C   UNL A   1      36.870  32.791  28.798  1.00  0.00     0.134 A 
ATOM     70  C   UNL A   1      35.796  30.658  28.975  1.00  0.00     0.134 A 
ATOM     71  F   UNL A   1      37.854  33.649  29.109  1.00  0.00    -0.206 F 
ATOM     72  C   UNL A   1      35.842  33.246  27.970  1.00  0.00     0.040 A 
ATOM     73  C   UNL A   1      34.779  31.092  28.124  1.00  0.00     0.040 A 
ATOM     74  F   UNL A   1      35.730  29.403  29.445  1.00  0.00    -0.206 F 
ATOM     75  C   UNL A   1      34.797  32.392  27.624  1.00  0.00     0.006 A 
ENDBRANCH  54  68
BRANCH  55  76
ATOM     76  C   UNL A   1      44.316  27.831  34.877  1.00  0.00     0.057 A 
ATOM     77  C   UNL A   1      45.596  28.398  34.890  1.00  0.00     0.134 A 
ATOM     78  C   UNL A   1      44.106  26.699  35.675  1.00  0.00     0.134 A 
ATOM     79  F   UNL A   1      45.868  29.470  34.132  1.00  0.00    -0.206 F 
ATOM     80  C   UNL A   1      46.631  27.847  35.648  1.00  0.00     0.040 A 
ATOM     81  C   UNL A   1      45.122  26.156  36.461  1.00  0.00     0.040 A 
ATOM     82  F   UNL A   1      42.901  26.110  35.710  1.00  0.00    -0.206 F 
ATOM     83  C   UNL A   1      46.393  26.726  36.442  1.00  0.00     0.006 A 
ENDBRANCH  55  76
BRANCH  67  84
ATOM     84  C   UNL A   1      39.117  32.293  36.135  1.00  0.00     0.057 A 
ATOM     85  C   UNL A   1      39.543  33.603  36.390  1.00  0.00     0.134 A 
ATOM     86  C   UNL A   1      38.244  31.707  37.061  1.00  0.00     0.134 A 
ATOM     87  F   UNL A   1      40.387  34.221  35.550  1.00  0.00    -0.206 F 
ATOM     88  C   UNL A   1      39.141  34.290  37.538  1.00  0.00     0.040 A 
ATOM     89  C   UNL A   1      37.808  32.395  38.194  1.00  0.00     0.040 A 
ATOM     90  F   UNL A   1      37.786  30.460  36.871  1.00  0.00    -0.206 F 
ATOM     91  C   UNL A   1      38.264  33.689  38.439  1.00  0.00     0.006 A 
ENDBRANCH  67  84
ENDBRANCH  41  42
ENDBRANCH  34  36
ENDBRANCH  33  34
ENDBRANCH  32  33
ENDBRANCH  31  32
ENDBRANCH  30  31
ENDBRANCH   1  30
TORSDOF 20
ENDMDL
MODEL 2
REMARK VINA RESULT:     -11.0      1.786      3.250
REMARK SMILES Cc1cc(=O)oc2cc(O[C@@H](C)C(=O)N[C@H](CC(C)C)C(=O)OCCOCCOC(=O)c3ccc(-c4c5nc(c(-c6c(F)cccc6F)c6ccc([nH]6)c(-c6c(F)cccc6F)c6nc(c(-c7c(F)cccc7F)c7ccc4[nH]7)C=C6)C=C5)cc3)ccc12
REMARK SMILES IDX 25 1 24 2 23 3 21 4 22 5 16 6 15 7 13 8 14 9 11 11 12 12
REMARK SMILES IDX 10 13 9 14 1 15 2 16 3 17 88 18 4 19 7 20 87 21 5 22 6 23
REMARK SMILES IDX 8 24 86 25 17 26 18 27 19 28 20 29 26 30 27 31 28 32 29 33
REMARK SMILES IDX 30 34 31 35 32 36 33 37 85 38 34 39 84 40 35 41 36 42 37 43
REMARK SMILES IDX 78 44 38 45 83 46 77 47 79 48 39 49 82 50 76 51 75 52 40 54
REMARK SMILES IDX 66 55 49 56 65 57 50 58 53 59 64 60 80 61 51 62 52 63 63 65
REMARK SMILES IDX 81 66 54 67 41 68 42 69 47 70 43 71 44 72 46 73 48 74 45 75
REMARK SMILES IDX 67 76 68 77 73 78 69 79 70 80 72 81 74 82 71 83 55 84 56 85
REMARK SMILES IDX 61 86 57 87 58 88 60 89 62 90 59 91
REMARK H PARENT 15 10 79 53 53 64
REMARK Flexibility Score: inf
ROOT
ATOM      1  C   UNL A   1      37.707  23.425  25.981  1.00  0.00     0.202 C 
ENDROOT
BRANCH   1   2
ATOM      2  C   UNL A   1      36.570  23.613  24.848  1.00  0.00     0.261 C 
BRANCH   2   3
ATOM      3  O   UNL A   1      35.132  23.138  25.090  1.00  0.00    -0.462 OA
BRANCH   3   4
ATOM      4  C   UNL A   1      34.536  22.227  25.932  1.00  0.00     0.328 C 
ATOM      5  O   UNL A   1      34.561  22.325  27.162  1.00  0.00    -0.250 OA
BRANCH   4   6
ATOM      6  C   UNL A   1      33.345  21.421  25.512  1.00  0.00     0.192 C 
BRANCH   6   7
ATOM      7  N   UNL A   1      32.236  21.832  26.310  1.00  0.00    -0.339 N 
ATOM      8  C   UNL A   1      31.269  22.661  25.764  1.00  0.00     0.261 C 
ATOM      9  O   UNL A   1      30.146  22.564  26.282  1.00  0.00    -0.271 OA
ATOM     10  H   UNL A   1      32.158  21.526  27.244  1.00  0.00     0.164 HD
BRANCH   8  11
ATOM     11  C   UNL A   1      31.531  23.821  24.552  1.00  0.00     0.258 C 
ATOM     12  C   UNL A   1      31.355  23.163  23.183  1.00  0.00     0.064 C 
BRANCH  11  13
ATOM     13  O   UNL A   1      32.110  25.122  24.343  1.00  0.00    -0.481 OA
BRANCH  13  14
ATOM     14  C   UNL A   1      32.284  26.198  25.156  1.00  0.00     0.124 A 
ATOM     15  C   UNL A   1      35.303  29.626  27.791  1.00  0.00     0.045 C 
ATOM     16  C   UNL A   1      33.914  29.651  27.196  1.00  0.00    -0.033 A 
ATOM     17  C   UNL A   1      33.161  30.746  27.077  1.00  0.00     0.098 A 
ATOM     18  C   UNL A   1      33.325  28.439  26.644  1.00  0.00     0.021 A 
ATOM     19  C   UNL A   1      31.814  30.719  26.470  1.00  0.00     0.336 A 
ATOM     20  C   UNL A   1      31.996  28.344  26.204  1.00  0.00     0.142 A 
ATOM     21  C   UNL A   1      34.114  27.369  26.408  1.00  0.00     0.016 A 
ATOM     22  O   UNL A   1      31.255  31.769  26.170  1.00  0.00    -0.246 OA
ATOM     23  O   UNL A   1      31.186  29.489  26.308  1.00  0.00    -0.423 OA
ATOM     24  C   UNL A   1      31.444  27.221  25.503  1.00  0.00     0.094 A 
ATOM     25  C   UNL A   1      33.551  26.289  25.739  1.00  0.00     0.047 A 
ENDBRANCH  13  14
ENDBRANCH  11  13
ENDBRANCH   8  11
ENDBRANCH   6   7
BRANCH   6  26
ATOM     26  C   UNL A   1      33.998  19.972  25.455  1.00  0.00     0.040 C 
BRANCH  26  27
ATOM     27  C   UNL A   1      33.282  18.834  24.622  1.00  0.00    -0.015 C 
ATOM     28  C   UNL A   1      32.406  19.254  23.438  1.00  0.00     0.007 C 
ATOM     29  C   UNL A   1      34.264  17.765  24.071  1.00  0.00     0.007 C 
ENDBRANCH  26  27
ENDBRANCH   6  26
ENDBRANCH   4   6
ENDBRANCH   3   4
ENDBRANCH   2   3
ENDBRANCH   1   2
BRANCH   1  30
ATOM     30  O   UNL A   1      38.211  22.080  26.102  1.00  0.00    -0.374 OA
BRANCH  30  31
ATOM     31  C   UNL A   1      39.596  21.651  26.063  1.00  0.00     0.202 C 
BRANCH  31  32
ATOM     32  C   UNL A   1      40.687  21.752  27.170  1.00  0.00     0.261 C 
BRANCH  32  33
ATOM     33  O   UNL A   1      40.736  22.985  27.874  1.00  0.00    -0.460 OA
BRANCH  33  34
ATOM     34  C   UNL A   1      41.341  23.982  27.196  1.00  0.00     0.338 C 
ATOM     35  O   UNL A   1      41.931  23.908  26.150  1.00  0.00    -0.246 OA
BRANCH  34  36
ATOM     36  C   UNL A   1      40.940  25.258  27.816  1.00  0.00     0.060 A 
ATOM     37  C   UNL A   1      41.898  26.266  27.730  1.00  0.00     0.016 A 
ATOM     38  C   UNL A   1      39.729  25.462  28.485  1.00  0.00     0.016 A 
ATOM     39  C   UNL A   1      41.716  27.441  28.435  1.00  0.00     0.010 A 
ATOM     40  C   UNL A   1      39.539  26.662  29.185  1.00  0.00     0.010 A 
ATOM     41  C   UNL A   1      40.569  27.619  29.221  1.00  0.00    -0.014 A 
BRANCH  41  42
ATOM     42  C   UNL A   1      40.609  28.718  30.216  1.00  0.00     0.031 A 
ATOM     43  C   UNL A   1      39.564  29.801  30.149  1.00  0.00     0.074 A 
ATOM     44  C   UNL A   1      41.430  28.632  31.279  1.00  0.00     0.049 A 
ATOM     45  N   UNL A   1      39.293  30.746  31.013  1.00  0.00    -0.248 NA
ATOM     46  C   UNL A   1      38.699  29.814  28.958  1.00  0.00     0.031 C 
ATOM     47  C   UNL A   1      42.435  27.589  31.486  1.00  0.00     0.029 A 
ATOM     48  N   UNL A   1      41.510  29.408  32.407  1.00  0.00    -0.354 N 
ATOM     49  C   UNL A   1      38.226  31.456  30.475  1.00  0.00     0.074 A 
ATOM     50  C   UNL A   1      37.931  30.868  29.189  1.00  0.00     0.031 C 
ATOM     51  C   UNL A   1      43.006  27.769  32.688  1.00  0.00     0.029 A 
ATOM     52  C   UNL A   1      42.434  28.957  33.317  1.00  0.00     0.049 A 
ATOM     53  H   UNL A   1      40.957  30.210  32.550  1.00  0.00     0.167 HD
ATOM     54  C   UNL A   1      37.539  32.491  31.013  1.00  0.00     0.037 A 
ATOM     55  C   UNL A   1      42.781  29.450  34.521  1.00  0.00     0.037 A 
ATOM     56  C   UNL A   1      37.829  33.072  32.297  1.00  0.00     0.049 A 
ATOM     57  C   UNL A   1      42.061  30.660  35.055  1.00  0.00     0.074 A 
ATOM     58  C   UNL A   1      37.195  34.127  32.927  1.00  0.00     0.029 A 
ATOM     59  N   UNL A   1      38.841  32.648  33.145  1.00  0.00    -0.354 N 
ATOM     60  N   UNL A   1      41.051  31.317  34.540  1.00  0.00    -0.248 NA
ATOM     61  C   UNL A   1      42.528  31.190  36.344  1.00  0.00     0.031 C 
ATOM     62  C   UNL A   1      37.862  34.382  34.130  1.00  0.00     0.029 A 
ATOM     63  C   UNL A   1      38.869  33.441  34.280  1.00  0.00     0.049 A 
ATOM     64  H   UNL A   1      39.450  31.896  32.966  1.00  0.00     0.167 HD
ATOM     65  C   UNL A   1      40.745  32.321  35.451  1.00  0.00     0.074 A 
ATOM     66  C   UNL A   1      41.664  32.172  36.560  1.00  0.00     0.031 C 
ATOM     67  C   UNL A   1      39.788  33.279  35.378  1.00  0.00     0.037 A 
BRANCH  54  68
ATOM     68  C   UNL A   1      36.423  33.080  30.198  1.00  0.00     0.057 A 
ATOM     69  C   UNL A   1      35.077  32.779  30.451  1.00  0.00     0.134 A 
ATOM     70  C   UNL A   1      36.698  33.985  29.165  1.00  0.00     0.134 A 
ATOM     71  F   UNL A   1      34.744  31.906  31.414  1.00  0.00    -0.206 F 
ATOM     72  C   UNL A   1      34.049  33.339  29.690  1.00  0.00     0.040 A 
ATOM     73  C   UNL A   1      35.678  34.575  28.418  1.00  0.00     0.040 A 
ATOM     74  F   UNL A   1      37.964  34.320  28.872  1.00  0.00    -0.206 F 
ATOM     75  C   UNL A   1      34.348  34.247  28.675  1.00  0.00     0.006 A 
ENDBRANCH  54  68
BRANCH  55  76
ATOM     76  C   UNL A   1      43.870  28.809  35.300  1.00  0.00     0.057 A 
ATOM     77  C   UNL A   1      43.605  27.841  36.276  1.00  0.00     0.134 A 
ATOM     78  C   UNL A   1      45.209  29.170  35.100  1.00  0.00     0.134 A 
ATOM     79  F   UNL A   1      42.342  27.468  36.530  1.00  0.00    -0.206 F 
ATOM     80  C   UNL A   1      44.627  27.272  37.037  1.00  0.00     0.040 A 
ATOM     81  C   UNL A   1      46.244  28.588  35.833  1.00  0.00     0.040 A 
ATOM     82  F   UNL A   1      45.532  30.089  34.178  1.00  0.00    -0.206 F 
ATOM     83  C   UNL A   1      45.952  27.642  36.812  1.00  0.00     0.006 A 
ENDBRANCH  55  76
BRANCH  67  84
ATOM     84  C   UNL A   1      39.661  34.220  36.543  1.00  0.00     0.057 A 
ATOM     85  C   UNL A   1      38.963  33.871  37.706  1.00  0.00     0.134 A 
ATOM     86  C   UNL A   1      40.280  35.476  36.515  1.00  0.00     0.134 A 
ATOM     87  F   UNL A   1      38.338  32.687  37.796  1.00  0.00    -0.206 F 
ATOM     88  C   UNL A   1      38.858  34.751  38.786  1.00  0.00     0.040 A 
ATOM     89  C   UNL A   1      40.211  36.351  37.601  1.00  0.00     0.040 A 
ATOM     90  F   UNL A   1      40.977  35.869  35.438  1.00  0.00    -0.206 F 
ATOM     91  C   UNL A   1      39.490  35.991  38.738  1.00  0.00     0.006 A 
ENDBRANCH  67  84
ENDBRANCH  41  42
ENDBRANCH  34  36
ENDBRANCH  33  34
ENDBRANCH  32  33
ENDBRANCH  31  32
ENDBRANCH  30  31
ENDBRANCH   1  30
TORSDOF 20
ENDMDL
MODEL 3
REMARK VINA RESULT:     -10.8      1.135      2.039
REMARK SMILES Cc1cc(=O)oc2cc(O[C@@H](C)C(=O)N[C@H](CC(C)C)C(=O)OCCOCCOC(=O)c3ccc(-c4c5nc(c(-c6c(F)cccc6F)c6ccc([nH]6)c(-c6c(F)cccc6F)c6nc(c(-c7c(F)cccc7F)c7ccc4[nH]7)C=C6)C=C5)cc3)ccc12
REMARK SMILES IDX 25 1 24 2 23 3 21 4 22 5 16 6 15 7 13 8 14 9 11 11 12 12
REMARK SMILES IDX 10 13 9 14 1 15 2 16 3 17 88 18 4 19 7 20 87 21 5 22 6 23
REMARK SMILES IDX 8 24 86 25 17 26 18 27 19 28 20 29 26 30 27 31 28 32 29 33
REMARK SMILES IDX 30 34 31 35 32 36 33 37 85 38 34 39 84 40 35 41 36 42 37 43
REMARK SMILES IDX 78 44 38 45 83 46 77 47 79 48 39 49 82 50 76 51 75 52 40 54
REMARK SMILES IDX 66 55 49 56 65 57 50 58 53 59 64 60 80 61 51 62 52 63 63 65
REMARK SMILES IDX 81 66 54 67 41 68 42 69 47 70 43 71 44 72 46 73 48 74 45 75
REMARK SMILES IDX 67 76 68 77 73 78 69 79 70 80 72 81 74 82 71 83 55 84 56 85
REMARK SMILES IDX 61 86 57 87 58 88 60 89 62 90 59 91
REMARK H PARENT 15 10 79 53 53 64
REMARK Flexibility Score: inf
ROOT
ATOM      1  C   UNL A   1      40.472  21.750  26.198  1.00  0.00     0.202 C 
ENDROOT
BRANCH   1   2
ATOM      2  C   UNL A   1      38.947  21.238  26.040  1.00  0.00     0.261 C 
BRANCH   2   3
ATOM      3  O   UNL A   1      37.830  22.208  25.636  1.00  0.00    -0.462 OA
BRANCH   3   4
ATOM      4  C   UNL A   1      37.133  23.210  26.272  1.00  0.00     0.328 C 
ATOM      5  O   UNL A   1      37.569  24.357  26.407  1.00  0.00    -0.250 OA
BRANCH   4   6
ATOM      6  C   UNL A   1      35.636  23.227  26.319  1.00  0.00     0.192 C 
BRANCH   6   7
ATOM      7  N   UNL A   1      35.195  21.914  26.662  1.00  0.00    -0.339 N 
ATOM      8  C   UNL A   1      33.871  21.561  26.452  1.00  0.00     0.261 C 
ATOM      9  O   UNL A   1      33.677  20.347  26.279  1.00  0.00    -0.271 OA
ATOM     10  H   UNL A   1      35.827  21.263  27.044  1.00  0.00     0.164 HD
BRANCH   8  11
ATOM     11  C   UNL A   1      32.543  22.617  26.511  1.00  0.00     0.258 C 
ATOM     12  C   UNL A   1      31.414  22.052  25.647  1.00  0.00     0.064 C 
BRANCH  11  13
ATOM     13  O   UNL A   1      32.193  23.968  26.862  1.00  0.00    -0.481 OA
BRANCH  13  14
ATOM     14  C   UNL A   1      32.062  25.109  26.134  1.00  0.00     0.124 A 
ATOM     15  C   UNL A   1      29.482  28.226  22.753  1.00  0.00     0.045 C 
ATOM     16  C   UNL A   1      30.478  28.440  23.869  1.00  0.00    -0.033 A 
ATOM     17  C   UNL A   1      30.809  29.632  24.370  1.00  0.00     0.098 A 
ATOM     18  C   UNL A   1      31.112  27.304  24.522  1.00  0.00     0.021 A 
ATOM     19  C   UNL A   1      31.777  29.785  25.476  1.00  0.00     0.336 A 
ATOM     20  C   UNL A   1      32.146  27.417  25.463  1.00  0.00     0.142 A 
ATOM     21  C   UNL A   1      30.608  26.066  24.330  1.00  0.00     0.016 A 
ATOM     22  O   UNL A   1      31.878  30.860  26.057  1.00  0.00    -0.246 OA
ATOM     23  O   UNL A   1      32.598  28.708  25.789  1.00  0.00    -0.423 OA
ATOM     24  C   UNL A   1      32.666  26.332  26.243  1.00  0.00     0.094 A 
ATOM     25  C   UNL A   1      31.138  25.030  25.088  1.00  0.00     0.047 A 
ENDBRANCH  13  14
ENDBRANCH  11  13
ENDBRANCH   8  11
ENDBRANCH   6   7
BRANCH   6  26
ATOM     26  C   UNL A   1      35.326  24.020  24.976  1.00  0.00     0.040 C 
BRANCH  26  27
ATOM     27  C   UNL A   1      34.978  23.209  23.663  1.00  0.00    -0.015 C 
ATOM     28  C   UNL A   1      33.878  23.759  22.750  1.00  0.00     0.007 C 
ATOM     29  C   UNL A   1      36.210  22.960  22.751  1.00  0.00     0.007 C 
ENDBRANCH  26  27
ENDBRANCH   6  26
ENDBRANCH   4   6
ENDBRANCH   3   4
ENDBRANCH   2   3
ENDBRANCH   1   2
BRANCH   1  30
ATOM     30  O   UNL A   1      41.428  20.703  26.457  1.00  0.00    -0.374 OA
BRANCH  30  31
ATOM     31  C   UNL A   1      42.789  20.610  25.965  1.00  0.00     0.202 C 
BRANCH  31  32
ATOM     32  C   UNL A   1      43.782  21.753  25.602  1.00  0.00     0.261 C 
BRANCH  32  33
ATOM     33  O   UNL A   1      43.784  22.868  26.482  1.00  0.00    -0.460 OA
BRANCH  33  34
ATOM     34  C   UNL A   1      43.790  24.063  25.856  1.00  0.00     0.338 C 
ATOM     35  O   UNL A   1      44.181  24.310  24.745  1.00  0.00    -0.246 OA
BRANCH  34  36
ATOM     36  C   UNL A   1      42.990  25.000  26.665  1.00  0.00     0.060 A 
ATOM     37  C   UNL A   1      43.383  26.333  26.558  1.00  0.00     0.016 A 
ATOM     38  C   UNL A   1      41.950  24.616  27.516  1.00  0.00     0.016 A 
ATOM     39  C   UNL A   1      42.834  27.275  27.408  1.00  0.00     0.010 A 
ATOM     40  C   UNL A   1      41.382  25.577  28.365  1.00  0.00     0.010 A 
ATOM     41  C   UNL A   1      41.881  26.892  28.362  1.00  0.00    -0.014 A 
BRANCH  41  42
ATOM     42  C   UNL A   1      41.614  27.854  29.458  1.00  0.00     0.031 A 
ATOM     43  C   UNL A   1      40.419  28.766  29.352  1.00  0.00     0.074 A 
ATOM     44  C   UNL A   1      42.299  27.767  30.613  1.00  0.00     0.049 A 
ATOM     45  N   UNL A   1      39.888  29.546  30.260  1.00  0.00    -0.248 NA
ATOM     46  C   UNL A   1      39.717  28.791  28.058  1.00  0.00     0.031 C 
ATOM     47  C   UNL A   1      43.432  26.872  30.854  1.00  0.00     0.029 A 
ATOM     48  N   UNL A   1      42.108  28.402  31.813  1.00  0.00    -0.354 N 
ATOM     49  C   UNL A   1      38.792  30.145  29.650  1.00  0.00     0.074 A 
ATOM     50  C   UNL A   1      38.761  29.679  28.282  1.00  0.00     0.031 C 
ATOM     51  C   UNL A   1      43.811  26.989  32.137  1.00  0.00     0.029 A 
ATOM     52  C   UNL A   1      42.976  27.991  32.795  1.00  0.00     0.049 A 
ATOM     53  H   UNL A   1      41.416  29.087  31.956  1.00  0.00     0.167 HD
ATOM     54  C   UNL A   1      37.880  30.989  30.186  1.00  0.00     0.037 A 
ATOM     55  C   UNL A   1      43.083  28.381  34.079  1.00  0.00     0.037 A 
ATOM     56  C   UNL A   1      37.908  31.447  31.550  1.00  0.00     0.049 A 
ATOM     57  C   UNL A   1      42.111  29.392  34.624  1.00  0.00     0.074 A 
ATOM     58  C   UNL A   1      37.033  32.309  32.186  1.00  0.00     0.029 A 
ATOM     59  N   UNL A   1      38.864  31.083  32.486  1.00  0.00    -0.354 N 
ATOM     60  N   UNL A   1      41.076  29.945  34.040  1.00  0.00    -0.248 NA
ATOM     61  C   UNL A   1      42.319  29.827  36.012  1.00  0.00     0.031 C 
ATOM     62  C   UNL A   1      37.494  32.514  33.491  1.00  0.00     0.029 A 
ATOM     63  C   UNL A   1      38.618  31.727  33.687  1.00  0.00     0.049 A 
ATOM     64  H   UNL A   1      39.608  30.460  32.321  1.00  0.00     0.167 HD
ATOM     65  C   UNL A   1      40.496  30.772  34.994  1.00  0.00     0.074 A 
ATOM     66  C   UNL A   1      41.283  30.632  36.201  1.00  0.00     0.031 C 
ATOM     67  C   UNL A   1      39.408  31.575  34.882  1.00  0.00     0.037 A 
BRANCH  54  68
ATOM     68  C   UNL A   1      36.791  31.495  29.285  1.00  0.00     0.057 A 
ATOM     69  C   UNL A   1      35.700  30.697  28.913  1.00  0.00     0.134 A 
ATOM     70  C   UNL A   1      36.818  32.812  28.806  1.00  0.00     0.134 A 
ATOM     71  F   UNL A   1      35.620  29.421  29.321  1.00  0.00    -0.206 F 
ATOM     72  C   UNL A   1      34.690  31.183  28.080  1.00  0.00     0.040 A 
ATOM     73  C   UNL A   1      35.800  33.318  27.998  1.00  0.00     0.040 A 
ATOM     74  F   UNL A   1      37.832  33.631  29.126  1.00  0.00    -0.206 F 
ATOM     75  C   UNL A   1      34.734  32.500  27.626  1.00  0.00     0.006 A 
ENDBRANCH  54  68
BRANCH  55  76
ATOM     76  C   UNL A   1      44.160  27.824  34.936  1.00  0.00     0.057 A 
ATOM     77  C   UNL A   1      45.374  28.497  35.121  1.00  0.00     0.134 A 
ATOM     78  C   UNL A   1      44.007  26.586  35.575  1.00  0.00     0.134 A 
ATOM     79  F   UNL A   1      45.590  29.675  34.520  1.00  0.00    -0.206 F 
ATOM     80  C   UNL A   1      46.401  27.950  35.892  1.00  0.00     0.040 A 
ATOM     81  C   UNL A   1      45.014  26.043  36.373  1.00  0.00     0.040 A 
ATOM     82  F   UNL A   1      42.867  25.892  35.441  1.00  0.00    -0.206 F 
ATOM     83  C   UNL A   1      46.220  26.722  36.525  1.00  0.00     0.006 A 
ENDBRANCH  55  76
BRANCH  67  84
ATOM     84  C   UNL A   1      38.983  32.336  36.106  1.00  0.00     0.057 A 
ATOM     85  C   UNL A   1      38.163  31.765  37.088  1.00  0.00     0.134 A 
ATOM     86  C   UNL A   1      39.432  33.646  36.323  1.00  0.00     0.134 A 
ATOM     87  F   UNL A   1      37.689  30.519  36.938  1.00  0.00    -0.206 F 
ATOM     88  C   UNL A   1      37.780  32.480  38.225  1.00  0.00     0.040 A 
ATOM     89  C   UNL A   1      39.084  34.358  37.471  1.00  0.00     0.040 A 
ATOM     90  F   UNL A   1      40.232  34.249  35.430  1.00  0.00    -0.206 F 
ATOM     91  C   UNL A   1      38.248  33.778  38.422  1.00  0.00     0.006 A 
ENDBRANCH  67  84
ENDBRANCH  41  42
ENDBRANCH  34  36
ENDBRANCH  33  34
ENDBRANCH  32  33
ENDBRANCH  31  32
ENDBRANCH  30  31
ENDBRANCH   1  30
TORSDOF 20
ENDMDL
