MODEL 1
REMARK VINA RESULT:      -8.6      0.000      0.000
REMARK SMILES CCC(CC)(C[C@H](O)COC)C(=O)OCCOCCOC(=O)c1ccc(-c2c3nc(c(-c4c(F)cccc4F)c4ccc([nH]4)c(-c4c(F)cccc4F)c4nc(c(-c5c(F)cccc5F)c5ccc2[nH]5)C=C4)C=C3)cc1
REMARK SMILES IDX 16 1 15 2 14 3 12 4 13 5 3 6 2 7 1 8 4 9 5 10 6 11 7 12 9 13
REMARK SMILES IDX 10 14 11 15 8 16 17 18 18 19 19 20 20 21 21 22 22 23 23 24
REMARK SMILES IDX 24 25 76 26 25 27 75 28 26 29 27 30 28 31 69 32 29 33 74 34
REMARK SMILES IDX 68 35 70 36 30 37 73 38 67 39 66 40 31 42 57 43 40 44 56 45
REMARK SMILES IDX 41 46 44 47 55 48 71 49 42 50 43 51 54 53 72 54 45 55 32 56
REMARK SMILES IDX 33 57 38 58 34 59 35 60 37 61 39 62 36 63 58 64 59 65 64 66
REMARK SMILES IDX 60 67 61 68 63 69 65 70 62 71 46 72 47 73 52 74 48 75 49 76
REMARK SMILES IDX 51 77 53 78 50 79
REMARK H PARENT 8 17 70 41 44 52
REMARK Flexibility Score: inf
ROOT
ATOM      1  C   UNL A   1      32.081  29.586  27.162  1.00  0.00     0.202 C 
ENDROOT
BRANCH   1   2
ATOM      2  C   UNL A   1      33.252  28.593  27.202  1.00  0.00     0.261 C 
BRANCH   2   3
ATOM      3  O   UNL A   1      32.954  27.224  26.854  1.00  0.00    -0.463 OA
BRANCH   3   4
ATOM      4  C   UNL A   1      33.092  26.934  25.526  1.00  0.00     0.312 C 
ATOM      5  O   UNL A   1      33.437  27.769  24.700  1.00  0.00    -0.252 OA
BRANCH   4   6
ATOM      6  C   UNL A   1      32.615  25.506  25.147  1.00  0.00     0.070 C 
BRANCH   6   7
ATOM      7  C   UNL A   1      32.465  24.641  26.438  1.00  0.00     0.015 C 
ATOM      8  C   UNL A   1      31.584  23.392  26.359  1.00  0.00     0.005 C 
ENDBRANCH   6   7
BRANCH   6   9
ATOM      9  C   UNL A   1      33.760  24.967  24.222  1.00  0.00     0.015 C 
ATOM     10  C   UNL A   1      34.992  24.401  24.927  1.00  0.00     0.005 C 
ENDBRANCH   6   9
BRANCH   6  11
ATOM     11  C   UNL A   1      31.286  25.498  24.313  1.00  0.00     0.053 C 
BRANCH  11  12
ATOM     12  C   UNL A   1      30.109  26.420  24.697  1.00  0.00     0.141 C 
BRANCH  12  13
ATOM     13  C   UNL A   1      29.458  27.119  23.500  1.00  0.00     0.191 C 
BRANCH  13  14
ATOM     14  O   UNL A   1      30.375  27.596  22.516  1.00  0.00    -0.382 OA
ATOM     15  C   UNL A   1      30.759  28.954  22.691  1.00  0.00     0.195 C 
ENDBRANCH  13  14
ENDBRANCH  12  13
BRANCH  12  16
ATOM     16  O   UNL A   1      29.144  25.583  25.359  1.00  0.00    -0.391 OA
ATOM     17  H   UNL A   1      29.571  25.118  26.096  1.00  0.00     0.211 HD
ENDBRANCH  12  16
ENDBRANCH  11  12
ENDBRANCH   6  11
ENDBRANCH   4   6
ENDBRANCH   3   4
ENDBRANCH   2   3
ENDBRANCH   1   2
BRANCH   1  18
ATOM     18  O   UNL A   1      32.148  30.654  26.225  1.00  0.00    -0.374 OA
BRANCH  18  19
ATOM     19  C   UNL A   1      31.193  31.705  26.364  1.00  0.00     0.202 C 
BRANCH  19  20
ATOM     20  C   UNL A   1      31.782  33.106  26.550  1.00  0.00     0.261 C 
BRANCH  20  21
ATOM     21  O   UNL A   1      32.158  33.299  27.925  1.00  0.00    -0.460 OA
BRANCH  21  22
ATOM     22  C   UNL A   1      33.181  34.161  28.091  1.00  0.00     0.338 C 
ATOM     23  O   UNL A   1      33.126  35.380  28.128  1.00  0.00    -0.246 OA
BRANCH  22  24
ATOM     24  C   UNL A   1      34.382  33.391  28.443  1.00  0.00     0.060 A 
ATOM     25  C   UNL A   1      34.213  32.038  28.755  1.00  0.00     0.016 A 
ATOM     26  C   UNL A   1      35.626  34.008  28.583  1.00  0.00     0.016 A 
ATOM     27  C   UNL A   1      35.278  31.314  29.284  1.00  0.00     0.010 A 
ATOM     28  C   UNL A   1      36.700  33.273  29.101  1.00  0.00     0.010 A 
ATOM     29  C   UNL A   1      36.514  31.939  29.505  1.00  0.00    -0.014 A 
BRANCH  29  30
ATOM     30  C   UNL A   1      37.527  31.226  30.325  1.00  0.00     0.031 A 
ATOM     31  C   UNL A   1      38.444  30.238  29.653  1.00  0.00     0.074 A 
ATOM     32  C   UNL A   1      37.703  31.534  31.622  1.00  0.00     0.049 A 
ATOM     33  N   UNL A   1      39.490  29.617  30.136  1.00  0.00    -0.248 NA
ATOM     34  C   UNL A   1      38.145  29.910  28.250  1.00  0.00     0.031 C 
ATOM     35  C   UNL A   1      36.888  32.478  32.384  1.00  0.00     0.029 A 
ATOM     36  N   UNL A   1      38.644  31.097  32.520  1.00  0.00    -0.354 N 
ATOM     37  C   UNL A   1      39.986  28.846  29.091  1.00  0.00     0.074 A 
ATOM     38  C   UNL A   1      39.098  29.036  27.965  1.00  0.00     0.031 C 
ATOM     39  C   UNL A   1      37.373  32.561  33.634  1.00  0.00     0.029 A 
ATOM     40  C   UNL A   1      38.531  31.676  33.760  1.00  0.00     0.049 A 
ATOM     41  H   UNL A   1      39.334  30.431  32.297  1.00  0.00     0.167 HD
ATOM     42  C   UNL A   1      41.094  28.067  29.062  1.00  0.00     0.037 A 
ATOM     43  C   UNL A   1      39.287  31.522  34.865  1.00  0.00     0.037 A 
ATOM     44  C   UNL A   1      41.973  27.862  30.182  1.00  0.00     0.049 A 
ATOM     45  C   UNL A   1      40.499  30.633  34.816  1.00  0.00     0.074 A 
ATOM     46  C   UNL A   1      43.108  27.074  30.258  1.00  0.00     0.029 A 
ATOM     47  N   UNL A   1      41.810  28.452  31.426  1.00  0.00    -0.354 N 
ATOM     48  N   UNL A   1      40.973  29.935  33.812  1.00  0.00    -0.248 NA
ATOM     49  C   UNL A   1      41.293  30.525  36.050  1.00  0.00     0.031 C 
ATOM     50  C   UNL A   1      43.619  27.167  31.558  1.00  0.00     0.029 A 
ATOM     51  C   UNL A   1      42.819  28.039  32.279  1.00  0.00     0.049 A 
ATOM     52  H   UNL A   1      41.084  29.072  31.667  1.00  0.00     0.167 HD
ATOM     53  C   UNL A   1      42.123  29.317  34.286  1.00  0.00     0.074 A 
ATOM     54  C   UNL A   1      42.289  29.741  35.661  1.00  0.00     0.031 C 
ATOM     55  C   UNL A   1      42.965  28.469  33.645  1.00  0.00     0.037 A 
BRANCH  42  56
ATOM     56  C   UNL A   1      41.409  27.376  27.770  1.00  0.00     0.057 A 
ATOM     57  C   UNL A   1      42.162  28.006  26.769  1.00  0.00     0.134 A 
ATOM     58  C   UNL A   1      40.978  26.066  27.529  1.00  0.00     0.134 A 
ATOM     59  F   UNL A   1      42.590  29.266  26.934  1.00  0.00    -0.206 F 
ATOM     60  C   UNL A   1      42.459  27.363  25.567  1.00  0.00     0.040 A 
ATOM     61  C   UNL A   1      41.286  25.405  26.338  1.00  0.00     0.040 A 
ATOM     62  F   UNL A   1      40.255  25.408  28.446  1.00  0.00    -0.206 F 
ATOM     63  C   UNL A   1      42.024  26.057  25.351  1.00  0.00     0.006 A 
ENDBRANCH  42  56
BRANCH  43  64
ATOM     64  C   UNL A   1      38.929  32.246  36.110  1.00  0.00     0.057 A 
ATOM     65  C   UNL A   1      38.154  31.642  37.107  1.00  0.00     0.134 A 
ATOM     66  C   UNL A   1      39.347  33.564  36.325  1.00  0.00     0.134 A 
ATOM     67  F   UNL A   1      37.706  30.389  36.947  1.00  0.00    -0.206 F 
ATOM     68  C   UNL A   1      37.796  32.328  38.268  1.00  0.00     0.040 A 
ATOM     69  C   UNL A   1      39.014  34.254  37.491  1.00  0.00     0.040 A 
ATOM     70  F   UNL A   1      40.093  34.196  35.407  1.00  0.00    -0.206 F 
ATOM     71  C   UNL A   1      38.232  33.637  38.465  1.00  0.00     0.006 A 
ENDBRANCH  43  64
BRANCH  55  72
ATOM     72  C   UNL A   1      44.137  27.954  34.424  1.00  0.00     0.057 A 
ATOM     73  C   UNL A   1      45.355  28.644  34.456  1.00  0.00     0.134 A 
ATOM     74  C   UNL A   1      44.039  26.772  35.168  1.00  0.00     0.134 A 
ATOM     75  F   UNL A   1      45.514  29.777  33.756  1.00  0.00    -0.206 F 
ATOM     76  C   UNL A   1      46.445  28.163  35.183  1.00  0.00     0.040 A 
ATOM     77  C   UNL A   1      45.116  26.292  35.915  1.00  0.00     0.040 A 
ATOM     78  F   UNL A   1      42.897  26.069  35.184  1.00  0.00    -0.206 F 
ATOM     79  C   UNL A   1      46.325  26.985  35.919  1.00  0.00     0.006 A 
ENDBRANCH  55  72
ENDBRANCH  29  30
ENDBRANCH  22  24
ENDBRANCH  21  22
ENDBRANCH  20  21
ENDBRANCH  19  20
ENDBRANCH  18  19
ENDBRANCH   1  18
TORSDOF 21
ENDMDL
MODEL 2
REMARK VINA RESULT:      -8.5      2.066      7.043
REMARK SMILES CCC(CC)(C[C@H](O)COC)C(=O)OCCOCCOC(=O)c1ccc(-c2c3nc(c(-c4c(F)cccc4F)c4ccc([nH]4)c(-c4c(F)cccc4F)c4nc(c(-c5c(F)cccc5F)c5ccc2[nH]5)C=C4)C=C3)cc1
REMARK SMILES IDX 16 1 15 2 14 3 12 4 13 5 3 6 2 7 1 8 4 9 5 10 6 11 7 12 9 13
REMARK SMILES IDX 10 14 11 15 8 16 17 18 18 19 19 20 20 21 21 22 22 23 23 24
REMARK SMILES IDX 24 25 76 26 25 27 75 28 26 29 27 30 28 31 69 32 29 33 74 34
REMARK SMILES IDX 68 35 70 36 30 37 73 38 67 39 66 40 31 42 57 43 40 44 56 45
REMARK SMILES IDX 41 46 44 47 55 48 71 49 42 50 43 51 54 53 72 54 45 55 32 56
REMARK SMILES IDX 33 57 38 58 34 59 35 60 37 61 39 62 36 63 58 64 59 65 64 66
REMARK SMILES IDX 60 67 61 68 63 69 65 70 62 71 46 72 47 73 52 74 48 75 49 76
REMARK SMILES IDX 51 77 53 78 50 79
REMARK H PARENT 8 17 70 41 44 52
REMARK Flexibility Score: inf
ROOT
ATOM      1  C   UNL A   1      32.012  26.860  26.463  1.00  0.00     0.202 C 
ENDROOT
BRANCH   1   2
ATOM      2  C   UNL A   1      33.265  26.568  25.625  1.00  0.00     0.261 C 
BRANCH   2   3
ATOM      3  O   UNL A   1      33.125  25.599  24.565  1.00  0.00    -0.463 OA
BRANCH   3   4
ATOM      4  C   UNL A   1      33.889  24.477  24.718  1.00  0.00     0.312 C 
ATOM      5  O   UNL A   1      35.100  24.521  24.893  1.00  0.00    -0.252 OA
BRANCH   4   6
ATOM      6  C   UNL A   1      33.109  23.155  24.486  1.00  0.00     0.070 C 
BRANCH   6   7
ATOM      7  C   UNL A   1      32.176  23.306  23.243  1.00  0.00     0.015 C 
ATOM      8  C   UNL A   1      30.708  23.657  23.495  1.00  0.00     0.005 C 
ENDBRANCH   6   7
BRANCH   6   9
ATOM      9  C   UNL A   1      32.286  22.974  25.808  1.00  0.00     0.015 C 
ATOM     10  C   UNL A   1      33.062  23.126  27.115  1.00  0.00     0.005 C 
ENDBRANCH   6   9
BRANCH   6  11
ATOM     11  C   UNL A   1      34.043  21.903  24.333  1.00  0.00     0.053 C 
BRANCH  11  12
ATOM     12  C   UNL A   1      33.720  20.584  25.068  1.00  0.00     0.141 C 
BRANCH  12  13
ATOM     13  C   UNL A   1      32.826  19.635  24.265  1.00  0.00     0.191 C 
BRANCH  13  14
ATOM     14  O   UNL A   1      32.156  18.644  25.044  1.00  0.00    -0.382 OA
ATOM     15  C   UNL A   1      32.658  17.326  24.864  1.00  0.00     0.195 C 
ENDBRANCH  13  14
ENDBRANCH  12  13
BRANCH  12  16
ATOM     16  O   UNL A   1      34.985  19.955  25.336  1.00  0.00    -0.391 OA
ATOM     17  H   UNL A   1      34.985  19.057  24.966  1.00  0.00     0.211 HD
ENDBRANCH  12  16
ENDBRANCH  11  12
ENDBRANCH   6  11
ENDBRANCH   4   6
ENDBRANCH   3   4
ENDBRANCH   2   3
ENDBRANCH   1   2
BRANCH   1  18
ATOM     18  O   UNL A   1      31.740  28.216  26.798  1.00  0.00    -0.374 OA
BRANCH  18  19
ATOM     19  C   UNL A   1      31.580  29.135  25.718  1.00  0.00     0.202 C 
BRANCH  19  20
ATOM     20  C   UNL A   1      31.955  30.586  26.030  1.00  0.00     0.261 C 
BRANCH  20  21
ATOM     21  O   UNL A   1      32.596  30.659  27.315  1.00  0.00    -0.460 OA
BRANCH  21  22
ATOM     22  C   UNL A   1      33.296  31.795  27.509  1.00  0.00     0.338 C 
ATOM     23  O   UNL A   1      32.856  32.928  27.618  1.00  0.00    -0.246 OA
BRANCH  22  24
ATOM     24  C   UNL A   1      34.693  31.435  27.787  1.00  0.00     0.060 A 
ATOM     25  C   UNL A   1      34.983  30.082  27.990  1.00  0.00     0.016 A 
ATOM     26  C   UNL A   1      35.674  32.413  27.968  1.00  0.00     0.016 A 
ATOM     27  C   UNL A   1      36.243  29.708  28.450  1.00  0.00     0.010 A 
ATOM     28  C   UNL A   1      36.945  32.032  28.415  1.00  0.00     0.010 A 
ATOM     29  C   UNL A   1      37.216  30.684  28.711  1.00  0.00    -0.014 A 
BRANCH  29  30
ATOM     30  C   UNL A   1      38.433  30.282  29.463  1.00  0.00     0.031 A 
ATOM     31  C   UNL A   1      38.600  30.752  30.884  1.00  0.00     0.074 A 
ATOM     32  C   UNL A   1      39.319  29.424  28.929  1.00  0.00     0.049 A 
ATOM     33  N   UNL A   1      39.498  30.406  31.771  1.00  0.00    -0.248 NA
ATOM     34  C   UNL A   1      37.622  31.738  31.371  1.00  0.00     0.031 C 
ATOM     35  C   UNL A   1      39.265  28.890  27.569  1.00  0.00     0.029 A 
ATOM     36  N   UNL A   1      40.428  28.833  29.480  1.00  0.00    -0.354 N 
ATOM     37  C   UNL A   1      39.180  31.112  32.925  1.00  0.00     0.074 A 
ATOM     38  C   UNL A   1      38.039  31.945  32.611  1.00  0.00     0.031 C 
ATOM     39  C   UNL A   1      40.289  28.038  27.395  1.00  0.00     0.029 A 
ATOM     40  C   UNL A   1      41.069  27.966  28.629  1.00  0.00     0.049 A 
ATOM     41  H   UNL A   1      40.735  29.013  30.398  1.00  0.00     0.167 HD
ATOM     42  C   UNL A   1      39.768  31.058  34.144  1.00  0.00     0.037 A 
ATOM     43  C   UNL A   1      42.153  27.191  28.830  1.00  0.00     0.037 A 
ATOM     44  C   UNL A   1      40.911  30.244  34.459  1.00  0.00     0.049 A 
ATOM     45  C   UNL A   1      42.804  27.164  30.186  1.00  0.00     0.074 A 
ATOM     46  C   UNL A   1      41.592  30.136  35.659  1.00  0.00     0.029 A 
ATOM     47  N   UNL A   1      41.542  29.396  33.561  1.00  0.00    -0.354 N 
ATOM     48  N   UNL A   1      42.473  27.814  31.275  1.00  0.00    -0.248 NA
ATOM     49  C   UNL A   1      43.970  26.281  30.345  1.00  0.00     0.031 C 
ATOM     50  C   UNL A   1      42.654  29.241  35.480  1.00  0.00     0.029 A 
ATOM     51  C   UNL A   1      42.610  28.768  34.178  1.00  0.00     0.049 A 
ATOM     52  H   UNL A   1      41.271  29.261  32.625  1.00  0.00     0.167 HD
ATOM     53  C   UNL A   1      43.377  27.411  32.250  1.00  0.00     0.074 A 
ATOM     54  C   UNL A   1      44.257  26.443  31.629  1.00  0.00     0.031 C 
ATOM     55  C   UNL A   1      43.476  27.810  33.542  1.00  0.00     0.037 A 
BRANCH  42  56
ATOM     56  C   UNL A   1      39.179  31.912  35.225  1.00  0.00     0.057 A 
ATOM     57  C   UNL A   1      38.314  31.376  36.190  1.00  0.00     0.134 A 
ATOM     58  C   UNL A   1      39.491  33.273  35.321  1.00  0.00     0.134 A 
ATOM     59  F   UNL A   1      37.963  30.083  36.143  1.00  0.00    -0.206 F 
ATOM     60  C   UNL A   1      37.766  32.169  37.199  1.00  0.00     0.040 A 
ATOM     61  C   UNL A   1      38.966  34.072  36.337  1.00  0.00     0.040 A 
ATOM     62  F   UNL A   1      40.313  33.846  34.429  1.00  0.00    -0.206 F 
ATOM     63  C   UNL A   1      38.097  33.521  37.277  1.00  0.00     0.006 A 
ENDBRANCH  42  56
BRANCH  43  64
ATOM     64  C   UNL A   1      42.679  26.357  27.722  1.00  0.00     0.057 A 
ATOM     65  C   UNL A   1      42.244  25.041  27.530  1.00  0.00     0.134 A 
ATOM     66  C   UNL A   1      43.639  26.856  26.834  1.00  0.00     0.134 A 
ATOM     67  F   UNL A   1      41.342  24.500  28.362  1.00  0.00    -0.206 F 
ATOM     68  C   UNL A   1      42.754  24.246  26.502  1.00  0.00     0.040 A 
ATOM     69  C   UNL A   1      44.142  26.080  25.790  1.00  0.00     0.040 A 
ATOM     70  F   UNL A   1      44.095  28.111  26.965  1.00  0.00    -0.206 F 
ATOM     71  C   UNL A   1      43.703  24.768  25.625  1.00  0.00     0.006 A 
ENDBRANCH  43  64
BRANCH  55  72
ATOM     72  C   UNL A   1      44.568  27.194  34.364  1.00  0.00     0.057 A 
ATOM     73  C   UNL A   1      44.373  25.998  35.064  1.00  0.00     0.134 A 
ATOM     74  C   UNL A   1      45.834  27.790  34.434  1.00  0.00     0.134 A 
ATOM     75  F   UNL A   1      43.179  25.386  35.043  1.00  0.00    -0.206 F 
ATOM     76  C   UNL A   1      45.391  25.425  35.827  1.00  0.00     0.040 A 
ATOM     77  C   UNL A   1      46.866  27.217  35.178  1.00  0.00     0.040 A 
ATOM     78  F   UNL A   1      46.088  28.932  33.780  1.00  0.00    -0.206 F 
ATOM     79  C   UNL A   1      46.645  26.034  35.882  1.00  0.00     0.006 A 
ENDBRANCH  55  72
ENDBRANCH  29  30
ENDBRANCH  22  24
ENDBRANCH  21  22
ENDBRANCH  20  21
ENDBRANCH  19  20
ENDBRANCH  18  19
ENDBRANCH   1  18
TORSDOF 21
ENDMDL
MODEL 3
REMARK VINA RESULT:      -8.5      1.275      6.586
REMARK SMILES CCC(CC)(C[C@H](O)COC)C(=O)OCCOCCOC(=O)c1ccc(-c2c3nc(c(-c4c(F)cccc4F)c4ccc([nH]4)c(-c4c(F)cccc4F)c4nc(c(-c5c(F)cccc5F)c5ccc2[nH]5)C=C4)C=C3)cc1
REMARK SMILES IDX 16 1 15 2 14 3 12 4 13 5 3 6 2 7 1 8 4 9 5 10 6 11 7 12 9 13
REMARK SMILES IDX 10 14 11 15 8 16 17 18 18 19 19 20 20 21 21 22 22 23 23 24
REMARK SMILES IDX 24 25 76 26 25 27 75 28 26 29 27 30 28 31 69 32 29 33 74 34
REMARK SMILES IDX 68 35 70 36 30 37 73 38 67 39 66 40 31 42 57 43 40 44 56 45
REMARK SMILES IDX 41 46 44 47 55 48 71 49 42 50 43 51 54 53 72 54 45 55 32 56
REMARK SMILES IDX 33 57 38 58 34 59 35 60 37 61 39 62 36 63 58 64 59 65 64 66
REMARK SMILES IDX 60 67 61 68 63 69 65 70 62 71 46 72 47 73 52 74 48 75 49 76
REMARK SMILES IDX 51 77 53 78 50 79
REMARK H PARENT 8 17 70 41 44 52
REMARK Flexibility Score: inf
ROOT
ATOM      1  C   UNL A   1      32.109  29.452  27.164  1.00  0.00     0.202 C 
ENDROOT
BRANCH   1   2
ATOM      2  C   UNL A   1      32.846  28.197  26.673  1.00  0.00     0.261 C 
BRANCH   2   3
ATOM      3  O   UNL A   1      32.042  27.179  26.039  1.00  0.00    -0.463 OA
BRANCH   3   4
ATOM      4  C   UNL A   1      32.587  26.653  24.903  1.00  0.00     0.312 C 
ATOM      5  O   UNL A   1      33.791  26.470  24.771  1.00  0.00    -0.252 OA
BRANCH   4   6
ATOM      6  C   UNL A   1      31.566  26.467  23.749  1.00  0.00     0.070 C 
BRANCH   6   7
ATOM      7  C   UNL A   1      31.036  24.999  23.746  1.00  0.00     0.015 C 
ATOM      8  C   UNL A   1      31.127  24.207  25.052  1.00  0.00     0.005 C 
ENDBRANCH   6   7
BRANCH   6   9
ATOM      9  C   UNL A   1      32.402  26.782  22.461  1.00  0.00     0.015 C 
ATOM     10  C   UNL A   1      32.162  25.870  21.258  1.00  0.00     0.005 C 
ENDBRANCH   6   9
BRANCH   6  11
ATOM     11  C   UNL A   1      30.375  27.489  23.805  1.00  0.00     0.053 C 
BRANCH  11  12
ATOM     12  C   UNL A   1      30.432  28.808  23.005  1.00  0.00     0.141 C 
BRANCH  12  13
ATOM     13  C   UNL A   1      29.055  29.414  22.717  1.00  0.00     0.191 C 
BRANCH  13  14
ATOM     14  O   UNL A   1      28.912  30.780  23.104  1.00  0.00    -0.382 OA
ATOM     15  C   UNL A   1      28.773  31.681  22.012  1.00  0.00     0.195 C 
ENDBRANCH  13  14
ENDBRANCH  12  13
BRANCH  12  16
ATOM     16  O   UNL A   1      31.213  29.723  23.796  1.00  0.00    -0.391 OA
ATOM     17  H   UNL A   1      30.623  30.247  24.360  1.00  0.00     0.211 HD
ENDBRANCH  12  16
ENDBRANCH  11  12
ENDBRANCH   6  11
ENDBRANCH   4   6
ENDBRANCH   3   4
ENDBRANCH   2   3
ENDBRANCH   1   2
BRANCH   1  18
ATOM     18  O   UNL A   1      32.366  30.678  26.488  1.00  0.00    -0.374 OA
BRANCH  18  19
ATOM     19  C   UNL A   1      31.332  31.661  26.508  1.00  0.00     0.202 C 
BRANCH  19  20
ATOM     20  C   UNL A   1      31.781  33.077  26.879  1.00  0.00     0.261 C 
BRANCH  20  21
ATOM     21  O   UNL A   1      33.075  33.031  27.504  1.00  0.00    -0.460 OA
BRANCH  21  22
ATOM     22  C   UNL A   1      33.286  34.024  28.391  1.00  0.00     0.338 C 
ATOM     23  O   UNL A   1      32.566  34.985  28.613  1.00  0.00    -0.246 OA
BRANCH  22  24
ATOM     24  C   UNL A   1      34.439  33.661  29.227  1.00  0.00     0.060 A 
ATOM     25  C   UNL A   1      35.686  34.183  28.867  1.00  0.00     0.016 A 
ATOM     26  C   UNL A   1      34.322  32.734  30.263  1.00  0.00     0.016 A 
ATOM     27  C   UNL A   1      36.835  33.717  29.499  1.00  0.00     0.010 A 
ATOM     28  C   UNL A   1      35.479  32.279  30.908  1.00  0.00     0.010 A 
ATOM     29  C   UNL A   1      36.744  32.728  30.490  1.00  0.00    -0.014 A 
BRANCH  29  30
ATOM     30  C   UNL A   1      37.993  32.057  30.933  1.00  0.00     0.031 A 
ATOM     31  C   UNL A   1      38.539  32.364  32.302  1.00  0.00     0.074 A 
ATOM     32  C   UNL A   1      38.571  31.108  30.175  1.00  0.00     0.049 A 
ATOM     33  N   UNL A   1      39.521  31.791  32.951  1.00  0.00    -0.248 NA
ATOM     34  C   UNL A   1      37.888  33.458  33.041  1.00  0.00     0.031 C 
ATOM     35  C   UNL A   1      38.134  30.714  28.837  1.00  0.00     0.029 A 
ATOM     36  N   UNL A   1      39.639  30.288  30.438  1.00  0.00    -0.354 N 
ATOM     37  C   UNL A   1      39.590  32.438  34.179  1.00  0.00     0.074 A 
ATOM     38  C   UNL A   1      38.586  33.480  34.166  1.00  0.00     0.031 C 
ATOM     39  C   UNL A   1      38.920  29.715  28.400  1.00  0.00     0.029 A 
ATOM     40  C   UNL A   1      39.914  29.401  29.426  1.00  0.00     0.049 A 
ATOM     41  H   UNL A   1      40.160  30.331  31.273  1.00  0.00     0.167 HD
ATOM     42  C   UNL A   1      40.399  32.176  35.233  1.00  0.00     0.037 A 
ATOM     43  C   UNL A   1      40.850  28.436  29.344  1.00  0.00     0.037 A 
ATOM     44  C   UNL A   1      41.408  31.152  35.248  1.00  0.00     0.049 A 
ATOM     45  C   UNL A   1      41.753  28.178  30.519  1.00  0.00     0.074 A 
ATOM     46  C   UNL A   1      42.293  30.823  36.260  1.00  0.00     0.029 A 
ATOM     47  N   UNL A   1      41.667  30.290  34.193  1.00  0.00    -0.354 N 
ATOM     48  N   UNL A   1      41.785  28.778  31.685  1.00  0.00    -0.248 NA
ATOM     49  C   UNL A   1      42.739  27.096  30.373  1.00  0.00     0.031 C 
ATOM     50  C   UNL A   1      43.106  29.777  35.808  1.00  0.00     0.029 A 
ATOM     51  C   UNL A   1      42.703  29.435  34.527  1.00  0.00     0.049 A 
ATOM     52  H   UNL A   1      41.186  30.287  33.335  1.00  0.00     0.167 HD
ATOM     53  C   UNL A   1      42.781  28.140  32.414  1.00  0.00     0.074 A 
ATOM     54  C   UNL A   1      43.313  27.092  31.568  1.00  0.00     0.031 C 
ATOM     55  C   UNL A   1      43.221  28.401  33.670  1.00  0.00     0.037 A 
BRANCH  42  56
ATOM     56  C   UNL A   1      40.220  33.021  36.458  1.00  0.00     0.057 A 
ATOM     57  C   UNL A   1      39.245  32.718  37.419  1.00  0.00     0.134 A 
ATOM     58  C   UNL A   1      41.039  34.132  36.695  1.00  0.00     0.134 A 
ATOM     59  F   UNL A   1      38.419  31.677  37.242  1.00  0.00    -0.206 F 
ATOM     60  C   UNL A   1      39.079  33.503  38.561  1.00  0.00     0.040 A 
ATOM     61  C   UNL A   1      40.896  34.912  37.843  1.00  0.00     0.040 A 
ATOM     62  F   UNL A   1      41.991  34.474  35.814  1.00  0.00    -0.206 F 
ATOM     63  C   UNL A   1      39.909  34.600  38.778  1.00  0.00     0.006 A 
ENDBRANCH  42  56
BRANCH  43  64
ATOM     64  C   UNL A   1      40.966  27.624  28.108  1.00  0.00     0.057 A 
ATOM     65  C   UNL A   1      41.793  28.020  27.051  1.00  0.00     0.134 A 
ATOM     66  C   UNL A   1      40.244  26.436  27.952  1.00  0.00     0.134 A 
ATOM     67  F   UNL A   1      42.493  29.161  27.133  1.00  0.00    -0.206 F 
ATOM     68  C   UNL A   1      41.887  27.272  25.877  1.00  0.00     0.040 A 
ATOM     69  C   UNL A   1      40.344  25.666  26.793  1.00  0.00     0.040 A 
ATOM     70  F   UNL A   1      39.435  26.002  28.931  1.00  0.00    -0.206 F 
ATOM     71  C   UNL A   1      41.165  26.087  25.748  1.00  0.00     0.006 A 
ENDBRANCH  43  64
BRANCH  55  72
ATOM     72  C   UNL A   1      44.325  27.536  34.198  1.00  0.00     0.057 A 
ATOM     73  C   UNL A   1      45.669  27.909  34.080  1.00  0.00     0.134 A 
ATOM     74  C   UNL A   1      44.040  26.332  34.855  1.00  0.00     0.134 A 
ATOM     75  F   UNL A   1      46.006  29.046  33.452  1.00  0.00    -0.206 F 
ATOM     76  C   UNL A   1      46.696  27.102  34.574  1.00  0.00     0.040 A 
ATOM     77  C   UNL A   1      45.056  25.527  35.371  1.00  0.00     0.040 A 
ATOM     78  F   UNL A   1      42.772  25.923  35.008  1.00  0.00    -0.206 F 
ATOM     79  C   UNL A   1      46.389  25.909  35.226  1.00  0.00     0.006 A 
ENDBRANCH  55  72
ENDBRANCH  29  30
ENDBRANCH  22  24
ENDBRANCH  21  22
ENDBRANCH  20  21
ENDBRANCH  19  20
ENDBRANCH  18  19
ENDBRANCH   1  18
TORSDOF 21
ENDMDL
