MODEL 1
REMARK VINA RESULT:     -11.7      0.000      0.000
REMARK SMILES CCc1ccc2c(CC(=O)OCCOCCOC(=O)c3ccc(-c4c5nc(c(-c6c(F)cccc6F)c6ccc([nH]6)c(-c6c(F)cccc6F)c6nc(c(-c7c(F)cccc7F)c7ccc4[nH]7)C=C6)C=C5)cc3)c(C(=O)c3cc(C)ccn3)[nH]c2c1
REMARK SMILES IDX 13 1 12 2 11 3 9 4 10 5 8 6 7 7 3 8 4 9 86 10 5 11 85 12
REMARK SMILES IDX 6 13 84 14 74 15 2 17 1 18 75 19 76 20 77 21 78 22 83 23
REMARK SMILES IDX 79 24 82 25 80 26 81 27 14 28 15 29 16 30 17 31 18 32 19 33
REMARK SMILES IDX 20 34 21 35 73 36 22 37 72 38 23 39 24 40 25 41 66 42 26 43
REMARK SMILES IDX 71 44 65 45 67 46 27 47 70 48 64 49 63 50 28 52 54 53 37 54
REMARK SMILES IDX 53 55 38 56 41 57 52 58 68 59 39 60 40 61 51 63 69 64 42 65
REMARK SMILES IDX 29 66 30 67 35 68 31 69 32 70 34 71 36 72 33 73 55 74 56 75
REMARK SMILES IDX 61 76 57 77 58 78 60 79 62 80 59 81 43 82 44 83 49 84 45 85
REMARK SMILES IDX 46 86 48 87 50 88 47 89
REMARK H PARENT 84 16 67 51 41 62
REMARK Flexibility Score: inf
ROOT
ATOM      1  C   UNL A   1      31.999  28.962  25.688  1.00  0.00     0.202 C 
ENDROOT
BRANCH   1   2
ATOM      2  C   UNL A   1      32.139  27.525  26.213  1.00  0.00     0.261 C 
BRANCH   2   3
ATOM      3  O   UNL A   1      33.360  26.872  25.809  1.00  0.00    -0.463 OA
BRANCH   3   4
ATOM      4  C   UNL A   1      33.315  25.509  25.829  1.00  0.00     0.310 C 
ATOM      5  O   UNL A   1      32.513  24.861  26.500  1.00  0.00    -0.252 OA
BRANCH   4   6
ATOM      6  C   UNL A   1      34.249  24.821  24.854  1.00  0.00     0.161 C 
BRANCH   6   7
ATOM      7  C   UNL A   1      33.669  23.799  23.914  1.00  0.00     0.000 A 
ATOM      8  C   UNL A   1      32.818  19.665  24.300  1.00  0.00    -0.046 A 
ATOM      9  C   UNL A   1      33.550  20.244  25.343  1.00  0.00     0.004 A 
ATOM     10  C   UNL A   1      32.502  20.446  23.172  1.00  0.00     0.030 A 
ATOM     11  C   UNL A   1      33.937  21.592  25.306  1.00  0.00     0.011 A 
ATOM     12  C   UNL A   1      32.874  21.798  23.165  1.00  0.00     0.046 A 
ATOM     13  C   UNL A   1      33.565  22.396  24.210  1.00  0.00     0.004 A 
ATOM     14  N   UNL A   1      32.648  22.772  22.225  1.00  0.00    -0.352 N 
ATOM     15  C   UNL A   1      32.972  24.020  22.718  1.00  0.00     0.093 A 
ATOM     16  H   UNL A   1      32.302  22.603  21.319  1.00  0.00     0.167 HD
BRANCH   8  17
ATOM     17  C   UNL A   1      32.307  18.240  24.330  1.00  0.00     0.032 C 
ATOM     18  C   UNL A   1      32.608  17.416  25.576  1.00  0.00     0.009 C 
ENDBRANCH   8  17
BRANCH  15  19
ATOM     19  C   UNL A   1      32.610  25.282  22.068  1.00  0.00     0.227 C 
ATOM     20  O   UNL A   1      33.226  25.755  21.115  1.00  0.00    -0.285 OA
BRANCH  19  21
ATOM     21  C   UNL A   1      31.407  26.029  22.549  1.00  0.00     0.113 A 
ATOM     22  C   UNL A   1      31.169  27.343  22.175  1.00  0.00     0.036 A 
ATOM     23  N   UNL A   1      30.604  25.337  23.396  1.00  0.00    -0.253 NA
ATOM     24  C   UNL A   1      30.052  27.986  22.720  1.00  0.00    -0.047 A 
ATOM     25  C   UNL A   1      29.540  25.975  23.912  1.00  0.00     0.112 A 
ATOM     26  C   UNL A   1      29.709  29.403  22.369  1.00  0.00     0.044 C 
ATOM     27  C   UNL A   1      29.230  27.287  23.610  1.00  0.00     0.023 A 
ENDBRANCH  19  21
ENDBRANCH  15  19
ENDBRANCH   6   7
ENDBRANCH   4   6
ENDBRANCH   3   4
ENDBRANCH   2   3
ENDBRANCH   1   2
BRANCH   1  28
ATOM     28  O   UNL A   1      31.769  29.996  26.645  1.00  0.00    -0.374 OA
BRANCH  28  29
ATOM     29  C   UNL A   1      31.531  31.307  26.141  1.00  0.00     0.202 C 
BRANCH  29  30
ATOM     30  C   UNL A   1      31.598  32.461  27.144  1.00  0.00     0.261 C 
BRANCH  30  31
ATOM     31  O   UNL A   1      32.687  33.364  26.955  1.00  0.00    -0.460 OA
BRANCH  31  32
ATOM     32  C   UNL A   1      33.184  33.889  28.091  1.00  0.00     0.338 C 
ATOM     33  O   UNL A   1      32.718  34.771  28.798  1.00  0.00    -0.246 OA
BRANCH  32  34
ATOM     34  C   UNL A   1      34.413  33.170  28.423  1.00  0.00     0.060 A 
ATOM     35  C   UNL A   1      34.311  31.860  28.898  1.00  0.00     0.016 A 
ATOM     36  C   UNL A   1      35.644  33.826  28.348  1.00  0.00     0.016 A 
ATOM     37  C   UNL A   1      35.455  31.212  29.353  1.00  0.00     0.010 A 
ATOM     38  C   UNL A   1      36.789  33.169  28.797  1.00  0.00     0.010 A 
ATOM     39  C   UNL A   1      36.691  31.876  29.336  1.00  0.00    -0.014 A 
BRANCH  39  40
ATOM     40  C   UNL A   1      37.856  31.245  29.993  1.00  0.00     0.031 A 
ATOM     41  C   UNL A   1      38.147  31.564  31.431  1.00  0.00     0.074 A 
ATOM     42  C   UNL A   1      38.611  30.364  29.314  1.00  0.00     0.049 A 
ATOM     43  N   UNL A   1      39.079  31.082  32.213  1.00  0.00    -0.248 NA
ATOM     44  C   UNL A   1      37.274  32.558  32.077  1.00  0.00     0.031 C 
ATOM     45  C   UNL A   1      38.410  29.985  27.917  1.00  0.00     0.029 A 
ATOM     46  N   UNL A   1      39.695  29.627  29.713  1.00  0.00    -0.354 N 
ATOM     47  C   UNL A   1      38.902  31.711  33.440  1.00  0.00     0.074 A 
ATOM     48  C   UNL A   1      37.799  32.633  33.291  1.00  0.00     0.031 C 
ATOM     49  C   UNL A   1      39.341  29.079  27.574  1.00  0.00     0.029 A 
ATOM     50  C   UNL A   1      40.211  28.831  28.721  1.00  0.00     0.049 A 
ATOM     51  H   UNL A   1      40.067  29.665  30.624  1.00  0.00     0.167 HD
ATOM     52  C   UNL A   1      39.593  31.521  34.589  1.00  0.00     0.037 A 
ATOM     53  C   UNL A   1      41.271  28.003  28.741  1.00  0.00     0.037 A 
ATOM     54  C   UNL A   1      40.688  30.597  34.725  1.00  0.00     0.049 A 
ATOM     55  C   UNL A   1      42.037  27.831  30.023  1.00  0.00     0.074 A 
ATOM     56  C   UNL A   1      41.435  30.303  35.852  1.00  0.00     0.029 A 
ATOM     57  N   UNL A   1      41.195  29.821  33.694  1.00  0.00    -0.354 N 
ATOM     58  N   UNL A   1      41.830  28.391  31.191  1.00  0.00    -0.248 NA
ATOM     59  C   UNL A   1      43.179  26.908  29.994  1.00  0.00     0.031 C 
ATOM     60  C   UNL A   1      42.424  29.382  35.491  1.00  0.00     0.029 A 
ATOM     61  C   UNL A   1      42.264  29.068  34.151  1.00  0.00     0.049 A 
ATOM     62  H   UNL A   1      40.848  29.808  32.773  1.00  0.00     0.167 HD
ATOM     63  C   UNL A   1      42.801  27.875  32.039  1.00  0.00     0.074 A 
ATOM     64  C   UNL A   1      43.584  26.941  31.256  1.00  0.00     0.031 C 
ATOM     65  C   UNL A   1      43.030  28.150  33.347  1.00  0.00     0.037 A 
BRANCH  52  66
ATOM     66  C   UNL A   1      39.195  32.339  35.781  1.00  0.00     0.057 A 
ATOM     67  C   UNL A   1      38.308  31.851  36.749  1.00  0.00     0.134 A 
ATOM     68  C   UNL A   1      39.733  33.616  35.982  1.00  0.00     0.134 A 
ATOM     69  F   UNL A   1      37.745  30.642  36.608  1.00  0.00    -0.206 F 
ATOM     70  C   UNL A   1      37.956  32.612  37.867  1.00  0.00     0.040 A 
ATOM     71  C   UNL A   1      39.407  34.377  37.107  1.00  0.00     0.040 A 
ATOM     72  F   UNL A   1      40.590  34.142  35.095  1.00  0.00    -0.206 F 
ATOM     73  C   UNL A   1      38.513  33.876  38.052  1.00  0.00     0.006 A 
ENDBRANCH  52  66
BRANCH  53  74
ATOM     74  C   UNL A   1      41.665  27.272  27.510  1.00  0.00     0.057 A 
ATOM     75  C   UNL A   1      41.246  25.958  27.276  1.00  0.00     0.134 A 
ATOM     76  C   UNL A   1      42.480  27.873  26.542  1.00  0.00     0.134 A 
ATOM     77  F   UNL A   1      40.482  25.323  28.175  1.00  0.00    -0.206 F 
ATOM     78  C   UNL A   1      41.637  25.260  26.131  1.00  0.00     0.040 A 
ATOM     79  C   UNL A   1      42.858  27.197  25.382  1.00  0.00     0.040 A 
ATOM     80  F   UNL A   1      42.912  29.132  26.708  1.00  0.00    -0.206 F 
ATOM     81  C   UNL A   1      42.441  25.883  25.177  1.00  0.00     0.006 A 
ENDBRANCH  53  74
BRANCH  65  82
ATOM     82  C   UNL A   1      44.162  27.420  34.006  1.00  0.00     0.057 A 
ATOM     83  C   UNL A   1      45.451  27.965  34.068  1.00  0.00     0.134 A 
ATOM     84  C   UNL A   1      43.955  26.173  34.608  1.00  0.00     0.134 A 
ATOM     85  F   UNL A   1      45.715  29.151  33.500  1.00  0.00    -0.206 F 
ATOM     86  C   UNL A   1      46.501  27.283  34.683  1.00  0.00     0.040 A 
ATOM     87  C   UNL A   1      44.991  25.493  35.248  1.00  0.00     0.040 A 
ATOM     88  F   UNL A   1      42.742  25.601  34.592  1.00  0.00    -0.206 F 
ATOM     89  C   UNL A   1      46.270  26.045  35.280  1.00  0.00     0.006 A 
ENDBRANCH  65  82
ENDBRANCH  39  40
ENDBRANCH  32  34
ENDBRANCH  31  32
ENDBRANCH  30  31
ENDBRANCH  29  30
ENDBRANCH  28  29
ENDBRANCH   1  28
TORSDOF 18
ENDMDL
MODEL 2
REMARK VINA RESULT:     -11.6      1.070      4.198
REMARK SMILES CCc1ccc2c(CC(=O)OCCOCCOC(=O)c3ccc(-c4c5nc(c(-c6c(F)cccc6F)c6ccc([nH]6)c(-c6c(F)cccc6F)c6nc(c(-c7c(F)cccc7F)c7ccc4[nH]7)C=C6)C=C5)cc3)c(C(=O)c3cc(C)ccn3)[nH]c2c1
REMARK SMILES IDX 13 1 12 2 11 3 9 4 10 5 8 6 7 7 3 8 4 9 86 10 5 11 85 12
REMARK SMILES IDX 6 13 84 14 74 15 2 17 1 18 75 19 76 20 77 21 78 22 83 23
REMARK SMILES IDX 79 24 82 25 80 26 81 27 14 28 15 29 16 30 17 31 18 32 19 33
REMARK SMILES IDX 20 34 21 35 73 36 22 37 72 38 23 39 24 40 25 41 66 42 26 43
REMARK SMILES IDX 71 44 65 45 67 46 27 47 70 48 64 49 63 50 28 52 54 53 37 54
REMARK SMILES IDX 53 55 38 56 41 57 52 58 68 59 39 60 40 61 51 63 69 64 42 65
REMARK SMILES IDX 29 66 30 67 35 68 31 69 32 70 34 71 36 72 33 73 55 74 56 75
REMARK SMILES IDX 61 76 57 77 58 78 60 79 62 80 59 81 43 82 44 83 49 84 45 85
REMARK SMILES IDX 46 86 48 87 50 88 47 89
REMARK H PARENT 84 16 67 51 41 62
REMARK Flexibility Score: inf
ROOT
ATOM      1  C   UNL A   1      32.528  28.814  26.633  1.00  0.00     0.202 C 
ENDROOT
BRANCH   1   2
ATOM      2  C   UNL A   1      31.982  27.406  26.917  1.00  0.00     0.261 C 
BRANCH   2   3
ATOM      3  O   UNL A   1      30.645  27.187  26.421  1.00  0.00    -0.463 OA
BRANCH   3   4
ATOM      4  C   UNL A   1      30.414  25.936  25.928  1.00  0.00     0.310 C 
ATOM      5  O   UNL A   1      30.529  24.908  26.593  1.00  0.00    -0.252 OA
BRANCH   4   6
ATOM      6  C   UNL A   1      29.871  25.893  24.514  1.00  0.00     0.161 C 
BRANCH   6   7
ATOM      7  C   UNL A   1      30.298  26.973  23.557  1.00  0.00     0.000 A 
ATOM      8  C   UNL A   1      28.418  30.500  22.148  1.00  0.00    -0.046 A 
ATOM      9  C   UNL A   1      27.615  29.630  22.894  1.00  0.00     0.004 A 
ATOM     10  C   UNL A   1      29.736  30.115  21.836  1.00  0.00     0.030 A 
ATOM     11  C   UNL A   1      28.109  28.407  23.372  1.00  0.00     0.011 A 
ATOM     12  C   UNL A   1      30.220  28.902  22.345  1.00  0.00     0.046 A 
ATOM     13  C   UNL A   1      29.449  28.047  23.121  1.00  0.00     0.004 A 
ATOM     14  N   UNL A   1      31.461  28.328  22.230  1.00  0.00    -0.352 N 
ATOM     15  C   UNL A   1      31.587  27.248  23.081  1.00  0.00     0.093 A 
ATOM     16  H   UNL A   1      32.168  28.644  21.622  1.00  0.00     0.167 HD
BRANCH   8  17
ATOM     17  C   UNL A   1      27.958  31.865  21.680  1.00  0.00     0.032 C 
ATOM     18  C   UNL A   1      27.992  32.137  20.182  1.00  0.00     0.009 C 
ENDBRANCH   8  17
BRANCH  15  19
ATOM     19  C   UNL A   1      32.856  26.584  23.387  1.00  0.00     0.227 C 
ATOM     20  O   UNL A   1      33.836  27.171  23.841  1.00  0.00    -0.285 OA
BRANCH  19  21
ATOM     21  C   UNL A   1      32.972  25.107  23.182  1.00  0.00     0.113 A 
ATOM     22  C   UNL A   1      33.006  24.224  24.252  1.00  0.00     0.036 A 
ATOM     23  N   UNL A   1      33.077  24.714  21.888  1.00  0.00    -0.253 NA
ATOM     24  C   UNL A   1      33.177  22.864  23.973  1.00  0.00    -0.047 A 
ATOM     25  C   UNL A   1      33.247  23.404  21.642  1.00  0.00     0.112 A 
ATOM     26  C   UNL A   1      33.218  21.835  25.061  1.00  0.00     0.044 C 
ATOM     27  C   UNL A   1      33.307  22.452  22.641  1.00  0.00     0.023 A 
ENDBRANCH  19  21
ENDBRANCH  15  19
ENDBRANCH   6   7
ENDBRANCH   4   6
ENDBRANCH   3   4
ENDBRANCH   2   3
ENDBRANCH   1   2
BRANCH   1  28
ATOM     28  O   UNL A   1      31.786  29.925  27.135  1.00  0.00    -0.374 OA
BRANCH  28  29
ATOM     29  C   UNL A   1      31.670  31.065  26.288  1.00  0.00     0.202 C 
BRANCH  29  30
ATOM     30  C   UNL A   1      31.575  32.431  26.970  1.00  0.00     0.261 C 
BRANCH  30  31
ATOM     31  O   UNL A   1      32.743  33.244  26.860  1.00  0.00    -0.460 OA
BRANCH  31  32
ATOM     32  C   UNL A   1      33.191  33.744  28.028  1.00  0.00     0.338 C 
ATOM     33  O   UNL A   1      32.673  34.581  28.753  1.00  0.00    -0.246 OA
BRANCH  32  34
ATOM     34  C   UNL A   1      34.436  33.057  28.366  1.00  0.00     0.060 A 
ATOM     35  C   UNL A   1      34.376  31.714  28.744  1.00  0.00     0.016 A 
ATOM     36  C   UNL A   1      35.637  33.771  28.396  1.00  0.00     0.016 A 
ATOM     37  C   UNL A   1      35.527  31.086  29.206  1.00  0.00     0.010 A 
ATOM     38  C   UNL A   1      36.791  33.135  28.853  1.00  0.00     0.010 A 
ATOM     39  C   UNL A   1      36.731  31.804  29.295  1.00  0.00    -0.014 A 
BRANCH  39  40
ATOM     40  C   UNL A   1      37.894  31.179  29.961  1.00  0.00     0.031 A 
ATOM     41  C   UNL A   1      38.166  31.492  31.404  1.00  0.00     0.074 A 
ATOM     42  C   UNL A   1      38.663  30.309  29.286  1.00  0.00     0.049 A 
ATOM     43  N   UNL A   1      39.094  31.015  32.194  1.00  0.00    -0.248 NA
ATOM     44  C   UNL A   1      37.278  32.475  32.046  1.00  0.00     0.031 C 
ATOM     45  C   UNL A   1      38.481  29.935  27.885  1.00  0.00     0.029 A 
ATOM     46  N   UNL A   1      39.749  29.579  29.693  1.00  0.00    -0.354 N 
ATOM     47  C   UNL A   1      38.898  31.635  33.422  1.00  0.00     0.074 A 
ATOM     48  C   UNL A   1      37.789  32.548  33.266  1.00  0.00     0.031 C 
ATOM     49  C   UNL A   1      39.424  29.040  27.547  1.00  0.00     0.029 A 
ATOM     50  C   UNL A   1      40.283  28.793  28.702  1.00  0.00     0.049 A 
ATOM     51  H   UNL A   1      40.112  29.614  30.608  1.00  0.00     0.167 HD
ATOM     52  C   UNL A   1      39.578  31.445  34.577  1.00  0.00     0.037 A 
ATOM     53  C   UNL A   1      41.350  27.973  28.729  1.00  0.00     0.037 A 
ATOM     54  C   UNL A   1      40.680  30.529  34.721  1.00  0.00     0.049 A 
ATOM     55  C   UNL A   1      42.104  27.801  30.019  1.00  0.00     0.074 A 
ATOM     56  C   UNL A   1      41.416  30.236  35.854  1.00  0.00     0.029 A 
ATOM     57  N   UNL A   1      41.205  29.763  33.690  1.00  0.00    -0.354 N 
ATOM     58  N   UNL A   1      41.879  28.353  31.188  1.00  0.00    -0.248 NA
ATOM     59  C   UNL A   1      43.254  26.888  29.997  1.00  0.00     0.031 C 
ATOM     60  C   UNL A   1      42.418  29.325  35.499  1.00  0.00     0.029 A 
ATOM     61  C   UNL A   1      42.275  29.018  34.155  1.00  0.00     0.049 A 
ATOM     62  H   UNL A   1      40.868  29.752  32.766  1.00  0.00     0.167 HD
ATOM     63  C   UNL A   1      42.845  27.841  32.043  1.00  0.00     0.074 A 
ATOM     64  C   UNL A   1      43.645  26.918  31.263  1.00  0.00     0.031 C 
ATOM     65  C   UNL A   1      43.058  28.110  33.355  1.00  0.00     0.037 A 
BRANCH  52  66
ATOM     66  C   UNL A   1      39.160  32.253  35.769  1.00  0.00     0.057 A 
ATOM     67  C   UNL A   1      39.603  33.567  35.964  1.00  0.00     0.134 A 
ATOM     68  C   UNL A   1      38.273  31.723  36.715  1.00  0.00     0.134 A 
ATOM     69  F   UNL A   1      40.465  34.129  35.103  1.00  0.00    -0.206 F 
ATOM     70  C   UNL A   1      39.194  34.320  37.066  1.00  0.00     0.040 A 
ATOM     71  C   UNL A   1      37.839  32.474  37.810  1.00  0.00     0.040 A 
ATOM     72  F   UNL A   1      37.808  30.472  36.587  1.00  0.00    -0.206 F 
ATOM     73  C   UNL A   1      38.303  33.776  37.990  1.00  0.00     0.006 A 
ENDBRANCH  52  66
BRANCH  53  74
ATOM     74  C   UNL A   1      41.764  27.253  27.499  1.00  0.00     0.057 A 
ATOM     75  C   UNL A   1      41.356  25.938  27.250  1.00  0.00     0.134 A 
ATOM     76  C   UNL A   1      42.588  27.864  26.545  1.00  0.00     0.134 A 
ATOM     77  F   UNL A   1      40.583  25.293  28.136  1.00  0.00    -0.206 F 
ATOM     78  C   UNL A   1      41.765  25.250  26.106  1.00  0.00     0.040 A 
ATOM     79  C   UNL A   1      42.984  27.198  25.386  1.00  0.00     0.040 A 
ATOM     80  F   UNL A   1      43.011  29.125  26.724  1.00  0.00    -0.206 F 
ATOM     81  C   UNL A   1      42.577  25.883  25.167  1.00  0.00     0.006 A 
ENDBRANCH  53  74
BRANCH  65  82
ATOM     82  C   UNL A   1      44.189  27.387  34.023  1.00  0.00     0.057 A 
ATOM     83  C   UNL A   1      43.998  26.154  34.659  1.00  0.00     0.134 A 
ATOM     84  C   UNL A   1      45.485  27.916  34.006  1.00  0.00     0.134 A 
ATOM     85  F   UNL A   1      42.778  25.601  34.719  1.00  0.00    -0.206 F 
ATOM     86  C   UNL A   1      45.054  25.485  35.278  1.00  0.00     0.040 A 
ATOM     87  C   UNL A   1      46.553  27.244  34.600  1.00  0.00     0.040 A 
ATOM     88  F   UNL A   1      45.735  29.089  33.405  1.00  0.00    -0.206 F 
ATOM     89  C   UNL A   1      46.337  26.028  35.245  1.00  0.00     0.006 A 
ENDBRANCH  65  82
ENDBRANCH  39  40
ENDBRANCH  32  34
ENDBRANCH  31  32
ENDBRANCH  30  31
ENDBRANCH  29  30
ENDBRANCH  28  29
ENDBRANCH   1  28
TORSDOF 18
ENDMDL
MODEL 3
REMARK VINA RESULT:     -11.3      1.836      4.121
REMARK SMILES CCc1ccc2c(CC(=O)OCCOCCOC(=O)c3ccc(-c4c5nc(c(-c6c(F)cccc6F)c6ccc([nH]6)c(-c6c(F)cccc6F)c6nc(c(-c7c(F)cccc7F)c7ccc4[nH]7)C=C6)C=C5)cc3)c(C(=O)c3cc(C)ccn3)[nH]c2c1
REMARK SMILES IDX 13 1 12 2 11 3 9 4 10 5 8 6 7 7 3 8 4 9 86 10 5 11 85 12
REMARK SMILES IDX 6 13 84 14 74 15 2 17 1 18 75 19 76 20 77 21 78 22 83 23
REMARK SMILES IDX 79 24 82 25 80 26 81 27 14 28 15 29 16 30 17 31 18 32 19 33
REMARK SMILES IDX 20 34 21 35 73 36 22 37 72 38 23 39 24 40 25 41 66 42 26 43
REMARK SMILES IDX 71 44 65 45 67 46 27 47 70 48 64 49 63 50 28 52 54 53 37 54
REMARK SMILES IDX 53 55 38 56 41 57 52 58 68 59 39 60 40 61 51 63 69 64 42 65
REMARK SMILES IDX 29 66 30 67 35 68 31 69 32 70 34 71 36 72 33 73 55 74 56 75
REMARK SMILES IDX 61 76 57 77 58 78 60 79 62 80 59 81 43 82 44 83 49 84 45 85
REMARK SMILES IDX 46 86 48 87 50 88 47 89
REMARK H PARENT 84 16 67 51 41 62
REMARK Flexibility Score: inf
ROOT
ATOM      1  C   UNL A   1      31.169  27.082  25.436  1.00  0.00     0.202 C 
ENDROOT
BRANCH   1   2
ATOM      2  C   UNL A   1      31.990  26.025  26.191  1.00  0.00     0.261 C 
BRANCH   2   3
ATOM      3  O   UNL A   1      31.296  24.776  26.386  1.00  0.00    -0.463 OA
BRANCH   3   4
ATOM      4  C   UNL A   1      32.101  23.677  26.453  1.00  0.00     0.310 C 
ATOM      5  O   UNL A   1      32.256  23.004  27.470  1.00  0.00    -0.252 OA
BRANCH   4   6
ATOM      6  C   UNL A   1      32.711  23.246  25.134  1.00  0.00     0.161 C 
BRANCH   6   7
ATOM      7  C   UNL A   1      33.912  22.340  25.169  1.00  0.00     0.000 A 
ATOM      8  C   UNL A   1      38.000  22.988  26.080  1.00  0.00    -0.046 A 
ATOM      9  C   UNL A   1      37.206  24.134  25.962  1.00  0.00     0.004 A 
ATOM     10  C   UNL A   1      37.431  21.731  25.800  1.00  0.00     0.030 A 
ATOM     11  C   UNL A   1      35.849  24.052  25.614  1.00  0.00     0.011 A 
ATOM     12  C   UNL A   1      36.068  21.667  25.480  1.00  0.00     0.046 A 
ATOM     13  C   UNL A   1      35.257  22.791  25.399  1.00  0.00     0.004 A 
ATOM     14  N   UNL A   1      35.272  20.580  25.215  1.00  0.00    -0.352 N 
ATOM     15  C   UNL A   1      33.939  20.939  25.183  1.00  0.00     0.093 A 
ATOM     16  H   UNL A   1      35.607  19.666  25.068  1.00  0.00     0.167 HD
BRANCH   8  17
ATOM     17  C   UNL A   1      39.445  23.017  26.532  1.00  0.00     0.032 C 
ATOM     18  C   UNL A   1      40.229  21.713  26.448  1.00  0.00     0.009 C 
ENDBRANCH   8  17
BRANCH  15  19
ATOM     19  C   UNL A   1      32.828  19.984  25.182  1.00  0.00     0.227 C 
ATOM     20  O   UNL A   1      31.659  20.303  25.389  1.00  0.00    -0.285 OA
BRANCH  19  21
ATOM     21  C   UNL A   1      33.106  18.546  24.876  1.00  0.00     0.113 A 
ATOM     22  C   UNL A   1      32.497  17.521  25.585  1.00  0.00     0.036 A 
ATOM     23  N   UNL A   1      34.013  18.335  23.891  1.00  0.00    -0.253 NA
ATOM     24  C   UNL A   1      32.859  16.206  25.274  1.00  0.00    -0.047 A 
ATOM     25  C   UNL A   1      34.352  17.065  23.611  1.00  0.00     0.112 A 
ATOM     26  C   UNL A   1      32.250  15.033  25.980  1.00  0.00     0.044 C 
ATOM     27  C   UNL A   1      33.811  15.979  24.273  1.00  0.00     0.023 A 
ENDBRANCH  19  21
ENDBRANCH  15  19
ENDBRANCH   6   7
ENDBRANCH   4   6
ENDBRANCH   3   4
ENDBRANCH   2   3
ENDBRANCH   1   2
BRANCH   1  28
ATOM     28  O   UNL A   1      31.838  27.846  24.433  1.00  0.00    -0.374 OA
BRANCH  28  29
ATOM     29  C   UNL A   1      32.767  28.830  24.877  1.00  0.00     0.202 C 
BRANCH  29  30
ATOM     30  C   UNL A   1      32.201  30.022  25.652  1.00  0.00     0.261 C 
BRANCH  30  31
ATOM     31  O   UNL A   1      32.649  30.134  27.002  1.00  0.00    -0.460 OA
BRANCH  31  32
ATOM     32  C   UNL A   1      33.291  31.283  27.287  1.00  0.00     0.338 C 
ATOM     33  O   UNL A   1      32.861  32.428  27.268  1.00  0.00    -0.246 OA
BRANCH  32  34
ATOM     34  C   UNL A   1      34.650  30.950  27.713  1.00  0.00     0.060 A 
ATOM     35  C   UNL A   1      34.945  29.619  28.017  1.00  0.00     0.016 A 
ATOM     36  C   UNL A   1      35.590  31.966  27.894  1.00  0.00     0.016 A 
ATOM     37  C   UNL A   1      36.187  29.306  28.560  1.00  0.00     0.010 A 
ATOM     38  C   UNL A   1      36.837  31.647  28.430  1.00  0.00     0.010 A 
ATOM     39  C   UNL A   1      37.124  30.324  28.800  1.00  0.00    -0.014 A 
BRANCH  39  40
ATOM     40  C   UNL A   1      38.360  30.002  29.546  1.00  0.00     0.031 A 
ATOM     41  C   UNL A   1      38.546  30.558  30.928  1.00  0.00     0.074 A 
ATOM     42  C   UNL A   1      39.277  29.184  29.001  1.00  0.00     0.049 A 
ATOM     43  N   UNL A   1      39.523  30.358  31.776  1.00  0.00    -0.248 NA
ATOM     44  C   UNL A   1      37.494  31.461  31.424  1.00  0.00     0.031 C 
ATOM     45  C   UNL A   1      39.188  28.590  27.668  1.00  0.00     0.029 A 
ATOM     46  N   UNL A   1      40.459  28.710  29.505  1.00  0.00    -0.354 N 
ATOM     47  C   UNL A   1      39.202  31.106  32.902  1.00  0.00     0.074 A 
ATOM     48  C   UNL A   1      37.960  31.790  32.620  1.00  0.00     0.031 C 
ATOM     49  C   UNL A   1      40.273  27.825  27.460  1.00  0.00     0.029 A 
ATOM     50  C   UNL A   1      41.136  27.891  28.637  1.00  0.00     0.049 A 
ATOM     51  H   UNL A   1      40.791  28.935  30.405  1.00  0.00     0.167 HD
ATOM     52  C   UNL A   1      39.879  31.197  34.071  1.00  0.00     0.037 A 
ATOM     53  C   UNL A   1      42.322  27.272  28.778  1.00  0.00     0.037 A 
ATOM     54  C   UNL A   1      41.113  30.507  34.342  1.00  0.00     0.049 A 
ATOM     55  C   UNL A   1      43.066  27.413  30.077  1.00  0.00     0.074 A 
ATOM     56  C   UNL A   1      41.864  30.505  35.504  1.00  0.00     0.029 A 
ATOM     57  N   UNL A   1      41.779  29.701  33.431  1.00  0.00    -0.354 N 
ATOM     58  N   UNL A   1      42.729  28.080  31.155  1.00  0.00    -0.248 NA
ATOM     59  C   UNL A   1      44.352  26.710  30.184  1.00  0.00     0.031 C 
ATOM     60  C   UNL A   1      43.009  29.732  35.281  1.00  0.00     0.029 A 
ATOM     61  C   UNL A   1      42.947  29.217  33.995  1.00  0.00     0.049 A 
ATOM     62  H   UNL A   1      41.468  29.502  32.518  1.00  0.00     0.167 HD
ATOM     63  C   UNL A   1      43.748  27.863  32.073  1.00  0.00     0.074 A 
ATOM     64  C   UNL A   1      44.706  26.984  31.432  1.00  0.00     0.031 C 
ATOM     65  C   UNL A   1      43.885  28.348  33.332  1.00  0.00     0.037 A 
BRANCH  52  66
ATOM     66  C   UNL A   1      39.308  32.086  35.136  1.00  0.00     0.057 A 
ATOM     67  C   UNL A   1      38.407  31.605  36.096  1.00  0.00     0.134 A 
ATOM     68  C   UNL A   1      39.691  33.430  35.225  1.00  0.00     0.134 A 
ATOM     69  F   UNL A   1      37.988  30.331  36.057  1.00  0.00    -0.206 F 
ATOM     70  C   UNL A   1      37.895  32.434  37.096  1.00  0.00     0.040 A 
ATOM     71  C   UNL A   1      39.203  34.263  36.234  1.00  0.00     0.040 A 
ATOM     72  F   UNL A   1      40.552  33.953  34.340  1.00  0.00    -0.206 F 
ATOM     73  C   UNL A   1      38.298  33.766  37.171  1.00  0.00     0.006 A 
ENDBRANCH  52  66
BRANCH  53  74
ATOM     74  C   UNL A   1      42.875  26.464  27.663  1.00  0.00     0.057 A 
ATOM     75  C   UNL A   1      42.612  25.094  27.554  1.00  0.00     0.134 A 
ATOM     76  C   UNL A   1      43.690  27.044  26.683  1.00  0.00     0.134 A 
ATOM     77  F   UNL A   1      41.855  24.477  28.473  1.00  0.00    -0.206 F 
ATOM     78  C   UNL A   1      43.152  24.326  26.521  1.00  0.00     0.040 A 
ATOM     79  C   UNL A   1      44.217  26.294  25.631  1.00  0.00     0.040 A 
ATOM     80  F   UNL A   1      43.978  28.354  26.730  1.00  0.00    -0.206 F 
ATOM     81  C   UNL A   1      43.953  24.929  25.551  1.00  0.00     0.006 A 
ENDBRANCH  53  74
BRANCH  65  82
ATOM     82  C   UNL A   1      45.106  27.925  34.093  1.00  0.00     0.057 A 
ATOM     83  C   UNL A   1      46.286  28.678  34.066  1.00  0.00     0.134 A 
ATOM     84  C   UNL A   1      45.092  26.767  34.882  1.00  0.00     0.134 A 
ATOM     85  F   UNL A   1      46.367  29.789  33.320  1.00  0.00    -0.206 F 
ATOM     86  C   UNL A   1      47.419  28.280  34.777  1.00  0.00     0.040 A 
ATOM     87  C   UNL A   1      46.210  26.374  35.617  1.00  0.00     0.040 A 
ATOM     88  F   UNL A   1      43.988  26.008  34.957  1.00  0.00    -0.206 F 
ATOM     89  C   UNL A   1      47.380  27.127  35.560  1.00  0.00     0.006 A 
ENDBRANCH  65  82
ENDBRANCH  39  40
ENDBRANCH  32  34
ENDBRANCH  31  32
ENDBRANCH  30  31
ENDBRANCH  29  30
ENDBRANCH  28  29
ENDBRANCH   1  28
TORSDOF 18
ENDMDL
