MODEL 1
REMARK VINA RESULT:     -10.2      0.000      0.000
REMARK SMILES CCCCCCCNC(=O)Oc1cccc(-c2ccc([C@@H](C)C(=O)OCCOCCOC(=O)c3ccc(-c4c5nc(c(-c6c(F)cccc6F)c6ccc([nH]6)c(-c6c(F)cccc6F)c6nc(c(-c7c(F)cccc7F)c7ccc4[nH]7)C=C6)C=C5)cc3)cc2F)c1
REMARK SMILES IDX 23 1 24 2 21 3 22 4 20 5 17 6 18 7 89 8 19 9 88 10 90 11
REMARK SMILES IDX 16 12 12 13 13 14 91 15 14 16 15 17 11 18 9 19 8 20 10 22
REMARK SMILES IDX 7 23 6 24 5 25 4 26 3 27 2 28 1 29 25 30 26 31 27 32 28 33
REMARK SMILES IDX 29 34 30 35 31 36 32 37 33 38 34 39 35 40 87 41 36 42 86 43
REMARK SMILES IDX 37 44 38 45 39 46 80 47 40 48 85 49 79 50 81 51 41 52 84 53
REMARK SMILES IDX 78 54 77 55 42 57 68 58 51 59 67 60 52 61 55 62 66 63 82 64
REMARK SMILES IDX 53 65 54 66 65 68 83 69 56 70 43 71 44 72 49 73 45 74 46 75
REMARK SMILES IDX 48 76 50 77 47 78 69 79 70 80 75 81 71 82 72 83 74 84 76 85
REMARK SMILES IDX 73 86 57 87 58 88 63 89 59 90 60 91 62 92 64 93 61 94
REMARK H PARENT 8 21 81 56 55 67
REMARK Flexibility Score: inf
ROOT
ATOM      1  C   UNL A   1      37.503  21.271  24.844  1.00  0.00     0.313 C 
ATOM      2  O   UNL A   1      37.313  22.024  23.893  1.00  0.00    -0.252 OA
ENDROOT
BRANCH   1   3
ATOM      3  C   UNL A   1      36.380  20.436  25.439  1.00  0.00     0.126 C 
ATOM      4  C   UNL A   1      36.222  19.158  24.619  1.00  0.00     0.025 C 
BRANCH   3   5
ATOM      5  C   UNL A   1      35.038  21.114  25.697  1.00  0.00    -0.031 A 
ATOM      6  C   UNL A   1      32.593  22.563  26.003  1.00  0.00     0.018 A 
ATOM      7  C   UNL A   1      33.548  22.514  27.032  1.00  0.00     0.012 A 
ATOM      8  C   UNL A   1      32.872  21.833  24.841  1.00  0.00     0.131 A 
ATOM      9  C   UNL A   1      34.751  21.804  26.883  1.00  0.00     0.005 A 
ATOM     10  C   UNL A   1      34.066  21.124  24.684  1.00  0.00     0.044 A 
ATOM     11  F   UNL A   1      32.006  21.835  23.815  1.00  0.00    -0.206 F 
BRANCH   6  12
ATOM     12  C   UNL A   1      31.380  23.393  26.123  1.00  0.00    -0.012 A 
ATOM     13  C   UNL A   1      30.126  25.421  25.659  1.00  0.00     0.133 A 
ATOM     14  C   UNL A   1      29.066  24.985  26.450  1.00  0.00     0.047 A 
ATOM     15  C   UNL A   1      31.282  24.650  25.504  1.00  0.00     0.056 A 
ATOM     16  C   UNL A   1      29.147  23.743  27.069  1.00  0.00     0.004 A 
ATOM     17  C   UNL A   1      30.292  22.955  26.905  1.00  0.00     0.009 A 
BRANCH  13  18
ATOM     18  O   UNL A   1      30.025  26.712  25.119  1.00  0.00    -0.410 OA
BRANCH  18  19
ATOM     19  C   UNL A   1      29.415  26.829  23.880  1.00  0.00     0.412 C 
ATOM     20  N   UNL A   1      30.283  27.172  22.881  1.00  0.00    -0.321 N 
ATOM     21  H   UNL A   1      29.903  27.242  21.975  1.00  0.00     0.167 HD
ATOM     22  O   UNL A   1      28.222  26.668  23.645  1.00  0.00    -0.224 OA
BRANCH  20  23
ATOM     23  C   UNL A   1      31.702  27.446  23.006  1.00  0.00     0.119 C 
BRANCH  23  24
ATOM     24  C   UNL A   1      31.997  28.945  23.076  1.00  0.00     0.021 C 
BRANCH  24  25
ATOM     25  C   UNL A   1      31.128  29.730  24.069  1.00  0.00     0.002 C 
BRANCH  25  26
ATOM     26  C   UNL A   1      31.779  30.023  25.426  1.00  0.00     0.000 C 
BRANCH  26  27
ATOM     27  C   UNL A   1      33.084  29.269  25.705  1.00  0.00    -0.000 C 
BRANCH  27  28
ATOM     28  C   UNL A   1      32.969  28.093  26.679  1.00  0.00    -0.003 C 
ATOM     29  C   UNL A   1      31.782  28.203  27.623  1.00  0.00     0.004 C 
ENDBRANCH  27  28
ENDBRANCH  26  27
ENDBRANCH  25  26
ENDBRANCH  24  25
ENDBRANCH  23  24
ENDBRANCH  20  23
ENDBRANCH  18  19
ENDBRANCH  13  18
ENDBRANCH   6  12
ENDBRANCH   3   5
ENDBRANCH   1   3
BRANCH   1  30
ATOM     30  O   UNL A   1      38.692  21.130  25.484  1.00  0.00    -0.463 OA
BRANCH  30  31
ATOM     31  C   UNL A   1      39.303  19.830  25.394  1.00  0.00     0.261 C 
BRANCH  31  32
ATOM     32  C   UNL A   1      40.653  19.798  26.115  1.00  0.00     0.202 C 
BRANCH  32  33
ATOM     33  O   UNL A   1      41.022  20.983  26.819  1.00  0.00    -0.374 OA
BRANCH  33  34
ATOM     34  C   UNL A   1      42.415  21.240  26.994  1.00  0.00     0.202 C 
BRANCH  34  35
ATOM     35  C   UNL A   1      43.220  21.579  25.732  1.00  0.00     0.261 C 
BRANCH  35  36
ATOM     36  O   UNL A   1      42.670  22.695  25.013  1.00  0.00    -0.460 OA
BRANCH  36  37
ATOM     37  C   UNL A   1      43.425  23.822  25.053  1.00  0.00     0.338 C 
ATOM     38  O   UNL A   1      44.406  24.081  24.382  1.00  0.00    -0.246 OA
BRANCH  37  39
ATOM     39  C   UNL A   1      42.776  24.828  25.916  1.00  0.00     0.060 A 
ATOM     40  C   UNL A   1      43.490  26.006  26.176  1.00  0.00     0.016 A 
ATOM     41  C   UNL A   1      41.541  24.598  26.526  1.00  0.00     0.016 A 
ATOM     42  C   UNL A   1      42.998  26.935  27.089  1.00  0.00     0.010 A 
ATOM     43  C   UNL A   1      41.052  25.530  27.449  1.00  0.00     0.010 A 
ATOM     44  C   UNL A   1      41.796  26.683  27.762  1.00  0.00    -0.014 A 
BRANCH  44  45
ATOM     45  C   UNL A   1      41.402  27.551  28.900  1.00  0.00     0.031 A 
ATOM     46  C   UNL A   1      42.176  27.459  30.187  1.00  0.00     0.074 A 
ATOM     47  C   UNL A   1      40.397  28.436  28.780  1.00  0.00     0.049 A 
ATOM     48  N   UNL A   1      41.987  28.093  31.316  1.00  0.00    -0.248 NA
ATOM     49  C   UNL A   1      43.316  26.529  30.200  1.00  0.00     0.031 C 
ATOM     50  C   UNL A   1      39.607  28.658  27.571  1.00  0.00     0.029 A 
ATOM     51  N   UNL A   1      39.870  29.312  29.695  1.00  0.00    -0.354 N 
ATOM     52  C   UNL A   1      42.978  27.634  32.175  1.00  0.00     0.074 A 
ATOM     53  C   UNL A   1      43.747  26.649  31.447  1.00  0.00     0.031 C 
ATOM     54  C   UNL A   1      38.685  29.603  27.823  1.00  0.00     0.029 A 
ATOM     55  C   UNL A   1      38.800  30.028  29.217  1.00  0.00     0.049 A 
ATOM     56  H   UNL A   1      40.224  29.416  30.607  1.00  0.00     0.167 HD
ATOM     57  C   UNL A   1      43.230  28.007  33.453  1.00  0.00     0.037 A 
ATOM     58  C   UNL A   1      37.995  30.909  29.841  1.00  0.00     0.037 A 
ATOM     59  C   UNL A   1      42.465  28.987  34.177  1.00  0.00     0.049 A 
ATOM     60  C   UNL A   1      38.241  31.245  31.288  1.00  0.00     0.074 A 
ATOM     61  C   UNL A   1      42.652  29.442  35.471  1.00  0.00     0.029 A 
ATOM     62  N   UNL A   1      41.363  29.659  33.672  1.00  0.00    -0.354 N 
ATOM     63  N   UNL A   1      39.191  30.817  32.087  1.00  0.00    -0.248 NA
ATOM     64  C   UNL A   1      37.305  32.184  31.920  1.00  0.00     0.031 C 
ATOM     65  C   UNL A   1      41.631  30.354  35.764  1.00  0.00     0.029 A 
ATOM     66  C   UNL A   1      40.842  30.505  34.636  1.00  0.00     0.049 A 
ATOM     67  H   UNL A   1      41.004  29.551  32.762  1.00  0.00     0.167 HD
ATOM     68  C   UNL A   1      38.983  31.458  33.302  1.00  0.00     0.074 A 
ATOM     69  C   UNL A   1      37.823  32.309  33.135  1.00  0.00     0.031 C 
ATOM     70  C   UNL A   1      39.692  31.353  34.453  1.00  0.00     0.037 A 
BRANCH  57  71
ATOM     71  C   UNL A   1      44.367  27.327  34.157  1.00  0.00     0.057 A 
ATOM     72  C   UNL A   1      44.186  26.144  34.886  1.00  0.00     0.134 A 
ATOM     73  C   UNL A   1      45.665  27.848  34.083  1.00  0.00     0.134 A 
ATOM     74  F   UNL A   1      42.966  25.599  35.006  1.00  0.00    -0.206 F 
ATOM     75  C   UNL A   1      45.250  25.517  35.536  1.00  0.00     0.040 A 
ATOM     76  C   UNL A   1      46.741  27.216  34.708  1.00  0.00     0.040 A 
ATOM     77  F   UNL A   1      45.908  28.975  33.398  1.00  0.00    -0.206 F 
ATOM     78  C   UNL A   1      46.535  26.051  35.443  1.00  0.00     0.006 A 
ENDBRANCH  57  71
BRANCH  58  79
ATOM     79  C   UNL A   1      36.862  31.527  29.107  1.00  0.00     0.057 A 
ATOM     80  C   UNL A   1      36.920  32.854  28.668  1.00  0.00     0.134 A 
ATOM     81  C   UNL A   1      35.688  30.811  28.844  1.00  0.00     0.134 A 
ATOM     82  F   UNL A   1      38.008  33.598  28.912  1.00  0.00    -0.206 F 
ATOM     83  C   UNL A   1      35.847  33.452  28.005  1.00  0.00     0.040 A 
ATOM     84  C   UNL A   1      34.616  31.388  28.161  1.00  0.00     0.040 A 
ATOM     85  F   UNL A   1      35.568  29.535  29.239  1.00  0.00    -0.206 F 
ATOM     86  C   UNL A   1      34.692  32.716  27.746  1.00  0.00     0.006 A 
ENDBRANCH  58  79
BRANCH  70  87
ATOM     87  C   UNL A   1      39.260  32.204  35.612  1.00  0.00     0.057 A 
ATOM     88  C   UNL A   1      39.754  33.499  35.806  1.00  0.00     0.134 A 
ATOM     89  C   UNL A   1      38.299  31.736  36.519  1.00  0.00     0.134 A 
ATOM     90  F   UNL A   1      40.685  34.002  34.981  1.00  0.00    -0.206 F 
ATOM     91  C   UNL A   1      39.321  34.293  36.869  1.00  0.00     0.040 A 
ATOM     92  C   UNL A   1      37.839  32.529  37.571  1.00  0.00     0.040 A 
ATOM     93  F   UNL A   1      37.778  30.507  36.385  1.00  0.00    -0.206 F 
ATOM     94  C   UNL A   1      38.355  33.810  37.751  1.00  0.00     0.006 A 
ENDBRANCH  70  87
ENDBRANCH  44  45
ENDBRANCH  37  39
ENDBRANCH  36  37
ENDBRANCH  35  36
ENDBRANCH  34  35
ENDBRANCH  33  34
ENDBRANCH  32  33
ENDBRANCH  31  32
ENDBRANCH  30  31
ENDBRANCH   1  30
TORSDOF 24
ENDMDL
MODEL 2
REMARK VINA RESULT:     -10.0      2.038      3.064
REMARK SMILES CCCCCCCNC(=O)Oc1cccc(-c2ccc([C@@H](C)C(=O)OCCOCCOC(=O)c3ccc(-c4c5nc(c(-c6c(F)cccc6F)c6ccc([nH]6)c(-c6c(F)cccc6F)c6nc(c(-c7c(F)cccc7F)c7ccc4[nH]7)C=C6)C=C5)cc3)cc2F)c1
REMARK SMILES IDX 23 1 24 2 21 3 22 4 20 5 17 6 18 7 89 8 19 9 88 10 90 11
REMARK SMILES IDX 16 12 12 13 13 14 91 15 14 16 15 17 11 18 9 19 8 20 10 22
REMARK SMILES IDX 7 23 6 24 5 25 4 26 3 27 2 28 1 29 25 30 26 31 27 32 28 33
REMARK SMILES IDX 29 34 30 35 31 36 32 37 33 38 34 39 35 40 87 41 36 42 86 43
REMARK SMILES IDX 37 44 38 45 39 46 80 47 40 48 85 49 79 50 81 51 41 52 84 53
REMARK SMILES IDX 78 54 77 55 42 57 68 58 51 59 67 60 52 61 55 62 66 63 82 64
REMARK SMILES IDX 53 65 54 66 65 68 83 69 56 70 43 71 44 72 49 73 45 74 46 75
REMARK SMILES IDX 48 76 50 77 47 78 69 79 70 80 75 81 71 82 72 83 74 84 76 85
REMARK SMILES IDX 73 86 57 87 58 88 63 89 59 90 60 91 62 92 64 93 61 94
REMARK H PARENT 8 21 81 56 55 67
REMARK Flexibility Score: inf
ROOT
ATOM      1  C   UNL A   1      41.444  20.887  27.538  1.00  0.00     0.313 C 
ATOM      2  O   UNL A   1      40.744  20.271  28.337  1.00  0.00    -0.252 OA
ENDROOT
BRANCH   1   3
ATOM      3  C   UNL A   1      41.002  22.219  26.951  1.00  0.00     0.126 C 
ATOM      4  C   UNL A   1      41.363  23.337  27.926  1.00  0.00     0.025 C 
BRANCH   3   5
ATOM      5  C   UNL A   1      39.567  22.344  26.451  1.00  0.00    -0.031 A 
ATOM      6  C   UNL A   1      36.975  22.597  25.273  1.00  0.00     0.018 A 
ATOM      7  C   UNL A   1      37.510  23.608  26.087  1.00  0.00     0.012 A 
ATOM      8  C   UNL A   1      37.748  21.442  25.102  1.00  0.00     0.131 A 
ATOM      9  C   UNL A   1      38.784  23.486  26.666  1.00  0.00     0.005 A 
ATOM     10  C   UNL A   1      39.016  21.312  25.674  1.00  0.00     0.044 A 
ATOM     11  F   UNL A   1      37.301  20.435  24.335  1.00  0.00    -0.206 F 
BRANCH   6  12
ATOM     12  C   UNL A   1      35.683  22.772  24.583  1.00  0.00    -0.012 A 
ATOM     13  C   UNL A   1      34.193  24.018  23.124  1.00  0.00     0.133 A 
ATOM     14  C   UNL A   1      33.162  23.109  23.348  1.00  0.00     0.047 A 
ATOM     15  C   UNL A   1      35.438  23.870  23.743  1.00  0.00     0.056 A 
ATOM     16  C   UNL A   1      33.388  22.016  24.177  1.00  0.00     0.004 A 
ATOM     17  C   UNL A   1      34.637  21.849  24.785  1.00  0.00     0.009 A 
BRANCH  13  18
ATOM     18  O   UNL A   1      33.888  25.141  22.341  1.00  0.00    -0.410 OA
BRANCH  18  19
ATOM     19  C   UNL A   1      33.002  24.954  21.292  1.00  0.00     0.412 C 
ATOM     20  N   UNL A   1      31.812  25.603  21.468  1.00  0.00    -0.321 N 
ATOM     21  H   UNL A   1      31.157  25.523  20.736  1.00  0.00     0.167 HD
ATOM     22  O   UNL A   1      33.203  24.276  20.289  1.00  0.00    -0.224 OA
BRANCH  20  23
ATOM     23  C   UNL A   1      31.404  26.396  22.613  1.00  0.00     0.119 C 
BRANCH  23  24
ATOM     24  C   UNL A   1      31.826  27.860  22.481  1.00  0.00     0.021 C 
BRANCH  24  25
ATOM     25  C   UNL A   1      32.137  28.566  23.808  1.00  0.00     0.002 C 
BRANCH  25  26
ATOM     26  C   UNL A   1      33.614  28.580  24.218  1.00  0.00     0.000 C 
BRANCH  26  27
ATOM     27  C   UNL A   1      33.883  28.366  25.711  1.00  0.00    -0.000 C 
BRANCH  27  28
ATOM     28  C   UNL A   1      33.002  27.316  26.393  1.00  0.00    -0.003 C 
ATOM     29  C   UNL A   1      33.354  25.886  26.010  1.00  0.00     0.004 C 
ENDBRANCH  27  28
ENDBRANCH  26  27
ENDBRANCH  25  26
ENDBRANCH  24  25
ENDBRANCH  23  24
ENDBRANCH  20  23
ENDBRANCH  18  19
ENDBRANCH  13  18
ENDBRANCH   6  12
ENDBRANCH   3   5
ENDBRANCH   1   3
BRANCH   1  30
ATOM     30  O   UNL A   1      42.639  20.447  27.068  1.00  0.00    -0.463 OA
BRANCH  30  31
ATOM     31  C   UNL A   1      42.731  20.288  25.640  1.00  0.00     0.261 C 
BRANCH  31  32
ATOM     32  C   UNL A   1      44.149  19.900  25.214  1.00  0.00     0.202 C 
BRANCH  32  33
ATOM     33  O   UNL A   1      44.998  20.967  24.793  1.00  0.00    -0.374 OA
BRANCH  33  34
ATOM     34  C   UNL A   1      45.145  22.081  25.673  1.00  0.00     0.202 C 
BRANCH  34  35
ATOM     35  C   UNL A   1      45.276  23.464  25.021  1.00  0.00     0.261 C 
BRANCH  35  36
ATOM     36  O   UNL A   1      46.043  24.379  25.823  1.00  0.00    -0.460 OA
BRANCH  36  37
ATOM     37  C   UNL A   1      45.861  25.688  25.519  1.00  0.00     0.338 C 
ATOM     38  O   UNL A   1      46.289  26.291  24.553  1.00  0.00    -0.246 OA
BRANCH  37  39
ATOM     39  C   UNL A   1      44.878  26.285  26.444  1.00  0.00     0.060 A 
ATOM     40  C   UNL A   1      44.628  27.658  26.315  1.00  0.00     0.016 A 
ATOM     41  C   UNL A   1      44.278  25.547  27.466  1.00  0.00     0.016 A 
ATOM     42  C   UNL A   1      43.817  28.311  27.241  1.00  0.00     0.010 A 
ATOM     43  C   UNL A   1      43.469  26.205  28.400  1.00  0.00     0.010 A 
ATOM     44  C   UNL A   1      43.266  27.596  28.312  1.00  0.00    -0.014 A 
BRANCH  44  45
ATOM     45  C   UNL A   1      42.610  28.335  29.420  1.00  0.00     0.031 A 
ATOM     46  C   UNL A   1      43.294  28.400  30.758  1.00  0.00     0.074 A 
ATOM     47  C   UNL A   1      41.442  28.973  29.229  1.00  0.00     0.049 A 
ATOM     48  N   UNL A   1      42.890  28.957  31.871  1.00  0.00    -0.248 NA
ATOM     49  C   UNL A   1      44.611  27.750  30.852  1.00  0.00     0.031 C 
ATOM     50  C   UNL A   1      40.706  29.030  27.968  1.00  0.00     0.029 A 
ATOM     51  N   UNL A   1      40.669  29.693  30.105  1.00  0.00    -0.354 N 
ATOM     52  C   UNL A   1      43.897  28.719  32.798  1.00  0.00     0.074 A 
ATOM     53  C   UNL A   1      44.917  27.944  32.126  1.00  0.00     0.031 C 
ATOM     54  C   UNL A   1      39.580  29.740  28.154  1.00  0.00     0.029 A 
ATOM     55  C   UNL A   1      39.501  30.158  29.552  1.00  0.00     0.049 A 
ATOM     56  H   UNL A   1      40.927  29.861  31.039  1.00  0.00     0.167 HD
ATOM     57  C   UNL A   1      43.971  29.119  34.090  1.00  0.00     0.037 A 
ATOM     58  C   UNL A   1      38.476  30.825  30.118  1.00  0.00     0.037 A 
ATOM     59  C   UNL A   1      42.957  29.891  34.758  1.00  0.00     0.049 A 
ATOM     60  C   UNL A   1      38.541  31.186  31.578  1.00  0.00     0.074 A 
ATOM     61  C   UNL A   1      42.947  30.356  36.062  1.00  0.00     0.029 A 
ATOM     62  N   UNL A   1      41.768  30.305  34.177  1.00  0.00    -0.354 N 
ATOM     63  N   UNL A   1      39.505  30.970  32.442  1.00  0.00    -0.248 NA
ATOM     64  C   UNL A   1      37.375  31.880  32.143  1.00  0.00     0.031 C 
ATOM     65  C   UNL A   1      41.729  31.010  36.283  1.00  0.00     0.029 A 
ATOM     66  C   UNL A   1      41.005  30.997  35.101  1.00  0.00     0.049 A 
ATOM     67  H   UNL A   1      41.507  30.134  33.243  1.00  0.00     0.167 HD
ATOM     68  C   UNL A   1      39.075  31.528  33.640  1.00  0.00     0.074 A 
ATOM     69  C   UNL A   1      37.768  32.099  33.391  1.00  0.00     0.031 C 
ATOM     70  C   UNL A   1      39.709  31.568  34.837  1.00  0.00     0.037 A 
BRANCH  57  71
ATOM     71  C   UNL A   1      45.180  28.701  34.873  1.00  0.00     0.057 A 
ATOM     72  C   UNL A   1      45.225  27.492  35.578  1.00  0.00     0.134 A 
ATOM     73  C   UNL A   1      46.325  29.508  34.900  1.00  0.00     0.134 A 
ATOM     74  F   UNL A   1      44.157  26.680  35.603  1.00  0.00    -0.206 F 
ATOM     75  C   UNL A   1      46.356  27.110  36.302  1.00  0.00     0.040 A 
ATOM     76  C   UNL A   1      47.471  29.125  35.599  1.00  0.00     0.040 A 
ATOM     77  F   UNL A   1      46.351  30.676  34.241  1.00  0.00    -0.206 F 
ATOM     78  C   UNL A   1      47.486  27.927  36.308  1.00  0.00     0.006 A 
ENDBRANCH  57  71
BRANCH  58  79
ATOM     79  C   UNL A   1      37.286  31.184  29.305  1.00  0.00     0.057 A 
ATOM     80  C   UNL A   1      37.144  32.461  28.752  1.00  0.00     0.134 A 
ATOM     81  C   UNL A   1      36.256  30.265  29.078  1.00  0.00     0.134 A 
ATOM     82  F   UNL A   1      38.087  33.394  28.956  1.00  0.00    -0.206 F 
ATOM     83  C   UNL A   1      36.014  32.817  28.014  1.00  0.00     0.040 A 
ATOM     84  C   UNL A   1      35.131  30.598  28.322  1.00  0.00     0.040 A 
ATOM     85  F   UNL A   1      36.331  29.024  29.582  1.00  0.00    -0.206 F 
ATOM     86  C   UNL A   1      35.006  31.881  27.794  1.00  0.00     0.006 A 
ENDBRANCH  58  79
BRANCH  70  87
ATOM     87  C   UNL A   1      39.017  32.281  35.963  1.00  0.00     0.057 A 
ATOM     88  C   UNL A   1      38.177  31.612  36.860  1.00  0.00     0.134 A 
ATOM     89  C   UNL A   1      39.235  33.649  36.179  1.00  0.00     0.134 A 
ATOM     90  F   UNL A   1      37.917  30.305  36.702  1.00  0.00    -0.206 F 
ATOM     91  C   UNL A   1      37.564  32.280  37.922  1.00  0.00     0.040 A 
ATOM     92  C   UNL A   1      38.649  34.322  37.251  1.00  0.00     0.040 A 
ATOM     93  F   UNL A   1      40.037  34.348  35.361  1.00  0.00    -0.206 F 
ATOM     94  C   UNL A   1      37.806  33.638  38.124  1.00  0.00     0.006 A 
ENDBRANCH  70  87
ENDBRANCH  44  45
ENDBRANCH  37  39
ENDBRANCH  36  37
ENDBRANCH  35  36
ENDBRANCH  34  35
ENDBRANCH  33  34
ENDBRANCH  32  33
ENDBRANCH  31  32
ENDBRANCH  30  31
ENDBRANCH   1  30
TORSDOF 24
ENDMDL
MODEL 3
REMARK VINA RESULT:      -9.8      6.739     10.561
REMARK SMILES CCCCCCCNC(=O)Oc1cccc(-c2ccc([C@@H](C)C(=O)OCCOCCOC(=O)c3ccc(-c4c5nc(c(-c6c(F)cccc6F)c6ccc([nH]6)c(-c6c(F)cccc6F)c6nc(c(-c7c(F)cccc7F)c7ccc4[nH]7)C=C6)C=C5)cc3)cc2F)c1
REMARK SMILES IDX 23 1 24 2 21 3 22 4 20 5 17 6 18 7 89 8 19 9 88 10 90 11
REMARK SMILES IDX 16 12 12 13 13 14 91 15 14 16 15 17 11 18 9 19 8 20 10 22
REMARK SMILES IDX 7 23 6 24 5 25 4 26 3 27 2 28 1 29 25 30 26 31 27 32 28 33
REMARK SMILES IDX 29 34 30 35 31 36 32 37 33 38 34 39 35 40 87 41 36 42 86 43
REMARK SMILES IDX 37 44 38 45 39 46 80 47 40 48 85 49 79 50 81 51 41 52 84 53
REMARK SMILES IDX 78 54 77 55 42 57 68 58 51 59 67 60 52 61 55 62 66 63 82 64
REMARK SMILES IDX 53 65 54 66 65 68 83 69 56 70 43 71 44 72 49 73 45 74 46 75
REMARK SMILES IDX 48 76 50 77 47 78 69 79 70 80 75 81 71 82 72 83 74 84 76 85
REMARK SMILES IDX 73 86 57 87 58 88 63 89 59 90 60 91 62 92 64 93 61 94
REMARK H PARENT 8 21 81 56 55 67
REMARK Flexibility Score: inf
ROOT
ATOM      1  C   UNL A   1      39.794  28.286  27.779  1.00  0.00     0.313 C 
ATOM      2  O   UNL A   1      40.266  28.979  26.882  1.00  0.00    -0.252 OA
ENDROOT
BRANCH   1   3
ATOM      3  C   UNL A   1      39.283  28.898  29.075  1.00  0.00     0.126 C 
ATOM      4  C   UNL A   1      38.756  27.784  29.976  1.00  0.00     0.025 C 
BRANCH   3   5
ATOM      5  C   UNL A   1      38.305  30.065  28.983  1.00  0.00    -0.031 A 
ATOM      6  C   UNL A   1      36.469  32.254  29.072  1.00  0.00     0.018 A 
ATOM      7  C   UNL A   1      36.080  30.992  28.594  1.00  0.00     0.012 A 
ATOM      8  C   UNL A   1      37.807  32.403  29.459  1.00  0.00     0.131 A 
ATOM      9  C   UNL A   1      36.980  29.914  28.551  1.00  0.00     0.005 A 
ATOM     10  C   UNL A   1      38.709  31.337  29.419  1.00  0.00     0.044 A 
ATOM     11  F   UNL A   1      38.249  33.581  29.927  1.00  0.00    -0.206 F 
BRANCH   6  12
ATOM     12  C   UNL A   1      35.496  33.353  29.213  1.00  0.00    -0.012 A 
ATOM     13  C   UNL A   1      33.802  34.557  30.471  1.00  0.00     0.133 A 
ATOM     14  C   UNL A   1      33.582  35.426  29.405  1.00  0.00     0.047 A 
ATOM     15  C   UNL A   1      34.734  33.518  30.381  1.00  0.00     0.056 A 
ATOM     16  C   UNL A   1      34.328  35.275  28.242  1.00  0.00     0.004 A 
ATOM     17  C   UNL A   1      35.277  34.251  28.149  1.00  0.00     0.009 A 
BRANCH  13  18
ATOM     18  O   UNL A   1      32.971  34.705  31.591  1.00  0.00    -0.410 OA
BRANCH  18  19
ATOM     19  C   UNL A   1      33.128  35.859  32.342  1.00  0.00     0.412 C 
ATOM     20  N   UNL A   1      34.005  35.712  33.381  1.00  0.00    -0.321 N 
ATOM     21  H   UNL A   1      34.171  36.513  33.930  1.00  0.00     0.167 HD
ATOM     22  O   UNL A   1      32.555  36.928  32.153  1.00  0.00    -0.224 OA
BRANCH  20  23
ATOM     23  C   UNL A   1      34.716  34.508  33.767  1.00  0.00     0.119 C 
BRANCH  23  24
ATOM     24  C   UNL A   1      36.197  34.775  34.039  1.00  0.00     0.021 C 
BRANCH  24  25
ATOM     25  C   UNL A   1      37.170  33.874  33.265  1.00  0.00     0.002 C 
BRANCH  25  26
ATOM     26  C   UNL A   1      37.085  32.378  33.590  1.00  0.00     0.000 C 
BRANCH  26  27
ATOM     27  C   UNL A   1      38.208  31.515  33.006  1.00  0.00    -0.000 C 
BRANCH  27  28
ATOM     28  C   UNL A   1      37.899  30.019  32.902  1.00  0.00    -0.003 C 
ATOM     29  C   UNL A   1      36.623  29.715  32.131  1.00  0.00     0.004 C 
ENDBRANCH  27  28
ENDBRANCH  26  27
ENDBRANCH  25  26
ENDBRANCH  24  25
ENDBRANCH  23  24
ENDBRANCH  20  23
ENDBRANCH  18  19
ENDBRANCH  13  18
ENDBRANCH   6  12
ENDBRANCH   3   5
ENDBRANCH   1   3
BRANCH   1  30
ATOM     30  O   UNL A   1      39.711  26.931  27.739  1.00  0.00    -0.463 OA
BRANCH  30  31
ATOM     31  C   UNL A   1      40.765  26.259  27.026  1.00  0.00     0.261 C 
BRANCH  31  32
ATOM     32  C   UNL A   1      40.206  25.192  26.082  1.00  0.00     0.202 C 
BRANCH  32  33
ATOM     33  O   UNL A   1      39.703  24.006  26.696  1.00  0.00    -0.374 OA
BRANCH  33  34
ATOM     34  C   UNL A   1      40.441  23.464  27.791  1.00  0.00     0.202 C 
BRANCH  34  35
ATOM     35  C   UNL A   1      41.162  22.131  27.547  1.00  0.00     0.261 C 
BRANCH  35  36
ATOM     36  O   UNL A   1      42.585  22.291  27.422  1.00  0.00    -0.460 OA
BRANCH  36  37
ATOM     37  C   UNL A   1      43.000  22.733  26.208  1.00  0.00     0.338 C 
ATOM     38  O   UNL A   1      42.784  22.230  25.122  1.00  0.00    -0.246 OA
BRANCH  37  39
ATOM     39  C   UNL A   1      43.618  24.066  26.345  1.00  0.00     0.060 A 
ATOM     40  C   UNL A   1      43.789  24.817  25.174  1.00  0.00     0.016 A 
ATOM     41  C   UNL A   1      44.095  24.541  27.569  1.00  0.00     0.016 A 
ATOM     42  C   UNL A   1      44.487  26.022  25.212  1.00  0.00     0.010 A 
ATOM     43  C   UNL A   1      44.803  25.748  27.604  1.00  0.00     0.010 A 
ATOM     44  C   UNL A   1      45.034  26.474  26.420  1.00  0.00    -0.014 A 
BRANCH  44  45
ATOM     45  C   UNL A   1      45.974  27.622  26.409  1.00  0.00     0.031 A 
ATOM     46  C   UNL A   1      47.445  27.358  26.238  1.00  0.00     0.074 A 
ATOM     47  C   UNL A   1      45.525  28.886  26.511  1.00  0.00     0.049 A 
ATOM     48  N   UNL A   1      48.445  28.201  26.232  1.00  0.00    -0.248 NA
ATOM     49  C   UNL A   1      47.839  25.953  26.043  1.00  0.00     0.031 C 
ATOM     50  C   UNL A   1      44.121  29.276  26.628  1.00  0.00     0.029 A 
ATOM     51  N   UNL A   1      46.210  30.074  26.534  1.00  0.00    -0.354 N 
ATOM     52  C   UNL A   1      49.586  27.431  26.043  1.00  0.00     0.074 A 
ATOM     53  C   UNL A   1      49.157  26.051  25.966  1.00  0.00     0.031 C 
ATOM     54  C   UNL A   1      44.050  30.615  26.722  1.00  0.00     0.029 A 
ATOM     55  C   UNL A   1      45.402  31.171  26.704  1.00  0.00     0.049 A 
ATOM     56  H   UNL A   1      47.188  30.134  26.439  1.00  0.00     0.167 HD
ATOM     57  C   UNL A   1      50.874  27.837  25.934  1.00  0.00     0.037 A 
ATOM     58  C   UNL A   1      45.721  32.472  26.851  1.00  0.00     0.037 A 
ATOM     59  C   UNL A   1      51.300  29.209  26.011  1.00  0.00     0.049 A 
ATOM     60  C   UNL A   1      47.166  32.891  26.812  1.00  0.00     0.074 A 
ATOM     61  C   UNL A   1      52.581  29.721  25.898  1.00  0.00     0.029 A 
ATOM     62  N   UNL A   1      50.456  30.287  26.227  1.00  0.00    -0.354 N 
ATOM     63  N   UNL A   1      48.236  32.157  26.616  1.00  0.00    -0.248 NA
ATOM     64  C   UNL A   1      47.449  34.319  27.014  1.00  0.00     0.031 C 
ATOM     65  C   UNL A   1      52.516  31.105  26.095  1.00  0.00     0.029 A 
ATOM     66  C   UNL A   1      51.190  31.460  26.278  1.00  0.00     0.049 A 
ATOM     67  H   UNL A   1      49.478  30.227  26.328  1.00  0.00     0.167 HD
ATOM     68  C   UNL A   1      49.312  33.036  26.641  1.00  0.00     0.074 A 
ATOM     69  C   UNL A   1      48.766  34.359  26.864  1.00  0.00     0.031 C 
ATOM     70  C   UNL A   1      50.633  32.771  26.491  1.00  0.00     0.037 A 
BRANCH  57  71
ATOM     71  C   UNL A   1      51.917  26.775  25.749  1.00  0.00     0.057 A 
ATOM     72  C   UNL A   1      52.308  26.334  24.477  1.00  0.00     0.134 A 
ATOM     73  C   UNL A   1      52.560  26.206  26.856  1.00  0.00     0.134 A 
ATOM     74  F   UNL A   1      51.723  26.829  23.377  1.00  0.00    -0.206 F 
ATOM     75  C   UNL A   1      53.282  25.347  24.315  1.00  0.00     0.040 A 
ATOM     76  C   UNL A   1      53.553  25.237  26.705  1.00  0.00     0.040 A 
ATOM     77  F   UNL A   1      52.237  26.587  28.101  1.00  0.00    -0.206 F 
ATOM     78  C   UNL A   1      53.912  24.800  25.432  1.00  0.00     0.006 A 
ENDBRANCH  57  71
BRANCH  58  79
ATOM     79  C   UNL A   1      44.650  33.478  27.067  1.00  0.00     0.057 A 
ATOM     80  C   UNL A   1      44.182  33.774  28.351  1.00  0.00     0.134 A 
ATOM     81  C   UNL A   1      44.059  34.153  25.993  1.00  0.00     0.134 A 
ATOM     82  F   UNL A   1      44.692  33.141  29.418  1.00  0.00    -0.206 F 
ATOM     83  C   UNL A   1      43.154  34.694  28.561  1.00  0.00     0.040 A 
ATOM     84  C   UNL A   1      43.046  35.094  26.188  1.00  0.00     0.040 A 
ATOM     85  F   UNL A   1      44.462  33.914  24.737  1.00  0.00    -0.206 F 
ATOM     86  C   UNL A   1      42.587  35.362  27.477  1.00  0.00     0.006 A 
ENDBRANCH  58  79
BRANCH  70  87
ATOM     87  C   UNL A   1      51.580  33.936  26.524  1.00  0.00     0.057 A 
ATOM     88  C   UNL A   1      52.196  34.357  27.708  1.00  0.00     0.134 A 
ATOM     89  C   UNL A   1      51.917  34.613  25.344  1.00  0.00     0.134 A 
ATOM     90  F   UNL A   1      51.907  33.759  28.874  1.00  0.00    -0.206 F 
ATOM     91  C   UNL A   1      53.099  35.421  27.721  1.00  0.00     0.040 A 
ATOM     92  C   UNL A   1      52.837  35.661  25.339  1.00  0.00     0.040 A 
ATOM     93  F   UNL A   1      51.368  34.253  24.173  1.00  0.00    -0.206 F 
ATOM     94  C   UNL A   1      53.427  36.071  26.532  1.00  0.00     0.006 A 
ENDBRANCH  70  87
ENDBRANCH  44  45
ENDBRANCH  37  39
ENDBRANCH  36  37
ENDBRANCH  35  36
ENDBRANCH  34  35
ENDBRANCH  33  34
ENDBRANCH  32  33
ENDBRANCH  31  32
ENDBRANCH  30  31
ENDBRANCH   1  30
TORSDOF 24
ENDMDL
