MODEL 1
REMARK VINA RESULT:      -9.6      0.000      0.000
REMARK SMILES CC(=O)NCCNC(=O)C[N@@H+](C)CC(=O)OCCOCCOC(=O)c1ccc(-c2c3nc(c(-c4c(F)cccc4F)c4ccc([nH]4)c(-c4c(F)cccc4F)c4nc(c(-c5c(F)cccc5F)c5ccc2[nH]5)C=C4)C=C3)cc1
REMARK SMILES IDX 17 1 16 2 14 3 15 4 13 5 11 6 12 7 10 9 8 10 7 11 9 13 6 14
REMARK SMILES IDX 5 15 4 16 1 17 2 18 3 19 18 21 19 22 20 23 21 24 22 25 23 26
REMARK SMILES IDX 24 27 25 28 26 29 78 30 27 31 77 32 28 33 29 34 30 35 71 36
REMARK SMILES IDX 31 37 76 38 70 39 72 40 32 41 75 42 69 43 68 44 33 46 59 47
REMARK SMILES IDX 42 48 58 49 43 50 46 51 57 52 73 53 44 54 45 55 56 57 74 58
REMARK SMILES IDX 47 59 34 60 35 61 40 62 36 63 37 64 39 65 41 66 38 67 60 68
REMARK SMILES IDX 61 69 66 70 62 71 63 72 65 73 67 74 64 75 48 76 49 77 54 78
REMARK SMILES IDX 50 79 51 80 53 81 55 82 52 83
REMARK H PARENT 11 8 7 12 4 20 72 45 46 56
REMARK Flexibility Score: inf
ROOT
ATOM      1  C   UNL A   1      33.794  31.973  27.717  1.00  0.00     0.261 C 
ENDROOT
BRANCH   1   2
ATOM      2  O   UNL A   1      34.032  30.713  27.052  1.00  0.00    -0.459 OA
BRANCH   2   3
ATOM      3  C   UNL A   1      32.928  30.066  26.595  1.00  0.00     0.361 C 
ATOM      4  O   UNL A   1      31.869  30.001  27.214  1.00  0.00    -0.245 OA
BRANCH   3   5
ATOM      5  C   UNL A   1      33.118  29.300  25.292  1.00  0.00     0.386 C 
BRANCH   5   6
ATOM      6  N   UNL A   1      32.689  27.887  25.159  1.00  0.00    -0.320 N 
ATOM      7  C   UNL A   1      33.642  26.937  25.725  1.00  0.00     0.333 C 
ATOM      8  H   UNL A   1      31.837  27.870  25.719  1.00  0.00     0.348 HD
BRANCH   6   9
ATOM      9  C   UNL A   1      32.280  27.460  23.809  1.00  0.00     0.363 C 
BRANCH   9  10
ATOM     10  C   UNL A   1      32.667  28.448  22.704  1.00  0.00     0.275 C 
ATOM     11  N   UNL A   1      31.739  29.318  22.210  1.00  0.00    -0.349 N 
ATOM     12  H   UNL A   1      32.015  29.846  21.426  1.00  0.00     0.163 HD
ATOM     13  O   UNL A   1      33.802  28.455  22.226  1.00  0.00    -0.269 OA
BRANCH  11  14
ATOM     14  C   UNL A   1      30.391  29.563  22.700  1.00  0.00     0.137 C 
BRANCH  14  15
ATOM     15  C   UNL A   1      29.530  30.272  21.650  1.00  0.00     0.137 C 
BRANCH  15  16
ATOM     16  N   UNL A   1      29.462  31.705  21.893  1.00  0.00    -0.355 N 
ATOM     17  C   UNL A   1      27.623  31.577  23.525  1.00  0.00     0.114 C 
ATOM     18  C   UNL A   1      28.595  32.379  22.703  1.00  0.00     0.216 C 
ATOM     19  O   UNL A   1      28.631  33.606  22.751  1.00  0.00    -0.275 OA
ATOM     20  H   UNL A   1      30.121  32.257  21.415  1.00  0.00     0.163 HD
ENDBRANCH  15  16
ENDBRANCH  14  15
ENDBRANCH  11  14
ENDBRANCH   9  10
ENDBRANCH   6   9
ENDBRANCH   5   6
ENDBRANCH   3   5
ENDBRANCH   2   3
ENDBRANCH   1   2
BRANCH   1  21
ATOM     21  C   UNL A   1      34.782  32.208  28.862  1.00  0.00     0.202 C 
BRANCH  21  22
ATOM     22  O   UNL A   1      34.512  33.335  29.696  1.00  0.00    -0.374 OA
BRANCH  22  23
ATOM     23  C   UNL A   1      34.178  34.555  29.034  1.00  0.00     0.202 C 
BRANCH  23  24
ATOM     24  C   UNL A   1      32.908  35.243  29.556  1.00  0.00     0.261 C 
BRANCH  24  25
ATOM     25  O   UNL A   1      33.181  36.073  30.705  1.00  0.00    -0.460 OA
BRANCH  25  26
ATOM     26  C   UNL A   1      32.801  35.538  31.889  1.00  0.00     0.338 C 
ATOM     27  O   UNL A   1      31.662  35.423  32.320  1.00  0.00    -0.246 OA
BRANCH  26  28
ATOM     28  C   UNL A   1      33.952  34.925  32.581  1.00  0.00     0.060 A 
ATOM     29  C   UNL A   1      35.186  35.574  32.459  1.00  0.00     0.016 A 
ATOM     30  C   UNL A   1      33.862  33.695  33.238  1.00  0.00     0.016 A 
ATOM     31  C   UNL A   1      36.348  34.965  32.927  1.00  0.00     0.010 A 
ATOM     32  C   UNL A   1      35.034  33.080  33.703  1.00  0.00     0.010 A 
ATOM     33  C   UNL A   1      36.288  33.691  33.506  1.00  0.00    -0.014 A 
BRANCH  33  34
ATOM     34  C   UNL A   1      37.554  32.940  33.714  1.00  0.00     0.031 A 
ATOM     35  C   UNL A   1      38.340  33.178  34.977  1.00  0.00     0.074 A 
ATOM     36  C   UNL A   1      37.960  31.999  32.843  1.00  0.00     0.049 A 
ATOM     37  N   UNL A   1      39.446  32.610  35.387  1.00  0.00    -0.248 NA
ATOM     38  C   UNL A   1      37.802  34.185  35.905  1.00  0.00     0.031 C 
ATOM     39  C   UNL A   1      37.268  31.632  31.610  1.00  0.00     0.029 A 
ATOM     40  N   UNL A   1      39.054  31.170  32.875  1.00  0.00    -0.354 N 
ATOM     41  C   UNL A   1      39.735  33.189  36.618  1.00  0.00     0.074 A 
ATOM     42  C   UNL A   1      38.708  34.177  36.871  1.00  0.00     0.031 C 
ATOM     43  C   UNL A   1      37.953  30.648  31.002  1.00  0.00     0.029 A 
ATOM     44  C   UNL A   1      39.143  30.332  31.791  1.00  0.00     0.049 A 
ATOM     45  H   UNL A   1      39.714  31.177  33.606  1.00  0.00     0.167 HD
ATOM     46  C   UNL A   1      40.751  32.913  37.470  1.00  0.00     0.037 A 
ATOM     47  C   UNL A   1      40.083  29.420  31.468  1.00  0.00     0.037 A 
ATOM     48  C   UNL A   1      41.770  31.928  37.231  1.00  0.00     0.049 A 
ATOM     49  C   UNL A   1      41.245  29.185  32.397  1.00  0.00     0.074 A 
ATOM     50  C   UNL A   1      42.836  31.575  38.041  1.00  0.00     0.029 A 
ATOM     51  N   UNL A   1      41.851  31.136  36.096  1.00  0.00    -0.354 N 
ATOM     52  N   UNL A   1      41.497  29.729  33.562  1.00  0.00    -0.248 NA
ATOM     53  C   UNL A   1      42.252  28.205  31.964  1.00  0.00     0.031 C 
ATOM     54  C   UNL A   1      43.587  30.600  37.377  1.00  0.00     0.029 A 
ATOM     55  C   UNL A   1      42.962  30.312  36.174  1.00  0.00     0.049 A 
ATOM     56  H   UNL A   1      41.214  31.156  35.346  1.00  0.00     0.167 HD
ATOM     57  C   UNL A   1      42.671  29.137  34.014  1.00  0.00     0.074 A 
ATOM     58  C   UNL A   1      43.078  28.185  33.002  1.00  0.00     0.031 C 
ATOM     59  C   UNL A   1      43.350  29.361  35.165  1.00  0.00     0.037 A 
BRANCH  46  60
ATOM     60  C   UNL A   1      40.817  33.707  38.741  1.00  0.00     0.057 A 
ATOM     61  C   UNL A   1      40.053  33.368  39.864  1.00  0.00     0.134 A 
ATOM     62  C   UNL A   1      41.677  34.806  38.851  1.00  0.00     0.134 A 
ATOM     63  F   UNL A   1      39.199  32.335  39.819  1.00  0.00    -0.206 F 
ATOM     64  C   UNL A   1      40.129  34.105  41.048  1.00  0.00     0.040 A 
ATOM     65  C   UNL A   1      41.779  35.537  40.035  1.00  0.00     0.040 A 
ATOM     66  F   UNL A   1      42.438  35.182  37.811  1.00  0.00    -0.206 F 
ATOM     67  C   UNL A   1      40.999  35.190  41.136  1.00  0.00     0.006 A 
ENDBRANCH  46  60
BRANCH  47  68
ATOM     68  C   UNL A   1      39.974  28.657  30.199  1.00  0.00     0.057 A 
ATOM     69  C   UNL A   1      39.247  27.464  30.127  1.00  0.00     0.134 A 
ATOM     70  C   UNL A   1      40.626  29.087  29.036  1.00  0.00     0.134 A 
ATOM     71  F   UNL A   1      38.623  26.987  31.214  1.00  0.00    -0.206 F 
ATOM     72  C   UNL A   1      39.185  26.716  28.949  1.00  0.00     0.040 A 
ATOM     73  C   UNL A   1      40.554  28.361  27.846  1.00  0.00     0.040 A 
ATOM     74  F   UNL A   1      41.341  30.222  29.042  1.00  0.00    -0.206 F 
ATOM     75  C   UNL A   1      39.837  27.167  27.804  1.00  0.00     0.006 A 
ENDBRANCH  47  68
BRANCH  59  76
ATOM     76  C   UNL A   1      44.580  28.539  35.414  1.00  0.00     0.057 A 
ATOM     77  C   UNL A   1      44.523  27.298  36.061  1.00  0.00     0.134 A 
ATOM     78  C   UNL A   1      45.832  28.974  34.960  1.00  0.00     0.134 A 
ATOM     79  F   UNL A   1      43.356  26.828  36.529  1.00  0.00    -0.206 F 
ATOM     80  C   UNL A   1      45.670  26.529  36.266  1.00  0.00     0.040 A 
ATOM     81  C   UNL A   1      46.982  28.204  35.139  1.00  0.00     0.040 A 
ATOM     82  F   UNL A   1      45.955  30.150  34.325  1.00  0.00    -0.206 F 
ATOM     83  C   UNL A   1      46.904  26.979  35.798  1.00  0.00     0.006 A 
ENDBRANCH  59  76
ENDBRANCH  33  34
ENDBRANCH  26  28
ENDBRANCH  25  26
ENDBRANCH  24  25
ENDBRANCH  23  24
ENDBRANCH  22  23
ENDBRANCH  21  22
ENDBRANCH   1  21
TORSDOF 20
ENDMDL
MODEL 2
REMARK VINA RESULT:      -9.3      5.573     10.422
REMARK SMILES CC(=O)NCCNC(=O)C[N@@H+](C)CC(=O)OCCOCCOC(=O)c1ccc(-c2c3nc(c(-c4c(F)cccc4F)c4ccc([nH]4)c(-c4c(F)cccc4F)c4nc(c(-c5c(F)cccc5F)c5ccc2[nH]5)C=C4)C=C3)cc1
REMARK SMILES IDX 17 1 16 2 14 3 15 4 13 5 11 6 12 7 10 9 8 10 7 11 9 13 6 14
REMARK SMILES IDX 5 15 4 16 1 17 2 18 3 19 18 21 19 22 20 23 21 24 22 25 23 26
REMARK SMILES IDX 24 27 25 28 26 29 78 30 27 31 77 32 28 33 29 34 30 35 71 36
REMARK SMILES IDX 31 37 76 38 70 39 72 40 32 41 75 42 69 43 68 44 33 46 59 47
REMARK SMILES IDX 42 48 58 49 43 50 46 51 57 52 73 53 44 54 45 55 56 57 74 58
REMARK SMILES IDX 47 59 34 60 35 61 40 62 36 63 37 64 39 65 41 66 38 67 60 68
REMARK SMILES IDX 61 69 66 70 62 71 63 72 65 73 67 74 64 75 48 76 49 77 54 78
REMARK SMILES IDX 50 79 51 80 53 81 55 82 52 83
REMARK H PARENT 11 8 7 12 4 20 72 45 46 56
REMARK Flexibility Score: inf
ROOT
ATOM      1  C   UNL A   1      44.418  20.115  24.705  1.00  0.00     0.261 C 
ENDROOT
BRANCH   1   2
ATOM      2  O   UNL A   1      43.917  18.762  24.782  1.00  0.00    -0.459 OA
BRANCH   2   3
ATOM      3  C   UNL A   1      43.157  18.473  25.871  1.00  0.00     0.361 C 
ATOM      4  O   UNL A   1      43.513  17.716  26.771  1.00  0.00    -0.245 OA
BRANCH   3   5
ATOM      5  C   UNL A   1      41.751  19.059  25.856  1.00  0.00     0.386 C 
BRANCH   5   6
ATOM      6  N   UNL A   1      41.461  20.382  26.460  1.00  0.00    -0.320 N 
ATOM      7  C   UNL A   1      42.311  20.694  27.606  1.00  0.00     0.333 C 
ATOM      8  H   UNL A   1      41.692  21.019  25.697  1.00  0.00     0.348 HD
BRANCH   6   9
ATOM      9  C   UNL A   1      40.048  20.650  26.780  1.00  0.00     0.363 C 
BRANCH   9  10
ATOM     10  C   UNL A   1      39.528  21.978  26.222  1.00  0.00     0.275 C 
ATOM     11  N   UNL A   1      38.460  21.990  25.373  1.00  0.00    -0.349 N 
ATOM     12  H   UNL A   1      38.245  22.858  24.959  1.00  0.00     0.163 HD
ATOM     13  O   UNL A   1      40.076  23.045  26.503  1.00  0.00    -0.269 OA
BRANCH  11  14
ATOM     14  C   UNL A   1      37.597  20.878  25.003  1.00  0.00     0.137 C 
BRANCH  14  15
ATOM     15  C   UNL A   1      36.132  21.162  25.351  1.00  0.00     0.137 C 
BRANCH  15  16
ATOM     16  N   UNL A   1      35.295  19.990  25.134  1.00  0.00    -0.355 N 
ATOM     17  C   UNL A   1      33.371  21.242  24.244  1.00  0.00     0.114 C 
ATOM     18  C   UNL A   1      34.013  19.949  24.670  1.00  0.00     0.216 C 
ATOM     19  O   UNL A   1      33.421  18.875  24.603  1.00  0.00    -0.275 OA
ATOM     20  H   UNL A   1      35.703  19.121  25.349  1.00  0.00     0.163 HD
ENDBRANCH  15  16
ENDBRANCH  14  15
ENDBRANCH  11  14
ENDBRANCH   9  10
ENDBRANCH   6   9
ENDBRANCH   5   6
ENDBRANCH   3   5
ENDBRANCH   2   3
ENDBRANCH   1   2
BRANCH   1  21
ATOM     21  C   UNL A   1      45.787  20.253  25.375  1.00  0.00     0.202 C 
BRANCH  21  22
ATOM     22  O   UNL A   1      46.719  21.110  24.716  1.00  0.00    -0.374 OA
BRANCH  22  23
ATOM     23  C   UNL A   1      46.208  22.344  24.212  1.00  0.00     0.202 C 
BRANCH  23  24
ATOM     24  C   UNL A   1      46.032  23.446  25.267  1.00  0.00     0.261 C 
BRANCH  24  25
ATOM     25  O   UNL A   1      45.239  24.544  24.768  1.00  0.00    -0.460 OA
BRANCH  25  26
ATOM     26  C   UNL A   1      43.943  24.527  25.160  1.00  0.00     0.338 C 
ATOM     27  O   UNL A   1      43.022  23.901  24.651  1.00  0.00    -0.246 OA
BRANCH  26  28
ATOM     28  C   UNL A   1      43.770  25.253  26.433  1.00  0.00     0.060 A 
ATOM     29  C   UNL A   1      43.005  24.626  27.423  1.00  0.00     0.016 A 
ATOM     30  C   UNL A   1      44.243  26.554  26.623  1.00  0.00     0.016 A 
ATOM     31  C   UNL A   1      42.646  25.320  28.576  1.00  0.00     0.010 A 
ATOM     32  C   UNL A   1      43.876  27.254  27.782  1.00  0.00     0.010 A 
ATOM     33  C   UNL A   1      43.035  26.656  28.741  1.00  0.00    -0.014 A 
BRANCH  33  34
ATOM     34  C   UNL A   1      42.394  27.459  29.814  1.00  0.00     0.031 A 
ATOM     35  C   UNL A   1      43.032  27.492  31.178  1.00  0.00     0.074 A 
ATOM     36  C   UNL A   1      41.312  28.219  29.566  1.00  0.00     0.049 A 
ATOM     37  N   UNL A   1      42.673  28.153  32.250  1.00  0.00    -0.248 NA
ATOM     38  C   UNL A   1      44.244  26.675  31.355  1.00  0.00     0.031 C 
ATOM     39  C   UNL A   1      40.626  28.322  28.281  1.00  0.00     0.029 A 
ATOM     40  N   UNL A   1      40.608  29.061  30.392  1.00  0.00    -0.354 N 
ATOM     41  C   UNL A   1      43.611  27.833  33.224  1.00  0.00     0.074 A 
ATOM     42  C   UNL A   1      44.536  26.893  32.628  1.00  0.00     0.031 C 
ATOM     43  C   UNL A   1      39.599  29.181  28.402  1.00  0.00     0.029 A 
ATOM     44  C   UNL A   1      39.542  29.672  29.779  1.00  0.00     0.049 A 
ATOM     45  H   UNL A   1      40.846  29.213  31.336  1.00  0.00     0.167 HD
ATOM     46  C   UNL A   1      43.709  28.293  34.494  1.00  0.00     0.037 A 
ATOM     47  C   UNL A   1      38.621  30.522  30.274  1.00  0.00     0.037 A 
ATOM     48  C   UNL A   1      42.801  29.234  35.092  1.00  0.00     0.049 A 
ATOM     49  C   UNL A   1      38.706  30.960  31.713  1.00  0.00     0.074 A 
ATOM     50  C   UNL A   1      42.824  29.761  36.372  1.00  0.00     0.029 A 
ATOM     51  N   UNL A   1      41.704  29.788  34.450  1.00  0.00    -0.354 N 
ATOM     52  N   UNL A   1      39.606  30.662  32.618  1.00  0.00    -0.248 NA
ATOM     53  C   UNL A   1      37.646  31.858  32.197  1.00  0.00     0.031 C 
ATOM     54  C   UNL A   1      41.716  30.603  36.519  1.00  0.00     0.029 A 
ATOM     55  C   UNL A   1      41.030  30.635  35.315  1.00  0.00     0.049 A 
ATOM     56  H   UNL A   1      41.443  29.607  33.519  1.00  0.00     0.167 HD
ATOM     57  C   UNL A   1      39.239  31.356  33.765  1.00  0.00     0.074 A 
ATOM     58  C   UNL A   1      38.039  32.098  33.440  1.00  0.00     0.031 C 
ATOM     59  C   UNL A   1      39.844  31.378  34.977  1.00  0.00     0.037 A 
BRANCH  46  60
ATOM     60  C   UNL A   1      44.836  27.766  35.332  1.00  0.00     0.057 A 
ATOM     61  C   UNL A   1      46.094  28.380  35.347  1.00  0.00     0.134 A 
ATOM     62  C   UNL A   1      44.650  26.649  36.156  1.00  0.00     0.134 A 
ATOM     63  F   UNL A   1      46.341  29.445  34.570  1.00  0.00    -0.206 F 
ATOM     64  C   UNL A   1      47.135  27.890  36.138  1.00  0.00     0.040 A 
ATOM     65  C   UNL A   1      45.676  26.164  36.968  1.00  0.00     0.040 A 
ATOM     66  F   UNL A   1      43.467  26.017  36.189  1.00  0.00    -0.206 F 
ATOM     67  C   UNL A   1      46.924  26.782  36.956  1.00  0.00     0.006 A 
ENDBRANCH  46  60
BRANCH  47  68
ATOM     68  C   UNL A   1      37.523  31.018  29.406  1.00  0.00     0.057 A 
ATOM     69  C   UNL A   1      37.557  32.302  28.851  1.00  0.00     0.134 A 
ATOM     70  C   UNL A   1      36.396  30.230  29.140  1.00  0.00     0.134 A 
ATOM     71  F   UNL A   1      38.597  33.114  29.092  1.00  0.00    -0.206 F 
ATOM     72  C   UNL A   1      36.503  32.792  28.077  1.00  0.00     0.040 A 
ATOM     73  C   UNL A   1      35.346  30.698  28.349  1.00  0.00     0.040 A 
ATOM     74  F   UNL A   1      36.303  28.991  29.645  1.00  0.00    -0.206 F 
ATOM     75  C   UNL A   1      35.395  31.987  27.821  1.00  0.00     0.006 A 
ENDBRANCH  47  68
BRANCH  59  76
ATOM     76  C   UNL A   1      39.244  32.259  36.034  1.00  0.00     0.057 A 
ATOM     77  C   UNL A   1      38.275  31.786  36.929  1.00  0.00     0.134 A 
ATOM     78  C   UNL A   1      39.673  33.583  36.185  1.00  0.00     0.134 A 
ATOM     79  F   UNL A   1      37.814  30.530  36.831  1.00  0.00    -0.206 F 
ATOM     80  C   UNL A   1      37.741  32.606  37.924  1.00  0.00     0.040 A 
ATOM     81  C   UNL A   1      39.163  34.406  37.190  1.00  0.00     0.040 A 
ATOM     82  F   UNL A   1      40.605  34.096  35.366  1.00  0.00    -0.206 F 
ATOM     83  C   UNL A   1      38.190  33.919  38.061  1.00  0.00     0.006 A 
ENDBRANCH  59  76
ENDBRANCH  33  34
ENDBRANCH  26  28
ENDBRANCH  25  26
ENDBRANCH  24  25
ENDBRANCH  23  24
ENDBRANCH  22  23
ENDBRANCH  21  22
ENDBRANCH   1  21
TORSDOF 20
ENDMDL
MODEL 3
REMARK VINA RESULT:      -9.2      4.009      8.699
REMARK SMILES CC(=O)NCCNC(=O)C[N@@H+](C)CC(=O)OCCOCCOC(=O)c1ccc(-c2c3nc(c(-c4c(F)cccc4F)c4ccc([nH]4)c(-c4c(F)cccc4F)c4nc(c(-c5c(F)cccc5F)c5ccc2[nH]5)C=C4)C=C3)cc1
REMARK SMILES IDX 17 1 16 2 14 3 15 4 13 5 11 6 12 7 10 9 8 10 7 11 9 13 6 14
REMARK SMILES IDX 5 15 4 16 1 17 2 18 3 19 18 21 19 22 20 23 21 24 22 25 23 26
REMARK SMILES IDX 24 27 25 28 26 29 78 30 27 31 77 32 28 33 29 34 30 35 71 36
REMARK SMILES IDX 31 37 76 38 70 39 72 40 32 41 75 42 69 43 68 44 33 46 59 47
REMARK SMILES IDX 42 48 58 49 43 50 46 51 57 52 73 53 44 54 45 55 56 57 74 58
REMARK SMILES IDX 47 59 34 60 35 61 40 62 36 63 37 64 39 65 41 66 38 67 60 68
REMARK SMILES IDX 61 69 66 70 62 71 63 72 65 73 67 74 64 75 48 76 49 77 54 78
REMARK SMILES IDX 50 79 51 80 53 81 55 82 52 83
REMARK H PARENT 11 8 7 12 4 20 72 45 46 56
REMARK Flexibility Score: inf
ROOT
ATOM      1  C   UNL A   1      32.194  26.648  24.591  1.00  0.00     0.261 C 
ENDROOT
BRANCH   1   2
ATOM      2  O   UNL A   1      33.273  26.498  23.641  1.00  0.00    -0.459 OA
BRANCH   2   3
ATOM      3  C   UNL A   1      33.606  25.220  23.320  1.00  0.00     0.361 C 
ATOM      4  O   UNL A   1      33.688  24.805  22.166  1.00  0.00    -0.245 OA
BRANCH   3   5
ATOM      5  C   UNL A   1      33.757  24.272  24.503  1.00  0.00     0.386 C 
BRANCH   5   6
ATOM      6  N   UNL A   1      33.334  22.853  24.412  1.00  0.00    -0.320 N 
ATOM      7  C   UNL A   1      31.922  22.691  24.076  1.00  0.00     0.333 C 
ATOM      8  H   UNL A   1      33.898  22.513  23.634  1.00  0.00     0.348 HD
BRANCH   6   9
ATOM      9  C   UNL A   1      33.689  21.999  25.559  1.00  0.00     0.363 C 
BRANCH   9  10
ATOM     10  C   UNL A   1      34.560  20.795  25.186  1.00  0.00     0.275 C 
ATOM     11  N   UNL A   1      34.044  19.533  25.250  1.00  0.00    -0.349 N 
ATOM     12  H   UNL A   1      34.684  18.797  25.111  1.00  0.00     0.163 HD
ATOM     13  O   UNL A   1      35.737  20.940  24.855  1.00  0.00    -0.269 OA
BRANCH  11  14
ATOM     14  C   UNL A   1      32.665  19.141  25.499  1.00  0.00     0.137 C 
BRANCH  14  15
ATOM     15  C   UNL A   1      32.522  17.619  25.601  1.00  0.00     0.137 C 
BRANCH  15  16
ATOM     16  N   UNL A   1      33.793  16.983  25.920  1.00  0.00    -0.355 N 
ATOM     17  C   UNL A   1      34.270  16.250  23.619  1.00  0.00     0.114 C 
ATOM     18  C   UNL A   1      34.627  16.306  25.079  1.00  0.00     0.216 C 
ATOM     19  O   UNL A   1      35.640  15.773  25.523  1.00  0.00    -0.275 OA
ATOM     20  H   UNL A   1      34.086  17.049  26.857  1.00  0.00     0.163 HD
ENDBRANCH  15  16
ENDBRANCH  14  15
ENDBRANCH  11  14
ENDBRANCH   9  10
ENDBRANCH   6   9
ENDBRANCH   5   6
ENDBRANCH   3   5
ENDBRANCH   2   3
ENDBRANCH   1   2
BRANCH   1  21
ATOM     21  C   UNL A   1      32.451  27.800  25.565  1.00  0.00     0.202 C 
BRANCH  21  22
ATOM     22  O   UNL A   1      32.544  29.099  24.980  1.00  0.00    -0.374 OA
BRANCH  22  23
ATOM     23  C   UNL A   1      31.364  29.902  25.012  1.00  0.00     0.202 C 
BRANCH  23  24
ATOM     24  C   UNL A   1      31.385  31.036  26.047  1.00  0.00     0.261 C 
BRANCH  24  25
ATOM     25  O   UNL A   1      32.403  30.828  27.049  1.00  0.00    -0.460 OA
BRANCH  25  26
ATOM     26  C   UNL A   1      33.155  31.920  27.324  1.00  0.00     0.338 C 
ATOM     27  O   UNL A   1      32.782  33.085  27.371  1.00  0.00    -0.246 OA
BRANCH  26  28
ATOM     28  C   UNL A   1      34.515  31.528  27.743  1.00  0.00     0.060 A 
ATOM     29  C   UNL A   1      34.734  30.170  27.997  1.00  0.00     0.016 A 
ATOM     30  C   UNL A   1      35.521  32.466  27.990  1.00  0.00     0.016 A 
ATOM     31  C   UNL A   1      35.933  29.749  28.569  1.00  0.00     0.010 A 
ATOM     32  C   UNL A   1      36.725  32.041  28.572  1.00  0.00     0.010 A 
ATOM     33  C   UNL A   1      36.917  30.687  28.908  1.00  0.00    -0.014 A 
BRANCH  33  34
ATOM     34  C   UNL A   1      38.039  30.260  29.783  1.00  0.00     0.031 A 
ATOM     35  C   UNL A   1      39.087  29.334  29.223  1.00  0.00     0.074 A 
ATOM     36  C   UNL A   1      38.181  30.751  31.028  1.00  0.00     0.049 A 
ATOM     37  N   UNL A   1      40.171  28.864  29.788  1.00  0.00    -0.248 NA
ATOM     38  C   UNL A   1      38.889  28.882  27.836  1.00  0.00     0.031 C 
ATOM     39  C   UNL A   1      37.272  31.694  31.675  1.00  0.00     0.029 A 
ATOM     40  N   UNL A   1      39.159  30.529  31.966  1.00  0.00    -0.354 N 
ATOM     41  C   UNL A   1      40.782  28.066  28.828  1.00  0.00     0.074 A 
ATOM     42  C   UNL A   1      39.931  28.085  27.657  1.00  0.00     0.031 C 
ATOM     43  C   UNL A   1      37.735  31.972  32.906  1.00  0.00     0.029 A 
ATOM     44  C   UNL A   1      38.961  31.210  33.141  1.00  0.00     0.049 A 
ATOM     45  H   UNL A   1      39.930  29.935  31.811  1.00  0.00     0.167 HD
ATOM     46  C   UNL A   1      41.954  27.391  28.904  1.00  0.00     0.037 A 
ATOM     47  C   UNL A   1      39.682  31.212  34.281  1.00  0.00     0.037 A 
ATOM     48  C   UNL A   1      42.810  27.372  30.059  1.00  0.00     0.049 A 
ATOM     49  C   UNL A   1      40.943  30.392  34.368  1.00  0.00     0.074 A 
ATOM     50  C   UNL A   1      44.019  26.720  30.226  1.00  0.00     0.029 A 
ATOM     51  N   UNL A   1      42.546  28.036  31.247  1.00  0.00    -0.354 N 
ATOM     52  N   UNL A   1      41.516  29.654  33.449  1.00  0.00    -0.248 NA
ATOM     53  C   UNL A   1      41.659  30.410  35.652  1.00  0.00     0.031 C 
ATOM     54  C   UNL A   1      44.468  26.955  31.530  1.00  0.00     0.029 A 
ATOM     55  C   UNL A   1      43.559  27.791  32.160  1.00  0.00     0.049 A 
ATOM     56  H   UNL A   1      41.756  28.598  31.417  1.00  0.00     0.167 HD
ATOM     57  C   UNL A   1      42.671  29.146  34.032  1.00  0.00     0.074 A 
ATOM     58  C   UNL A   1      42.723  29.667  35.382  1.00  0.00     0.031 C 
ATOM     59  C   UNL A   1      43.605  28.324  33.496  1.00  0.00     0.037 A 
BRANCH  46  60
ATOM     60  C   UNL A   1      42.371  26.598  27.701  1.00  0.00     0.057 A 
ATOM     61  C   UNL A   1      42.021  25.252  27.545  1.00  0.00     0.134 A 
ATOM     62  C   UNL A   1      43.107  27.199  26.672  1.00  0.00     0.134 A 
ATOM     63  F   UNL A   1      41.330  24.614  28.502  1.00  0.00    -0.206 F 
ATOM     64  C   UNL A   1      42.403  24.524  26.417  1.00  0.00     0.040 A 
ATOM     65  C   UNL A   1      43.476  26.490  25.529  1.00  0.00     0.040 A 
ATOM     66  F   UNL A   1      43.472  28.488  26.759  1.00  0.00    -0.206 F 
ATOM     67  C   UNL A   1      43.128  25.146  25.402  1.00  0.00     0.006 A 
ENDBRANCH  46  60
BRANCH  47  68
ATOM     68  C   UNL A   1      39.230  32.013  35.446  1.00  0.00     0.057 A 
ATOM     69  C   UNL A   1      38.390  31.469  36.422  1.00  0.00     0.134 A 
ATOM     70  C   UNL A   1      39.603  33.356  35.592  1.00  0.00     0.134 A 
ATOM     71  F   UNL A   1      37.977  30.196  36.324  1.00  0.00    -0.206 F 
ATOM     72  C   UNL A   1      37.919  32.233  37.492  1.00  0.00     0.040 A 
ATOM     73  C   UNL A   1      39.159  34.125  36.668  1.00  0.00     0.040 A 
ATOM     74  F   UNL A   1      40.406  33.937  34.688  1.00  0.00    -0.206 F 
ATOM     75  C   UNL A   1      38.308  33.565  37.619  1.00  0.00     0.006 A 
ENDBRANCH  47  68
BRANCH  59  76
ATOM     76  C   UNL A   1      44.784  27.965  34.353  1.00  0.00     0.057 A 
ATOM     77  C   UNL A   1      44.800  26.807  35.142  1.00  0.00     0.134 A 
ATOM     78  C   UNL A   1      45.934  28.764  34.355  1.00  0.00     0.134 A 
ATOM     79  F   UNL A   1      43.726  26.004  35.192  1.00  0.00    -0.206 F 
ATOM     80  C   UNL A   1      45.910  26.468  35.917  1.00  0.00     0.040 A 
ATOM     81  C   UNL A   1      47.058  28.424  35.108  1.00  0.00     0.040 A 
ATOM     82  F   UNL A   1      45.987  29.883  33.616  1.00  0.00    -0.206 F 
ATOM     83  C   UNL A   1      47.047  27.275  35.896  1.00  0.00     0.006 A 
ENDBRANCH  59  76
ENDBRANCH  33  34
ENDBRANCH  26  28
ENDBRANCH  25  26
ENDBRANCH  24  25
ENDBRANCH  23  24
ENDBRANCH  22  23
ENDBRANCH  21  22
ENDBRANCH   1  21
TORSDOF 20
ENDMDL
