MODEL 1
REMARK VINA RESULT:     -11.2      0.000      0.000
REMARK SMILES COc1ccc([C@@H]2C(C#N)=C(N)N3C(=O)[C@H](CC(=O)OCCOCCOC(=O)c4ccc(-c5c6nc(c(-c7c(F)cccc7F)c7ccc([nH]7)c(-c7c(F)cccc7F)c7nc(c(-c8c(F)cccc8F)c8ccc5[nH]8)C=C7)C=C6)cc4)SC3=C2C#N)cc1
REMARK SMILES IDX 22 1 21 2 20 3 18 4 19 5 17 6 16 7 7 8 8 9 85 10 11 11 84 12
REMARK SMILES IDX 13 13 83 14 14 15 15 16 6 17 3 18 4 19 89 20 5 21 88 22 2 23
REMARK SMILES IDX 1 24 9 25 10 26 86 27 87 28 12 29 23 32 24 33 25 34 26 35
REMARK SMILES IDX 27 36 28 37 29 38 30 39 82 40 31 41 81 42 32 43 33 44 34 45
REMARK SMILES IDX 75 46 35 47 80 48 74 49 76 50 36 51 79 52 73 53 72 54 37 56
REMARK SMILES IDX 63 57 46 58 62 59 47 60 50 61 61 62 77 63 48 64 49 65 60 67
REMARK SMILES IDX 78 68 51 69 38 70 39 71 44 72 40 73 41 74 43 75 45 76 42 77
REMARK SMILES IDX 64 78 65 79 70 80 66 81 67 82 69 83 71 84 68 85 52 86 53 87
REMARK SMILES IDX 58 88 54 89 55 90 57 91 59 92 56 93
REMARK H PARENT 12 30 12 31 76 55 50 66
REMARK Flexibility Score: inf
ROOT
ATOM      1  C   UNL A   1      41.020  20.951  27.357  1.00  0.00     0.202 C 
ENDROOT
BRANCH   1   2
ATOM      2  C   UNL A   1      40.187  20.536  26.144  1.00  0.00     0.261 C 
BRANCH   2   3
ATOM      3  O   UNL A   1      39.316  21.615  25.747  1.00  0.00    -0.463 OA
BRANCH   3   4
ATOM      4  C   UNL A   1      38.082  21.279  25.302  1.00  0.00     0.307 C 
ATOM      5  O   UNL A   1      37.819  20.276  24.653  1.00  0.00    -0.252 OA
BRANCH   4   6
ATOM      6  C   UNL A   1      37.042  22.319  25.647  1.00  0.00     0.147 C 
BRANCH   6   7
ATOM      7  C   UNL A   1      35.715  22.122  24.927  1.00  0.00     0.154 C 
ATOM      8  C   UNL A   1      31.530  24.711  24.116  1.00  0.00     0.107 C 
ATOM      9  C   UNL A   1      31.364  24.046  25.467  1.00  0.00     0.083 C 
ATOM     10  C   UNL A   1      32.936  24.550  23.601  1.00  0.00     0.073 C 
ATOM     11  C   UNL A   1      32.286  23.220  26.018  1.00  0.00     0.126 C 
ATOM     12  C   UNL A   1      33.792  23.713  24.212  1.00  0.00     0.099 C 
ATOM     13  N   UNL A   1      33.500  22.998  25.356  1.00  0.00    -0.258 N 
ATOM     14  S   UNL A   1      35.426  23.452  23.708  1.00  0.00    -0.093 SA
ATOM     15  C   UNL A   1      34.522  22.184  25.870  1.00  0.00     0.247 C 
ATOM     16  O   UNL A   1      34.476  21.562  26.930  1.00  0.00    -0.273 OA
BRANCH   8  17
ATOM     17  C   UNL A   1      31.063  26.165  24.083  1.00  0.00    -0.034 A 
ATOM     18  C   UNL A   1      30.239  28.849  23.879  1.00  0.00     0.118 A 
ATOM     19  C   UNL A   1      29.565  27.854  23.176  1.00  0.00     0.047 A 
ATOM     20  C   UNL A   1      31.298  28.505  24.718  1.00  0.00     0.047 A 
ATOM     21  C   UNL A   1      29.977  26.523  23.267  1.00  0.00     0.008 A 
ATOM     22  C   UNL A   1      31.710  27.171  24.820  1.00  0.00     0.008 A 
BRANCH  18  23
ATOM     23  O   UNL A   1      29.757  30.118  23.713  1.00  0.00    -0.497 OA
ATOM     24  C   UNL A   1      28.774  30.251  22.691  1.00  0.00     0.278 C 
ENDBRANCH  18  23
ENDBRANCH   8  17
BRANCH   9  25
ATOM     25  C   UNL A   1      30.141  24.434  26.281  1.00  0.00     0.100 C 
ATOM     26  N   UNL A   1      29.126  24.755  26.956  1.00  0.00    -0.193 NA
ENDBRANCH   9  25
BRANCH  10  27
ATOM     27  C   UNL A   1      33.416  25.465  22.486  1.00  0.00     0.098 C 
ATOM     28  N   UNL A   1      33.815  26.224  21.562  1.00  0.00    -0.193 NA
ENDBRANCH  10  27
BRANCH  11  29
ATOM     29  N   UNL A   1      32.064  22.617  27.229  1.00  0.00    -0.384 N 
ATOM     30  H   UNL A   1      31.669  21.715  27.264  1.00  0.00     0.158 HD
ATOM     31  H   UNL A   1      32.301  23.084  28.063  1.00  0.00     0.158 HD
ENDBRANCH  11  29
ENDBRANCH   6   7
ENDBRANCH   4   6
ENDBRANCH   3   4
ENDBRANCH   2   3
ENDBRANCH   1   2
BRANCH   1  32
ATOM     32  O   UNL A   1      42.293  21.528  27.056  1.00  0.00    -0.374 OA
BRANCH  32  33
ATOM     33  C   UNL A   1      43.011  20.974  25.958  1.00  0.00     0.202 C 
BRANCH  33  34
ATOM     34  C   UNL A   1      43.704  21.987  25.038  1.00  0.00     0.261 C 
BRANCH  34  35
ATOM     35  O   UNL A   1      42.980  23.228  24.935  1.00  0.00    -0.460 OA
BRANCH  35  36
ATOM     36  C   UNL A   1      43.721  24.330  25.209  1.00  0.00     0.338 C 
ATOM     37  O   UNL A   1      44.759  24.676  24.662  1.00  0.00    -0.246 OA
BRANCH  36  38
ATOM     38  C   UNL A   1      43.036  25.196  26.186  1.00  0.00     0.060 A 
ATOM     39  C   UNL A   1      43.543  26.489  26.363  1.00  0.00     0.016 A 
ATOM     40  C   UNL A   1      41.988  24.732  26.985  1.00  0.00     0.016 A 
ATOM     41  C   UNL A   1      43.037  27.308  27.371  1.00  0.00     0.010 A 
ATOM     42  C   UNL A   1      41.487  25.553  28.004  1.00  0.00     0.010 A 
ATOM     43  C   UNL A   1      42.033  26.832  28.223  1.00  0.00    -0.014 A 
BRANCH  43  44
ATOM     44  C   UNL A   1      41.654  27.630  29.414  1.00  0.00     0.031 A 
ATOM     45  C   UNL A   1      40.460  28.543  29.342  1.00  0.00     0.074 A 
ATOM     46  C   UNL A   1      42.337  27.511  30.567  1.00  0.00     0.049 A 
ATOM     47  N   UNL A   1      39.957  29.327  30.262  1.00  0.00    -0.248 NA
ATOM     48  C   UNL A   1      39.736  28.575  28.062  1.00  0.00     0.031 C 
ATOM     49  C   UNL A   1      43.488  26.635  30.780  1.00  0.00     0.029 A 
ATOM     50  N   UNL A   1      42.160  28.135  31.777  1.00  0.00    -0.354 N 
ATOM     51  C   UNL A   1      38.862  29.947  29.674  1.00  0.00     0.074 A 
ATOM     52  C   UNL A   1      38.788  29.469  28.310  1.00  0.00     0.031 C 
ATOM     53  C   UNL A   1      43.920  26.784  32.044  1.00  0.00     0.029 A 
ATOM     54  C   UNL A   1      43.093  27.782  32.720  1.00  0.00     0.049 A 
ATOM     55  H   UNL A   1      41.431  28.774  31.952  1.00  0.00     0.167 HD
ATOM     56  C   UNL A   1      37.991  30.827  30.223  1.00  0.00     0.037 A 
ATOM     57  C   UNL A   1      43.270  28.227  33.979  1.00  0.00     0.037 A 
ATOM     58  C   UNL A   1      38.056  31.299  31.581  1.00  0.00     0.049 A 
ATOM     59  C   UNL A   1      42.325  29.253  34.546  1.00  0.00     0.074 A 
ATOM     60  C   UNL A   1      37.202  32.173  32.232  1.00  0.00     0.029 A 
ATOM     61  N   UNL A   1      39.036  30.944  32.494  1.00  0.00    -0.354 N 
ATOM     62  N   UNL A   1      41.276  29.808  33.990  1.00  0.00    -0.248 NA
ATOM     63  C   UNL A   1      42.589  29.712  35.918  1.00  0.00     0.031 C 
ATOM     64  C   UNL A   1      37.690  32.380  33.526  1.00  0.00     0.029 A 
ATOM     65  C   UNL A   1      38.822  31.599  33.695  1.00  0.00     0.049 A 
ATOM     66  H   UNL A   1      39.775  30.317  32.315  1.00  0.00     0.167 HD
ATOM     67  C   UNL A   1      40.740  30.659  34.950  1.00  0.00     0.074 A 
ATOM     68  C   UNL A   1      41.573  30.538  36.128  1.00  0.00     0.031 C 
ATOM     69  C   UNL A   1      39.655  31.465  34.863  1.00  0.00     0.037 A 
BRANCH  56  70
ATOM     70  C   UNL A   1      36.896  31.354  29.345  1.00  0.00     0.057 A 
ATOM     71  C   UNL A   1      36.964  32.624  28.760  1.00  0.00     0.134 A 
ATOM     72  C   UNL A   1      35.780  30.561  29.044  1.00  0.00     0.134 A 
ATOM     73  F   UNL A   1      37.999  33.436  29.018  1.00  0.00    -0.206 F 
ATOM     74  C   UNL A   1      35.952  33.096  27.921  1.00  0.00     0.040 A 
ATOM     75  C   UNL A   1      34.774  31.012  28.189  1.00  0.00     0.040 A 
ATOM     76  F   UNL A   1      35.657  29.332  29.568  1.00  0.00    -0.206 F 
ATOM     77  C   UNL A   1      34.856  32.285  27.628  1.00  0.00     0.006 A 
ENDBRANCH  56  70
BRANCH  57  78
ATOM     78  C   UNL A   1      44.402  27.718  34.793  1.00  0.00     0.057 A 
ATOM     79  C   UNL A   1      45.654  28.344  34.771  1.00  0.00     0.134 A 
ATOM     80  C   UNL A   1      44.265  26.575  35.590  1.00  0.00     0.134 A 
ATOM     81  F   UNL A   1      45.852  29.427  34.005  1.00  0.00    -0.206 F 
ATOM     82  C   UNL A   1      46.734  27.844  35.500  1.00  0.00     0.040 A 
ATOM     83  C   UNL A   1      45.330  26.078  36.342  1.00  0.00     0.040 A 
ATOM     84  F   UNL A   1      43.092  25.930  35.654  1.00  0.00    -0.206 F 
ATOM     85  C   UNL A   1      46.571  26.709  36.292  1.00  0.00     0.006 A 
ENDBRANCH  57  78
BRANCH  69  86
ATOM     86  C   UNL A   1      39.283  32.256  36.083  1.00  0.00     0.057 A 
ATOM     87  C   UNL A   1      39.823  33.522  36.335  1.00  0.00     0.134 A 
ATOM     88  C   UNL A   1      38.340  31.761  36.993  1.00  0.00     0.134 A 
ATOM     89  F   UNL A   1      40.740  34.048  35.508  1.00  0.00    -0.206 F 
ATOM     90  C   UNL A   1      39.453  34.262  37.460  1.00  0.00     0.040 A 
ATOM     91  C   UNL A   1      37.944  32.501  38.109  1.00  0.00     0.040 A 
ATOM     92  F   UNL A   1      37.777  30.558  36.806  1.00  0.00    -0.206 F 
ATOM     93  C   UNL A   1      38.505  33.754  38.348  1.00  0.00     0.006 A 
ENDBRANCH  69  86
ENDBRANCH  43  44
ENDBRANCH  36  38
ENDBRANCH  35  36
ENDBRANCH  34  35
ENDBRANCH  33  34
ENDBRANCH  32  33
ENDBRANCH   1  32
TORSDOF 20
ENDMDL
MODEL 2
REMARK VINA RESULT:     -10.8      0.514      6.060
REMARK SMILES COc1ccc([C@@H]2C(C#N)=C(N)N3C(=O)[C@H](CC(=O)OCCOCCOC(=O)c4ccc(-c5c6nc(c(-c7c(F)cccc7F)c7ccc([nH]7)c(-c7c(F)cccc7F)c7nc(c(-c8c(F)cccc8F)c8ccc5[nH]8)C=C7)C=C6)cc4)SC3=C2C#N)cc1
REMARK SMILES IDX 22 1 21 2 20 3 18 4 19 5 17 6 16 7 7 8 8 9 85 10 11 11 84 12
REMARK SMILES IDX 13 13 83 14 14 15 15 16 6 17 3 18 4 19 89 20 5 21 88 22 2 23
REMARK SMILES IDX 1 24 9 25 10 26 86 27 87 28 12 29 23 32 24 33 25 34 26 35
REMARK SMILES IDX 27 36 28 37 29 38 30 39 82 40 31 41 81 42 32 43 33 44 34 45
REMARK SMILES IDX 75 46 35 47 80 48 74 49 76 50 36 51 79 52 73 53 72 54 37 56
REMARK SMILES IDX 63 57 46 58 62 59 47 60 50 61 61 62 77 63 48 64 49 65 60 67
REMARK SMILES IDX 78 68 51 69 38 70 39 71 44 72 40 73 41 74 43 75 45 76 42 77
REMARK SMILES IDX 64 78 65 79 70 80 66 81 67 82 69 83 71 84 68 85 52 86 53 87
REMARK SMILES IDX 58 88 54 89 55 90 57 91 59 92 56 93
REMARK H PARENT 12 30 12 31 76 55 50 66
REMARK Flexibility Score: inf
ROOT
ATOM      1  C   UNL A   1      40.793  20.700  27.436  1.00  0.00     0.202 C 
ENDROOT
BRANCH   1   2
ATOM      2  C   UNL A   1      40.013  20.327  26.175  1.00  0.00     0.261 C 
BRANCH   2   3
ATOM      3  O   UNL A   1      39.199  21.438  25.747  1.00  0.00    -0.463 OA
BRANCH   3   4
ATOM      4  C   UNL A   1      37.960  21.150  25.284  1.00  0.00     0.307 C 
ATOM      5  O   UNL A   1      37.637  20.098  24.749  1.00  0.00    -0.252 OA
BRANCH   4   6
ATOM      6  C   UNL A   1      37.002  22.307  25.444  1.00  0.00     0.147 C 
BRANCH   6   7
ATOM      7  C   UNL A   1      35.649  22.079  24.784  1.00  0.00     0.154 C 
ATOM      8  C   UNL A   1      31.452  24.650  23.974  1.00  0.00     0.107 C 
ATOM      9  C   UNL A   1      31.331  24.065  25.366  1.00  0.00     0.083 C 
ATOM     10  C   UNL A   1      32.838  24.449  23.419  1.00  0.00     0.073 C 
ATOM     11  C   UNL A   1      32.268  23.265  25.931  1.00  0.00     0.126 C 
ATOM     12  C   UNL A   1      33.711  23.642  24.047  1.00  0.00     0.099 C 
ATOM     13  N   UNL A   1      33.455  22.996  25.240  1.00  0.00    -0.258 N 
ATOM     14  S   UNL A   1      35.324  23.339  23.501  1.00  0.00    -0.093 SA
ATOM     15  C   UNL A   1      34.491  22.205  25.764  1.00  0.00     0.247 C 
ATOM     16  O   UNL A   1      34.479  21.646  26.859  1.00  0.00    -0.273 OA
BRANCH   8  17
ATOM     17  C   UNL A   1      30.993  26.103  23.873  1.00  0.00    -0.034 A 
ATOM     18  C   UNL A   1      30.122  28.781  23.835  1.00  0.00     0.118 A 
ATOM     19  C   UNL A   1      31.278  28.429  24.528  1.00  0.00     0.047 A 
ATOM     20  C   UNL A   1      29.420  27.806  23.126  1.00  0.00     0.047 A 
ATOM     21  C   UNL A   1      31.707  27.102  24.557  1.00  0.00     0.008 A 
ATOM     22  C   UNL A   1      29.851  26.475  23.144  1.00  0.00     0.008 A 
BRANCH  18  23
ATOM     23  O   UNL A   1      29.789  30.106  23.877  1.00  0.00    -0.497 OA
ATOM     24  C   UNL A   1      28.630  30.450  23.125  1.00  0.00     0.278 C 
ENDBRANCH  18  23
ENDBRANCH   8  17
BRANCH   9  25
ATOM     25  C   UNL A   1      30.140  24.509  26.199  1.00  0.00     0.100 C 
ATOM     26  N   UNL A   1      29.152  24.878  26.890  1.00  0.00    -0.193 NA
ENDBRANCH   9  25
BRANCH  10  27
ATOM     27  C   UNL A   1      33.283  25.294  22.237  1.00  0.00     0.098 C 
ATOM     28  N   UNL A   1      33.652  25.994  21.256  1.00  0.00    -0.193 NA
ENDBRANCH  10  27
BRANCH  11  29
ATOM     29  N   UNL A   1      32.086  22.734  27.181  1.00  0.00    -0.384 N 
ATOM     30  H   UNL A   1      31.223  22.844  27.642  1.00  0.00     0.158 HD
ATOM     31  H   UNL A   1      32.818  22.242  27.619  1.00  0.00     0.158 HD
ENDBRANCH  11  29
ENDBRANCH   6   7
ENDBRANCH   4   6
ENDBRANCH   3   4
ENDBRANCH   2   3
ENDBRANCH   1   2
BRANCH   1  32
ATOM     32  O   UNL A   1      42.069  21.303  27.209  1.00  0.00    -0.374 OA
BRANCH  32  33
ATOM     33  C   UNL A   1      42.801  20.861  26.070  1.00  0.00     0.202 C 
BRANCH  33  34
ATOM     34  C   UNL A   1      43.397  21.969  25.191  1.00  0.00     0.261 C 
BRANCH  34  35
ATOM     35  O   UNL A   1      42.760  23.244  25.399  1.00  0.00    -0.460 OA
BRANCH  35  36
ATOM     36  C   UNL A   1      43.616  24.294  25.450  1.00  0.00     0.338 C 
ATOM     37  O   UNL A   1      44.391  24.657  24.575  1.00  0.00    -0.246 OA
BRANCH  36  38
ATOM     38  C   UNL A   1      43.406  25.086  26.675  1.00  0.00     0.060 A 
ATOM     39  C   UNL A   1      42.485  24.592  27.607  1.00  0.00     0.016 A 
ATOM     40  C   UNL A   1      44.012  26.330  26.870  1.00  0.00     0.016 A 
ATOM     41  C   UNL A   1      42.131  25.359  28.716  1.00  0.00     0.010 A 
ATOM     42  C   UNL A   1      43.648  27.103  27.979  1.00  0.00     0.010 A 
ATOM     43  C   UNL A   1      42.681  26.635  28.890  1.00  0.00    -0.014 A 
BRANCH  43  44
ATOM     44  C   UNL A   1      42.141  27.520  29.952  1.00  0.00     0.031 A 
ATOM     45  C   UNL A   1      42.802  27.538  31.303  1.00  0.00     0.074 A 
ATOM     46  C   UNL A   1      41.100  28.334  29.704  1.00  0.00     0.049 A 
ATOM     47  N   UNL A   1      42.493  28.233  32.369  1.00  0.00    -0.248 NA
ATOM     48  C   UNL A   1      43.967  26.657  31.475  1.00  0.00     0.031 C 
ATOM     49  C   UNL A   1      40.394  28.440  28.428  1.00  0.00     0.029 A 
ATOM     50  N   UNL A   1      40.453  29.228  30.521  1.00  0.00    -0.354 N 
ATOM     51  C   UNL A   1      43.422  27.872  33.337  1.00  0.00     0.074 A 
ATOM     52  C   UNL A   1      44.289  26.878  32.743  1.00  0.00     0.031 C 
ATOM     53  C   UNL A   1      39.406  29.342  28.550  1.00  0.00     0.029 A 
ATOM     54  C   UNL A   1      39.393  29.858  29.918  1.00  0.00     0.049 A 
ATOM     55  H   UNL A   1      40.725  29.401  31.452  1.00  0.00     0.167 HD
ATOM     56  C   UNL A   1      43.546  28.334  34.605  1.00  0.00     0.037 A 
ATOM     57  C   UNL A   1      38.503  30.737  30.418  1.00  0.00     0.037 A 
ATOM     58  C   UNL A   1      42.691  29.328  35.198  1.00  0.00     0.049 A 
ATOM     59  C   UNL A   1      38.625  31.188  31.849  1.00  0.00     0.074 A 
ATOM     60  C   UNL A   1      42.757  29.875  36.468  1.00  0.00     0.029 A 
ATOM     61  N   UNL A   1      41.608  29.916  34.565  1.00  0.00    -0.354 N 
ATOM     62  N   UNL A   1      39.526  30.863  32.745  1.00  0.00    -0.248 NA
ATOM     63  C   UNL A   1      37.609  32.131  32.337  1.00  0.00     0.031 C 
ATOM     64  C   UNL A   1      41.687  30.764  36.618  1.00  0.00     0.029 A 
ATOM     65  C   UNL A   1      40.983  30.804  35.426  1.00  0.00     0.049 A 
ATOM     66  H   UNL A   1      41.325  29.733  33.640  1.00  0.00     0.167 HD
ATOM     67  C   UNL A   1      39.200  31.580  33.891  1.00  0.00     0.074 A 
ATOM     68  C   UNL A   1      38.027  32.366  33.574  1.00  0.00     0.031 C 
ATOM     69  C   UNL A   1      39.820  31.587  35.096  1.00  0.00     0.037 A 
BRANCH  56  70
ATOM     70  C   UNL A   1      44.643  27.754  35.447  1.00  0.00     0.057 A 
ATOM     71  C   UNL A   1      44.463  26.581  36.189  1.00  0.00     0.134 A 
ATOM     72  C   UNL A   1      45.909  28.353  35.479  1.00  0.00     0.134 A 
ATOM     73  F   UNL A   1      43.271  25.966  36.209  1.00  0.00    -0.206 F 
ATOM     74  C   UNL A   1      45.498  26.032  36.948  1.00  0.00     0.040 A 
ATOM     75  C   UNL A   1      46.958  27.803  36.216  1.00  0.00     0.040 A 
ATOM     76  F   UNL A   1      46.149  29.477  34.786  1.00  0.00    -0.206 F 
ATOM     77  C   UNL A   1      46.753  26.641  36.956  1.00  0.00     0.006 A 
ENDBRANCH  56  70
BRANCH  57  78
ATOM     78  C   UNL A   1      37.400  31.243  29.563  1.00  0.00     0.057 A 
ATOM     79  C   UNL A   1      36.266  30.464  29.304  1.00  0.00     0.134 A 
ATOM     80  C   UNL A   1      37.468  32.506  28.963  1.00  0.00     0.134 A 
ATOM     81  F   UNL A   1      36.156  29.236  29.830  1.00  0.00    -0.206 F 
ATOM     82  C   UNL A   1      35.246  30.917  28.465  1.00  0.00     0.040 A 
ATOM     83  C   UNL A   1      36.446  32.980  28.141  1.00  0.00     0.040 A 
ATOM     84  F   UNL A   1      38.529  33.298  29.173  1.00  0.00    -0.206 F 
ATOM     85  C   UNL A   1      35.333  32.181  27.884  1.00  0.00     0.006 A 
ENDBRANCH  57  78
BRANCH  69  86
ATOM     86  C   UNL A   1      39.264  32.496  36.153  1.00  0.00     0.057 A 
ATOM     87  C   UNL A   1      38.287  32.065  37.058  1.00  0.00     0.134 A 
ATOM     88  C   UNL A   1      39.743  33.804  36.292  1.00  0.00     0.134 A 
ATOM     89  F   UNL A   1      37.778  30.826  36.971  1.00  0.00    -0.206 F 
ATOM     90  C   UNL A   1      37.793  32.909  38.054  1.00  0.00     0.040 A 
ATOM     91  C   UNL A   1      39.275  34.651  37.298  1.00  0.00     0.040 A 
ATOM     92  F   UNL A   1      40.686  34.277  35.462  1.00  0.00    -0.206 F 
ATOM     93  C   UNL A   1      38.292  34.205  38.180  1.00  0.00     0.006 A 
ENDBRANCH  69  86
ENDBRANCH  43  44
ENDBRANCH  36  38
ENDBRANCH  35  36
ENDBRANCH  34  35
ENDBRANCH  33  34
ENDBRANCH  32  33
ENDBRANCH   1  32
TORSDOF 20
ENDMDL
MODEL 3
REMARK VINA RESULT:     -10.4      4.522      9.919
REMARK SMILES COc1ccc([C@@H]2C(C#N)=C(N)N3C(=O)[C@H](CC(=O)OCCOCCOC(=O)c4ccc(-c5c6nc(c(-c7c(F)cccc7F)c7ccc([nH]7)c(-c7c(F)cccc7F)c7nc(c(-c8c(F)cccc8F)c8ccc5[nH]8)C=C7)C=C6)cc4)SC3=C2C#N)cc1
REMARK SMILES IDX 22 1 21 2 20 3 18 4 19 5 17 6 16 7 7 8 8 9 85 10 11 11 84 12
REMARK SMILES IDX 13 13 83 14 14 15 15 16 6 17 3 18 4 19 89 20 5 21 88 22 2 23
REMARK SMILES IDX 1 24 9 25 10 26 86 27 87 28 12 29 23 32 24 33 25 34 26 35
REMARK SMILES IDX 27 36 28 37 29 38 30 39 82 40 31 41 81 42 32 43 33 44 34 45
REMARK SMILES IDX 75 46 35 47 80 48 74 49 76 50 36 51 79 52 73 53 72 54 37 56
REMARK SMILES IDX 63 57 46 58 62 59 47 60 50 61 61 62 77 63 48 64 49 65 60 67
REMARK SMILES IDX 78 68 51 69 38 70 39 71 44 72 40 73 41 74 43 75 45 76 42 77
REMARK SMILES IDX 64 78 65 79 70 80 66 81 67 82 69 83 71 84 68 85 52 86 53 87
REMARK SMILES IDX 58 88 54 89 55 90 57 91 59 92 56 93
REMARK H PARENT 12 30 12 31 76 55 50 66
REMARK Flexibility Score: inf
ROOT
ATOM      1  C   UNL A   1      34.744  31.963  28.577  1.00  0.00     0.202 C 
ENDROOT
BRANCH   1   2
ATOM      2  C   UNL A   1      33.651  31.410  27.663  1.00  0.00     0.261 C 
BRANCH   2   3
ATOM      3  O   UNL A   1      33.768  29.976  27.561  1.00  0.00    -0.463 OA
BRANCH   3   4
ATOM      4  C   UNL A   1      33.594  29.430  26.334  1.00  0.00     0.307 C 
ATOM      5  O   UNL A   1      34.344  28.611  25.818  1.00  0.00    -0.252 OA
BRANCH   4   6
ATOM      6  C   UNL A   1      32.383  29.985  25.622  1.00  0.00     0.147 C 
BRANCH   6   7
ATOM      7  C   UNL A   1      31.472  28.914  25.037  1.00  0.00     0.154 C 
ATOM      8  C   UNL A   1      31.790  24.119  23.698  1.00  0.00     0.107 C 
ATOM      9  C   UNL A   1      32.285  24.926  22.515  1.00  0.00     0.083 C 
ATOM     10  C   UNL A   1      31.590  24.996  24.906  1.00  0.00     0.073 C 
ATOM     11  C   UNL A   1      32.313  26.280  22.485  1.00  0.00     0.126 C 
ATOM     12  C   UNL A   1      31.640  26.334  24.791  1.00  0.00     0.099 C 
ATOM     13  N   UNL A   1      31.929  27.005  23.619  1.00  0.00    -0.258 N 
ATOM     14  S   UNL A   1      31.426  27.434  26.109  1.00  0.00    -0.093 SA
ATOM     15  C   UNL A   1      31.957  28.408  23.686  1.00  0.00     0.247 C 
ATOM     16  O   UNL A   1      32.295  29.160  22.774  1.00  0.00    -0.273 OA
BRANCH   8  17
ATOM     17  C   UNL A   1      32.644  22.892  24.007  1.00  0.00    -0.034 A 
ATOM     18  C   UNL A   1      34.133  20.604  24.699  1.00  0.00     0.118 A 
ATOM     19  C   UNL A   1      32.792  20.486  24.339  1.00  0.00     0.047 A 
ATOM     20  C   UNL A   1      34.746  21.856  24.674  1.00  0.00     0.047 A 
ATOM     21  C   UNL A   1      32.049  21.619  24.006  1.00  0.00     0.008 A 
ATOM     22  C   UNL A   1      34.007  22.995  24.331  1.00  0.00     0.008 A 
BRANCH  18  23
ATOM     23  O   UNL A   1      34.765  19.433  25.013  1.00  0.00    -0.497 OA
ATOM     24  C   UNL A   1      34.240  18.282  24.360  1.00  0.00     0.278 C 
ENDBRANCH  18  23
ENDBRANCH   8  17
BRANCH   9  25
ATOM     25  C   UNL A   1      32.888  24.150  21.355  1.00  0.00     0.100 C 
ATOM     26  N   UNL A   1      33.389  23.506  20.393  1.00  0.00    -0.193 NA
ENDBRANCH   9  25
BRANCH  10  27
ATOM     27  C   UNL A   1      31.493  24.344  26.276  1.00  0.00     0.098 C 
ATOM     28  N   UNL A   1      31.412  23.803  27.411  1.00  0.00    -0.193 NA
ENDBRANCH  10  27
BRANCH  11  29
ATOM     29  N   UNL A   1      32.737  26.957  21.371  1.00  0.00    -0.384 N 
ATOM     30  H   UNL A   1      33.263  27.784  21.467  1.00  0.00     0.158 HD
ATOM     31  H   UNL A   1      32.517  26.615  20.473  1.00  0.00     0.158 HD
ENDBRANCH  11  29
ENDBRANCH   6   7
ENDBRANCH   4   6
ENDBRANCH   3   4
ENDBRANCH   2   3
ENDBRANCH   1   2
BRANCH   1  32
ATOM     32  O   UNL A   1      34.328  32.999  29.470  1.00  0.00    -0.374 OA
BRANCH  32  33
ATOM     33  C   UNL A   1      34.406  32.721  30.865  1.00  0.00     0.202 C 
BRANCH  33  34
ATOM     34  C   UNL A   1      34.847  33.893  31.752  1.00  0.00     0.261 C 
BRANCH  34  35
ATOM     35  O   UNL A   1      36.254  33.857  32.059  1.00  0.00    -0.460 OA
BRANCH  35  36
ATOM     36  C   UNL A   1      36.649  32.754  32.741  1.00  0.00     0.338 C 
ATOM     37  O   UNL A   1      36.225  32.364  33.821  1.00  0.00    -0.246 OA
BRANCH  36  38
ATOM     38  C   UNL A   1      37.589  31.947  31.942  1.00  0.00     0.060 A 
ATOM     39  C   UNL A   1      38.564  31.223  32.638  1.00  0.00     0.016 A 
ATOM     40  C   UNL A   1      37.588  31.972  30.545  1.00  0.00     0.016 A 
ATOM     41  C   UNL A   1      39.571  30.557  31.942  1.00  0.00     0.010 A 
ATOM     42  C   UNL A   1      38.607  31.309  29.848  1.00  0.00     0.010 A 
ATOM     43  C   UNL A   1      39.622  30.627  30.545  1.00  0.00    -0.014 A 
BRANCH  43  44
ATOM     44  C   UNL A   1      40.810  30.093  29.834  1.00  0.00     0.031 A 
ATOM     45  C   UNL A   1      41.990  30.995  29.589  1.00  0.00     0.074 A 
ATOM     46  C   UNL A   1      40.860  28.806  29.449  1.00  0.00     0.049 A 
ATOM     47  N   UNL A   1      43.124  30.734  28.989  1.00  0.00    -0.248 NA
ATOM     48  C   UNL A   1      41.876  32.373  30.089  1.00  0.00     0.031 C 
ATOM     49  C   UNL A   1      39.801  27.820  29.659  1.00  0.00     0.029 A 
ATOM     50  N   UNL A   1      41.845  28.108  28.796  1.00  0.00    -0.354 N 
ATOM     51  C   UNL A   1      43.857  31.913  29.036  1.00  0.00     0.074 A 
ATOM     52  C   UNL A   1      43.030  32.898  29.699  1.00  0.00     0.031 C 
ATOM     53  C   UNL A   1      40.191  26.645  29.136  1.00  0.00     0.029 A 
ATOM     54  C   UNL A   1      41.513  26.802  28.534  1.00  0.00     0.049 A 
ATOM     55  H   UNL A   1      42.708  28.506  28.541  1.00  0.00     0.167 HD
ATOM     56  C   UNL A   1      45.109  32.150  28.577  1.00  0.00     0.037 A 
ATOM     57  C   UNL A   1      42.193  25.847  27.868  1.00  0.00     0.037 A 
ATOM     58  C   UNL A   1      45.937  31.171  27.923  1.00  0.00     0.049 A 
ATOM     59  C   UNL A   1      43.557  26.155  27.312  1.00  0.00     0.074 A 
ATOM     60  C   UNL A   1      47.228  31.315  27.446  1.00  0.00     0.029 A 
ATOM     61  N   UNL A   1      45.551  29.870  27.646  1.00  0.00    -0.354 N 
ATOM     62  N   UNL A   1      44.252  27.264  27.390  1.00  0.00    -0.248 NA
ATOM     63  C   UNL A   1      44.234  25.075  26.578  1.00  0.00     0.031 C 
ATOM     64  C   UNL A   1      47.609  30.112  26.842  1.00  0.00     0.029 A 
ATOM     65  C   UNL A   1      46.571  29.206  26.984  1.00  0.00     0.049 A 
ATOM     66  H   UNL A   1      44.682  29.474  27.886  1.00  0.00     0.167 HD
ATOM     67  C   UNL A   1      45.453  27.008  26.740  1.00  0.00     0.074 A 
ATOM     68  C   UNL A   1      45.399  25.636  26.284  1.00  0.00     0.031 C 
ATOM     69  C   UNL A   1      46.507  27.836  26.542  1.00  0.00     0.037 A 
BRANCH  56  70
ATOM     70  C   UNL A   1      45.656  33.535  28.749  1.00  0.00     0.057 A 
ATOM     71  C   UNL A   1      46.412  33.897  29.871  1.00  0.00     0.134 A 
ATOM     72  C   UNL A   1      45.463  34.507  27.758  1.00  0.00     0.134 A 
ATOM     73  F   UNL A   1      46.623  33.017  30.861  1.00  0.00    -0.206 F 
ATOM     74  C   UNL A   1      46.941  35.181  30.010  1.00  0.00     0.040 A 
ATOM     75  C   UNL A   1      46.005  35.787  27.875  1.00  0.00     0.040 A 
ATOM     76  F   UNL A   1      44.752  34.223  26.656  1.00  0.00    -0.206 F 
ATOM     77  C   UNL A   1      46.744  36.128  29.006  1.00  0.00     0.006 A 
ENDBRANCH  56  70
BRANCH  57  78
ATOM     78  C   UNL A   1      41.587  24.506  27.673  1.00  0.00     0.057 A 
ATOM     79  C   UNL A   1      40.571  24.297  26.733  1.00  0.00     0.134 A 
ATOM     80  C   UNL A   1      41.991  23.409  28.443  1.00  0.00     0.134 A 
ATOM     81  F   UNL A   1      40.125  25.316  25.984  1.00  0.00    -0.206 F 
ATOM     82  C   UNL A   1      39.967  23.048  26.576  1.00  0.00     0.040 A 
ATOM     83  C   UNL A   1      41.412  22.150  28.281  1.00  0.00     0.040 A 
ATOM     84  F   UNL A   1      42.959  23.545  29.360  1.00  0.00    -0.206 F 
ATOM     85  C   UNL A   1      40.391  21.969  27.349  1.00  0.00     0.006 A 
ENDBRANCH  57  78
BRANCH  69  86
ATOM     86  C   UNL A   1      47.703  27.274  25.829  1.00  0.00     0.057 A 
ATOM     87  C   UNL A   1      47.820  27.319  24.435  1.00  0.00     0.134 A 
ATOM     88  C   UNL A   1      48.767  26.720  26.552  1.00  0.00     0.134 A 
ATOM     89  F   UNL A   1      46.830  27.826  23.685  1.00  0.00    -0.206 F 
ATOM     90  C   UNL A   1      48.947  26.816  23.782  1.00  0.00     0.040 A 
ATOM     91  C   UNL A   1      49.909  26.235  25.912  1.00  0.00     0.040 A 
ATOM     92  F   UNL A   1      48.722  26.655  27.891  1.00  0.00    -0.206 F 
ATOM     93  C   UNL A   1      49.999  26.277  24.522  1.00  0.00     0.006 A 
ENDBRANCH  69  86
ENDBRANCH  43  44
ENDBRANCH  36  38
ENDBRANCH  35  36
ENDBRANCH  34  35
ENDBRANCH  33  34
ENDBRANCH  32  33
ENDBRANCH   1  32
TORSDOF 20
ENDMDL
