MODEL 1
REMARK VINA RESULT:     -10.7      0.000      0.000
REMARK SMILES C[C@@H]1[C@@H](C(=O)OCCOCCOC(=O)c2ccc(-c3c4nc(c(-c5c(F)cccc5F)c5ccc([nH]5)c(-c5c(F)cccc5F)c5nc(c(-c6c(F)cccc6F)c6ccc3[nH]6)C=C5)C=C4)cc2)CC[N@H+]1[C@@H](C)c1ccc(F)cc1
REMARK SMILES IDX 9 1 8 2 7 3 6 4 4 5 5 6 3 7 1 8 2 9 71 10 69 11 70 12 72 14
REMARK SMILES IDX 73 15 74 16 75 17 80 18 76 19 79 20 77 21 78 22 10 23 11 24
REMARK SMILES IDX 12 25 13 26 14 27 15 28 16 29 68 30 17 31 67 32 18 33 19 34
REMARK SMILES IDX 20 35 61 36 21 37 66 38 60 39 62 40 22 41 65 42 59 43 58 44
REMARK SMILES IDX 23 46 49 47 32 48 48 49 33 50 36 51 47 52 63 53 34 54 35 55
REMARK SMILES IDX 46 57 64 58 37 59 24 60 25 61 30 62 26 63 27 64 29 65 31 66
REMARK SMILES IDX 28 67 50 68 51 69 56 70 52 71 53 72 55 73 57 74 54 75 38 76
REMARK SMILES IDX 39 77 44 78 40 79 41 80 43 81 45 82 42 83
REMARK H PARENT 71 13 62 45 36 56
REMARK Flexibility Score: inf
ROOT
ATOM      1  O   UNL A   1      42.004  20.661  25.818  1.00  0.00    -0.374 OA
ENDROOT
BRANCH   1   2
ATOM      2  C   UNL A   1      40.931  21.186  26.598  1.00  0.00     0.202 C 
BRANCH   2   3
ATOM      3  C   UNL A   1      39.827  21.934  25.846  1.00  0.00     0.261 C 
BRANCH   3   4
ATOM      4  O   UNL A   1      39.009  22.692  26.750  1.00  0.00    -0.463 OA
BRANCH   4   5
ATOM      5  C   UNL A   1      37.945  23.334  26.184  1.00  0.00     0.315 C 
ATOM      6  O   UNL A   1      37.601  24.478  26.445  1.00  0.00    -0.252 OA
BRANCH   5   7
ATOM      7  C   UNL A   1      37.324  22.450  25.117  1.00  0.00     0.162 C 
ATOM      8  C   UNL A   1      36.525  22.925  22.768  1.00  0.00     0.076 C 
ATOM      9  C   UNL A   1      36.325  23.238  24.255  1.00  0.00     0.196 C 
ATOM     10  N   UNL A   1      35.034  22.728  24.691  1.00  0.00    -0.326 N 
ATOM     11  C   UNL A   1      36.509  21.321  25.731  1.00  0.00     0.083 C 
ATOM     12  C   UNL A   1      35.130  21.930  25.891  1.00  0.00     0.264 C 
ATOM     13  H   UNL A   1      34.752  22.047  23.986  1.00  0.00     0.348 HD
BRANCH  10  14
ATOM     14  C   UNL A   1      33.802  23.392  24.302  1.00  0.00     0.212 C 
ATOM     15  C   UNL A   1      32.683  22.628  25.028  1.00  0.00     0.081 C 
BRANCH  14  16
ATOM     16  C   UNL A   1      33.793  24.901  24.541  1.00  0.00     0.009 A 
ATOM     17  C   UNL A   1      33.861  25.463  25.829  1.00  0.00     0.013 A 
ATOM     18  C   UNL A   1      33.722  25.777  23.439  1.00  0.00     0.013 A 
ATOM     19  C   UNL A   1      33.845  26.847  26.014  1.00  0.00     0.040 A 
ATOM     20  C   UNL A   1      33.709  27.163  23.624  1.00  0.00     0.040 A 
ATOM     21  C   UNL A   1      33.768  27.684  24.910  1.00  0.00     0.123 A 
ATOM     22  F   UNL A   1      33.758  29.012  25.091  1.00  0.00    -0.207 F 
ENDBRANCH  14  16
ENDBRANCH  10  14
ENDBRANCH   5   7
ENDBRANCH   4   5
ENDBRANCH   3   4
ENDBRANCH   2   3
ENDBRANCH   1   2
BRANCH   1  23
ATOM     23  C   UNL A   1      43.332  21.066  26.145  1.00  0.00     0.202 C 
BRANCH  23  24
ATOM     24  C   UNL A   1      44.082  21.925  25.117  1.00  0.00     0.261 C 
BRANCH  24  25
ATOM     25  O   UNL A   1      43.377  23.133  24.788  1.00  0.00    -0.460 OA
BRANCH  25  26
ATOM     26  C   UNL A   1      44.064  24.274  25.038  1.00  0.00     0.338 C 
ATOM     27  O   UNL A   1      45.115  24.636  24.520  1.00  0.00    -0.246 OA
BRANCH  26  28
ATOM     28  C   UNL A   1      43.285  25.158  25.918  1.00  0.00     0.060 A 
ATOM     29  C   UNL A   1      43.747  26.468  26.091  1.00  0.00     0.016 A 
ATOM     30  C   UNL A   1      42.183  24.691  26.636  1.00  0.00     0.016 A 
ATOM     31  C   UNL A   1      43.138  27.307  27.020  1.00  0.00     0.010 A 
ATOM     32  C   UNL A   1      41.579  25.528  27.581  1.00  0.00     0.010 A 
ATOM     33  C   UNL A   1      42.079  26.825  27.801  1.00  0.00    -0.014 A 
BRANCH  33  34
ATOM     34  C   UNL A   1      41.611  27.628  28.955  1.00  0.00     0.031 A 
ATOM     35  C   UNL A   1      42.346  27.516  30.263  1.00  0.00     0.074 A 
ATOM     36  C   UNL A   1      40.576  28.476  28.831  1.00  0.00     0.049 A 
ATOM     37  N   UNL A   1      42.109  28.112  31.403  1.00  0.00    -0.248 NA
ATOM     38  C   UNL A   1      43.506  26.610  30.287  1.00  0.00     0.031 C 
ATOM     39  C   UNL A   1      39.812  28.703  27.606  1.00  0.00     0.029 A 
ATOM     40  N   UNL A   1      39.988  29.303  29.755  1.00  0.00    -0.354 N 
ATOM     41  C   UNL A   1      43.085  27.655  32.278  1.00  0.00     0.074 A 
ATOM     42  C   UNL A   1      43.901  26.709  31.548  1.00  0.00     0.031 C 
ATOM     43  C   UNL A   1      38.848  29.606  27.856  1.00  0.00     0.029 A 
ATOM     44  C   UNL A   1      38.913  29.997  29.263  1.00  0.00     0.049 A 
ATOM     45  H   UNL A   1      40.309  29.390  30.681  1.00  0.00     0.167 HD
ATOM     46  C   UNL A   1      43.289  27.998  33.572  1.00  0.00     0.037 A 
ATOM     47  C   UNL A   1      38.066  30.841  29.885  1.00  0.00     0.037 A 
ATOM     48  C   UNL A   1      42.478  28.939  34.298  1.00  0.00     0.049 A 
ATOM     49  C   UNL A   1      38.271  31.153  31.343  1.00  0.00     0.074 A 
ATOM     50  C   UNL A   1      42.613  29.363  35.609  1.00  0.00     0.029 A 
ATOM     51  N   UNL A   1      41.375  29.595  33.775  1.00  0.00    -0.354 N 
ATOM     52  N   UNL A   1      39.210  30.732  32.156  1.00  0.00    -0.248 NA
ATOM     53  C   UNL A   1      37.300  32.063  31.969  1.00  0.00     0.031 C 
ATOM     54  C   UNL A   1      41.566  30.246  35.891  1.00  0.00     0.029 A 
ATOM     55  C   UNL A   1      40.806  30.405  34.744  1.00  0.00     0.049 A 
ATOM     56  H   UNL A   1      41.046  29.500  32.852  1.00  0.00     0.167 HD
ATOM     57  C   UNL A   1      38.960  31.344  33.378  1.00  0.00     0.074 A 
ATOM     58  C   UNL A   1      37.787  32.173  33.198  1.00  0.00     0.031 C 
ATOM     59  C   UNL A   1      39.641  31.229  34.545  1.00  0.00     0.037 A 
BRANCH  46  60
ATOM     60  C   UNL A   1      44.426  27.333  34.289  1.00  0.00     0.057 A 
ATOM     61  C   UNL A   1      45.686  27.935  34.394  1.00  0.00     0.134 A 
ATOM     62  C   UNL A   1      44.248  26.088  34.906  1.00  0.00     0.134 A 
ATOM     63  F   UNL A   1      45.925  29.120  33.813  1.00  0.00    -0.206 F 
ATOM     64  C   UNL A   1      46.737  27.312  35.070  1.00  0.00     0.040 A 
ATOM     65  C   UNL A   1      45.285  25.466  35.604  1.00  0.00     0.040 A 
ATOM     66  F   UNL A   1      43.065  25.460  34.844  1.00  0.00    -0.206 F 
ATOM     67  C   UNL A   1      46.535  26.076  35.683  1.00  0.00     0.006 A 
ENDBRANCH  46  60
BRANCH  47  68
ATOM     68  C   UNL A   1      36.934  31.442  29.138  1.00  0.00     0.057 A 
ATOM     69  C   UNL A   1      36.975  32.772  28.704  1.00  0.00     0.134 A 
ATOM     70  C   UNL A   1      35.776  30.707  28.857  1.00  0.00     0.134 A 
ATOM     71  F   UNL A   1      38.048  33.533  28.964  1.00  0.00    -0.206 F 
ATOM     72  C   UNL A   1      35.900  33.354  28.032  1.00  0.00     0.040 A 
ATOM     73  C   UNL A   1      34.703  31.270  28.166  1.00  0.00     0.040 A 
ATOM     74  F   UNL A   1      35.675  29.427  29.247  1.00  0.00    -0.206 F 
ATOM     75  C   UNL A   1      34.760  32.600  27.758  1.00  0.00     0.006 A 
ENDBRANCH  47  68
BRANCH  59  76
ATOM     76  C   UNL A   1      39.155  32.044  35.707  1.00  0.00     0.057 A 
ATOM     77  C   UNL A   1      39.520  33.386  35.870  1.00  0.00     0.134 A 
ATOM     78  C   UNL A   1      38.277  31.492  36.648  1.00  0.00     0.134 A 
ATOM     79  F   UNL A   1      40.367  33.970  35.010  1.00  0.00    -0.206 F 
ATOM     80  C   UNL A   1      39.045  34.143  36.942  1.00  0.00     0.040 A 
ATOM     81  C   UNL A   1      37.777  32.246  37.710  1.00  0.00     0.040 A 
ATOM     82  F   UNL A   1      37.882  30.214  36.542  1.00  0.00    -0.206 F 
ATOM     83  C   UNL A   1      38.166  33.575  37.862  1.00  0.00     0.006 A 
ENDBRANCH  59  76
ENDBRANCH  33  34
ENDBRANCH  26  28
ENDBRANCH  25  26
ENDBRANCH  24  25
ENDBRANCH  23  24
ENDBRANCH   1  23
TORSDOF 16
ENDMDL
MODEL 2
REMARK VINA RESULT:     -10.6      4.698     10.583
REMARK SMILES C[C@@H]1[C@@H](C(=O)OCCOCCOC(=O)c2ccc(-c3c4nc(c(-c5c(F)cccc5F)c5ccc([nH]5)c(-c5c(F)cccc5F)c5nc(c(-c6c(F)cccc6F)c6ccc3[nH]6)C=C5)C=C4)cc2)CC[N@H+]1[C@@H](C)c1ccc(F)cc1
REMARK SMILES IDX 9 1 8 2 7 3 6 4 4 5 5 6 3 7 1 8 2 9 71 10 69 11 70 12 72 14
REMARK SMILES IDX 73 15 74 16 75 17 80 18 76 19 79 20 77 21 78 22 10 23 11 24
REMARK SMILES IDX 12 25 13 26 14 27 15 28 16 29 68 30 17 31 67 32 18 33 19 34
REMARK SMILES IDX 20 35 61 36 21 37 66 38 60 39 62 40 22 41 65 42 59 43 58 44
REMARK SMILES IDX 23 46 49 47 32 48 48 49 33 50 36 51 47 52 63 53 34 54 35 55
REMARK SMILES IDX 46 57 64 58 37 59 24 60 25 61 30 62 26 63 27 64 29 65 31 66
REMARK SMILES IDX 28 67 50 68 51 69 56 70 52 71 53 72 55 73 57 74 54 75 38 76
REMARK SMILES IDX 39 77 44 78 40 79 41 80 43 81 45 82 42 83
REMARK H PARENT 71 13 62 45 36 56
REMARK Flexibility Score: inf
ROOT
ATOM      1  O   UNL A   1      33.025  34.590  29.423  1.00  0.00    -0.374 OA
ENDROOT
BRANCH   1   2
ATOM      2  C   UNL A   1      33.348  35.329  30.599  1.00  0.00     0.202 C 
BRANCH   2   3
ATOM      3  C   UNL A   1      34.040  34.565  31.732  1.00  0.00     0.261 C 
BRANCH   3   4
ATOM      4  O   UNL A   1      35.466  34.590  31.576  1.00  0.00    -0.463 OA
BRANCH   4   5
ATOM      5  C   UNL A   1      36.149  33.615  32.244  1.00  0.00     0.315 C 
ATOM      6  O   UNL A   1      35.959  32.414  32.111  1.00  0.00    -0.252 OA
BRANCH   5   7
ATOM      7  C   UNL A   1      37.240  34.245  33.092  1.00  0.00     0.162 C 
ATOM      8  C   UNL A   1      39.738  34.449  32.772  1.00  0.00     0.076 C 
ATOM      9  C   UNL A   1      38.565  33.479  32.951  1.00  0.00     0.196 C 
ATOM     10  N   UNL A   1      38.691  32.792  34.228  1.00  0.00    -0.326 N 
ATOM     11  C   UNL A   1      36.903  34.179  34.575  1.00  0.00     0.083 C 
ATOM     12  C   UNL A   1      37.475  32.843  35.006  1.00  0.00     0.264 C 
ATOM     13  H   UNL A   1      39.339  33.352  34.782  1.00  0.00     0.348 HD
BRANCH  10  14
ATOM     14  C   UNL A   1      39.686  31.752  34.419  1.00  0.00     0.212 C 
ATOM     15  C   UNL A   1      39.886  31.657  35.939  1.00  0.00     0.081 C 
BRANCH  14  16
ATOM     16  C   UNL A   1      39.352  30.423  33.742  1.00  0.00     0.009 A 
ATOM     17  C   UNL A   1      38.043  30.080  33.357  1.00  0.00     0.013 A 
ATOM     18  C   UNL A   1      40.384  29.500  33.480  1.00  0.00     0.013 A 
ATOM     19  C   UNL A   1      37.770  28.855  32.744  1.00  0.00     0.040 A 
ATOM     20  C   UNL A   1      40.110  28.274  32.865  1.00  0.00     0.040 A 
ATOM     21  C   UNL A   1      38.805  27.963  32.506  1.00  0.00     0.123 A 
ATOM     22  F   UNL A   1      38.541  26.790  31.914  1.00  0.00    -0.207 F 
ENDBRANCH  14  16
ENDBRANCH  10  14
ENDBRANCH   5   7
ENDBRANCH   4   5
ENDBRANCH   3   4
ENDBRANCH   2   3
ENDBRANCH   1   2
BRANCH   1  23
ATOM     23  C   UNL A   1      33.986  34.553  28.368  1.00  0.00     0.202 C 
BRANCH  23  24
ATOM     24  C   UNL A   1      34.993  33.394  28.373  1.00  0.00     0.261 C 
BRANCH  24  25
ATOM     25  O   UNL A   1      34.489  32.227  29.043  1.00  0.00    -0.460 OA
BRANCH  25  26
ATOM     26  C   UNL A   1      34.426  31.115  28.272  1.00  0.00     0.338 C 
ATOM     27  O   UNL A   1      33.528  30.798  27.499  1.00  0.00    -0.246 OA
BRANCH  26  28
ATOM     28  C   UNL A   1      35.695  30.376  28.335  1.00  0.00     0.060 A 
ATOM     29  C   UNL A   1      36.044  29.795  29.560  1.00  0.00     0.016 A 
ATOM     30  C   UNL A   1      36.573  30.332  27.251  1.00  0.00     0.016 A 
ATOM     31  C   UNL A   1      37.296  29.207  29.724  1.00  0.00     0.010 A 
ATOM     32  C   UNL A   1      37.837  29.755  27.418  1.00  0.00     0.010 A 
ATOM     33  C   UNL A   1      38.214  29.224  28.666  1.00  0.00    -0.014 A 
BRANCH  33  34
ATOM     34  C   UNL A   1      39.620  28.833  28.926  1.00  0.00     0.031 A 
ATOM     35  C   UNL A   1      40.521  29.799  29.644  1.00  0.00     0.074 A 
ATOM     36  C   UNL A   1      40.076  27.621  28.566  1.00  0.00     0.049 A 
ATOM     37  N   UNL A   1      41.782  29.675  29.968  1.00  0.00    -0.248 NA
ATOM     38  C   UNL A   1      39.917  31.076  30.056  1.00  0.00     0.031 C 
ATOM     39  C   UNL A   1      39.288  26.584  27.903  1.00  0.00     0.029 A 
ATOM     40  N   UNL A   1      41.320  27.061  28.709  1.00  0.00    -0.354 N 
ATOM     41  C   UNL A   1      42.123  30.855  30.617  1.00  0.00     0.074 A 
ATOM     42  C   UNL A   1      40.945  31.695  30.616  1.00  0.00     0.031 C 
ATOM     43  C   UNL A   1      40.072  25.514  27.687  1.00  0.00     0.029 A 
ATOM     44  C   UNL A   1      41.420  25.802  28.174  1.00  0.00     0.049 A 
ATOM     45  H   UNL A   1      42.069  27.519  29.154  1.00  0.00     0.167 HD
ATOM     46  C   UNL A   1      43.308  31.203  31.171  1.00  0.00     0.037 A 
ATOM     47  C   UNL A   1      42.485  24.983  28.074  1.00  0.00     0.037 A 
ATOM     48  C   UNL A   1      44.479  30.367  31.171  1.00  0.00     0.049 A 
ATOM     49  C   UNL A   1      43.810  25.421  28.636  1.00  0.00     0.074 A 
ATOM     50  C   UNL A   1      45.724  30.626  31.719  1.00  0.00     0.029 A 
ATOM     51  N   UNL A   1      44.551  29.112  30.587  1.00  0.00    -0.354 N 
ATOM     52  N   UNL A   1      44.116  26.530  29.267  1.00  0.00    -0.248 NA
ATOM     53  C   UNL A   1      44.939  24.493  28.475  1.00  0.00     0.031 C 
ATOM     54  C   UNL A   1      46.561  29.543  31.431  1.00  0.00     0.029 A 
ATOM     55  C   UNL A   1      45.825  28.592  30.742  1.00  0.00     0.049 A 
ATOM     56  H   UNL A   1      43.806  28.658  30.131  1.00  0.00     0.167 HD
ATOM     57  C   UNL A   1      45.461  26.420  29.600  1.00  0.00     0.074 A 
ATOM     58  C   UNL A   1      45.909  25.134  29.111  1.00  0.00     0.031 C 
ATOM     59  C   UNL A   1      46.253  27.306  30.253  1.00  0.00     0.037 A 
BRANCH  46  60
ATOM     60  C   UNL A   1      43.399  32.559  31.805  1.00  0.00     0.057 A 
ATOM     61  C   UNL A   1      43.640  33.713  31.050  1.00  0.00     0.134 A 
ATOM     62  C   UNL A   1      43.216  32.713  33.186  1.00  0.00     0.134 A 
ATOM     63  F   UNL A   1      43.838  33.631  29.726  1.00  0.00    -0.206 F 
ATOM     64  C   UNL A   1      43.715  34.973  31.648  1.00  0.00     0.040 A 
ATOM     65  C   UNL A   1      43.268  33.969  33.792  1.00  0.00     0.040 A 
ATOM     66  F   UNL A   1      42.981  31.647  33.965  1.00  0.00    -0.206 F 
ATOM     67  C   UNL A   1      43.522  35.103  33.023  1.00  0.00     0.006 A 
ENDBRANCH  46  60
BRANCH  47  68
ATOM     68  C   UNL A   1      42.349  23.667  27.403  1.00  0.00     0.057 A 
ATOM     69  C   UNL A   1      42.061  22.507  28.130  1.00  0.00     0.134 A 
ATOM     70  C   UNL A   1      42.525  23.535  26.020  1.00  0.00     0.134 A 
ATOM     71  F   UNL A   1      41.906  22.566  29.460  1.00  0.00    -0.206 F 
ATOM     72  C   UNL A   1      41.968  21.261  27.509  1.00  0.00     0.040 A 
ATOM     73  C   UNL A   1      42.412  22.299  25.383  1.00  0.00     0.040 A 
ATOM     74  F   UNL A   1      42.803  24.610  25.267  1.00  0.00    -0.206 F 
ATOM     75  C   UNL A   1      42.139  21.155  26.130  1.00  0.00     0.006 A 
ENDBRANCH  47  68
BRANCH  59  76
ATOM     76  C   UNL A   1      47.674  26.900  30.507  1.00  0.00     0.057 A 
ATOM     77  C   UNL A   1      48.031  26.110  31.607  1.00  0.00     0.134 A 
ATOM     78  C   UNL A   1      48.691  27.268  29.616  1.00  0.00     0.134 A 
ATOM     79  F   UNL A   1      47.106  25.735  32.503  1.00  0.00    -0.206 F 
ATOM     80  C   UNL A   1      49.353  25.718  31.822  1.00  0.00     0.040 A 
ATOM     81  C   UNL A   1      50.011  26.862  29.808  1.00  0.00     0.040 A 
ATOM     82  F   UNL A   1      48.413  28.016  28.538  1.00  0.00    -0.206 F 
ATOM     83  C   UNL A   1      50.346  26.089  30.917  1.00  0.00     0.006 A 
ENDBRANCH  59  76
ENDBRANCH  33  34
ENDBRANCH  26  28
ENDBRANCH  25  26
ENDBRANCH  24  25
ENDBRANCH  23  24
ENDBRANCH   1  23
TORSDOF 16
ENDMDL
MODEL 3
REMARK VINA RESULT:     -10.6      2.084      3.084
REMARK SMILES C[C@@H]1[C@@H](C(=O)OCCOCCOC(=O)c2ccc(-c3c4nc(c(-c5c(F)cccc5F)c5ccc([nH]5)c(-c5c(F)cccc5F)c5nc(c(-c6c(F)cccc6F)c6ccc3[nH]6)C=C5)C=C4)cc2)CC[N@H+]1[C@@H](C)c1ccc(F)cc1
REMARK SMILES IDX 9 1 8 2 7 3 6 4 4 5 5 6 3 7 1 8 2 9 71 10 69 11 70 12 72 14
REMARK SMILES IDX 73 15 74 16 75 17 80 18 76 19 79 20 77 21 78 22 10 23 11 24
REMARK SMILES IDX 12 25 13 26 14 27 15 28 16 29 68 30 17 31 67 32 18 33 19 34
REMARK SMILES IDX 20 35 61 36 21 37 66 38 60 39 62 40 22 41 65 42 59 43 58 44
REMARK SMILES IDX 23 46 49 47 32 48 48 49 33 50 36 51 47 52 63 53 34 54 35 55
REMARK SMILES IDX 46 57 64 58 37 59 24 60 25 61 30 62 26 63 27 64 29 65 31 66
REMARK SMILES IDX 28 67 50 68 51 69 56 70 52 71 53 72 55 73 57 74 54 75 38 76
REMARK SMILES IDX 39 77 44 78 40 79 41 80 43 81 45 82 42 83
REMARK H PARENT 71 13 62 45 36 56
REMARK Flexibility Score: inf
ROOT
ATOM      1  O   UNL A   1      41.154  20.491  26.222  1.00  0.00    -0.374 OA
ENDROOT
BRANCH   1   2
ATOM      2  C   UNL A   1      40.596  21.663  26.814  1.00  0.00     0.202 C 
BRANCH   2   3
ATOM      3  C   UNL A   1      39.120  21.952  26.524  1.00  0.00     0.261 C 
BRANCH   3   4
ATOM      4  O   UNL A   1      38.740  21.450  25.234  1.00  0.00    -0.463 OA
BRANCH   4   5
ATOM      5  C   UNL A   1      37.463  20.974  25.140  1.00  0.00     0.315 C 
ATOM      6  O   UNL A   1      37.168  19.815  24.884  1.00  0.00    -0.252 OA
BRANCH   5   7
ATOM      7  C   UNL A   1      36.481  22.074  25.501  1.00  0.00     0.162 C 
ATOM      8  C   UNL A   1      34.588  22.183  27.169  1.00  0.00     0.076 C 
ATOM      9  C   UNL A   1      35.119  21.491  25.910  1.00  0.00     0.196 C 
ATOM     10  N   UNL A   1      34.264  21.814  24.777  1.00  0.00    -0.326 N 
ATOM     11  C   UNL A   1      36.183  22.971  24.307  1.00  0.00     0.083 C 
ATOM     12  C   UNL A   1      35.013  22.280  23.633  1.00  0.00     0.264 C 
ATOM     13  H   UNL A   1      33.735  22.641  25.056  1.00  0.00     0.348 HD
BRANCH  10  14
ATOM     14  C   UNL A   1      32.947  21.219  24.646  1.00  0.00     0.212 C 
ATOM     15  C   UNL A   1      32.319  21.891  23.415  1.00  0.00     0.081 C 
BRANCH  14  16
ATOM     16  C   UNL A   1      32.942  19.691  24.602  1.00  0.00     0.009 A 
ATOM     17  C   UNL A   1      32.744  18.903  25.750  1.00  0.00     0.013 A 
ATOM     18  C   UNL A   1      33.134  19.032  23.370  1.00  0.00     0.013 A 
ATOM     19  C   UNL A   1      32.750  17.508  25.677  1.00  0.00     0.040 A 
ATOM     20  C   UNL A   1      33.138  17.636  23.298  1.00  0.00     0.040 A 
ATOM     21  C   UNL A   1      32.948  16.888  24.452  1.00  0.00     0.123 A 
ATOM     22  F   UNL A   1      32.950  15.549  24.385  1.00  0.00    -0.207 F 
ENDBRANCH  14  16
ENDBRANCH  10  14
ENDBRANCH   5   7
ENDBRANCH   4   5
ENDBRANCH   3   4
ENDBRANCH   2   3
ENDBRANCH   1   2
BRANCH   1  23
ATOM     23  C   UNL A   1      42.524  20.527  25.824  1.00  0.00     0.202 C 
BRANCH  23  24
ATOM     24  C   UNL A   1      43.272  21.856  25.993  1.00  0.00     0.261 C 
BRANCH  24  25
ATOM     25  O   UNL A   1      42.932  22.815  24.978  1.00  0.00    -0.460 OA
BRANCH  25  26
ATOM     26  C   UNL A   1      43.662  23.955  25.011  1.00  0.00     0.338 C 
ATOM     27  O   UNL A   1      44.650  24.224  24.335  1.00  0.00    -0.246 OA
BRANCH  26  28
ATOM     28  C   UNL A   1      43.008  24.958  25.865  1.00  0.00     0.060 A 
ATOM     29  C   UNL A   1      43.767  26.067  26.257  1.00  0.00     0.016 A 
ATOM     30  C   UNL A   1      41.714  24.772  26.353  1.00  0.00     0.016 A 
ATOM     31  C   UNL A   1      43.253  26.974  27.180  1.00  0.00     0.010 A 
ATOM     32  C   UNL A   1      41.202  25.675  27.291  1.00  0.00     0.010 A 
ATOM     33  C   UNL A   1      41.984  26.757  27.735  1.00  0.00    -0.014 A 
BRANCH  33  34
ATOM     34  C   UNL A   1      41.556  27.574  28.894  1.00  0.00     0.031 A 
ATOM     35  C   UNL A   1      42.316  27.454  30.187  1.00  0.00     0.074 A 
ATOM     36  C   UNL A   1      40.533  28.439  28.787  1.00  0.00     0.049 A 
ATOM     37  N   UNL A   1      42.114  28.061  31.328  1.00  0.00    -0.248 NA
ATOM     38  C   UNL A   1      43.460  26.529  30.191  1.00  0.00     0.031 C 
ATOM     39  C   UNL A   1      39.748  28.675  27.578  1.00  0.00     0.029 A 
ATOM     40  N   UNL A   1      39.981  29.281  29.719  1.00  0.00    -0.354 N 
ATOM     41  C   UNL A   1      43.100  27.590  32.185  1.00  0.00     0.074 A 
ATOM     42  C   UNL A   1      43.883  26.626  31.442  1.00  0.00     0.031 C 
ATOM     43  C   UNL A   1      38.805  29.596  27.844  1.00  0.00     0.029 A 
ATOM     44  C   UNL A   1      38.907  29.993  29.247  1.00  0.00     0.049 A 
ATOM     45  H   UNL A   1      40.323  29.367  30.638  1.00  0.00     0.167 HD
ATOM     46  C   UNL A   1      43.337  27.936  33.472  1.00  0.00     0.037 A 
ATOM     47  C   UNL A   1      38.089  30.854  29.883  1.00  0.00     0.037 A 
ATOM     48  C   UNL A   1      42.559  28.894  34.210  1.00  0.00     0.049 A 
ATOM     49  C   UNL A   1      38.331  31.170  31.334  1.00  0.00     0.074 A 
ATOM     50  C   UNL A   1      42.729  29.322  35.516  1.00  0.00     0.029 A 
ATOM     51  N   UNL A   1      41.457  29.568  33.708  1.00  0.00    -0.354 N 
ATOM     52  N   UNL A   1      39.279  30.736  32.129  1.00  0.00    -0.248 NA
ATOM     53  C   UNL A   1      37.390  32.100  31.976  1.00  0.00     0.031 C 
ATOM     54  C   UNL A   1      41.705  30.225  35.816  1.00  0.00     0.029 A 
ATOM     55  C   UNL A   1      40.923  30.392  34.684  1.00  0.00     0.049 A 
ATOM     56  H   UNL A   1      41.106  29.474  32.793  1.00  0.00     0.167 HD
ATOM     57  C   UNL A   1      39.066  31.357  33.353  1.00  0.00     0.074 A 
ATOM     58  C   UNL A   1      37.905  32.206  33.193  1.00  0.00     0.031 C 
ATOM     59  C   UNL A   1      39.769  31.236  34.506  1.00  0.00     0.037 A 
BRANCH  46  60
ATOM     60  C   UNL A   1      44.477  27.253  34.169  1.00  0.00     0.057 A 
ATOM     61  C   UNL A   1      45.768  27.796  34.178  1.00  0.00     0.134 A 
ATOM     62  C   UNL A   1      44.273  26.053  34.861  1.00  0.00     0.134 A 
ATOM     63  F   UNL A   1      46.032  28.936  33.521  1.00  0.00    -0.206 F 
ATOM     64  C   UNL A   1      46.822  27.158  34.836  1.00  0.00     0.040 A 
ATOM     65  C   UNL A   1      45.313  25.417  35.541  1.00  0.00     0.040 A 
ATOM     66  F   UNL A   1      43.060  25.482  34.892  1.00  0.00    -0.206 F 
ATOM     67  C   UNL A   1      46.593  25.968  35.525  1.00  0.00     0.006 A 
ENDBRANCH  46  60
BRANCH  47  68
ATOM     68  C   UNL A   1      36.953  31.473  29.156  1.00  0.00     0.057 A 
ATOM     69  C   UNL A   1      35.782  30.754  28.891  1.00  0.00     0.134 A 
ATOM     70  C   UNL A   1      37.020  32.792  28.691  1.00  0.00     0.134 A 
ATOM     71  F   UNL A   1      35.669  29.479  29.290  1.00  0.00    -0.206 F 
ATOM     72  C   UNL A   1      34.725  31.319  28.176  1.00  0.00     0.040 A 
ATOM     73  C   UNL A   1      35.961  33.377  27.996  1.00  0.00     0.040 A 
ATOM     74  F   UNL A   1      38.115  33.534  28.913  1.00  0.00    -0.206 F 
ATOM     75  C   UNL A   1      34.811  32.636  27.730  1.00  0.00     0.006 A 
ENDBRANCH  47  68
BRANCH  59  76
ATOM     76  C   UNL A   1      39.323  32.065  35.673  1.00  0.00     0.057 A 
ATOM     77  C   UNL A   1      39.774  33.377  35.862  1.00  0.00     0.134 A 
ATOM     78  C   UNL A   1      38.398  31.559  36.596  1.00  0.00     0.134 A 
ATOM     79  F   UNL A   1      40.670  33.916  35.021  1.00  0.00    -0.206 F 
ATOM     80  C   UNL A   1      39.336  34.149  36.939  1.00  0.00     0.040 A 
ATOM     81  C   UNL A   1      37.934  32.330  37.662  1.00  0.00     0.040 A 
ATOM     82  F   UNL A   1      37.920  30.312  36.465  1.00  0.00    -0.206 F 
ATOM     83  C   UNL A   1      38.408  33.628  37.839  1.00  0.00     0.006 A 
ENDBRANCH  59  76
ENDBRANCH  33  34
ENDBRANCH  26  28
ENDBRANCH  25  26
ENDBRANCH  24  25
ENDBRANCH  23  24
ENDBRANCH   1  23
TORSDOF 16
ENDMDL
