MODEL 1
REMARK VINA RESULT:     -10.3      0.000      0.000
REMARK SMILES CC[C@@](C)(NC(=O)Nc1ccccc1C#N)C(=O)OCCOCCOC(=O)c1ccc(-c2c3nc(c(-c4c(F)cccc4F)c4ccc([nH]4)c(-c4c(F)cccc4F)c4nc(c(-c5c(F)cccc5F)c5ccc2[nH]5)C=C4)C=C3)cc1
REMARK SMILES IDX 21 1 20 2 19 3 17 4 18 5 3 6 4 7 2 8 1 9 5 10 6 11 7 13 8 14
REMARK SMILES IDX 9 16 10 17 14 18 11 19 13 20 12 21 15 22 16 23 22 24 23 25
REMARK SMILES IDX 24 26 25 27 26 28 27 29 28 30 29 31 81 32 30 33 80 34 31 35
REMARK SMILES IDX 32 36 33 37 74 38 34 39 79 40 73 41 75 42 35 43 78 44 72 45
REMARK SMILES IDX 71 46 36 48 62 49 45 50 61 51 46 52 49 53 60 54 76 55 47 56
REMARK SMILES IDX 48 57 59 59 77 60 50 61 37 62 38 63 43 64 39 65 40 66 42 67
REMARK SMILES IDX 44 68 41 69 63 70 64 71 69 72 65 73 66 74 68 75 70 76 67 77
REMARK SMILES IDX 51 78 52 79 57 80 53 81 54 82 56 83 58 84 55 85
REMARK H PARENT 5 12 8 15 75 47 49 58
REMARK Flexibility Score: inf
ROOT
ATOM      1  C   UNL A   1      33.732  30.578  27.212  1.00  0.00     0.202 C 
ENDROOT
BRANCH   1   2
ATOM      2  C   UNL A   1      34.363  29.265  26.418  1.00  0.00     0.261 C 
BRANCH   2   3
ATOM      3  O   UNL A   1      33.812  28.528  25.077  1.00  0.00    -0.462 OA
BRANCH   3   4
ATOM      4  C   UNL A   1      32.883  27.850  24.274  1.00  0.00     0.331 C 
ATOM      5  O   UNL A   1      33.297  27.210  23.298  1.00  0.00    -0.249 OA
BRANCH   4   6
ATOM      6  C   UNL A   1      31.329  27.876  24.496  1.00  0.00     0.136 C 
ATOM      7  C   UNL A   1      30.794  28.932  23.513  1.00  0.00     0.047 C 
BRANCH   6   8
ATOM      8  C   UNL A   1      30.236  26.727  24.494  1.00  0.00     0.037 C 
ATOM      9  C   UNL A   1      28.876  26.906  23.870  1.00  0.00     0.007 C 
ENDBRANCH   6   8
BRANCH   6  10
ATOM     10  N   UNL A   1      31.380  28.290  25.831  1.00  0.00    -0.322 N 
ATOM     11  C   UNL A   1      31.616  27.345  26.745  1.00  0.00     0.320 C 
ATOM     12  H   UNL A   1      31.249  29.232  26.085  1.00  0.00     0.166 HD
ATOM     13  O   UNL A   1      31.400  27.711  27.898  1.00  0.00    -0.248 OA
ATOM     14  N   UNL A   1      31.957  26.043  26.440  1.00  0.00    -0.307 N 
ATOM     15  H   UNL A   1      31.465  25.515  27.110  1.00  0.00     0.171 HD
BRANCH  14  16
ATOM     16  C   UNL A   1      32.669  25.004  25.643  1.00  0.00     0.060 A 
ATOM     17  C   UNL A   1      34.063  25.219  25.809  1.00  0.00     0.027 A 
ATOM     18  C   UNL A   1      32.376  23.997  24.652  1.00  0.00     0.076 A 
ATOM     19  C   UNL A   1      35.064  24.470  25.181  1.00  0.00     0.002 A 
ATOM     20  C   UNL A   1      33.398  23.139  24.160  1.00  0.00     0.021 A 
ATOM     21  C   UNL A   1      34.732  23.386  24.401  1.00  0.00     0.002 A 
BRANCH  18  22
ATOM     22  C   UNL A   1      31.261  23.833  23.723  1.00  0.00     0.101 C 
ATOM     23  N   UNL A   1      30.277  23.721  23.130  1.00  0.00    -0.192 NA
ENDBRANCH  18  22
ENDBRANCH  14  16
ENDBRANCH   6  10
ENDBRANCH   4   6
ENDBRANCH   3   4
ENDBRANCH   2   3
ENDBRANCH   1   2
BRANCH   1  24
ATOM     24  O   UNL A   1      32.373  31.000  27.024  1.00  0.00    -0.374 OA
BRANCH  24  25
ATOM     25  C   UNL A   1      31.789  32.292  26.900  1.00  0.00     0.202 C 
BRANCH  25  26
ATOM     26  C   UNL A   1      32.593  33.535  27.310  1.00  0.00     0.261 C 
BRANCH  26  27
ATOM     27  O   UNL A   1      32.317  33.893  28.654  1.00  0.00    -0.460 OA
BRANCH  27  28
ATOM     28  C   UNL A   1      33.312  34.636  29.178  1.00  0.00     0.338 C 
ATOM     29  O   UNL A   1      33.211  35.716  29.735  1.00  0.00    -0.246 OA
BRANCH  28  30
ATOM     30  C   UNL A   1      34.520  33.807  29.218  1.00  0.00     0.060 A 
ATOM     31  C   UNL A   1      34.401  32.581  29.879  1.00  0.00     0.016 A 
ATOM     32  C   UNL A   1      35.711  34.184  28.586  1.00  0.00     0.016 A 
ATOM     33  C   UNL A   1      35.514  31.778  30.020  1.00  0.00     0.010 A 
ATOM     34  C   UNL A   1      36.835  33.379  28.738  1.00  0.00     0.010 A 
ATOM     35  C   UNL A   1      36.747  32.218  29.522  1.00  0.00    -0.014 A 
BRANCH  35  36
ATOM     36  C   UNL A   1      37.949  31.593  30.103  1.00  0.00     0.031 A 
ATOM     37  C   UNL A   1      38.265  31.893  31.543  1.00  0.00     0.074 A 
ATOM     38  C   UNL A   1      38.622  30.653  29.425  1.00  0.00     0.049 A 
ATOM     39  N   UNL A   1      39.166  31.356  32.322  1.00  0.00    -0.248 NA
ATOM     40  C   UNL A   1      37.441  32.925  32.198  1.00  0.00     0.031 C 
ATOM     41  C   UNL A   1      38.354  30.247  28.046  1.00  0.00     0.029 A 
ATOM     42  N   UNL A   1      39.653  29.848  29.825  1.00  0.00    -0.354 N 
ATOM     43  C   UNL A   1      39.003  31.969  33.557  1.00  0.00     0.074 A 
ATOM     44  C   UNL A   1      37.959  32.956  33.415  1.00  0.00     0.031 C 
ATOM     45  C   UNL A   1      39.203  29.261  27.714  1.00  0.00     0.029 A 
ATOM     46  C   UNL A   1      40.083  28.986  28.848  1.00  0.00     0.049 A 
ATOM     47  H   UNL A   1      40.048  29.883  30.726  1.00  0.00     0.167 HD
ATOM     48  C   UNL A   1      39.651  31.713  34.717  1.00  0.00     0.037 A 
ATOM     49  C   UNL A   1      41.085  28.089  28.875  1.00  0.00     0.037 A 
ATOM     50  C   UNL A   1      40.702  30.741  34.847  1.00  0.00     0.049 A 
ATOM     51  C   UNL A   1      41.859  27.895  30.152  1.00  0.00     0.074 A 
ATOM     52  C   UNL A   1      41.445  30.421  35.969  1.00  0.00     0.029 A 
ATOM     53  N   UNL A   1      41.165  29.938  33.815  1.00  0.00    -0.354 N 
ATOM     54  N   UNL A   1      41.692  28.468  31.322  1.00  0.00    -0.248 NA
ATOM     55  C   UNL A   1      42.951  26.914  30.117  1.00  0.00     0.031 C 
ATOM     56  C   UNL A   1      42.398  29.467  35.601  1.00  0.00     0.029 A 
ATOM     57  C   UNL A   1      42.203  29.140  34.268  1.00  0.00     0.049 A 
ATOM     58  H   UNL A   1      40.810  29.935  32.897  1.00  0.00     0.167 HD
ATOM     59  C   UNL A   1      42.642  27.900  32.164  1.00  0.00     0.074 A 
ATOM     60  C   UNL A   1      43.355  26.915  31.378  1.00  0.00     0.031 C 
ATOM     61  C   UNL A   1      42.905  28.167  33.469  1.00  0.00     0.037 A 
BRANCH  48  62
ATOM     62  C   UNL A   1      39.258  32.519  35.919  1.00  0.00     0.057 A 
ATOM     63  C   UNL A   1      38.353  32.034  36.874  1.00  0.00     0.134 A 
ATOM     64  C   UNL A   1      39.807  33.787  36.138  1.00  0.00     0.134 A 
ATOM     65  F   UNL A   1      37.770  30.836  36.714  1.00  0.00    -0.206 F 
ATOM     66  C   UNL A   1      37.997  32.790  37.992  1.00  0.00     0.040 A 
ATOM     67  C   UNL A   1      39.483  34.540  37.267  1.00  0.00     0.040 A 
ATOM     68  F   UNL A   1      40.676  34.314  35.261  1.00  0.00    -0.206 F 
ATOM     69  C   UNL A   1      38.570  34.043  38.195  1.00  0.00     0.006 A 
ENDBRANCH  48  62
BRANCH  49  70
ATOM     70  C   UNL A   1      41.437  27.331  27.647  1.00  0.00     0.057 A 
ATOM     71  C   UNL A   1      40.911  26.062  27.385  1.00  0.00     0.134 A 
ATOM     72  C   UNL A   1      42.355  27.850  26.725  1.00  0.00     0.134 A 
ATOM     73  F   UNL A   1      40.044  25.500  28.240  1.00  0.00    -0.206 F 
ATOM     74  C   UNL A   1      41.310  25.322  26.271  1.00  0.00     0.040 A 
ATOM     75  C   UNL A   1      42.735  27.137  25.589  1.00  0.00     0.040 A 
ATOM     76  F   UNL A   1      42.897  29.062  26.916  1.00  0.00    -0.206 F 
ATOM     77  C   UNL A   1      42.221  25.862  25.366  1.00  0.00     0.006 A 
ENDBRANCH  49  70
BRANCH  61  78
ATOM     78  C   UNL A   1      43.986  27.357  34.129  1.00  0.00     0.057 A 
ATOM     79  C   UNL A   1      45.343  27.678  33.997  1.00  0.00     0.134 A 
ATOM     80  C   UNL A   1      43.662  26.241  34.913  1.00  0.00     0.134 A 
ATOM     81  F   UNL A   1      45.726  28.731  33.255  1.00  0.00    -0.206 F 
ATOM     82  C   UNL A   1      46.340  26.892  34.577  1.00  0.00     0.040 A 
ATOM     83  C   UNL A   1      44.649  25.471  35.530  1.00  0.00     0.040 A 
ATOM     84  F   UNL A   1      42.383  25.885  35.099  1.00  0.00    -0.206 F 
ATOM     85  C   UNL A   1      45.993  25.786  35.350  1.00  0.00     0.006 A 
ENDBRANCH  61  78
ENDBRANCH  35  36
ENDBRANCH  28  30
ENDBRANCH  27  28
ENDBRANCH  26  27
ENDBRANCH  25  26
ENDBRANCH  24  25
ENDBRANCH   1  24
TORSDOF 18
ENDMDL
MODEL 2
REMARK VINA RESULT:     -10.3      1.693      3.065
REMARK SMILES CC[C@@](C)(NC(=O)Nc1ccccc1C#N)C(=O)OCCOCCOC(=O)c1ccc(-c2c3nc(c(-c4c(F)cccc4F)c4ccc([nH]4)c(-c4c(F)cccc4F)c4nc(c(-c5c(F)cccc5F)c5ccc2[nH]5)C=C4)C=C3)cc1
REMARK SMILES IDX 21 1 20 2 19 3 17 4 18 5 3 6 4 7 2 8 1 9 5 10 6 11 7 13 8 14
REMARK SMILES IDX 9 16 10 17 14 18 11 19 13 20 12 21 15 22 16 23 22 24 23 25
REMARK SMILES IDX 24 26 25 27 26 28 27 29 28 30 29 31 81 32 30 33 80 34 31 35
REMARK SMILES IDX 32 36 33 37 74 38 34 39 79 40 73 41 75 42 35 43 78 44 72 45
REMARK SMILES IDX 71 46 36 48 62 49 45 50 61 51 46 52 49 53 60 54 76 55 47 56
REMARK SMILES IDX 48 57 59 59 77 60 50 61 37 62 38 63 43 64 39 65 40 66 42 67
REMARK SMILES IDX 44 68 41 69 63 70 64 71 69 72 65 73 66 74 68 75 70 76 67 77
REMARK SMILES IDX 51 78 52 79 57 80 53 81 54 82 56 83 58 84 55 85
REMARK H PARENT 5 12 8 15 75 47 49 58
REMARK Flexibility Score: inf
ROOT
ATOM      1  C   UNL A   1      31.665  27.877  26.934  1.00  0.00     0.202 C 
ENDROOT
BRANCH   1   2
ATOM      2  C   UNL A   1      32.233  26.320  26.905  1.00  0.00     0.261 C 
BRANCH   2   3
ATOM      3  O   UNL A   1      32.165  25.236  25.695  1.00  0.00    -0.462 OA
BRANCH   3   4
ATOM      4  C   UNL A   1      31.547  24.385  24.766  1.00  0.00     0.331 C 
ATOM      5  O   UNL A   1      30.880  23.430  25.187  1.00  0.00    -0.249 OA
BRANCH   4   6
ATOM      6  C   UNL A   1      31.675  24.526  23.208  1.00  0.00     0.136 C 
ATOM      7  C   UNL A   1      30.765  25.706  22.829  1.00  0.00     0.047 C 
BRANCH   6   8
ATOM      8  C   UNL A   1      32.934  24.659  22.253  1.00  0.00     0.037 C 
ATOM      9  C   UNL A   1      33.695  25.951  22.093  1.00  0.00     0.007 C 
ENDBRANCH   6   8
BRANCH   6  10
ATOM     10  N   UNL A   1      31.155  23.263  22.905  1.00  0.00    -0.322 N 
ATOM     11  C   UNL A   1      32.020  22.246  22.880  1.00  0.00     0.320 C 
ATOM     12  H   UNL A   1      30.197  23.131  22.719  1.00  0.00     0.166 HD
ATOM     13  O   UNL A   1      31.566  21.226  22.368  1.00  0.00    -0.248 OA
ATOM     14  N   UNL A   1      33.338  22.343  23.279  1.00  0.00    -0.307 N 
ATOM     15  H   UNL A   1      33.817  21.788  22.622  1.00  0.00     0.171 HD
BRANCH  14  16
ATOM     16  C   UNL A   1      34.427  22.834  24.169  1.00  0.00     0.060 A 
ATOM     17  C   UNL A   1      35.611  22.921  23.389  1.00  0.00     0.027 A 
ATOM     18  C   UNL A   1      34.669  23.068  25.573  1.00  0.00     0.076 A 
ATOM     19  C   UNL A   1      36.862  23.305  23.882  1.00  0.00     0.002 A 
ATOM     20  C   UNL A   1      35.901  23.620  26.019  1.00  0.00     0.021 A 
ATOM     21  C   UNL A   1      36.996  23.715  25.190  1.00  0.00     0.002 A 
BRANCH  18  22
ATOM     22  C   UNL A   1      34.027  22.547  26.777  1.00  0.00     0.101 C 
ATOM     23  N   UNL A   1      33.369  22.154  27.640  1.00  0.00    -0.192 NA
ENDBRANCH  18  22
ENDBRANCH  14  16
ENDBRANCH   6  10
ENDBRANCH   4   6
ENDBRANCH   3   4
ENDBRANCH   2   3
ENDBRANCH   1   2
BRANCH   1  24
ATOM     24  O   UNL A   1      32.062  28.850  25.956  1.00  0.00    -0.374 OA
BRANCH  24  25
ATOM     25  C   UNL A   1      31.491  30.096  25.570  1.00  0.00     0.202 C 
BRANCH  25  26
ATOM     26  C   UNL A   1      31.787  31.359  26.391  1.00  0.00     0.261 C 
BRANCH  26  27
ATOM     27  O   UNL A   1      32.785  31.104  27.366  1.00  0.00    -0.460 OA
BRANCH  27  28
ATOM     28  C   UNL A   1      33.467  32.225  27.675  1.00  0.00     0.338 C 
ATOM     29  O   UNL A   1      33.003  33.319  27.944  1.00  0.00    -0.246 OA
BRANCH  28  30
ATOM     30  C   UNL A   1      34.865  31.852  27.907  1.00  0.00     0.060 A 
ATOM     31  C   UNL A   1      35.128  30.482  27.997  1.00  0.00     0.016 A 
ATOM     32  C   UNL A   1      35.894  32.799  27.977  1.00  0.00     0.016 A 
ATOM     33  C   UNL A   1      36.408  30.056  28.286  1.00  0.00     0.010 A 
ATOM     34  C   UNL A   1      37.182  32.370  28.279  1.00  0.00     0.010 A 
ATOM     35  C   UNL A   1      37.414  31.004  28.509  1.00  0.00    -0.014 A 
BRANCH  35  36
ATOM     36  C   UNL A   1      38.591  30.545  29.269  1.00  0.00     0.031 A 
ATOM     37  C   UNL A   1      38.723  31.004  30.695  1.00  0.00     0.074 A 
ATOM     38  C   UNL A   1      39.405  29.609  28.760  1.00  0.00     0.049 A 
ATOM     39  N   UNL A   1      39.574  30.623  31.611  1.00  0.00    -0.248 NA
ATOM     40  C   UNL A   1      37.755  32.015  31.155  1.00  0.00     0.031 C 
ATOM     41  C   UNL A   1      39.321  29.055  27.410  1.00  0.00     0.029 A 
ATOM     42  N   UNL A   1      40.446  28.939  29.342  1.00  0.00    -0.354 N 
ATOM     43  C   UNL A   1      39.230  31.331  32.755  1.00  0.00     0.074 A 
ATOM     44  C   UNL A   1      38.133  32.205  32.408  1.00  0.00     0.031 C 
ATOM     45  C   UNL A   1      40.275  28.121  27.267  1.00  0.00     0.029 A 
ATOM     46  C   UNL A   1      41.046  28.032  28.506  1.00  0.00     0.049 A 
ATOM     47  H   UNL A   1      40.737  29.093  30.269  1.00  0.00     0.167 HD
ATOM     48  C   UNL A   1      39.766  31.242  33.994  1.00  0.00     0.037 A 
ATOM     49  C   UNL A   1      42.106  27.233  28.724  1.00  0.00     0.037 A 
ATOM     50  C   UNL A   1      40.870  30.383  34.327  1.00  0.00     0.049 A 
ATOM     51  C   UNL A   1      42.749  27.227  30.086  1.00  0.00     0.074 A 
ATOM     52  C   UNL A   1      41.508  30.235  35.545  1.00  0.00     0.029 A 
ATOM     53  N   UNL A   1      41.503  29.532  33.434  1.00  0.00    -0.354 N 
ATOM     54  N   UNL A   1      42.412  27.890  31.169  1.00  0.00    -0.248 NA
ATOM     55  C   UNL A   1      43.912  26.349  30.260  1.00  0.00     0.031 C 
ATOM     56  C   UNL A   1      42.568  29.340  35.373  1.00  0.00     0.029 A 
ATOM     57  C   UNL A   1      42.545  28.874  34.068  1.00  0.00     0.049 A 
ATOM     58  H   UNL A   1      41.252  29.413  32.490  1.00  0.00     0.167 HD
ATOM     59  C   UNL A   1      43.306  27.489  32.156  1.00  0.00     0.074 A 
ATOM     60  C   UNL A   1      44.176  26.502  31.549  1.00  0.00     0.031 C 
ATOM     61  C   UNL A   1      43.404  27.898  33.446  1.00  0.00     0.037 A 
BRANCH  48  62
ATOM     62  C   UNL A   1      39.182  32.118  35.063  1.00  0.00     0.057 A 
ATOM     63  C   UNL A   1      39.461  33.490  35.132  1.00  0.00     0.134 A 
ATOM     64  C   UNL A   1      38.312  31.588  36.022  1.00  0.00     0.134 A 
ATOM     65  F   UNL A   1      40.306  34.060  34.258  1.00  0.00    -0.206 F 
ATOM     66  C   UNL A   1      38.908  34.298  36.128  1.00  0.00     0.040 A 
ATOM     67  C   UNL A   1      37.729  32.390  37.003  1.00  0.00     0.040 A 
ATOM     68  F   UNL A   1      38.006  30.281  36.016  1.00  0.00    -0.206 F 
ATOM     69  C   UNL A   1      38.032  33.748  37.062  1.00  0.00     0.006 A 
ENDBRANCH  48  62
BRANCH  49  70
ATOM     70  C   UNL A   1      42.648  26.399  27.621  1.00  0.00     0.057 A 
ATOM     71  C   UNL A   1      43.549  26.911  26.682  1.00  0.00     0.134 A 
ATOM     72  C   UNL A   1      42.232  25.072  27.456  1.00  0.00     0.134 A 
ATOM     73  F   UNL A   1      43.970  28.182  26.771  1.00  0.00    -0.206 F 
ATOM     74  C   UNL A   1      43.991  26.146  25.601  1.00  0.00     0.040 A 
ATOM     75  C   UNL A   1      42.692  24.285  26.402  1.00  0.00     0.040 A 
ATOM     76  F   UNL A   1      41.368  24.519  28.322  1.00  0.00    -0.206 F 
ATOM     77  C   UNL A   1      43.565  24.827  25.462  1.00  0.00     0.006 A 
ENDBRANCH  49  70
BRANCH  61  78
ATOM     78  C   UNL A   1      44.466  27.252  34.291  1.00  0.00     0.057 A 
ATOM     79  C   UNL A   1      44.224  26.086  35.030  1.00  0.00     0.134 A 
ATOM     80  C   UNL A   1      45.753  27.803  34.361  1.00  0.00     0.134 A 
ATOM     81  F   UNL A   1      43.013  25.508  35.013  1.00  0.00    -0.206 F 
ATOM     82  C   UNL A   1      45.206  25.521  35.846  1.00  0.00     0.040 A 
ATOM     83  C   UNL A   1      46.754  27.224  35.144  1.00  0.00     0.040 A 
ATOM     84  F   UNL A   1      46.062  28.907  33.667  1.00  0.00    -0.206 F 
ATOM     85  C   UNL A   1      46.477  26.089  35.901  1.00  0.00     0.006 A 
ENDBRANCH  61  78
ENDBRANCH  35  36
ENDBRANCH  28  30
ENDBRANCH  27  28
ENDBRANCH  26  27
ENDBRANCH  25  26
ENDBRANCH  24  25
ENDBRANCH   1  24
TORSDOF 18
ENDMDL
MODEL 3
REMARK VINA RESULT:     -10.3      1.582      2.485
REMARK SMILES CC[C@@](C)(NC(=O)Nc1ccccc1C#N)C(=O)OCCOCCOC(=O)c1ccc(-c2c3nc(c(-c4c(F)cccc4F)c4ccc([nH]4)c(-c4c(F)cccc4F)c4nc(c(-c5c(F)cccc5F)c5ccc2[nH]5)C=C4)C=C3)cc1
REMARK SMILES IDX 21 1 20 2 19 3 17 4 18 5 3 6 4 7 2 8 1 9 5 10 6 11 7 13 8 14
REMARK SMILES IDX 9 16 10 17 14 18 11 19 13 20 12 21 15 22 16 23 22 24 23 25
REMARK SMILES IDX 24 26 25 27 26 28 27 29 28 30 29 31 81 32 30 33 80 34 31 35
REMARK SMILES IDX 32 36 33 37 74 38 34 39 79 40 73 41 75 42 35 43 78 44 72 45
REMARK SMILES IDX 71 46 36 48 62 49 45 50 61 51 46 52 49 53 60 54 76 55 47 56
REMARK SMILES IDX 48 57 59 59 77 60 50 61 37 62 38 63 43 64 39 65 40 66 42 67
REMARK SMILES IDX 44 68 41 69 63 70 64 71 69 72 65 73 66 74 68 75 70 76 67 77
REMARK SMILES IDX 51 78 52 79 57 80 53 81 54 82 56 83 58 84 55 85
REMARK H PARENT 5 12 8 15 75 47 49 58
REMARK Flexibility Score: inf
ROOT
ATOM      1  C   UNL A   1      32.680  28.411  26.083  1.00  0.00     0.202 C 
ENDROOT
BRANCH   1   2
ATOM      2  C   UNL A   1      33.986  27.492  25.637  1.00  0.00     0.261 C 
BRANCH   2   3
ATOM      3  O   UNL A   1      34.004  26.057  24.870  1.00  0.00    -0.462 OA
BRANCH   3   4
ATOM      4  C   UNL A   1      33.580  25.088  23.949  1.00  0.00     0.331 C 
ATOM      5  O   UNL A   1      34.377  24.702  23.083  1.00  0.00    -0.249 OA
BRANCH   4   6
ATOM      6  C   UNL A   1      32.134  24.477  23.903  1.00  0.00     0.136 C 
ATOM      7  C   UNL A   1      31.426  25.191  22.740  1.00  0.00     0.047 C 
BRANCH   6   8
ATOM      8  C   UNL A   1      31.615  22.981  23.840  1.00  0.00     0.037 C 
ATOM      9  C   UNL A   1      31.923  22.066  22.681  1.00  0.00     0.007 C 
ENDBRANCH   6   8
BRANCH   6  10
ATOM     10  N   UNL A   1      31.754  24.912  25.178  1.00  0.00    -0.322 N 
ATOM     11  C   UNL A   1      32.060  24.112  26.203  1.00  0.00     0.320 C 
ATOM     12  H   UNL A   1      31.282  25.766  25.312  1.00  0.00     0.166 HD
ATOM     13  O   UNL A   1      31.488  24.412  27.248  1.00  0.00    -0.248 OA
ATOM     14  N   UNL A   1      32.848  22.984  26.094  1.00  0.00    -0.307 N 
ATOM     15  H   UNL A   1      32.407  22.340  26.693  1.00  0.00     0.171 HD
BRANCH  14  16
ATOM     16  C   UNL A   1      34.008  22.217  25.559  1.00  0.00     0.060 A 
ATOM     17  C   UNL A   1      33.630  20.849  25.512  1.00  0.00     0.027 A 
ATOM     18  C   UNL A   1      35.404  22.418  25.255  1.00  0.00     0.076 A 
ATOM     19  C   UNL A   1      34.468  19.805  25.105  1.00  0.00     0.002 A 
ATOM     20  C   UNL A   1      36.184  21.376  24.683  1.00  0.00     0.021 A 
ATOM     21  C   UNL A   1      35.731  20.076  24.630  1.00  0.00     0.002 A 
BRANCH  18  22
ATOM     22  C   UNL A   1      36.373  23.410  25.715  1.00  0.00     0.101 C 
ATOM     23  N   UNL A   1      37.177  24.078  26.204  1.00  0.00    -0.192 NA
ENDBRANCH  18  22
ENDBRANCH  14  16
ENDBRANCH   6  10
ENDBRANCH   4   6
ENDBRANCH   3   4
ENDBRANCH   2   3
ENDBRANCH   1   2
BRANCH   1  24
ATOM     24  O   UNL A   1      32.436  29.710  25.523  1.00  0.00    -0.374 OA
BRANCH  24  25
ATOM     25  C   UNL A   1      31.406  30.665  25.754  1.00  0.00     0.202 C 
BRANCH  25  26
ATOM     26  C   UNL A   1      31.654  31.840  26.710  1.00  0.00     0.261 C 
BRANCH  26  27
ATOM     27  O   UNL A   1      32.722  31.552  27.597  1.00  0.00    -0.460 OA
BRANCH  27  28
ATOM     28  C   UNL A   1      33.479  32.644  27.827  1.00  0.00     0.338 C 
ATOM     29  O   UNL A   1      33.089  33.776  28.053  1.00  0.00    -0.246 OA
BRANCH  28  30
ATOM     30  C   UNL A   1      34.860  32.199  28.034  1.00  0.00     0.060 A 
ATOM     31  C   UNL A   1      35.054  30.817  28.109  1.00  0.00     0.016 A 
ATOM     32  C   UNL A   1      35.935  33.093  28.096  1.00  0.00     0.016 A 
ATOM     33  C   UNL A   1      36.316  30.326  28.375  1.00  0.00     0.010 A 
ATOM     34  C   UNL A   1      37.204  32.598  28.375  1.00  0.00     0.010 A 
ATOM     35  C   UNL A   1      37.371  31.220  28.590  1.00  0.00    -0.014 A 
BRANCH  35  36
ATOM     36  C   UNL A   1      38.535  30.696  29.328  1.00  0.00     0.031 A 
ATOM     37  C   UNL A   1      38.677  31.085  30.774  1.00  0.00     0.074 A 
ATOM     38  C   UNL A   1      39.325  29.764  28.777  1.00  0.00     0.049 A 
ATOM     39  N   UNL A   1      39.517  30.641  31.671  1.00  0.00    -0.248 NA
ATOM     40  C   UNL A   1      37.736  32.099  31.280  1.00  0.00     0.031 C 
ATOM     41  C   UNL A   1      39.228  29.275  27.403  1.00  0.00     0.029 A 
ATOM     42  N   UNL A   1      40.348  29.041  29.327  1.00  0.00    -0.354 N 
ATOM     43  C   UNL A   1      39.190  31.304  32.846  1.00  0.00     0.074 A 
ATOM     44  C   UNL A   1      38.117  32.221  32.541  1.00  0.00     0.031 C 
ATOM     45  C   UNL A   1      40.158  28.323  27.217  1.00  0.00     0.029 A 
ATOM     46  C   UNL A   1      40.925  28.158  28.450  1.00  0.00     0.049 A 
ATOM     47  H   UNL A   1      40.641  29.144  30.261  1.00  0.00     0.167 HD
ATOM     48  C   UNL A   1      39.722  31.144  34.080  1.00  0.00     0.037 A 
ATOM     49  C   UNL A   1      41.963  27.322  28.632  1.00  0.00     0.037 A 
ATOM     50  C   UNL A   1      40.802  30.242  34.374  1.00  0.00     0.049 A 
ATOM     51  C   UNL A   1      42.605  27.237  29.992  1.00  0.00     0.074 A 
ATOM     52  C   UNL A   1      41.435  30.022  35.583  1.00  0.00     0.029 A 
ATOM     53  N   UNL A   1      41.415  29.417  33.442  1.00  0.00    -0.354 N 
ATOM     54  N   UNL A   1      42.284  27.858  31.104  1.00  0.00    -0.248 NA
ATOM     55  C   UNL A   1      43.744  26.321  30.126  1.00  0.00     0.031 C 
ATOM     56  C   UNL A   1      42.472  29.108  35.371  1.00  0.00     0.029 A 
ATOM     57  C   UNL A   1      42.438  28.704  34.046  1.00  0.00     0.049 A 
ATOM     58  H   UNL A   1      41.161  29.348  32.493  1.00  0.00     0.167 HD
ATOM     59  C   UNL A   1      43.165  27.388  32.071  1.00  0.00     0.074 A 
ATOM     60  C   UNL A   1      44.010  26.409  31.421  1.00  0.00     0.031 C 
ATOM     61  C   UNL A   1      43.272  27.735  33.380  1.00  0.00     0.037 A 
BRANCH  48  62
ATOM     62  C   UNL A   1      39.160  31.985  35.188  1.00  0.00     0.057 A 
ATOM     63  C   UNL A   1      38.259  31.467  36.129  1.00  0.00     0.134 A 
ATOM     64  C   UNL A   1      39.540  33.324  35.329  1.00  0.00     0.134 A 
ATOM     65  F   UNL A   1      37.834  30.197  36.039  1.00  0.00    -0.206 F 
ATOM     66  C   UNL A   1      37.745  32.257  37.160  1.00  0.00     0.040 A 
ATOM     67  C   UNL A   1      39.057  34.115  36.373  1.00  0.00     0.040 A 
ATOM     68  F   UNL A   1      40.395  33.886  34.460  1.00  0.00    -0.206 F 
ATOM     69  C   UNL A   1      38.153  33.583  37.288  1.00  0.00     0.006 A 
ENDBRANCH  48  62
BRANCH  49  70
ATOM     70  C   UNL A   1      42.485  26.526  27.491  1.00  0.00     0.057 A 
ATOM     71  C   UNL A   1      42.085  25.204  27.268  1.00  0.00     0.134 A 
ATOM     72  C   UNL A   1      43.442  27.064  26.621  1.00  0.00     0.134 A 
ATOM     73  F   UNL A   1      41.188  24.623  28.079  1.00  0.00    -0.206 F 
ATOM     74  C   UNL A   1      42.641  24.436  26.244  1.00  0.00     0.040 A 
ATOM     75  C   UNL A   1      43.979  26.320  25.572  1.00  0.00     0.040 A 
ATOM     76  F   UNL A   1      43.868  28.326  26.779  1.00  0.00    -0.206 F 
ATOM     77  C   UNL A   1      43.587  24.996  25.389  1.00  0.00     0.006 A 
ENDBRANCH  49  70
BRANCH  61  78
ATOM     78  C   UNL A   1      44.316  27.023  34.193  1.00  0.00     0.057 A 
ATOM     79  C   UNL A   1      44.063  25.797  34.823  1.00  0.00     0.134 A 
ATOM     80  C   UNL A   1      45.597  27.572  34.346  1.00  0.00     0.134 A 
ATOM     81  F   UNL A   1      42.856  25.217  34.723  1.00  0.00    -0.206 F 
ATOM     82  C   UNL A   1      45.027  25.168  35.613  1.00  0.00     0.040 A 
ATOM     83  C   UNL A   1      46.581  26.932  35.102  1.00  0.00     0.040 A 
ATOM     84  F   UNL A   1      45.917  28.734  33.758  1.00  0.00    -0.206 F 
ATOM     85  C   UNL A   1      46.292  25.735  35.751  1.00  0.00     0.006 A 
ENDBRANCH  61  78
ENDBRANCH  35  36
ENDBRANCH  28  30
ENDBRANCH  27  28
ENDBRANCH  26  27
ENDBRANCH  25  26
ENDBRANCH  24  25
ENDBRANCH   1  24
TORSDOF 18
ENDMDL
