MODEL 1
REMARK VINA RESULT:     -11.4      0.000      0.000
REMARK SMILES CCOc1ccc2[nH]c(C)c/c(=N\c3cccc(C(=O)OCCOCCOC(=O)c4ccc(-c5c6nc(c(-c7c(F)cccc7F)c7ccc([nH]7)c(-c7c(F)cccc7F)c7nc(c(-c8c(F)cccc8F)c8ccc5[nH]8)C=C7)C=C6)cc4)c3)c2c1
REMARK SMILES IDX 23 1 22 2 21 3 19 4 20 5 18 6 14 7 15 8 84 9 16 10 17 11
REMARK SMILES IDX 13 12 4 13 5 14 86 15 6 16 85 17 7 18 12 19 8 20 11 21 9 22
REMARK SMILES IDX 10 24 3 25 2 26 1 27 24 28 25 29 26 30 27 31 28 32 29 33
REMARK SMILES IDX 30 34 31 35 83 36 32 37 82 38 33 39 34 40 35 41 76 42 36 43
REMARK SMILES IDX 81 44 75 45 77 46 37 47 80 48 74 49 73 50 38 52 64 53 47 54
REMARK SMILES IDX 63 55 48 56 51 57 62 58 78 59 49 60 50 61 61 63 79 64 52 65
REMARK SMILES IDX 39 66 40 67 45 68 41 69 42 70 44 71 46 72 43 73 65 74 66 75
REMARK SMILES IDX 71 76 67 77 68 78 70 79 72 80 69 81 53 82 54 83 59 84 55 85
REMARK SMILES IDX 56 86 58 87 60 88 57 89
REMARK H PARENT 8 23 77 51 51 62
REMARK Flexibility Score: inf
ROOT
ATOM      1  C   UNL A   1      43.096  19.438  25.962  1.00  0.00     0.202 C 
ENDROOT
BRANCH   1   2
ATOM      2  C   UNL A   1      41.656  19.018  26.273  1.00  0.00     0.261 C 
BRANCH   2   3
ATOM      3  O   UNL A   1      40.838  20.142  26.635  1.00  0.00    -0.460 OA
BRANCH   3   4
ATOM      4  C   UNL A   1      39.702  20.273  25.904  1.00  0.00     0.338 C 
ATOM      5  O   UNL A   1      39.105  19.378  25.326  1.00  0.00    -0.246 OA
BRANCH   4   6
ATOM      6  C   UNL A   1      39.147  21.641  26.037  1.00  0.00     0.062 A 
ATOM      7  C   UNL A   1      37.565  23.398  25.494  1.00  0.00     0.065 A 
ATOM      8  C   UNL A   1      38.180  24.213  26.458  1.00  0.00     0.028 A 
ATOM      9  C   UNL A   1      38.041  22.096  25.304  1.00  0.00     0.044 A 
ATOM     10  C   UNL A   1      39.315  23.785  27.146  1.00  0.00     0.003 A 
ATOM     11  C   UNL A   1      39.798  22.499  26.934  1.00  0.00     0.016 A 
BRANCH   7  12
ATOM     12  N   UNL A   1      36.447  23.844  24.766  1.00  0.00    -0.248 NA
ATOM     13  C   UNL A   1      33.160  25.095  22.344  1.00  0.00     0.120 A 
ATOM     14  C   UNL A   1      31.869  24.804  22.781  1.00  0.00     0.048 A 
ATOM     15  C   UNL A   1      34.267  24.737  23.117  1.00  0.00     0.059 A 
ATOM     16  C   UNL A   1      31.672  24.198  24.019  1.00  0.00     0.030 A 
ATOM     17  C   UNL A   1      34.071  24.121  24.363  1.00  0.00     0.027 A 
ATOM     18  C   UNL A   1      32.765  23.848  24.816  1.00  0.00     0.048 A 
ATOM     19  C   UNL A   1      35.234  23.701  25.222  1.00  0.00     0.075 A 
ATOM     20  N   UNL A   1      32.552  23.218  26.046  1.00  0.00    -0.359 N 
ATOM     21  C   UNL A   1      34.869  23.125  26.564  1.00  0.00     0.050 A 
ATOM     22  C   UNL A   1      33.588  22.889  26.883  1.00  0.00     0.014 A 
ATOM     23  H   UNL A   1      31.631  23.004  26.319  1.00  0.00     0.166 HD
ATOM     24  C   UNL A   1      33.223  22.236  28.186  1.00  0.00     0.064 C 
BRANCH  13  25
ATOM     25  O   UNL A   1      33.355  25.604  21.089  1.00  0.00    -0.494 OA
BRANCH  25  26
ATOM     26  C   UNL A   1      32.871  24.746  20.046  1.00  0.00     0.226 C 
ATOM     27  C   UNL A   1      32.123  25.512  18.962  1.00  0.00     0.049 C 
ENDBRANCH  25  26
ENDBRANCH  13  25
ENDBRANCH   7  12
ENDBRANCH   4   6
ENDBRANCH   3   4
ENDBRANCH   2   3
ENDBRANCH   1   2
BRANCH   1  28
ATOM     28  O   UNL A   1      43.288  20.471  24.998  1.00  0.00    -0.374 OA
BRANCH  28  29
ATOM     29  C   UNL A   1      44.046  21.616  25.386  1.00  0.00     0.202 C 
BRANCH  29  30
ATOM     30  C   UNL A   1      44.370  22.655  24.304  1.00  0.00     0.261 C 
BRANCH  30  31
ATOM     31  O   UNL A   1      43.757  23.930  24.555  1.00  0.00    -0.460 OA
BRANCH  31  32
ATOM     32  C   UNL A   1      44.582  24.872  25.075  1.00  0.00     0.338 C 
ATOM     33  O   UNL A   1      45.682  25.204  24.661  1.00  0.00    -0.246 OA
BRANCH  32  34
ATOM     34  C   UNL A   1      43.873  25.604  26.142  1.00  0.00     0.060 A 
ATOM     35  C   UNL A   1      42.779  25.042  26.802  1.00  0.00     0.016 A 
ATOM     36  C   UNL A   1      44.341  26.876  26.498  1.00  0.00     0.016 A 
ATOM     37  C   UNL A   1      42.170  25.751  27.840  1.00  0.00     0.010 A 
ATOM     38  C   UNL A   1      43.735  27.579  27.540  1.00  0.00     0.010 A 
ATOM     39  C   UNL A   1      42.654  27.014  28.230  1.00  0.00    -0.014 A 
BRANCH  39  40
ATOM     40  C   UNL A   1      42.084  27.681  29.428  1.00  0.00     0.031 A 
ATOM     41  C   UNL A   1      42.738  27.569  30.773  1.00  0.00     0.074 A 
ATOM     42  C   UNL A   1      40.960  28.408  29.285  1.00  0.00     0.049 A 
ATOM     43  N   UNL A   1      42.430  28.180  31.891  1.00  0.00    -0.248 NA
ATOM     44  C   UNL A   1      43.879  26.649  30.882  1.00  0.00     0.031 C 
ATOM     45  C   UNL A   1      40.208  28.557  28.038  1.00  0.00     0.029 A 
ATOM     46  N   UNL A   1      40.264  29.171  30.187  1.00  0.00    -0.354 N 
ATOM     47  C   UNL A   1      43.355  27.742  32.830  1.00  0.00     0.074 A 
ATOM     48  C   UNL A   1      44.193  26.764  32.165  1.00  0.00     0.031 C 
ATOM     49  C   UNL A   1      39.182  29.397  28.243  1.00  0.00     0.029 A 
ATOM     50  C   UNL A   1      39.185  29.820  29.639  1.00  0.00     0.049 A 
ATOM     51  H   UNL A   1      40.515  29.247  31.137  1.00  0.00     0.167 HD
ATOM     52  C   UNL A   1      43.505  28.135  34.118  1.00  0.00     0.037 A 
ATOM     53  C   UNL A   1      38.301  30.666  30.199  1.00  0.00     0.037 A 
ATOM     54  C   UNL A   1      42.646  29.082  34.787  1.00  0.00     0.049 A 
ATOM     55  C   UNL A   1      38.454  31.035  31.650  1.00  0.00     0.074 A 
ATOM     56  C   UNL A   1      42.726  29.556  36.086  1.00  0.00     0.029 A 
ATOM     57  N   UNL A   1      41.534  29.683  34.215  1.00  0.00    -0.354 N 
ATOM     58  N   UNL A   1      39.383  30.678  32.504  1.00  0.00    -0.248 NA
ATOM     59  C   UNL A   1      37.436  31.934  32.209  1.00  0.00     0.031 C 
ATOM     60  C   UNL A   1      41.634  30.399  36.316  1.00  0.00     0.029 A 
ATOM     61  C   UNL A   1      40.908  30.504  35.141  1.00  0.00     0.049 A 
ATOM     62  H   UNL A   1      41.234  29.548  33.287  1.00  0.00     0.167 HD
ATOM     63  C   UNL A   1      39.081  31.338  33.689  1.00  0.00     0.074 A 
ATOM     64  C   UNL A   1      37.897  32.130  33.436  1.00  0.00     0.031 C 
ATOM     65  C   UNL A   1      39.728  31.292  34.880  1.00  0.00     0.037 A 
BRANCH  52  66
ATOM     66  C   UNL A   1      44.644  27.532  34.891  1.00  0.00     0.057 A 
ATOM     67  C   UNL A   1      45.921  28.106  34.864  1.00  0.00     0.134 A 
ATOM     68  C   UNL A   1      44.482  26.362  35.648  1.00  0.00     0.134 A 
ATOM     69  F   UNL A   1      46.154  29.219  34.150  1.00  0.00    -0.206 F 
ATOM     70  C   UNL A   1      46.991  27.546  35.565  1.00  0.00     0.040 A 
ATOM     71  C   UNL A   1      45.536  25.809  36.377  1.00  0.00     0.040 A 
ATOM     72  F   UNL A   1      43.284  25.761  35.721  1.00  0.00    -0.206 F 
ATOM     73  C   UNL A   1      46.797  26.399  36.333  1.00  0.00     0.006 A 
ENDBRANCH  52  66
BRANCH  53  74
ATOM     74  C   UNL A   1      37.201  31.249  29.389  1.00  0.00     0.057 A 
ATOM     75  C   UNL A   1      37.294  32.538  28.852  1.00  0.00     0.134 A 
ATOM     76  C   UNL A   1      36.051  30.507  29.092  1.00  0.00     0.134 A 
ATOM     77  F   UNL A   1      38.366  33.302  29.105  1.00  0.00    -0.206 F 
ATOM     78  C   UNL A   1      36.287  33.066  28.042  1.00  0.00     0.040 A 
ATOM     79  C   UNL A   1      35.051  31.011  28.258  1.00  0.00     0.040 A 
ATOM     80  F   UNL A   1      35.910  29.260  29.564  1.00  0.00    -0.206 F 
ATOM     81  C   UNL A   1      35.168  32.296  27.732  1.00  0.00     0.006 A 
ENDBRANCH  53  74
BRANCH  65  82
ATOM     82  C   UNL A   1      39.192  32.163  35.982  1.00  0.00     0.057 A 
ATOM     83  C   UNL A   1      39.620  33.491  36.111  1.00  0.00     0.134 A 
ATOM     84  C   UNL A   1      38.252  31.698  36.912  1.00  0.00     0.134 A 
ATOM     85  F   UNL A   1      40.523  34.002  35.261  1.00  0.00    -0.206 F 
ATOM     86  C   UNL A   1      39.131  34.324  37.119  1.00  0.00     0.040 A 
ATOM     87  C   UNL A   1      37.730  32.532  37.904  1.00  0.00     0.040 A 
ATOM     88  F   UNL A   1      37.787  30.442  36.840  1.00  0.00    -0.206 F 
ATOM     89  C   UNL A   1      38.174  33.849  38.011  1.00  0.00     0.006 A 
ENDBRANCH  65  82
ENDBRANCH  39  40
ENDBRANCH  32  34
ENDBRANCH  31  32
ENDBRANCH  30  31
ENDBRANCH  29  30
ENDBRANCH  28  29
ENDBRANCH   1  28
TORSDOF 17
ENDMDL
MODEL 2
REMARK VINA RESULT:     -11.3      5.363     10.435
REMARK SMILES CCOc1ccc2[nH]c(C)c/c(=N\c3cccc(C(=O)OCCOCCOC(=O)c4ccc(-c5c6nc(c(-c7c(F)cccc7F)c7ccc([nH]7)c(-c7c(F)cccc7F)c7nc(c(-c8c(F)cccc8F)c8ccc5[nH]8)C=C7)C=C6)cc4)c3)c2c1
REMARK SMILES IDX 23 1 22 2 21 3 19 4 20 5 18 6 14 7 15 8 84 9 16 10 17 11
REMARK SMILES IDX 13 12 4 13 5 14 86 15 6 16 85 17 7 18 12 19 8 20 11 21 9 22
REMARK SMILES IDX 10 24 3 25 2 26 1 27 24 28 25 29 26 30 27 31 28 32 29 33
REMARK SMILES IDX 30 34 31 35 83 36 32 37 82 38 33 39 34 40 35 41 76 42 36 43
REMARK SMILES IDX 81 44 75 45 77 46 37 47 80 48 74 49 73 50 38 52 64 53 47 54
REMARK SMILES IDX 63 55 48 56 51 57 62 58 78 59 49 60 50 61 61 63 79 64 52 65
REMARK SMILES IDX 39 66 40 67 45 68 41 69 42 70 44 71 46 72 43 73 65 74 66 75
REMARK SMILES IDX 71 76 67 77 68 78 70 79 72 80 69 81 53 82 54 83 59 84 55 85
REMARK SMILES IDX 56 86 58 87 60 88 57 89
REMARK H PARENT 8 23 77 51 51 62
REMARK Flexibility Score: inf
ROOT
ATOM      1  C   UNL A   1      33.451  35.040  30.621  1.00  0.00     0.202 C 
ENDROOT
BRANCH   1   2
ATOM      2  C   UNL A   1      34.747  34.601  29.931  1.00  0.00     0.261 C 
BRANCH   2   3
ATOM      3  O   UNL A   1      34.735  33.201  29.611  1.00  0.00    -0.460 OA
BRANCH   3   4
ATOM      4  C   UNL A   1      35.571  32.844  28.604  1.00  0.00     0.338 C 
ATOM      5  O   UNL A   1      36.608  33.407  28.289  1.00  0.00    -0.246 OA
BRANCH   4   6
ATOM      6  C   UNL A   1      35.165  31.544  28.020  1.00  0.00     0.062 A 
ATOM      7  C   UNL A   1      33.722  30.128  26.680  1.00  0.00     0.065 A 
ATOM      8  C   UNL A   1      34.583  29.049  26.940  1.00  0.00     0.028 A 
ATOM      9  C   UNL A   1      34.034  31.386  27.207  1.00  0.00     0.044 A 
ATOM     10  C   UNL A   1      35.676  29.189  27.794  1.00  0.00     0.003 A 
ATOM     11  C   UNL A   1      35.965  30.436  28.335  1.00  0.00     0.016 A 
BRANCH   7  12
ATOM     12  N   UNL A   1      32.593  29.979  25.854  1.00  0.00    -0.248 NA
ATOM     13  C   UNL A   1      29.273  29.694  23.183  1.00  0.00     0.120 A 
ATOM     14  C   UNL A   1      28.832  28.425  22.810  1.00  0.00     0.048 A 
ATOM     15  C   UNL A   1      30.333  29.840  24.081  1.00  0.00     0.059 A 
ATOM     16  C   UNL A   1      29.414  27.292  23.371  1.00  0.00     0.030 A 
ATOM     17  C   UNL A   1      30.925  28.698  24.643  1.00  0.00     0.027 A 
ATOM     18  C   UNL A   1      30.464  27.416  24.285  1.00  0.00     0.048 A 
ATOM     19  C   UNL A   1      32.082  28.805  25.602  1.00  0.00     0.075 A 
ATOM     20  N   UNL A   1      31.054  26.268  24.822  1.00  0.00    -0.359 N 
ATOM     21  C   UNL A   1      32.561  27.503  26.182  1.00  0.00     0.050 A 
ATOM     22  C   UNL A   1      32.061  26.335  25.751  1.00  0.00     0.014 A 
ATOM     23  H   UNL A   1      30.738  25.385  24.523  1.00  0.00     0.166 HD
ATOM     24  C   UNL A   1      32.595  25.027  26.265  1.00  0.00     0.064 C 
BRANCH  13  25
ATOM     25  O   UNL A   1      28.764  30.801  22.562  1.00  0.00    -0.494 OA
BRANCH  25  26
ATOM     26  C   UNL A   1      28.439  31.865  23.468  1.00  0.00     0.226 C 
ATOM     27  C   UNL A   1      28.967  33.214  22.998  1.00  0.00     0.049 C 
ENDBRANCH  25  26
ENDBRANCH  13  25
ENDBRANCH   7  12
ENDBRANCH   4   6
ENDBRANCH   3   4
ENDBRANCH   2   3
ENDBRANCH   1   2
BRANCH   1  28
ATOM     28  O   UNL A   1      33.285  34.692  31.994  1.00  0.00    -0.374 OA
BRANCH  28  29
ATOM     29  C   UNL A   1      34.447  34.660  32.821  1.00  0.00     0.202 C 
BRANCH  29  30
ATOM     30  C   UNL A   1      34.647  33.432  33.720  1.00  0.00     0.261 C 
BRANCH  30  31
ATOM     31  O   UNL A   1      35.501  32.441  33.127  1.00  0.00    -0.460 OA
BRANCH  31  32
ATOM     32  C   UNL A   1      36.679  32.240  33.768  1.00  0.00     0.338 C 
ATOM     33  O   UNL A   1      36.900  32.346  34.964  1.00  0.00    -0.246 OA
BRANCH  32  34
ATOM     34  C   UNL A   1      37.658  31.674  32.819  1.00  0.00     0.060 A 
ATOM     35  C   UNL A   1      37.541  31.885  31.445  1.00  0.00     0.016 A 
ATOM     36  C   UNL A   1      38.731  30.935  33.336  1.00  0.00     0.016 A 
ATOM     37  C   UNL A   1      38.519  31.373  30.590  1.00  0.00     0.010 A 
ATOM     38  C   UNL A   1      39.710  30.429  32.479  1.00  0.00     0.010 A 
ATOM     39  C   UNL A   1      39.620  30.659  31.100  1.00  0.00    -0.014 A 
BRANCH  39  40
ATOM     40  C   UNL A   1      40.718  30.252  30.188  1.00  0.00     0.031 A 
ATOM     41  C   UNL A   1      41.831  31.193  29.832  1.00  0.00     0.074 A 
ATOM     42  C   UNL A   1      40.706  29.003  29.685  1.00  0.00     0.049 A 
ATOM     43  N   UNL A   1      42.919  30.955  29.142  1.00  0.00    -0.248 NA
ATOM     44  C   UNL A   1      41.705  32.578  30.304  1.00  0.00     0.031 C 
ATOM     45  C   UNL A   1      39.657  28.011  29.922  1.00  0.00     0.029 A 
ATOM     46  N   UNL A   1      41.610  28.349  28.887  1.00  0.00    -0.354 N 
ATOM     47  C   UNL A   1      43.623  32.153  29.119  1.00  0.00     0.074 A 
ATOM     48  C   UNL A   1      42.805  33.130  29.810  1.00  0.00     0.031 C 
ATOM     49  C   UNL A   1      39.997  26.861  29.321  1.00  0.00     0.029 A 
ATOM     50  C   UNL A   1      41.271  27.043  28.632  1.00  0.00     0.049 A 
ATOM     51  H   UNL A   1      42.424  28.774  28.532  1.00  0.00     0.167 HD
ATOM     52  C   UNL A   1      44.845  32.407  28.592  1.00  0.00     0.037 A 
ATOM     53  C   UNL A   1      41.917  26.096  27.927  1.00  0.00     0.037 A 
ATOM     54  C   UNL A   1      45.640  31.441  27.873  1.00  0.00     0.049 A 
ATOM     55  C   UNL A   1      43.243  26.427  27.297  1.00  0.00     0.074 A 
ATOM     56  C   UNL A   1      46.898  31.599  27.315  1.00  0.00     0.029 A 
ATOM     57  N   UNL A   1      45.244  30.142  27.593  1.00  0.00    -0.354 N 
ATOM     58  N   UNL A   1      43.936  27.538  27.355  1.00  0.00    -0.248 NA
ATOM     59  C   UNL A   1      43.879  25.361  26.510  1.00  0.00     0.031 C 
ATOM     60  C   UNL A   1      47.238  30.415  26.652  1.00  0.00     0.029 A 
ATOM     61  C   UNL A   1      46.222  29.496  26.851  1.00  0.00     0.049 A 
ATOM     62  H   UNL A   1      44.394  29.736  27.880  1.00  0.00     0.167 HD
ATOM     63  C   UNL A   1      45.105  27.293  26.645  1.00  0.00     0.074 A 
ATOM     64  C   UNL A   1      45.034  25.923  26.184  1.00  0.00     0.031 C 
ATOM     65  C   UNL A   1      46.144  28.128  26.397  1.00  0.00     0.037 A 
BRANCH  52  66
ATOM     66  C   UNL A   1      45.395  33.794  28.772  1.00  0.00     0.057 A 
ATOM     67  C   UNL A   1      46.114  34.144  29.922  1.00  0.00     0.134 A 
ATOM     68  C   UNL A   1      45.190  34.797  27.813  1.00  0.00     0.134 A 
ATOM     69  F   UNL A   1      46.338  33.239  30.888  1.00  0.00    -0.206 F 
ATOM     70  C   UNL A   1      46.616  35.434  30.108  1.00  0.00     0.040 A 
ATOM     71  C   UNL A   1      45.711  36.082  27.973  1.00  0.00     0.040 A 
ATOM     72  F   UNL A   1      44.512  34.531  26.686  1.00  0.00    -0.206 F 
ATOM     73  C   UNL A   1      46.424  36.405  29.126  1.00  0.00     0.006 A 
ENDBRANCH  52  66
BRANCH  53  74
ATOM     74  C   UNL A   1      41.340  24.735  27.790  1.00  0.00     0.057 A 
ATOM     75  C   UNL A   1      40.307  24.468  26.883  1.00  0.00     0.134 A 
ATOM     76  C   UNL A   1      41.844  23.657  28.528  1.00  0.00     0.134 A 
ATOM     77  F   UNL A   1      39.775  25.457  26.152  1.00  0.00    -0.206 F 
ATOM     78  C   UNL A   1      39.803  23.178  26.710  1.00  0.00     0.040 A 
ATOM     79  C   UNL A   1      41.371  22.357  28.342  1.00  0.00     0.040 A 
ATOM     80  F   UNL A   1      42.845  23.846  29.401  1.00  0.00    -0.206 F 
ATOM     81  C   UNL A   1      40.344  22.116  27.431  1.00  0.00     0.006 A 
ENDBRANCH  53  74
BRANCH  65  82
ATOM     82  C   UNL A   1      47.308  27.561  25.633  1.00  0.00     0.057 A 
ATOM     83  C   UNL A   1      48.361  26.929  26.308  1.00  0.00     0.134 A 
ATOM     84  C   UNL A   1      47.392  27.633  24.236  1.00  0.00     0.134 A 
ATOM     85  F   UNL A   1      48.353  26.831  27.645  1.00  0.00    -0.206 F 
ATOM     86  C   UNL A   1      49.449  26.386  25.622  1.00  0.00     0.040 A 
ATOM     87  C   UNL A   1      48.458  27.063  23.536  1.00  0.00     0.040 A 
ATOM     88  F   UNL A   1      46.412  28.212  23.524  1.00  0.00    -0.206 F 
ATOM     89  C   UNL A   1      49.493  26.441  24.231  1.00  0.00     0.006 A 
ENDBRANCH  65  82
ENDBRANCH  39  40
ENDBRANCH  32  34
ENDBRANCH  31  32
ENDBRANCH  30  31
ENDBRANCH  29  30
ENDBRANCH  28  29
ENDBRANCH   1  28
TORSDOF 17
ENDMDL
MODEL 3
REMARK VINA RESULT:     -11.3      4.928     10.227
REMARK SMILES CCOc1ccc2[nH]c(C)c/c(=N\c3cccc(C(=O)OCCOCCOC(=O)c4ccc(-c5c6nc(c(-c7c(F)cccc7F)c7ccc([nH]7)c(-c7c(F)cccc7F)c7nc(c(-c8c(F)cccc8F)c8ccc5[nH]8)C=C7)C=C6)cc4)c3)c2c1
REMARK SMILES IDX 23 1 22 2 21 3 19 4 20 5 18 6 14 7 15 8 84 9 16 10 17 11
REMARK SMILES IDX 13 12 4 13 5 14 86 15 6 16 85 17 7 18 12 19 8 20 11 21 9 22
REMARK SMILES IDX 10 24 3 25 2 26 1 27 24 28 25 29 26 30 27 31 28 32 29 33
REMARK SMILES IDX 30 34 31 35 83 36 32 37 82 38 33 39 34 40 35 41 76 42 36 43
REMARK SMILES IDX 81 44 75 45 77 46 37 47 80 48 74 49 73 50 38 52 64 53 47 54
REMARK SMILES IDX 63 55 48 56 51 57 62 58 78 59 49 60 50 61 61 63 79 64 52 65
REMARK SMILES IDX 39 66 40 67 45 68 41 69 42 70 44 71 46 72 43 73 65 74 66 75
REMARK SMILES IDX 71 76 67 77 68 78 70 79 72 80 69 81 53 82 54 83 59 84 55 85
REMARK SMILES IDX 56 86 58 87 60 88 57 89
REMARK H PARENT 8 23 77 51 51 62
REMARK Flexibility Score: inf
ROOT
ATOM      1  C   UNL A   1      34.214  34.317  29.842  1.00  0.00     0.202 C 
ENDROOT
BRANCH   1   2
ATOM      2  C   UNL A   1      35.095  33.421  28.965  1.00  0.00     0.261 C 
BRANCH   2   3
ATOM      3  O   UNL A   1      34.642  32.058  28.969  1.00  0.00    -0.460 OA
BRANCH   3   4
ATOM      4  C   UNL A   1      35.200  31.274  28.012  1.00  0.00     0.338 C 
ATOM      5  O   UNL A   1      36.382  31.232  27.708  1.00  0.00    -0.246 OA
BRANCH   4   6
ATOM      6  C   UNL A   1      34.208  30.309  27.479  1.00  0.00     0.062 A 
ATOM      7  C   UNL A   1      33.553  28.159  26.569  1.00  0.00     0.065 A 
ATOM      8  C   UNL A   1      32.217  28.593  26.574  1.00  0.00     0.028 A 
ATOM      9  C   UNL A   1      34.547  29.019  27.048  1.00  0.00     0.044 A 
ATOM     10  C   UNL A   1      31.884  29.895  26.947  1.00  0.00     0.003 A 
ATOM     11  C   UNL A   1      32.881  30.753  27.398  1.00  0.00     0.016 A 
BRANCH   7  12
ATOM     12  N   UNL A   1      33.897  26.861  26.150  1.00  0.00    -0.248 NA
ATOM     13  C   UNL A   1      34.898  22.839  25.120  1.00  0.00     0.120 A 
ATOM     14  C   UNL A   1      34.300  22.277  23.992  1.00  0.00     0.048 A 
ATOM     15  C   UNL A   1      34.630  24.162  25.479  1.00  0.00     0.059 A 
ATOM     16  C   UNL A   1      33.469  23.050  23.186  1.00  0.00     0.030 A 
ATOM     17  C   UNL A   1      33.787  24.941  24.670  1.00  0.00     0.027 A 
ATOM     18  C   UNL A   1      33.202  24.381  23.518  1.00  0.00     0.048 A 
ATOM     19  C   UNL A   1      33.455  26.366  25.027  1.00  0.00     0.075 A 
ATOM     20  N   UNL A   1      32.346  25.138  22.711  1.00  0.00    -0.359 N 
ATOM     21  C   UNL A   1      32.604  27.099  24.026  1.00  0.00     0.050 A 
ATOM     22  C   UNL A   1      32.081  26.458  22.970  1.00  0.00     0.014 A 
ATOM     23  H   UNL A   1      31.921  24.709  21.934  1.00  0.00     0.166 HD
ATOM     24  C   UNL A   1      31.162  27.164  22.013  1.00  0.00     0.064 C 
BRANCH  13  25
ATOM     25  O   UNL A   1      35.637  22.053  25.960  1.00  0.00    -0.494 OA
BRANCH  25  26
ATOM     26  C   UNL A   1      36.129  20.858  25.337  1.00  0.00     0.226 C 
ATOM     27  C   UNL A   1      37.524  21.036  24.752  1.00  0.00     0.049 C 
ENDBRANCH  25  26
ENDBRANCH  13  25
ENDBRANCH   7  12
ENDBRANCH   4   6
ENDBRANCH   3   4
ENDBRANCH   2   3
ENDBRANCH   1   2
BRANCH   1  28
ATOM     28  O   UNL A   1      33.799  33.800  31.104  1.00  0.00    -0.374 OA
BRANCH  28  29
ATOM     29  C   UNL A   1      34.065  34.582  32.268  1.00  0.00     0.202 C 
BRANCH  29  30
ATOM     30  C   UNL A   1      35.130  34.066  33.244  1.00  0.00     0.261 C 
BRANCH  30  31
ATOM     31  O   UNL A   1      35.608  32.755  32.905  1.00  0.00    -0.460 OA
BRANCH  31  32
ATOM     32  C   UNL A   1      36.686  32.335  33.612  1.00  0.00     0.338 C 
ATOM     33  O   UNL A   1      36.802  32.284  34.827  1.00  0.00    -0.246 OA
BRANCH  32  34
ATOM     34  C   UNL A   1      37.676  31.749  32.687  1.00  0.00     0.060 A 
ATOM     35  C   UNL A   1      37.522  31.848  31.304  1.00  0.00     0.016 A 
ATOM     36  C   UNL A   1      38.796  31.108  33.235  1.00  0.00     0.016 A 
ATOM     37  C   UNL A   1      38.510  31.323  30.468  1.00  0.00     0.010 A 
ATOM     38  C   UNL A   1      39.785  30.590  32.397  1.00  0.00     0.010 A 
ATOM     39  C   UNL A   1      39.657  30.709  31.006  1.00  0.00    -0.014 A 
BRANCH  39  40
ATOM     40  C   UNL A   1      40.758  30.290  30.103  1.00  0.00     0.031 A 
ATOM     41  C   UNL A   1      41.875  31.224  29.744  1.00  0.00     0.074 A 
ATOM     42  C   UNL A   1      40.746  29.037  29.612  1.00  0.00     0.049 A 
ATOM     43  N   UNL A   1      42.966  30.978  29.060  1.00  0.00    -0.248 NA
ATOM     44  C   UNL A   1      41.751  32.615  30.202  1.00  0.00     0.031 C 
ATOM     45  C   UNL A   1      39.693  28.049  29.854  1.00  0.00     0.029 A 
ATOM     46  N   UNL A   1      41.651  28.372  28.824  1.00  0.00    -0.354 N 
ATOM     47  C   UNL A   1      43.673  32.173  29.030  1.00  0.00     0.074 A 
ATOM     48  C   UNL A   1      42.854  33.159  29.708  1.00  0.00     0.031 C 
ATOM     49  C   UNL A   1      40.033  26.892  29.265  1.00  0.00     0.029 A 
ATOM     50  C   UNL A   1      41.310  27.065  28.580  1.00  0.00     0.049 A 
ATOM     51  H   UNL A   1      42.468  28.793  28.469  1.00  0.00     0.167 HD
ATOM     52  C   UNL A   1      44.899  32.420  28.507  1.00  0.00     0.037 A 
ATOM     53  C   UNL A   1      41.957  26.110  27.887  1.00  0.00     0.037 A 
ATOM     54  C   UNL A   1      45.695  31.445  27.800  1.00  0.00     0.049 A 
ATOM     55  C   UNL A   1      43.287  26.431  27.260  1.00  0.00     0.074 A 
ATOM     56  C   UNL A   1      46.955  31.595  27.247  1.00  0.00     0.029 A 
ATOM     57  N   UNL A   1      45.296  30.144  27.531  1.00  0.00    -0.354 N 
ATOM     58  N   UNL A   1      43.983  27.541  27.311  1.00  0.00    -0.248 NA
ATOM     59  C   UNL A   1      43.924  25.357  26.487  1.00  0.00     0.031 C 
ATOM     60  C   UNL A   1      47.295  30.403  26.597  1.00  0.00     0.029 A 
ATOM     61  C   UNL A   1      46.276  29.489  26.799  1.00  0.00     0.049 A 
ATOM     62  H   UNL A   1      44.443  29.743  27.818  1.00  0.00     0.167 HD
ATOM     63  C   UNL A   1      45.154  27.287  26.609  1.00  0.00     0.074 A 
ATOM     64  C   UNL A   1      45.082  25.912  26.161  1.00  0.00     0.031 C 
ATOM     65  C   UNL A   1      46.196  28.117  26.358  1.00  0.00     0.037 A 
BRANCH  52  66
ATOM     66  C   UNL A   1      45.451  33.807  28.676  1.00  0.00     0.057 A 
ATOM     67  C   UNL A   1      45.215  34.801  27.719  1.00  0.00     0.134 A 
ATOM     68  C   UNL A   1      46.242  34.154  29.781  1.00  0.00     0.134 A 
ATOM     69  F   UNL A   1      44.477  34.538  26.629  1.00  0.00    -0.206 F 
ATOM     70  C   UNL A   1      45.736  36.090  27.858  1.00  0.00     0.040 A 
ATOM     71  C   UNL A   1      46.744  35.446  29.946  1.00  0.00     0.040 A 
ATOM     72  F   UNL A   1      46.506  33.251  30.738  1.00  0.00    -0.206 F 
ATOM     73  C   UNL A   1      46.495  36.418  28.980  1.00  0.00     0.006 A 
ENDBRANCH  52  66
BRANCH  53  74
ATOM     74  C   UNL A   1      41.378  24.749  27.760  1.00  0.00     0.057 A 
ATOM     75  C   UNL A   1      40.354  24.474  26.845  1.00  0.00     0.134 A 
ATOM     76  C   UNL A   1      41.870  23.679  28.517  1.00  0.00     0.134 A 
ATOM     77  F   UNL A   1      39.833  25.456  26.097  1.00  0.00    -0.206 F 
ATOM     78  C   UNL A   1      39.847  23.184  26.683  1.00  0.00     0.040 A 
ATOM     79  C   UNL A   1      41.394  22.378  28.341  1.00  0.00     0.040 A 
ATOM     80  F   UNL A   1      42.862  23.875  29.398  1.00  0.00    -0.206 F 
ATOM     81  C   UNL A   1      40.378  22.129  27.422  1.00  0.00     0.006 A 
ENDBRANCH  53  74
BRANCH  65  82
ATOM     82  C   UNL A   1      47.363  27.540  25.605  1.00  0.00     0.057 A 
ATOM     83  C   UNL A   1      48.415  26.919  26.291  1.00  0.00     0.134 A 
ATOM     84  C   UNL A   1      47.450  27.592  24.207  1.00  0.00     0.134 A 
ATOM     85  F   UNL A   1      48.404  26.840  27.630  1.00  0.00    -0.206 F 
ATOM     86  C   UNL A   1      49.505  26.366  25.616  1.00  0.00     0.040 A 
ATOM     87  C   UNL A   1      48.518  27.012  23.518  1.00  0.00     0.040 A 
ATOM     88  F   UNL A   1      46.471  28.159  23.485  1.00  0.00    -0.206 F 
ATOM     89  C   UNL A   1      49.552  26.401  24.224  1.00  0.00     0.006 A 
ENDBRANCH  65  82
ENDBRANCH  39  40
ENDBRANCH  32  34
ENDBRANCH  31  32
ENDBRANCH  30  31
ENDBRANCH  29  30
ENDBRANCH  28  29
ENDBRANCH   1  28
TORSDOF 17
ENDMDL
