MODEL 1
REMARK VINA RESULT:     -11.1      0.000      0.000
REMARK SMILES CC(C)[C@@H](CNC(=O)NCC1C(C)(C)C1(C)C)C(=O)OCCOCCOC(=O)c1ccc(-c2c3nc(c(-c4c(F)cccc4F)c4ccc([nH]4)c(-c4c(F)cccc4F)c4nc(c(-c5c(F)cccc5F)c5ccc2[nH]5)C=C4)C=C3)cc1
REMARK SMILES IDX 22 1 21 2 20 3 18 4 19 5 4 6 2 7 1 8 3 9 5 10 6 11 7 12 8 14
REMARK SMILES IDX 9 15 10 17 11 18 12 19 15 20 13 21 14 22 16 23 17 24 23 25
REMARK SMILES IDX 24 26 25 27 26 28 27 29 28 30 29 31 30 32 82 33 31 34 81 35
REMARK SMILES IDX 32 36 33 37 34 38 75 39 35 40 80 41 74 42 76 43 36 44 79 45
REMARK SMILES IDX 73 46 72 47 37 49 63 50 46 51 62 52 47 53 50 54 61 55 77 56
REMARK SMILES IDX 48 57 49 58 60 60 78 61 51 62 38 63 39 64 44 65 40 66 41 67
REMARK SMILES IDX 43 68 45 69 42 70 64 71 65 72 70 73 66 74 67 75 69 76 71 77
REMARK SMILES IDX 68 78 52 79 53 80 58 81 54 82 55 83 57 84 59 85 56 86
REMARK H PARENT 6 13 9 16 76 48 50 59
REMARK Flexibility Score: inf
ROOT
ATOM      1  C   UNL A   1      32.738  30.153  26.603  1.00  0.00     0.202 C 
ENDROOT
BRANCH   1   2
ATOM      2  C   UNL A   1      32.582  28.737  27.162  1.00  0.00     0.261 C 
BRANCH   2   3
ATOM      3  O   UNL A   1      31.419  28.034  26.683  1.00  0.00    -0.463 OA
BRANCH   3   4
ATOM      4  C   UNL A   1      31.657  26.803  26.157  1.00  0.00     0.311 C 
ATOM      5  O   UNL A   1      32.605  26.086  26.465  1.00  0.00    -0.252 OA
BRANCH   4   6
ATOM      6  C   UNL A   1      30.678  26.410  25.065  1.00  0.00     0.121 C 
BRANCH   6   7
ATOM      7  C   UNL A   1      30.837  27.132  23.699  1.00  0.00    -0.001 C 
ATOM      8  C   UNL A   1      31.331  26.152  22.622  1.00  0.00     0.008 C 
ATOM      9  C   UNL A   1      29.527  27.748  23.199  1.00  0.00     0.008 C 
ENDBRANCH   6   7
BRANCH   6  10
ATOM     10  C   UNL A   1      30.627  24.872  24.963  1.00  0.00     0.133 C 
BRANCH  10  11
ATOM     11  N   UNL A   1      29.929  24.225  26.060  1.00  0.00    -0.337 N 
ATOM     12  C   UNL A   1      30.233  23.251  26.926  1.00  0.00     0.314 C 
ATOM     13  H   UNL A   1      29.025  24.587  26.199  1.00  0.00     0.165 HD
ATOM     14  O   UNL A   1      29.390  22.966  27.781  1.00  0.00    -0.249 OA
ATOM     15  N   UNL A   1      31.377  22.562  26.927  1.00  0.00    -0.338 N 
ATOM     16  H   UNL A   1      31.417  21.910  27.664  1.00  0.00     0.165 HD
BRANCH  15  17
ATOM     17  C   UNL A   1      32.571  22.542  26.113  1.00  0.00     0.122 C 
BRANCH  17  18
ATOM     18  C   UNL A   1      32.416  21.548  25.008  1.00  0.00     0.021 C 
ATOM     19  C   UNL A   1      32.954  21.775  23.599  1.00  0.00    -0.025 C 
ATOM     20  C   UNL A   1      33.580  20.697  24.510  1.00  0.00    -0.025 C 
ATOM     21  C   UNL A   1      32.040  21.372  22.460  1.00  0.00     0.012 C 
ATOM     22  C   UNL A   1      33.755  23.012  23.251  1.00  0.00     0.012 C 
ATOM     23  C   UNL A   1      34.961  20.897  25.100  1.00  0.00     0.012 C 
ATOM     24  C   UNL A   1      33.305  19.237  24.211  1.00  0.00     0.012 C 
ENDBRANCH  17  18
ENDBRANCH  15  17
ENDBRANCH  10  11
ENDBRANCH   6  10
ENDBRANCH   4   6
ENDBRANCH   3   4
ENDBRANCH   2   3
ENDBRANCH   1   2
BRANCH   1  25
ATOM     25  O   UNL A   1      31.544  30.805  26.176  1.00  0.00    -0.374 OA
BRANCH  25  26
ATOM     26  C   UNL A   1      31.394  32.180  26.526  1.00  0.00     0.202 C 
BRANCH  26  27
ATOM     27  C   UNL A   1      32.583  32.808  27.264  1.00  0.00     0.261 C 
BRANCH  27  28
ATOM     28  O   UNL A   1      32.282  34.142  27.720  1.00  0.00    -0.460 OA
BRANCH  28  29
ATOM     29  C   UNL A   1      33.057  34.578  28.738  1.00  0.00     0.338 C 
ATOM     30  O   UNL A   1      32.783  35.448  29.557  1.00  0.00    -0.246 OA
BRANCH  29  31
ATOM     31  C   UNL A   1      34.266  33.746  28.870  1.00  0.00     0.060 A 
ATOM     32  C   UNL A   1      34.116  32.496  29.485  1.00  0.00     0.016 A 
ATOM     33  C   UNL A   1      35.534  34.212  28.516  1.00  0.00     0.016 A 
ATOM     34  C   UNL A   1      35.239  31.742  29.818  1.00  0.00     0.010 A 
ATOM     35  C   UNL A   1      36.663  33.453  28.856  1.00  0.00     0.010 A 
ATOM     36  C   UNL A   1      36.523  32.238  29.552  1.00  0.00    -0.014 A 
BRANCH  36  37
ATOM     37  C   UNL A   1      37.694  31.562  30.166  1.00  0.00     0.031 A 
ATOM     38  C   UNL A   1      38.030  31.846  31.607  1.00  0.00     0.074 A 
ATOM     39  C   UNL A   1      38.404  30.645  29.485  1.00  0.00     0.049 A 
ATOM     40  N   UNL A   1      38.977  31.340  32.356  1.00  0.00    -0.248 NA
ATOM     41  C   UNL A   1      37.180  32.830  32.297  1.00  0.00     0.031 C 
ATOM     42  C   UNL A   1      38.162  30.244  28.101  1.00  0.00     0.029 A 
ATOM     43  N   UNL A   1      39.475  29.878  29.876  1.00  0.00    -0.354 N 
ATOM     44  C   UNL A   1      38.836  31.939  33.602  1.00  0.00     0.074 A 
ATOM     45  C   UNL A   1      37.734  32.871  33.500  1.00  0.00     0.031 C 
ATOM     46  C   UNL A   1      39.059  29.303  27.757  1.00  0.00     0.029 A 
ATOM     47  C   UNL A   1      39.952  29.052  28.888  1.00  0.00     0.049 A 
ATOM     48  H   UNL A   1      39.865  29.918  30.779  1.00  0.00     0.167 HD
ATOM     49  C   UNL A   1      39.547  31.724  34.734  1.00  0.00     0.037 A 
ATOM     50  C   UNL A   1      40.995  28.200  28.893  1.00  0.00     0.037 A 
ATOM     51  C   UNL A   1      40.640  30.794  34.846  1.00  0.00     0.049 A 
ATOM     52  C   UNL A   1      41.817  28.033  30.143  1.00  0.00     0.074 A 
ATOM     53  C   UNL A   1      41.410  30.499  35.959  1.00  0.00     0.029 A 
ATOM     54  N   UNL A   1      41.122  30.014  33.808  1.00  0.00    -0.354 N 
ATOM     55  N   UNL A   1      41.658  28.587  31.320  1.00  0.00    -0.248 NA
ATOM     56  C   UNL A   1      42.966  27.117  30.063  1.00  0.00     0.031 C 
ATOM     57  C   UNL A   1      42.385  29.570  35.582  1.00  0.00     0.029 A 
ATOM     58  C   UNL A   1      42.195  29.255  34.247  1.00  0.00     0.049 A 
ATOM     59  H   UNL A   1      40.756  30.001  32.894  1.00  0.00     0.167 HD
ATOM     60  C   UNL A   1      42.667  28.071  32.125  1.00  0.00     0.074 A 
ATOM     61  C   UNL A   1      43.426  27.148  31.307  1.00  0.00     0.031 C 
ATOM     62  C   UNL A   1      42.938  28.337  33.425  1.00  0.00     0.037 A 
BRANCH  49  63
ATOM     63  C   UNL A   1      39.173  32.522  35.946  1.00  0.00     0.057 A 
ATOM     64  C   UNL A   1      38.329  32.006  36.938  1.00  0.00     0.134 A 
ATOM     65  C   UNL A   1      39.693  33.807  36.144  1.00  0.00     0.134 A 
ATOM     66  F   UNL A   1      37.787  30.786  36.801  1.00  0.00    -0.206 F 
ATOM     67  C   UNL A   1      38.003  32.745  38.075  1.00  0.00     0.040 A 
ATOM     68  C   UNL A   1      39.392  34.548  37.287  1.00  0.00     0.040 A 
ATOM     69  F   UNL A   1      40.511  34.358  35.234  1.00  0.00    -0.206 F 
ATOM     70  C   UNL A   1      38.541  34.019  38.255  1.00  0.00     0.006 A 
ENDBRANCH  49  63
BRANCH  50  71
ATOM     71  C   UNL A   1      41.339  27.440  27.665  1.00  0.00     0.057 A 
ATOM     72  C   UNL A   1      42.144  27.997  26.665  1.00  0.00     0.134 A 
ATOM     73  C   UNL A   1      40.840  26.150  27.448  1.00  0.00     0.134 A 
ATOM     74  F   UNL A   1      42.628  29.241  26.803  1.00  0.00    -0.206 F 
ATOM     75  C   UNL A   1      42.428  27.306  25.487  1.00  0.00     0.040 A 
ATOM     76  C   UNL A   1      41.135  25.438  26.286  1.00  0.00     0.040 A 
ATOM     77  F   UNL A   1      40.055  25.565  28.365  1.00  0.00    -0.206 F 
ATOM     78  C   UNL A   1      41.926  26.020  25.297  1.00  0.00     0.006 A 
ENDBRANCH  50  71
BRANCH  62  79
ATOM     79  C   UNL A   1      44.087  27.603  34.055  1.00  0.00     0.057 A 
ATOM     80  C   UNL A   1      43.926  26.338  34.632  1.00  0.00     0.134 A 
ATOM     81  C   UNL A   1      45.375  28.151  34.045  1.00  0.00     0.134 A 
ATOM     82  F   UNL A   1      42.715  25.762  34.684  1.00  0.00    -0.206 F 
ATOM     83  C   UNL A   1      45.003  25.651  35.196  1.00  0.00     0.040 A 
ATOM     84  C   UNL A   1      46.464  27.466  34.585  1.00  0.00     0.040 A 
ATOM     85  F   UNL A   1      45.600  29.356  33.499  1.00  0.00    -0.206 F 
ATOM     86  C   UNL A   1      46.278  26.213  35.168  1.00  0.00     0.006 A 
ENDBRANCH  62  79
ENDBRANCH  36  37
ENDBRANCH  29  31
ENDBRANCH  28  29
ENDBRANCH  27  28
ENDBRANCH  26  27
ENDBRANCH  25  26
ENDBRANCH   1  25
TORSDOF 19
ENDMDL
MODEL 2
REMARK VINA RESULT:     -10.9      4.430      9.466
REMARK SMILES CC(C)[C@@H](CNC(=O)NCC1C(C)(C)C1(C)C)C(=O)OCCOCCOC(=O)c1ccc(-c2c3nc(c(-c4c(F)cccc4F)c4ccc([nH]4)c(-c4c(F)cccc4F)c4nc(c(-c5c(F)cccc5F)c5ccc2[nH]5)C=C4)C=C3)cc1
REMARK SMILES IDX 22 1 21 2 20 3 18 4 19 5 4 6 2 7 1 8 3 9 5 10 6 11 7 12 8 14
REMARK SMILES IDX 9 15 10 17 11 18 12 19 15 20 13 21 14 22 16 23 17 24 23 25
REMARK SMILES IDX 24 26 25 27 26 28 27 29 28 30 29 31 30 32 82 33 31 34 81 35
REMARK SMILES IDX 32 36 33 37 34 38 75 39 35 40 80 41 74 42 76 43 36 44 79 45
REMARK SMILES IDX 73 46 72 47 37 49 63 50 46 51 62 52 47 53 50 54 61 55 77 56
REMARK SMILES IDX 48 57 49 58 60 60 78 61 51 62 38 63 39 64 44 65 40 66 41 67
REMARK SMILES IDX 43 68 45 69 42 70 64 71 65 72 70 73 66 74 67 75 69 76 71 77
REMARK SMILES IDX 68 78 52 79 53 80 58 81 54 82 55 83 57 84 59 85 56 86
REMARK H PARENT 6 13 9 16 76 48 50 59
REMARK Flexibility Score: inf
ROOT
ATOM      1  C   UNL A   1      37.265  22.177  24.508  1.00  0.00     0.202 C 
ENDROOT
BRANCH   1   2
ATOM      2  C   UNL A   1      36.145  22.577  23.545  1.00  0.00     0.261 C 
BRANCH   2   3
ATOM      3  O   UNL A   1      35.280  23.619  24.039  1.00  0.00    -0.463 OA
BRANCH   3   4
ATOM      4  C   UNL A   1      34.114  23.779  23.360  1.00  0.00     0.311 C 
ATOM      5  O   UNL A   1      34.010  23.748  22.137  1.00  0.00    -0.252 OA
BRANCH   4   6
ATOM      6  C   UNL A   1      32.929  24.097  24.255  1.00  0.00     0.121 C 
BRANCH   6   7
ATOM      7  C   UNL A   1      31.791  24.945  23.624  1.00  0.00    -0.001 C 
ATOM      8  C   UNL A   1      30.577  24.061  23.292  1.00  0.00     0.008 C 
ATOM      9  C   UNL A   1      31.307  26.068  24.547  1.00  0.00     0.008 C 
ENDBRANCH   6   7
BRANCH   6  10
ATOM     10  C   UNL A   1      32.447  22.799  24.933  1.00  0.00     0.133 C 
BRANCH  10  11
ATOM     11  N   UNL A   1      33.140  22.480  26.169  1.00  0.00    -0.337 N 
ATOM     12  C   UNL A   1      33.872  21.445  26.598  1.00  0.00     0.314 C 
ATOM     13  H   UNL A   1      33.050  23.188  26.847  1.00  0.00     0.165 HD
ATOM     14  O   UNL A   1      34.357  21.521  27.730  1.00  0.00    -0.249 OA
ATOM     15  N   UNL A   1      34.110  20.336  25.894  1.00  0.00    -0.338 N 
ATOM     16  H   UNL A   1      34.696  19.708  26.376  1.00  0.00     0.165 HD
BRANCH  15  17
ATOM     17  C   UNL A   1      33.720  19.833  24.597  1.00  0.00     0.122 C 
BRANCH  17  18
ATOM     18  C   UNL A   1      34.246  18.447  24.409  1.00  0.00     0.021 C 
ATOM     19  C   UNL A   1      33.546  17.206  24.953  1.00  0.00    -0.025 C 
ATOM     20  C   UNL A   1      33.613  17.461  23.432  1.00  0.00    -0.025 C 
ATOM     21  C   UNL A   1      34.437  16.159  25.590  1.00  0.00     0.012 C 
ATOM     22  C   UNL A   1      32.214  17.303  25.667  1.00  0.00     0.012 C 
ATOM     23  C   UNL A   1      32.370  17.860  22.665  1.00  0.00     0.012 C 
ATOM     24  C   UNL A   1      34.544  16.613  22.588  1.00  0.00     0.012 C 
ENDBRANCH  17  18
ENDBRANCH  15  17
ENDBRANCH  10  11
ENDBRANCH   6  10
ENDBRANCH   4   6
ENDBRANCH   3   4
ENDBRANCH   2   3
ENDBRANCH   1   2
BRANCH   1  25
ATOM     25  O   UNL A   1      37.047  21.003  25.287  1.00  0.00    -0.374 OA
BRANCH  25  26
ATOM     26  C   UNL A   1      37.655  19.797  24.829  1.00  0.00     0.202 C 
BRANCH  26  27
ATOM     27  C   UNL A   1      38.931  19.377  25.570  1.00  0.00     0.261 C 
BRANCH  27  28
ATOM     28  O   UNL A   1      39.905  20.440  25.595  1.00  0.00    -0.460 OA
BRANCH  28  29
ATOM     29  C   UNL A   1      40.745  20.410  26.654  1.00  0.00     0.338 C 
ATOM     30  O   UNL A   1      41.416  19.459  27.040  1.00  0.00    -0.246 OA
BRANCH  29  31
ATOM     31  C   UNL A   1      40.904  21.755  27.235  1.00  0.00     0.060 A 
ATOM     32  C   UNL A   1      40.283  22.817  26.566  1.00  0.00     0.016 A 
ATOM     33  C   UNL A   1      41.733  21.999  28.333  1.00  0.00     0.016 A 
ATOM     34  C   UNL A   1      40.548  24.132  26.943  1.00  0.00     0.010 A 
ATOM     35  C   UNL A   1      42.002  23.323  28.708  1.00  0.00     0.010 A 
ATOM     36  C   UNL A   1      41.449  24.396  27.984  1.00  0.00    -0.014 A 
BRANCH  36  37
ATOM     37  C   UNL A   1      41.933  25.787  28.177  1.00  0.00     0.031 A 
ATOM     38  C   UNL A   1      43.269  26.183  27.603  1.00  0.00     0.074 A 
ATOM     39  C   UNL A   1      41.166  26.713  28.780  1.00  0.00     0.049 A 
ATOM     40  N   UNL A   1      43.868  27.347  27.615  1.00  0.00    -0.248 NA
ATOM     41  C   UNL A   1      44.029  25.124  26.920  1.00  0.00     0.031 C 
ATOM     42  C   UNL A   1      39.839  26.477  29.342  1.00  0.00     0.029 A 
ATOM     43  N   UNL A   1      41.399  28.047  29.012  1.00  0.00    -0.354 N 
ATOM     44  C   UNL A   1      45.069  27.163  26.941  1.00  0.00     0.074 A 
ATOM     45  C   UNL A   1      45.131  25.767  26.563  1.00  0.00     0.031 C 
ATOM     46  C   UNL A   1      39.372  27.629  29.854  1.00  0.00     0.029 A 
ATOM     47  C   UNL A   1      40.376  28.677  29.677  1.00  0.00     0.049 A 
ATOM     48  H   UNL A   1      42.221  28.507  28.729  1.00  0.00     0.167 HD
ATOM     49  C   UNL A   1      46.028  28.073  26.650  1.00  0.00     0.037 A 
ATOM     50  C   UNL A   1      40.268  29.950  30.103  1.00  0.00     0.037 A 
ATOM     51  C   UNL A   1      45.971  29.464  27.016  1.00  0.00     0.049 A 
ATOM     52  C   UNL A   1      41.381  30.926  29.831  1.00  0.00     0.074 A 
ATOM     53  C   UNL A   1      46.892  30.463  26.749  1.00  0.00     0.029 A 
ATOM     54  N   UNL A   1      44.940  30.049  27.733  1.00  0.00    -0.354 N 
ATOM     55  N   UNL A   1      42.500  30.745  29.173  1.00  0.00    -0.248 NA
ATOM     56  C   UNL A   1      41.214  32.288  30.361  1.00  0.00     0.031 C 
ATOM     57  C   UNL A   1      46.436  31.646  27.341  1.00  0.00     0.029 A 
ATOM     58  C   UNL A   1      45.213  31.392  27.939  1.00  0.00     0.049 A 
ATOM     59  H   UNL A   1      44.135  29.581  28.048  1.00  0.00     0.167 HD
ATOM     60  C   UNL A   1      43.156  31.970  29.189  1.00  0.00     0.074 A 
ATOM     61  C   UNL A   1      42.305  32.892  29.910  1.00  0.00     0.031 C 
ATOM     62  C   UNL A   1      44.356  32.301  28.653  1.00  0.00     0.037 A 
BRANCH  49  63
ATOM     63  C   UNL A   1      47.235  27.588  25.905  1.00  0.00     0.057 A 
ATOM     64  C   UNL A   1      48.357  27.079  26.570  1.00  0.00     0.134 A 
ATOM     65  C   UNL A   1      47.260  27.595  24.504  1.00  0.00     0.134 A 
ATOM     66  F   UNL A   1      48.400  27.057  27.911  1.00  0.00    -0.206 F 
ATOM     67  C   UNL A   1      49.468  26.608  25.870  1.00  0.00     0.040 A 
ATOM     68  C   UNL A   1      48.357  27.108  23.792  1.00  0.00     0.040 A 
ATOM     69  F   UNL A   1      46.215  28.067  23.806  1.00  0.00    -0.206 F 
ATOM     70  C   UNL A   1      49.466  26.616  24.476  1.00  0.00     0.006 A 
ENDBRANCH  49  63
BRANCH  50  71
ATOM     71  C   UNL A   1      39.060  30.383  30.850  1.00  0.00     0.057 A 
ATOM     72  C   UNL A   1      38.006  31.044  30.209  1.00  0.00     0.134 A 
ATOM     73  C   UNL A   1      38.949  30.177  32.230  1.00  0.00     0.134 A 
ATOM     74  F   UNL A   1      38.067  31.296  28.893  1.00  0.00    -0.206 F 
ATOM     75  C   UNL A   1      36.891  31.498  30.916  1.00  0.00     0.040 A 
ATOM     76  C   UNL A   1      37.831  30.604  32.946  1.00  0.00     0.040 A 
ATOM     77  F   UNL A   1      39.931  29.558  32.902  1.00  0.00    -0.206 F 
ATOM     78  C   UNL A   1      36.800  31.274  32.289  1.00  0.00     0.006 A 
ENDBRANCH  50  71
BRANCH  62  79
ATOM     79  C   UNL A   1      44.809  33.724  28.801  1.00  0.00     0.057 A 
ATOM     80  C   UNL A   1      45.618  34.133  29.868  1.00  0.00     0.134 A 
ATOM     81  C   UNL A   1      44.466  34.686  27.842  1.00  0.00     0.134 A 
ATOM     82  F   UNL A   1      45.972  33.263  30.826  1.00  0.00    -0.206 F 
ATOM     83  C   UNL A   1      46.053  35.454  29.988  1.00  0.00     0.040 A 
ATOM     84  C   UNL A   1      44.914  36.004  27.938  1.00  0.00     0.040 A 
ATOM     85  F   UNL A   1      43.701  34.358  26.790  1.00  0.00    -0.206 F 
ATOM     86  C   UNL A   1      45.706  36.393  29.017  1.00  0.00     0.006 A 
ENDBRANCH  62  79
ENDBRANCH  36  37
ENDBRANCH  29  31
ENDBRANCH  28  29
ENDBRANCH  27  28
ENDBRANCH  26  27
ENDBRANCH  25  26
ENDBRANCH   1  25
TORSDOF 19
ENDMDL
MODEL 3
REMARK VINA RESULT:     -10.9      4.282      9.086
REMARK SMILES CC(C)[C@@H](CNC(=O)NCC1C(C)(C)C1(C)C)C(=O)OCCOCCOC(=O)c1ccc(-c2c3nc(c(-c4c(F)cccc4F)c4ccc([nH]4)c(-c4c(F)cccc4F)c4nc(c(-c5c(F)cccc5F)c5ccc2[nH]5)C=C4)C=C3)cc1
REMARK SMILES IDX 22 1 21 2 20 3 18 4 19 5 4 6 2 7 1 8 3 9 5 10 6 11 7 12 8 14
REMARK SMILES IDX 9 15 10 17 11 18 12 19 15 20 13 21 14 22 16 23 17 24 23 25
REMARK SMILES IDX 24 26 25 27 26 28 27 29 28 30 29 31 30 32 82 33 31 34 81 35
REMARK SMILES IDX 32 36 33 37 34 38 75 39 35 40 80 41 74 42 76 43 36 44 79 45
REMARK SMILES IDX 73 46 72 47 37 49 63 50 46 51 62 52 47 53 50 54 61 55 77 56
REMARK SMILES IDX 48 57 49 58 60 60 78 61 51 62 38 63 39 64 44 65 40 66 41 67
REMARK SMILES IDX 43 68 45 69 42 70 64 71 65 72 70 73 66 74 67 75 69 76 71 77
REMARK SMILES IDX 68 78 52 79 53 80 58 81 54 82 55 83 57 84 59 85 56 86
REMARK H PARENT 6 13 9 16 76 48 50 59
REMARK Flexibility Score: inf
ROOT
ATOM      1  C   UNL A   1      37.836  23.326  25.731  1.00  0.00     0.202 C 
ENDROOT
BRANCH   1   2
ATOM      2  C   UNL A   1      36.869  23.326  24.546  1.00  0.00     0.261 C 
BRANCH   2   3
ATOM      3  O   UNL A   1      35.499  23.047  24.897  1.00  0.00    -0.463 OA
BRANCH   3   4
ATOM      4  C   UNL A   1      34.589  23.257  23.910  1.00  0.00     0.311 C 
ATOM      5  O   UNL A   1      34.871  23.591  22.762  1.00  0.00    -0.252 OA
BRANCH   4   6
ATOM      6  C   UNL A   1      33.149  23.128  24.373  1.00  0.00     0.121 C 
BRANCH   6   7
ATOM      7  C   UNL A   1      32.437  21.783  24.060  1.00  0.00    -0.001 C 
ATOM      8  C   UNL A   1      32.081  21.695  22.566  1.00  0.00     0.008 C 
ATOM      9  C   UNL A   1      33.296  20.563  24.404  1.00  0.00     0.008 C 
ENDBRANCH   6   7
BRANCH   6  10
ATOM     10  C   UNL A   1      33.054  23.563  25.850  1.00  0.00     0.133 C 
BRANCH  10  11
ATOM     11  N   UNL A   1      31.826  23.160  26.512  1.00  0.00    -0.337 N 
ATOM     12  C   UNL A   1      30.679  23.774  26.824  1.00  0.00     0.314 C 
ATOM     13  H   UNL A   1      31.842  22.218  26.797  1.00  0.00     0.165 HD
ATOM     14  O   UNL A   1      29.803  23.100  27.372  1.00  0.00    -0.249 OA
ATOM     15  N   UNL A   1      30.417  25.062  26.590  1.00  0.00    -0.338 N 
ATOM     16  H   UNL A   1      29.505  25.312  26.867  1.00  0.00     0.165 HD
BRANCH  15  17
ATOM     17  C   UNL A   1      31.143  26.178  26.029  1.00  0.00     0.122 C 
BRANCH  17  18
ATOM     18  C   UNL A   1      30.804  26.330  24.582  1.00  0.00     0.021 C 
ATOM     19  C   UNL A   1      30.798  27.674  23.861  1.00  0.00    -0.025 C 
ATOM     20  C   UNL A   1      31.865  26.611  23.522  1.00  0.00    -0.025 C 
ATOM     21  C   UNL A   1      29.642  27.921  22.914  1.00  0.00     0.012 C 
ATOM     22  C   UNL A   1      31.213  28.948  24.567  1.00  0.00     0.012 C 
ATOM     23  C   UNL A   1      33.307  26.811  23.941  1.00  0.00     0.012 C 
ATOM     24  C   UNL A   1      31.761  25.863  22.208  1.00  0.00     0.012 C 
ENDBRANCH  17  18
ENDBRANCH  15  17
ENDBRANCH  10  11
ENDBRANCH   6  10
ENDBRANCH   4   6
ENDBRANCH   3   4
ENDBRANCH   2   3
ENDBRANCH   1   2
BRANCH   1  25
ATOM     25  O   UNL A   1      38.488  22.093  26.023  1.00  0.00    -0.374 OA
BRANCH  25  26
ATOM     26  C   UNL A   1      38.105  20.956  25.250  1.00  0.00     0.202 C 
BRANCH  26  27
ATOM     27  C   UNL A   1      39.086  19.777  25.279  1.00  0.00     0.261 C 
BRANCH  27  28
ATOM     28  O   UNL A   1      39.993  19.867  26.396  1.00  0.00    -0.460 OA
BRANCH  28  29
ATOM     29  C   UNL A   1      41.302  19.873  26.060  1.00  0.00     0.338 C 
ATOM     30  O   UNL A   1      41.881  19.082  25.324  1.00  0.00    -0.246 OA
BRANCH  29  31
ATOM     31  C   UNL A   1      41.968  21.087  26.566  1.00  0.00     0.060 A 
ATOM     32  C   UNL A   1      41.992  21.269  27.954  1.00  0.00     0.016 A 
ATOM     33  C   UNL A   1      42.452  22.082  25.713  1.00  0.00     0.016 A 
ATOM     34  C   UNL A   1      42.429  22.478  28.493  1.00  0.00     0.010 A 
ATOM     35  C   UNL A   1      42.887  23.299  26.257  1.00  0.00     0.010 A 
ATOM     36  C   UNL A   1      42.831  23.520  27.645  1.00  0.00    -0.014 A 
BRANCH  36  37
ATOM     37  C   UNL A   1      43.015  24.878  28.218  1.00  0.00     0.031 A 
ATOM     38  C   UNL A   1      44.403  25.333  28.590  1.00  0.00     0.074 A 
ATOM     39  C   UNL A   1      41.981  25.731  28.332  1.00  0.00     0.049 A 
ATOM     40  N   UNL A   1      44.801  26.486  29.065  1.00  0.00    -0.248 NA
ATOM     41  C   UNL A   1      45.487  24.357  28.396  1.00  0.00     0.031 C 
ATOM     42  C   UNL A   1      40.597  25.437  27.971  1.00  0.00     0.029 A 
ATOM     43  N   UNL A   1      41.945  27.029  28.781  1.00  0.00    -0.354 N 
ATOM     44  C   UNL A   1      46.177  26.376  29.222  1.00  0.00     0.074 A 
ATOM     45  C   UNL A   1      46.542  25.033  28.825  1.00  0.00     0.031 C 
ATOM     46  C   UNL A   1      39.844  26.524  28.211  1.00  0.00     0.029 A 
ATOM     47  C   UNL A   1      40.688  27.582  28.765  1.00  0.00     0.049 A 
ATOM     48  H   UNL A   1      42.743  27.516  29.087  1.00  0.00     0.167 HD
ATOM     49  C   UNL A   1      47.062  27.311  29.644  1.00  0.00     0.037 A 
ATOM     50  C   UNL A   1      40.266  28.798  29.161  1.00  0.00     0.037 A 
ATOM     51  C   UNL A   1      46.709  28.651  30.034  1.00  0.00     0.049 A 
ATOM     52  C   UNL A   1      41.258  29.795  29.696  1.00  0.00     0.074 A 
ATOM     53  C   UNL A   1      47.542  29.671  30.461  1.00  0.00     0.029 A 
ATOM     54  N   UNL A   1      45.418  29.153  30.050  1.00  0.00    -0.354 N 
ATOM     55  N   UNL A   1      42.559  29.687  29.818  1.00  0.00    -0.248 NA
ATOM     56  C   UNL A   1      40.721  31.088  30.149  1.00  0.00     0.031 C 
ATOM     57  C   UNL A   1      46.748  30.780  30.775  1.00  0.00     0.029 A 
ATOM     58  C   UNL A   1      45.428  30.463  30.503  1.00  0.00     0.049 A 
ATOM     59  H   UNL A   1      44.614  28.655  29.780  1.00  0.00     0.167 HD
ATOM     60  C   UNL A   1      42.997  30.900  30.335  1.00  0.00     0.074 A 
ATOM     61  C   UNL A   1      41.826  31.736  30.493  1.00  0.00     0.031 C 
ATOM     62  C   UNL A   1      44.257  31.287  30.650  1.00  0.00     0.037 A 
BRANCH  49  63
ATOM     63  C   UNL A   1      48.504  26.911  29.720  1.00  0.00     0.057 A 
ATOM     64  C   UNL A   1      49.027  26.244  30.834  1.00  0.00     0.134 A 
ATOM     65  C   UNL A   1      49.372  27.162  28.649  1.00  0.00     0.134 A 
ATOM     66  F   UNL A   1      48.250  25.986  31.898  1.00  0.00    -0.206 F 
ATOM     67  C   UNL A   1      50.366  25.854  30.889  1.00  0.00     0.040 A 
ATOM     68  C   UNL A   1      50.707  26.758  28.683  1.00  0.00     0.040 A 
ATOM     69  F   UNL A   1      48.933  27.794  27.550  1.00  0.00    -0.206 F 
ATOM     70  C   UNL A   1      51.208  26.105  29.807  1.00  0.00     0.006 A 
ENDBRANCH  49  63
BRANCH  50  71
ATOM     71  C   UNL A   1      38.825  29.147  29.081  1.00  0.00     0.057 A 
ATOM     72  C   UNL A   1      37.996  29.077  30.207  1.00  0.00     0.134 A 
ATOM     73  C   UNL A   1      38.237  29.526  27.869  1.00  0.00     0.134 A 
ATOM     74  F   UNL A   1      38.495  28.691  31.390  1.00  0.00    -0.206 F 
ATOM     75  C   UNL A   1      36.630  29.354  30.126  1.00  0.00     0.040 A 
ATOM     76  C   UNL A   1      36.879  29.830  27.778  1.00  0.00     0.040 A 
ATOM     77  F   UNL A   1      38.978  29.604  26.754  1.00  0.00    -0.206 F 
ATOM     78  C   UNL A   1      36.069  29.737  28.909  1.00  0.00     0.006 A 
ENDBRANCH  50  71
BRANCH  62  79
ATOM     79  C   UNL A   1      44.441  32.682  31.172  1.00  0.00     0.057 A 
ATOM     80  C   UNL A   1      44.651  33.768  30.313  1.00  0.00     0.134 A 
ATOM     81  C   UNL A   1      44.365  32.947  32.544  1.00  0.00     0.134 A 
ATOM     82  F   UNL A   1      44.746  33.580  28.988  1.00  0.00    -0.206 F 
ATOM     83  C   UNL A   1      44.800  35.067  30.804  1.00  0.00     0.040 A 
ATOM     84  C   UNL A   1      44.489  34.243  33.045  1.00  0.00     0.040 A 
ATOM     85  F   UNL A   1      44.156  31.953  33.421  1.00  0.00    -0.206 F 
ATOM     86  C   UNL A   1      44.713  35.308  32.174  1.00  0.00     0.006 A 
ENDBRANCH  62  79
ENDBRANCH  36  37
ENDBRANCH  29  31
ENDBRANCH  28  29
ENDBRANCH  27  28
ENDBRANCH  26  27
ENDBRANCH  25  26
ENDBRANCH   1  25
TORSDOF 19
ENDMDL
