MODEL 1
REMARK VINA RESULT:     -12.2      0.000      0.000
REMARK SMILES CO[C@H]1C[C@@H](C(=O)OCCOCCOC(=O)c2ccc(-c3c4nc(c(-c5c(F)cccc5F)c5ccc([nH]5)c(-c5c(F)cccc5F)c5nc(c(-c6c(F)cccc6F)c6ccc3[nH]6)C=C5)C=C4)cc2)N(C(=O)Nc2cc(C)cc(F)c2)C1
REMARK SMILES IDX 11 1 10 2 9 3 8 4 6 5 7 6 5 7 3 8 4 9 83 10 71 11 2 12 1 13
REMARK SMILES IDX 72 14 73 15 74 16 75 18 76 19 82 20 77 21 80 22 78 23 79 24
REMARK SMILES IDX 81 25 12 26 13 27 14 28 15 29 16 30 17 31 18 32 70 33 19 34
REMARK SMILES IDX 69 35 20 36 21 37 22 38 63 39 23 40 68 41 62 42 64 43 24 44
REMARK SMILES IDX 67 45 61 46 60 47 25 49 51 50 34 51 50 52 35 53 38 54 49 55
REMARK SMILES IDX 65 56 36 57 37 58 48 60 66 61 39 62 26 63 27 64 32 65 28 66
REMARK SMILES IDX 29 67 31 68 33 69 30 70 52 71 53 72 58 73 54 74 55 75 57 76
REMARK SMILES IDX 59 77 56 78 40 79 41 80 46 81 42 82 43 83 45 84 47 85 44 86
REMARK H PARENT 74 17 64 48 38 59
REMARK Flexibility Score: inf
ROOT
ATOM      1  O   UNL A   1      31.996  30.713  26.794  1.00  0.00    -0.374 OA
ENDROOT
BRANCH   1   2
ATOM      2  C   UNL A   1      33.315  30.392  27.265  1.00  0.00     0.202 C 
BRANCH   2   3
ATOM      3  C   UNL A   1      34.221  28.916  26.908  1.00  0.00     0.261 C 
BRANCH   3   4
ATOM      4  O   UNL A   1      34.099  27.729  25.253  1.00  0.00    -0.462 OA
BRANCH   4   5
ATOM      5  C   UNL A   1      33.632  27.622  23.816  1.00  0.00     0.329 C 
ATOM      6  O   UNL A   1      33.518  28.564  23.017  1.00  0.00    -0.250 OA
BRANCH   5   7
ATOM      7  C   UNL A   1      32.884  26.371  23.467  1.00  0.00     0.199 C 
ATOM      8  C   UNL A   1      30.677  26.831  22.368  1.00  0.00     0.140 C 
ATOM      9  C   UNL A   1      32.184  26.731  22.085  1.00  0.00     0.071 C 
ATOM     10  C   UNL A   1      30.509  25.957  23.599  1.00  0.00     0.154 C 
ATOM     11  N   UNL A   1      31.741  26.073  24.366  1.00  0.00    -0.308 N 
BRANCH   8  12
ATOM     12  O   UNL A   1      30.188  28.136  22.704  1.00  0.00    -0.380 OA
ATOM     13  C   UNL A   1      28.832  28.202  23.126  1.00  0.00     0.195 C 
ENDBRANCH   8  12
BRANCH  11  14
ATOM     14  C   UNL A   1      31.717  25.604  25.650  1.00  0.00     0.322 C 
ATOM     15  O   UNL A   1      31.029  26.160  26.513  1.00  0.00    -0.248 OA
ATOM     16  N   UNL A   1      32.389  24.491  26.034  1.00  0.00    -0.308 N 
ATOM     17  H   UNL A   1      32.165  24.152  26.931  1.00  0.00     0.171 HD
BRANCH  16  18
ATOM     18  C   UNL A   1      33.348  23.761  25.341  1.00  0.00     0.046 A 
ATOM     19  C   UNL A   1      35.000  24.288  25.749  1.00  0.00     0.029 A 
ATOM     20  C   UNL A   1      33.055  22.071  24.775  1.00  0.00     0.065 A 
ATOM     21  C   UNL A   1      36.357  23.151  25.760  1.00  0.00    -0.046 A 
ATOM     22  C   UNL A   1      34.483  20.885  24.818  1.00  0.00     0.125 A 
ATOM     23  C   UNL A   1      37.744  23.707  25.913  1.00  0.00     0.044 C 
ATOM     24  C   UNL A   1      36.120  21.451  25.306  1.00  0.00     0.042 A 
ATOM     25  F   UNL A   1      34.267  19.577  24.910  1.00  0.00    -0.207 F 
ENDBRANCH  16  18
ENDBRANCH  11  14
ENDBRANCH   5   7
ENDBRANCH   4   5
ENDBRANCH   3   4
ENDBRANCH   2   3
ENDBRANCH   1   2
BRANCH   1  26
ATOM     26  C   UNL A   1      31.449  32.024  26.572  1.00  0.00     0.202 C 
BRANCH  26  27
ATOM     27  C   UNL A   1      32.117  33.401  26.898  1.00  0.00     0.261 C 
BRANCH  27  28
ATOM     28  O   UNL A   1      32.184  33.847  28.260  1.00  0.00    -0.460 OA
BRANCH  28  29
ATOM     29  C   UNL A   1      33.278  34.543  28.587  1.00  0.00     0.338 C 
ATOM     30  O   UNL A   1      33.305  35.721  28.901  1.00  0.00    -0.246 OA
BRANCH  29  31
ATOM     31  C   UNL A   1      34.465  33.653  28.691  1.00  0.00     0.060 A 
ATOM     32  C   UNL A   1      34.332  32.591  29.591  1.00  0.00     0.016 A 
ATOM     33  C   UNL A   1      35.678  33.838  28.012  1.00  0.00     0.016 A 
ATOM     34  C   UNL A   1      35.421  31.792  29.911  1.00  0.00     0.010 A 
ATOM     35  C   UNL A   1      36.784  33.028  28.338  1.00  0.00     0.010 A 
ATOM     36  C   UNL A   1      36.673  32.044  29.339  1.00  0.00    -0.014 A 
BRANCH  36  37
ATOM     37  C   UNL A   1      37.859  31.409  29.973  1.00  0.00     0.031 A 
ATOM     38  C   UNL A   1      38.172  31.733  31.413  1.00  0.00     0.074 A 
ATOM     39  C   UNL A   1      38.560  30.449  29.342  1.00  0.00     0.049 A 
ATOM     40  N   UNL A   1      39.090  31.230  32.199  1.00  0.00    -0.248 NA
ATOM     41  C   UNL A   1      37.329  32.755  32.054  1.00  0.00     0.031 C 
ATOM     42  C   UNL A   1      38.320  29.990  27.976  1.00  0.00     0.029 A 
ATOM     43  N   UNL A   1      39.606  29.675  29.780  1.00  0.00    -0.354 N 
ATOM     44  C   UNL A   1      38.938  31.875  33.421  1.00  0.00     0.074 A 
ATOM     45  C   UNL A   1      37.863  32.829  33.264  1.00  0.00     0.031 C 
ATOM     46  C   UNL A   1      39.194  29.011  27.686  1.00  0.00     0.029 A 
ATOM     47  C   UNL A   1      40.072  28.792  28.834  1.00  0.00     0.049 A 
ATOM     48  H   UNL A   1      39.987  29.744  30.684  1.00  0.00     0.167 HD
ATOM     49  C   UNL A   1      39.620  31.684  34.575  1.00  0.00     0.037 A 
ATOM     50  C   UNL A   1      41.097  27.919  28.887  1.00  0.00     0.037 A 
ATOM     51  C   UNL A   1      40.686  30.729  34.741  1.00  0.00     0.049 A 
ATOM     52  C   UNL A   1      41.896  27.781  30.157  1.00  0.00     0.074 A 
ATOM     53  C   UNL A   1      41.424  30.452  35.878  1.00  0.00     0.029 A 
ATOM     54  N   UNL A   1      41.171  29.903  33.739  1.00  0.00    -0.354 N 
ATOM     55  N   UNL A   1      41.729  28.383  31.310  1.00  0.00    -0.248 NA
ATOM     56  C   UNL A   1      43.025  26.839  30.133  1.00  0.00     0.031 C 
ATOM     57  C   UNL A   1      42.399  29.506  35.548  1.00  0.00     0.029 A 
ATOM     58  C   UNL A   1      42.224  29.142  34.222  1.00  0.00     0.049 A 
ATOM     59  H   UNL A   1      40.821  29.864  32.820  1.00  0.00     0.167 HD
ATOM     60  C   UNL A   1      42.707  27.869  32.155  1.00  0.00     0.074 A 
ATOM     61  C   UNL A   1      43.455  26.898  31.384  1.00  0.00     0.031 C 
ATOM     62  C   UNL A   1      42.960  28.173  33.452  1.00  0.00     0.037 A 
BRANCH  49  63
ATOM     63  C   UNL A   1      39.262  32.553  35.746  1.00  0.00     0.057 A 
ATOM     64  C   UNL A   1      39.799  33.836  35.916  1.00  0.00     0.134 A 
ATOM     65  C   UNL A   1      38.335  32.110  36.699  1.00  0.00     0.134 A 
ATOM     66  F   UNL A   1      40.702  34.316  35.048  1.00  0.00    -0.206 F 
ATOM     67  C   UNL A   1      39.446  34.637  37.004  1.00  0.00     0.040 A 
ATOM     68  C   UNL A   1      37.951  32.913  37.774  1.00  0.00     0.040 A 
ATOM     69  F   UNL A   1      37.777  30.894  36.594  1.00  0.00    -0.206 F 
ATOM     70  C   UNL A   1      38.513  34.179  37.932  1.00  0.00     0.006 A 
ENDBRANCH  49  63
BRANCH  50  71
ATOM     71  C   UNL A   1      41.446  27.112  27.688  1.00  0.00     0.057 A 
ATOM     72  C   UNL A   1      42.280  27.615  26.683  1.00  0.00     0.134 A 
ATOM     73  C   UNL A   1      40.922  25.826  27.505  1.00  0.00     0.134 A 
ATOM     74  F   UNL A   1      42.793  28.850  26.786  1.00  0.00    -0.206 F 
ATOM     75  C   UNL A   1      42.566  26.877  25.533  1.00  0.00     0.040 A 
ATOM     76  C   UNL A   1      41.222  25.066  26.373  1.00  0.00     0.040 A 
ATOM     77  F   UNL A   1      40.115  25.286  28.430  1.00  0.00    -0.206 F 
ATOM     78  C   UNL A   1      42.041  25.596  25.378  1.00  0.00     0.006 A 
ENDBRANCH  50  71
BRANCH  62  79
ATOM     79  C   UNL A   1      44.066  27.422  34.140  1.00  0.00     0.057 A 
ATOM     80  C   UNL A   1      43.855  26.176  34.748  1.00  0.00     0.134 A 
ATOM     81  C   UNL A   1      45.370  27.934  34.159  1.00  0.00     0.134 A 
ATOM     82  F   UNL A   1      42.630  25.632  34.775  1.00  0.00    -0.206 F 
ATOM     83  C   UNL A   1      44.896  25.482  35.370  1.00  0.00     0.040 A 
ATOM     84  C   UNL A   1      46.424  27.235  34.750  1.00  0.00     0.040 A 
ATOM     85  F   UNL A   1      45.647  29.116  33.586  1.00  0.00    -0.206 F 
ATOM     86  C   UNL A   1      46.186  26.009  35.366  1.00  0.00     0.006 A 
ENDBRANCH  62  79
ENDBRANCH  36  37
ENDBRANCH  29  31
ENDBRANCH  28  29
ENDBRANCH  27  28
ENDBRANCH  26  27
ENDBRANCH   1  26
TORSDOF 17
ENDMDL
MODEL 2
REMARK VINA RESULT:     -12.1      1.580      2.969
REMARK SMILES CO[C@H]1C[C@@H](C(=O)OCCOCCOC(=O)c2ccc(-c3c4nc(c(-c5c(F)cccc5F)c5ccc([nH]5)c(-c5c(F)cccc5F)c5nc(c(-c6c(F)cccc6F)c6ccc3[nH]6)C=C5)C=C4)cc2)N(C(=O)Nc2cc(C)cc(F)c2)C1
REMARK SMILES IDX 11 1 10 2 9 3 8 4 6 5 7 6 5 7 3 8 4 9 83 10 71 11 2 12 1 13
REMARK SMILES IDX 72 14 73 15 74 16 75 18 76 19 82 20 77 21 80 22 78 23 79 24
REMARK SMILES IDX 81 25 12 26 13 27 14 28 15 29 16 30 17 31 18 32 70 33 19 34
REMARK SMILES IDX 69 35 20 36 21 37 22 38 63 39 23 40 68 41 62 42 64 43 24 44
REMARK SMILES IDX 67 45 61 46 60 47 25 49 51 50 34 51 50 52 35 53 38 54 49 55
REMARK SMILES IDX 65 56 36 57 37 58 48 60 66 61 39 62 26 63 27 64 32 65 28 66
REMARK SMILES IDX 29 67 31 68 33 69 30 70 52 71 53 72 58 73 54 74 55 75 57 76
REMARK SMILES IDX 59 77 56 78 40 79 41 80 46 81 42 82 43 83 45 84 47 85 44 86
REMARK H PARENT 74 17 64 48 38 59
REMARK Flexibility Score: inf
ROOT
ATOM      1  O   UNL A   1      31.149  29.276  24.012  1.00  0.00    -0.374 OA
ENDROOT
BRANCH   1   2
ATOM      2  C   UNL A   1      31.832  28.941  22.793  1.00  0.00     0.202 C 
BRANCH   2   3
ATOM      3  C   UNL A   1      33.124  27.747  22.613  1.00  0.00     0.261 C 
BRANCH   3   4
ATOM      4  O   UNL A   1      33.606  26.211  23.866  1.00  0.00    -0.462 OA
BRANCH   4   5
ATOM      5  C   UNL A   1      33.352  25.559  25.209  1.00  0.00     0.329 C 
ATOM      6  O   UNL A   1      34.205  25.013  25.925  1.00  0.00    -0.250 OA
BRANCH   5   7
ATOM      7  C   UNL A   1      31.927  25.199  25.496  1.00  0.00     0.199 C 
ATOM      8  C   UNL A   1      31.709  23.126  26.894  1.00  0.00     0.140 C 
ATOM      9  C   UNL A   1      31.979  24.636  26.984  1.00  0.00     0.071 C 
ATOM     10  C   UNL A   1      30.924  23.004  25.598  1.00  0.00     0.154 C 
ATOM     11  N   UNL A   1      31.417  24.047  24.710  1.00  0.00    -0.308 N 
BRANCH   8  12
ATOM     12  O   UNL A   1      32.865  22.289  26.770  1.00  0.00    -0.380 OA
ATOM     13  C   UNL A   1      33.689  22.191  27.924  1.00  0.00     0.195 C 
ENDBRANCH   8  12
BRANCH  11  14
ATOM     14  C   UNL A   1      31.064  23.956  23.392  1.00  0.00     0.322 C 
ATOM     15  O   UNL A   1      30.129  24.626  22.941  1.00  0.00    -0.248 OA
ATOM     16  N   UNL A   1      31.741  23.186  22.506  1.00  0.00    -0.308 N 
ATOM     17  H   UNL A   1      31.509  23.328  21.560  1.00  0.00     0.171 HD
BRANCH  16  18
ATOM     18  C   UNL A   1      32.717  22.224  22.744  1.00  0.00     0.046 A 
ATOM     19  C   UNL A   1      34.313  22.959  23.034  1.00  0.00     0.029 A 
ATOM     20  C   UNL A   1      32.328  20.606  23.447  1.00  0.00     0.065 A 
ATOM     21  C   UNL A   1      35.489  22.214  24.127  1.00  0.00    -0.046 A 
ATOM     22  C   UNL A   1      33.561  19.851  24.612  1.00  0.00     0.125 A 
ATOM     23  C   UNL A   1      36.880  22.781  24.162  1.00  0.00     0.044 C 
ATOM     24  C   UNL A   1      35.132  20.670  24.927  1.00  0.00     0.042 A 
ATOM     25  F   UNL A   1      33.170  18.969  25.525  1.00  0.00    -0.207 F 
ENDBRANCH  16  18
ENDBRANCH  11  14
ENDBRANCH   5   7
ENDBRANCH   4   5
ENDBRANCH   3   4
ENDBRANCH   2   3
ENDBRANCH   1   2
BRANCH   1  26
ATOM     26  C   UNL A   1      31.727  29.413  25.321  1.00  0.00     0.202 C 
BRANCH  26  27
ATOM     27  C   UNL A   1      31.830  30.715  26.184  1.00  0.00     0.261 C 
BRANCH  27  28
ATOM     28  O   UNL A   1      32.680  30.728  27.340  1.00  0.00    -0.460 OA
BRANCH  28  29
ATOM     29  C   UNL A   1      33.367  31.857  27.541  1.00  0.00     0.338 C 
ATOM     30  O   UNL A   1      32.889  32.976  27.629  1.00  0.00    -0.246 OA
BRANCH  29  31
ATOM     31  C   UNL A   1      34.798  31.567  27.819  1.00  0.00     0.060 A 
ATOM     32  C   UNL A   1      35.107  30.213  27.981  1.00  0.00     0.016 A 
ATOM     33  C   UNL A   1      35.805  32.531  27.978  1.00  0.00     0.016 A 
ATOM     34  C   UNL A   1      36.366  29.819  28.415  1.00  0.00     0.010 A 
ATOM     35  C   UNL A   1      37.082  32.131  28.420  1.00  0.00     0.010 A 
ATOM     36  C   UNL A   1      37.345  30.777  28.702  1.00  0.00    -0.014 A 
BRANCH  36  37
ATOM     37  C   UNL A   1      38.525  30.337  29.492  1.00  0.00     0.031 A 
ATOM     38  C   UNL A   1      38.652  30.794  30.924  1.00  0.00     0.074 A 
ATOM     39  C   UNL A   1      39.393  29.431  29.006  1.00  0.00     0.049 A 
ATOM     40  N   UNL A   1      39.538  30.462  31.829  1.00  0.00    -0.248 NA
ATOM     41  C   UNL A   1      37.636  31.746  31.401  1.00  0.00     0.031 C 
ATOM     42  C   UNL A   1      39.348  28.854  27.665  1.00  0.00     0.029 A 
ATOM     43  N   UNL A   1      40.472  28.822  29.599  1.00  0.00    -0.354 N 
ATOM     44  C   UNL A   1      39.189  31.165  32.977  1.00  0.00     0.074 A 
ATOM     45  C   UNL A   1      38.032  31.967  32.645  1.00  0.00     0.031 C 
ATOM     46  C   UNL A   1      40.354  27.972  27.536  1.00  0.00     0.029 A 
ATOM     47  C   UNL A   1      41.130  27.942  28.774  1.00  0.00     0.049 A 
ATOM     48  H   UNL A   1      40.749  28.999  30.526  1.00  0.00     0.167 HD
ATOM     49  C   UNL A   1      39.768  31.138  34.201  1.00  0.00     0.037 A 
ATOM     50  C   UNL A   1      42.239  27.206  28.990  1.00  0.00     0.037 A 
ATOM     51  C   UNL A   1      40.915  30.335  34.539  1.00  0.00     0.049 A 
ATOM     52  C   UNL A   1      42.916  27.254  30.335  1.00  0.00     0.074 A 
ATOM     53  C   UNL A   1      41.562  30.229  35.758  1.00  0.00     0.029 A 
ATOM     54  N   UNL A   1      41.592  29.509  33.655  1.00  0.00    -0.354 N 
ATOM     55  N   UNL A   1      42.564  27.908  31.417  1.00  0.00    -0.248 NA
ATOM     56  C   UNL A   1      44.143  26.459  30.491  1.00  0.00     0.031 C 
ATOM     57  C   UNL A   1      42.668  29.390  35.595  1.00  0.00     0.029 A 
ATOM     58  C   UNL A   1      42.671  28.918  34.292  1.00  0.00     0.049 A 
ATOM     59  H   UNL A   1      41.343  29.365  32.714  1.00  0.00     0.167 HD
ATOM     60  C   UNL A   1      43.505  27.576  32.386  1.00  0.00     0.074 A 
ATOM     61  C   UNL A   1      44.435  26.655  31.768  1.00  0.00     0.031 C 
ATOM     62  C   UNL A   1      43.589  27.997  33.673  1.00  0.00     0.037 A 
BRANCH  49  63
ATOM     63  C   UNL A   1      39.195  32.034  35.260  1.00  0.00     0.057 A 
ATOM     64  C   UNL A   1      38.309  31.562  36.239  1.00  0.00     0.134 A 
ATOM     65  C   UNL A   1      39.565  33.384  35.323  1.00  0.00     0.134 A 
ATOM     66  F   UNL A   1      37.904  30.283  36.229  1.00  0.00    -0.206 F 
ATOM     67  C   UNL A   1      37.794  32.406  37.225  1.00  0.00     0.040 A 
ATOM     68  C   UNL A   1      39.081  34.230  36.321  1.00  0.00     0.040 A 
ATOM     69  F   UNL A   1      40.413  33.900  34.420  1.00  0.00    -0.206 F 
ATOM     70  C   UNL A   1      38.187  33.742  37.273  1.00  0.00     0.006 A 
ENDBRANCH  49  63
BRANCH  50  71
ATOM     71  C   UNL A   1      42.799  26.369  27.896  1.00  0.00     0.057 A 
ATOM     72  C   UNL A   1      42.467  25.016  27.766  1.00  0.00     0.134 A 
ATOM     73  C   UNL A   1      43.709  26.899  26.973  1.00  0.00     0.134 A 
ATOM     74  F   UNL A   1      41.621  24.441  28.635  1.00  0.00    -0.206 F 
ATOM     75  C   UNL A   1      43.031  24.216  26.771  1.00  0.00     0.040 A 
ATOM     76  C   UNL A   1      44.261  26.119  25.955  1.00  0.00     0.040 A 
ATOM     77  F   UNL A   1      44.071  28.189  27.043  1.00  0.00    -0.206 F 
ATOM     78  C   UNL A   1      43.928  24.770  25.858  1.00  0.00     0.006 A 
ENDBRANCH  50  71
BRANCH  62  79
ATOM     79  C   UNL A   1      44.699  27.435  34.518  1.00  0.00     0.057 A 
ATOM     80  C   UNL A   1      45.934  28.083  34.652  1.00  0.00     0.134 A 
ATOM     81  C   UNL A   1      44.512  26.250  35.242  1.00  0.00     0.134 A 
ATOM     82  F   UNL A   1      46.184  29.218  33.981  1.00  0.00    -0.206 F 
ATOM     83  C   UNL A   1      46.951  27.559  35.454  1.00  0.00     0.040 A 
ATOM     84  C   UNL A   1      45.509  25.732  36.071  1.00  0.00     0.040 A 
ATOM     85  F   UNL A   1      43.350  25.583  35.170  1.00  0.00    -0.206 F 
ATOM     86  C   UNL A   1      46.736  26.384  36.172  1.00  0.00     0.006 A 
ENDBRANCH  62  79
ENDBRANCH  36  37
ENDBRANCH  29  31
ENDBRANCH  28  29
ENDBRANCH  27  28
ENDBRANCH  26  27
ENDBRANCH   1  26
TORSDOF 17
ENDMDL
MODEL 3
REMARK VINA RESULT:     -12.1      1.337      2.681
REMARK SMILES CO[C@H]1C[C@@H](C(=O)OCCOCCOC(=O)c2ccc(-c3c4nc(c(-c5c(F)cccc5F)c5ccc([nH]5)c(-c5c(F)cccc5F)c5nc(c(-c6c(F)cccc6F)c6ccc3[nH]6)C=C5)C=C4)cc2)N(C(=O)Nc2cc(C)cc(F)c2)C1
REMARK SMILES IDX 11 1 10 2 9 3 8 4 6 5 7 6 5 7 3 8 4 9 83 10 71 11 2 12 1 13
REMARK SMILES IDX 72 14 73 15 74 16 75 18 76 19 82 20 77 21 80 22 78 23 79 24
REMARK SMILES IDX 81 25 12 26 13 27 14 28 15 29 16 30 17 31 18 32 70 33 19 34
REMARK SMILES IDX 69 35 20 36 21 37 22 38 63 39 23 40 68 41 62 42 64 43 24 44
REMARK SMILES IDX 67 45 61 46 60 47 25 49 51 50 34 51 50 52 35 53 38 54 49 55
REMARK SMILES IDX 65 56 36 57 37 58 48 60 66 61 39 62 26 63 27 64 32 65 28 66
REMARK SMILES IDX 29 67 31 68 33 69 30 70 52 71 53 72 58 73 54 74 55 75 57 76
REMARK SMILES IDX 59 77 56 78 40 79 41 80 46 81 42 82 43 83 45 84 47 85 44 86
REMARK H PARENT 74 17 64 48 38 59
REMARK Flexibility Score: inf
ROOT
ATOM      1  O   UNL A   1      32.020  30.375  26.826  1.00  0.00    -0.374 OA
ENDROOT
BRANCH   1   2
ATOM      2  C   UNL A   1      33.347  29.935  26.492  1.00  0.00     0.202 C 
BRANCH   2   3
ATOM      3  C   UNL A   1      34.039  28.345  26.839  1.00  0.00     0.261 C 
BRANCH   3   4
ATOM      4  O   UNL A   1      33.303  26.510  26.335  1.00  0.00    -0.462 OA
BRANCH   4   5
ATOM      5  C   UNL A   1      33.638  25.105  25.879  1.00  0.00     0.329 C 
ATOM      6  O   UNL A   1      34.111  24.792  24.775  1.00  0.00    -0.250 OA
BRANCH   5   7
ATOM      7  C   UNL A   1      32.985  23.999  26.650  1.00  0.00     0.199 C 
ATOM      8  C   UNL A   1      33.019  21.808  25.429  1.00  0.00     0.140 C 
ATOM      9  C   UNL A   1      33.880  22.729  26.307  1.00  0.00     0.071 C 
ATOM     10  C   UNL A   1      31.604  22.202  25.818  1.00  0.00     0.154 C 
ATOM     11  N   UNL A   1      31.640  23.618  26.151  1.00  0.00    -0.308 N 
BRANCH   8  12
ATOM     12  O   UNL A   1      33.138  22.001  24.014  1.00  0.00    -0.380 OA
ATOM     13  C   UNL A   1      32.373  21.123  23.200  1.00  0.00     0.195 C 
ENDBRANCH   8  12
BRANCH  11  14
ATOM     14  C   UNL A   1      30.437  24.260  26.257  1.00  0.00     0.322 C 
ATOM     15  O   UNL A   1      29.695  24.058  27.224  1.00  0.00    -0.248 OA
ATOM     16  N   UNL A   1      30.020  25.181  25.355  1.00  0.00    -0.308 N 
ATOM     17  H   UNL A   1      29.225  25.700  25.618  1.00  0.00     0.171 HD
BRANCH  16  18
ATOM     18  C   UNL A   1      30.553  25.498  24.110  1.00  0.00     0.046 A 
ATOM     19  C   UNL A   1      31.281  27.124  24.098  1.00  0.00     0.029 A 
ATOM     20  C   UNL A   1      31.148  24.235  22.964  1.00  0.00     0.065 A 
ATOM     21  C   UNL A   1      32.686  27.500  23.089  1.00  0.00    -0.046 A 
ATOM     22  C   UNL A   1      32.639  24.637  21.932  1.00  0.00     0.125 A 
ATOM     23  C   UNL A   1      33.114  28.935  22.980  1.00  0.00     0.044 C 
ATOM     24  C   UNL A   1      33.381  26.274  22.009  1.00  0.00     0.042 A 
ATOM     25  F   UNL A   1      33.417  23.665  21.469  1.00  0.00    -0.207 F 
ENDBRANCH  16  18
ENDBRANCH  11  14
ENDBRANCH   5   7
ENDBRANCH   4   5
ENDBRANCH   3   4
ENDBRANCH   2   3
ENDBRANCH   1   2
BRANCH   1  26
ATOM     26  C   UNL A   1      31.411  31.632  26.487  1.00  0.00     0.202 C 
BRANCH  26  27
ATOM     27  C   UNL A   1      31.909  33.065  26.872  1.00  0.00     0.261 C 
BRANCH  27  28
ATOM     28  O   UNL A   1      32.190  33.367  28.246  1.00  0.00    -0.460 OA
BRANCH  28  29
ATOM     29  C   UNL A   1      33.208  34.209  28.457  1.00  0.00     0.338 C 
ATOM     30  O   UNL A   1      33.110  35.403  28.684  1.00  0.00    -0.246 OA
BRANCH  29  31
ATOM     31  C   UNL A   1      34.496  33.472  28.552  1.00  0.00     0.060 A 
ATOM     32  C   UNL A   1      34.407  32.193  29.110  1.00  0.00     0.016 A 
ATOM     33  C   UNL A   1      35.750  33.981  28.183  1.00  0.00     0.016 A 
ATOM     34  C   UNL A   1      35.553  31.471  29.416  1.00  0.00     0.010 A 
ATOM     35  C   UNL A   1      36.913  33.249  28.495  1.00  0.00     0.010 A 
ATOM     36  C   UNL A   1      36.818  32.019  29.172  1.00  0.00    -0.014 A 
BRANCH  36  37
ATOM     37  C   UNL A   1      37.984  31.377  29.836  1.00  0.00     0.031 A 
ATOM     38  C   UNL A   1      38.247  31.678  31.291  1.00  0.00     0.074 A 
ATOM     39  C   UNL A   1      38.708  30.430  29.212  1.00  0.00     0.049 A 
ATOM     40  N   UNL A   1      39.140  31.164  32.098  1.00  0.00    -0.248 NA
ATOM     41  C   UNL A   1      37.380  32.686  31.920  1.00  0.00     0.031 C 
ATOM     42  C   UNL A   1      38.517  29.993  27.832  1.00  0.00     0.029 A 
ATOM     43  N   UNL A   1      39.742  29.651  29.672  1.00  0.00    -0.354 N 
ATOM     44  C   UNL A   1      38.945  31.788  33.326  1.00  0.00     0.074 A 
ATOM     45  C   UNL A   1      37.872  32.742  33.148  1.00  0.00     0.031 C 
ATOM     46  C   UNL A   1      39.403  29.021  27.555  1.00  0.00     0.029 A 
ATOM     47  C   UNL A   1      40.243  28.786  28.728  1.00  0.00     0.049 A 
ATOM     48  H   UNL A   1      40.092  29.707  30.590  1.00  0.00     0.167 HD
ATOM     49  C   UNL A   1      39.589  31.579  34.499  1.00  0.00     0.037 A 
ATOM     50  C   UNL A   1      41.269  27.915  28.800  1.00  0.00     0.037 A 
ATOM     51  C   UNL A   1      40.651  30.625  34.684  1.00  0.00     0.049 A 
ATOM     52  C   UNL A   1      42.025  27.758  30.094  1.00  0.00     0.074 A 
ATOM     53  C   UNL A   1      41.352  30.331  35.840  1.00  0.00     0.029 A 
ATOM     54  N   UNL A   1      41.173  29.818  33.685  1.00  0.00    -0.354 N 
ATOM     55  N   UNL A   1      41.817  28.340  31.251  1.00  0.00    -0.248 NA
ATOM     56  C   UNL A   1      43.157  26.820  30.093  1.00  0.00     0.031 C 
ATOM     57  C   UNL A   1      42.341  29.394  35.527  1.00  0.00     0.029 A 
ATOM     58  C   UNL A   1      42.211  29.051  34.191  1.00  0.00     0.049 A 
ATOM     59  H   UNL A   1      40.854  29.793  32.754  1.00  0.00     0.167 HD
ATOM     60  C   UNL A   1      42.768  27.815  32.120  1.00  0.00     0.074 A 
ATOM     61  C   UNL A   1      43.545  26.859  31.359  1.00  0.00     0.031 C 
ATOM     62  C   UNL A   1      42.977  28.098  33.429  1.00  0.00     0.037 A 
BRANCH  49  63
ATOM     63  C   UNL A   1      39.188  32.428  35.671  1.00  0.00     0.057 A 
ATOM     64  C   UNL A   1      39.672  33.730  35.850  1.00  0.00     0.134 A 
ATOM     65  C   UNL A   1      38.273  31.944  36.616  1.00  0.00     0.134 A 
ATOM     66  F   UNL A   1      40.561  34.250  34.990  1.00  0.00    -0.206 F 
ATOM     67  C   UNL A   1      39.281  34.511  36.940  1.00  0.00     0.040 A 
ATOM     68  C   UNL A   1      37.851  32.725  37.692  1.00  0.00     0.040 A 
ATOM     69  F   UNL A   1      37.766  30.707  36.501  1.00  0.00    -0.206 F 
ATOM     70  C   UNL A   1      38.361  34.011  37.860  1.00  0.00     0.006 A 
ENDBRANCH  49  63
BRANCH  50  71
ATOM     71  C   UNL A   1      41.660  27.129  27.601  1.00  0.00     0.057 A 
ATOM     72  C   UNL A   1      42.508  27.660  26.622  1.00  0.00     0.134 A 
ATOM     73  C   UNL A   1      41.164  25.837  27.390  1.00  0.00     0.134 A 
ATOM     74  F   UNL A   1      42.996  28.903  26.752  1.00  0.00    -0.206 F 
ATOM     75  C   UNL A   1      42.835  26.942  25.470  1.00  0.00     0.040 A 
ATOM     76  C   UNL A   1      41.505  25.096  26.256  1.00  0.00     0.040 A 
ATOM     77  F   UNL A   1      40.345  25.270  28.289  1.00  0.00    -0.206 F 
ATOM     78  C   UNL A   1      42.337  25.653  25.288  1.00  0.00     0.006 A 
ENDBRANCH  50  71
BRANCH  62  79
ATOM     79  C   UNL A   1      44.061  27.338  34.142  1.00  0.00     0.057 A 
ATOM     80  C   UNL A   1      45.364  27.839  34.266  1.00  0.00     0.134 A 
ATOM     81  C   UNL A   1      43.785  26.106  34.750  1.00  0.00     0.134 A 
ATOM     82  F   UNL A   1      45.700  29.008  33.701  1.00  0.00    -0.206 F 
ATOM     83  C   UNL A   1      46.358  27.130  34.945  1.00  0.00     0.040 A 
ATOM     84  C   UNL A   1      44.762  25.403  35.458  1.00  0.00     0.040 A 
ATOM     85  F   UNL A   1      42.556  25.572  34.681  1.00  0.00    -0.206 F 
ATOM     86  C   UNL A   1      46.055  25.911  35.550  1.00  0.00     0.006 A 
ENDBRANCH  62  79
ENDBRANCH  36  37
ENDBRANCH  29  31
ENDBRANCH  28  29
ENDBRANCH  27  28
ENDBRANCH  26  27
ENDBRANCH   1  26
TORSDOF 17
ENDMDL
