MODEL 1
REMARK VINA RESULT:     -11.9      0.000      0.000
REMARK SMILES O=C(CSc1ccc(NC(=O)c2cccc3ccccc23)cc1)OCCOCCOC(=O)c1ccc(-c2c3nc(c(-c4c(F)cccc4F)c4ccc([nH]4)c(-c4c(F)cccc4F)c4nc(c(-c5c(F)cccc5F)c5ccc2[nH]5)C=C4)C=C3)cc1
REMARK SMILES IDX 26 1 25 2 24 3 2 4 1 5 3 6 4 7 5 8 6 9 23 10 7 11 22 12 8 13
REMARK SMILES IDX 9 14 10 15 11 17 12 18 13 19 21 20 14 21 16 22 20 23 15 24
REMARK SMILES IDX 17 25 19 26 18 27 27 28 28 29 29 30 30 31 31 32 32 33 33 34
REMARK SMILES IDX 34 35 86 36 35 37 85 38 36 39 37 40 38 41 79 42 39 43 84 44
REMARK SMILES IDX 78 45 80 46 40 47 83 48 77 49 76 50 41 52 67 53 50 54 66 55
REMARK SMILES IDX 51 56 54 57 65 58 81 59 52 60 53 61 64 63 82 64 55 65 42 66
REMARK SMILES IDX 43 67 48 68 44 69 45 70 47 71 49 72 46 73 68 74 69 75 74 76
REMARK SMILES IDX 70 77 71 78 73 79 75 80 72 81 56 82 57 83 62 84 58 85 59 86
REMARK SMILES IDX 61 87 63 88 60 89
REMARK H PARENT 9 16 80 51 54 62
REMARK Flexibility Score: inf
ROOT
ATOM      1  C   UNL A   1      32.903  36.240  32.329  1.00  0.00     0.202 C 
ENDROOT
BRANCH   1   2
ATOM      2  C   UNL A   1      32.909  36.326  30.804  1.00  0.00     0.261 C 
BRANCH   2   3
ATOM      3  O   UNL A   1      32.955  35.035  30.181  1.00  0.00    -0.463 OA
BRANCH   3   4
ATOM      4  C   UNL A   1      33.527  34.818  28.975  1.00  0.00     0.316 C 
ATOM      5  O   UNL A   1      34.290  35.669  28.513  1.00  0.00    -0.251 OA
BRANCH   4   6
ATOM      6  C   UNL A   1      33.178  33.584  28.167  1.00  0.00     0.197 C 
BRANCH   6   7
ATOM      7  S   UNL A   1      34.564  32.476  27.771  1.00  0.00    -0.114 SA
BRANCH   7   8
ATOM      8  C   UNL A   1      33.743  30.946  27.399  1.00  0.00     0.008 A 
ATOM      9  C   UNL A   1      34.349  29.700  27.541  1.00  0.00     0.017 A 
ATOM     10  C   UNL A   1      32.417  31.009  26.965  1.00  0.00     0.017 A 
ATOM     11  C   UNL A   1      33.607  28.532  27.397  1.00  0.00     0.027 A 
ATOM     12  C   UNL A   1      31.679  29.838  26.796  1.00  0.00     0.027 A 
ATOM     13  C   UNL A   1      32.253  28.601  27.100  1.00  0.00     0.041 A 
BRANCH  13  14
ATOM     14  N   UNL A   1      31.399  27.497  27.137  1.00  0.00    -0.322 N 
ATOM     15  C   UNL A   1      31.170  26.485  26.238  1.00  0.00     0.256 C 
ATOM     16  H   UNL A   1      30.860  27.434  27.958  1.00  0.00     0.170 HD
ATOM     17  O   UNL A   1      30.262  25.687  26.482  1.00  0.00    -0.269 OA
BRANCH  15  18
ATOM     18  C   UNL A   1      31.951  26.271  24.995  1.00  0.00     0.048 A 
ATOM     19  C   UNL A   1      31.405  26.905  23.866  1.00  0.00     0.014 A 
ATOM     20  C   UNL A   1      33.076  25.397  24.871  1.00  0.00    -0.006 A 
ATOM     21  C   UNL A   1      31.915  26.652  22.599  1.00  0.00     0.001 A 
ATOM     22  C   UNL A   1      33.539  25.114  23.559  1.00  0.00    -0.018 A 
ATOM     23  C   UNL A   1      33.790  24.800  25.941  1.00  0.00     0.009 A 
ATOM     24  C   UNL A   1      32.947  25.732  22.447  1.00  0.00     0.009 A 
ATOM     25  C   UNL A   1      34.610  24.228  23.354  1.00  0.00     0.009 A 
ATOM     26  C   UNL A   1      34.923  24.008  25.722  1.00  0.00     0.001 A 
ATOM     27  C   UNL A   1      35.315  23.698  24.429  1.00  0.00     0.001 A 
ENDBRANCH  15  18
ENDBRANCH  13  14
ENDBRANCH   7   8
ENDBRANCH   6   7
ENDBRANCH   4   6
ENDBRANCH   3   4
ENDBRANCH   2   3
ENDBRANCH   1   2
BRANCH   1  28
ATOM     28  O   UNL A   1      33.630  35.144  32.881  1.00  0.00    -0.374 OA
BRANCH  28  29
ATOM     29  C   UNL A   1      34.998  35.415  33.214  1.00  0.00     0.202 C 
BRANCH  29  30
ATOM     30  C   UNL A   1      36.018  34.564  32.457  1.00  0.00     0.261 C 
BRANCH  30  31
ATOM     31  O   UNL A   1      36.000  33.212  32.940  1.00  0.00    -0.460 OA
BRANCH  31  32
ATOM     32  C   UNL A   1      35.437  32.316  32.093  1.00  0.00     0.338 C 
ATOM     33  O   UNL A   1      34.285  32.276  31.710  1.00  0.00    -0.246 OA
BRANCH  32  34
ATOM     34  C   UNL A   1      36.515  31.492  31.512  1.00  0.00     0.060 A 
ATOM     35  C   UNL A   1      37.448  30.927  32.393  1.00  0.00     0.016 A 
ATOM     36  C   UNL A   1      36.606  31.276  30.136  1.00  0.00     0.016 A 
ATOM     37  C   UNL A   1      38.517  30.191  31.893  1.00  0.00     0.010 A 
ATOM     38  C   UNL A   1      37.683  30.549  29.635  1.00  0.00     0.010 A 
ATOM     39  C   UNL A   1      38.662  30.047  30.510  1.00  0.00    -0.014 A 
BRANCH  39  40
ATOM     40  C   UNL A   1      39.942  29.562  29.954  1.00  0.00     0.031 A 
ATOM     41  C   UNL A   1      41.066  30.548  29.814  1.00  0.00     0.074 A 
ATOM     42  C   UNL A   1      40.087  28.284  29.573  1.00  0.00     0.049 A 
ATOM     43  N   UNL A   1      42.235  30.401  29.251  1.00  0.00    -0.248 NA
ATOM     44  C   UNL A   1      40.828  31.890  30.373  1.00  0.00     0.031 C 
ATOM     45  C   UNL A   1      39.069  27.243  29.700  1.00  0.00     0.029 A 
ATOM     46  N   UNL A   1      41.147  27.654  28.974  1.00  0.00    -0.354 N 
ATOM     47  C   UNL A   1      42.863  31.633  29.368  1.00  0.00     0.074 A 
ATOM     48  C   UNL A   1      41.936  32.526  30.027  1.00  0.00     0.031 C 
ATOM     49  C   UNL A   1      39.546  26.105  29.166  1.00  0.00     0.029 A 
ATOM     50  C   UNL A   1      40.881  26.354  28.626  1.00  0.00     0.049 A 
ATOM     51  H   UNL A   1      42.013  28.092  28.809  1.00  0.00     0.167 HD
ATOM     52  C   UNL A   1      44.104  31.985  28.962  1.00  0.00     0.037 A 
ATOM     53  C   UNL A   1      41.623  25.482  27.916  1.00  0.00     0.037 A 
ATOM     54  C   UNL A   1      45.011  31.082  28.305  1.00  0.00     0.049 A 
ATOM     55  C   UNL A   1      42.978  25.911  27.420  1.00  0.00     0.074 A 
ATOM     56  C   UNL A   1      46.305  31.319  27.881  1.00  0.00     0.029 A 
ATOM     57  N   UNL A   1      44.708  29.771  27.968  1.00  0.00    -0.354 N 
ATOM     58  N   UNL A   1      43.583  27.067  27.563  1.00  0.00    -0.248 NA
ATOM     59  C   UNL A   1      43.754  24.917  26.666  1.00  0.00     0.031 C 
ATOM     60  C   UNL A   1      46.763  30.169  27.230  1.00  0.00     0.029 A 
ATOM     61  C   UNL A   1      45.779  29.195  27.309  1.00  0.00     0.049 A 
ATOM     62  H   UNL A   1      43.858  29.318  28.168  1.00  0.00     0.167 HD
ATOM     63  C   UNL A   1      44.820  26.931  26.945  1.00  0.00     0.074 A 
ATOM     64  C   UNL A   1      44.881  25.577  26.433  1.00  0.00     0.031 C 
ATOM     65  C   UNL A   1      45.818  27.841  26.815  1.00  0.00     0.037 A 
BRANCH  52  66
ATOM     66  C   UNL A   1      44.528  33.409  29.180  1.00  0.00     0.057 A 
ATOM     67  C   UNL A   1      44.258  34.421  28.248  1.00  0.00     0.134 A 
ATOM     68  C   UNL A   1      45.213  33.774  30.346  1.00  0.00     0.134 A 
ATOM     69  F   UNL A   1      43.621  34.139  27.102  1.00  0.00    -0.206 F 
ATOM     70  C   UNL A   1      44.679  35.737  28.456  1.00  0.00     0.040 A 
ATOM     71  C   UNL A   1      45.611  35.091  30.579  1.00  0.00     0.040 A 
ATOM     72  F   UNL A   1      45.505  32.857  31.280  1.00  0.00    -0.206 F 
ATOM     73  C   UNL A   1      45.352  36.076  29.628  1.00  0.00     0.006 A 
ENDBRANCH  52  66
BRANCH  53  74
ATOM     74  C   UNL A   1      41.086  24.130  27.619  1.00  0.00     0.057 A 
ATOM     75  C   UNL A   1      40.087  23.938  26.659  1.00  0.00     0.134 A 
ATOM     76  C   UNL A   1      41.568  22.995  28.285  1.00  0.00     0.134 A 
ATOM     77  F   UNL A   1      39.573  24.988  26.001  1.00  0.00    -0.206 F 
ATOM     78  C   UNL A   1      39.575  22.670  26.381  1.00  0.00     0.040 A 
ATOM     79  C   UNL A   1      41.085  21.718  27.996  1.00  0.00     0.040 A 
ATOM     80  F   UNL A   1      42.531  23.110  29.211  1.00  0.00    -0.206 F 
ATOM     81  C   UNL A   1      40.080  21.554  27.046  1.00  0.00     0.006 A 
ENDBRANCH  53  74
BRANCH  65  82
ATOM     82  C   UNL A   1      47.076  27.392  26.129  1.00  0.00     0.057 A 
ATOM     83  C   UNL A   1      47.242  27.489  24.741  1.00  0.00     0.134 A 
ATOM     84  C   UNL A   1      48.161  26.917  26.879  1.00  0.00     0.134 A 
ATOM     85  F   UNL A   1      46.238  27.925  23.966  1.00  0.00    -0.206 F 
ATOM     86  C   UNL A   1      48.435  27.112  24.123  1.00  0.00     0.040 A 
ATOM     87  C   UNL A   1      49.368  26.567  26.276  1.00  0.00     0.040 A 
ATOM     88  F   UNL A   1      48.071  26.811  28.213  1.00  0.00    -0.206 F 
ATOM     89  C   UNL A   1      49.506  26.659  24.892  1.00  0.00     0.006 A 
ENDBRANCH  65  82
ENDBRANCH  39  40
ENDBRANCH  32  34
ENDBRANCH  31  32
ENDBRANCH  30  31
ENDBRANCH  29  30
ENDBRANCH  28  29
ENDBRANCH   1  28
TORSDOF 18
ENDMDL
MODEL 2
REMARK VINA RESULT:     -11.7      5.023     10.135
REMARK SMILES O=C(CSc1ccc(NC(=O)c2cccc3ccccc23)cc1)OCCOCCOC(=O)c1ccc(-c2c3nc(c(-c4c(F)cccc4F)c4ccc([nH]4)c(-c4c(F)cccc4F)c4nc(c(-c5c(F)cccc5F)c5ccc2[nH]5)C=C4)C=C3)cc1
REMARK SMILES IDX 26 1 25 2 24 3 2 4 1 5 3 6 4 7 5 8 6 9 23 10 7 11 22 12 8 13
REMARK SMILES IDX 9 14 10 15 11 17 12 18 13 19 21 20 14 21 16 22 20 23 15 24
REMARK SMILES IDX 17 25 19 26 18 27 27 28 28 29 29 30 30 31 31 32 32 33 33 34
REMARK SMILES IDX 34 35 86 36 35 37 85 38 36 39 37 40 38 41 79 42 39 43 84 44
REMARK SMILES IDX 78 45 80 46 40 47 83 48 77 49 76 50 41 52 67 53 50 54 66 55
REMARK SMILES IDX 51 56 54 57 65 58 81 59 52 60 53 61 64 63 82 64 55 65 42 66
REMARK SMILES IDX 43 67 48 68 44 69 45 70 47 71 49 72 46 73 68 74 69 75 74 76
REMARK SMILES IDX 70 77 71 78 73 79 75 80 72 81 56 82 57 83 62 84 58 85 59 86
REMARK SMILES IDX 61 87 63 88 60 89
REMARK H PARENT 9 16 80 51 54 62
REMARK Flexibility Score: inf
ROOT
ATOM      1  C   UNL A   1      41.215  21.028  27.477  1.00  0.00     0.202 C 
ENDROOT
BRANCH   1   2
ATOM      2  C   UNL A   1      40.364  21.295  26.238  1.00  0.00     0.261 C 
BRANCH   2   3
ATOM      3  O   UNL A   1      38.973  21.456  26.550  1.00  0.00    -0.463 OA
BRANCH   3   4
ATOM      4  C   UNL A   1      38.112  22.127  25.753  1.00  0.00     0.316 C 
ATOM      5  O   UNL A   1      37.901  23.321  25.972  1.00  0.00    -0.251 OA
BRANCH   4   6
ATOM      6  C   UNL A   1      37.358  21.406  24.652  1.00  0.00     0.197 C 
BRANCH   6   7
ATOM      7  S   UNL A   1      35.675  20.860  25.069  1.00  0.00    -0.114 SA
BRANCH   7   8
ATOM      8  C   UNL A   1      34.664  22.095  24.293  1.00  0.00     0.008 A 
ATOM      9  C   UNL A   1      35.124  23.372  23.977  1.00  0.00     0.017 A 
ATOM     10  C   UNL A   1      33.350  21.750  23.968  1.00  0.00     0.017 A 
ATOM     11  C   UNL A   1      34.344  24.239  23.220  1.00  0.00     0.027 A 
ATOM     12  C   UNL A   1      32.557  22.629  23.231  1.00  0.00     0.027 A 
ATOM     13  C   UNL A   1      33.090  23.840  22.780  1.00  0.00     0.041 A 
BRANCH  13  14
ATOM     14  N   UNL A   1      32.331  24.562  21.857  1.00  0.00    -0.322 N 
ATOM     15  C   UNL A   1      31.976  25.886  21.799  1.00  0.00     0.256 C 
ATOM     16  H   UNL A   1      31.986  24.021  21.110  1.00  0.00     0.170 HD
ATOM     17  O   UNL A   1      31.191  26.238  20.915  1.00  0.00    -0.269 OA
BRANCH  15  18
ATOM     18  C   UNL A   1      32.482  26.935  22.718  1.00  0.00     0.048 A 
ATOM     19  C   UNL A   1      33.467  27.761  22.149  1.00  0.00     0.014 A 
ATOM     20  C   UNL A   1      32.141  27.049  24.101  1.00  0.00    -0.006 A 
ATOM     21  C   UNL A   1      34.166  28.668  22.934  1.00  0.00     0.001 A 
ATOM     22  C   UNL A   1      32.912  27.944  24.890  1.00  0.00    -0.018 A 
ATOM     23  C   UNL A   1      31.087  26.366  24.760  1.00  0.00     0.009 A 
ATOM     24  C   UNL A   1      33.916  28.727  24.301  1.00  0.00     0.009 A 
ATOM     25  C   UNL A   1      32.667  28.076  26.268  1.00  0.00     0.009 A 
ATOM     26  C   UNL A   1      30.787  26.593  26.109  1.00  0.00     0.001 A 
ATOM     27  C   UNL A   1      31.596  27.425  26.869  1.00  0.00     0.001 A 
ENDBRANCH  15  18
ENDBRANCH  13  14
ENDBRANCH   7   8
ENDBRANCH   6   7
ENDBRANCH   4   6
ENDBRANCH   3   4
ENDBRANCH   2   3
ENDBRANCH   1   2
BRANCH   1  28
ATOM     28  O   UNL A   1      42.623  21.180  27.294  1.00  0.00    -0.374 OA
BRANCH  28  29
ATOM     29  C   UNL A   1      43.136  20.716  26.038  1.00  0.00     0.202 C 
BRANCH  29  30
ATOM     30  C   UNL A   1      43.972  21.744  25.274  1.00  0.00     0.261 C 
BRANCH  30  31
ATOM     31  O   UNL A   1      43.223  22.952  25.076  1.00  0.00    -0.460 OA
BRANCH  31  32
ATOM     32  C   UNL A   1      43.951  24.091  25.170  1.00  0.00     0.338 C 
ATOM     33  O   UNL A   1      44.933  24.402  24.527  1.00  0.00    -0.246 OA
BRANCH  32  34
ATOM     34  C   UNL A   1      43.226  25.029  26.050  1.00  0.00     0.060 A 
ATOM     35  C   UNL A   1      43.573  26.386  25.981  1.00  0.00     0.016 A 
ATOM     36  C   UNL A   1      42.227  24.589  26.920  1.00  0.00     0.016 A 
ATOM     37  C   UNL A   1      42.963  27.302  26.830  1.00  0.00     0.010 A 
ATOM     38  C   UNL A   1      41.625  25.505  27.778  1.00  0.00     0.010 A 
ATOM     39  C   UNL A   1      42.025  26.852  27.765  1.00  0.00    -0.014 A 
BRANCH  39  40
ATOM     40  C   UNL A   1      41.616  27.735  28.876  1.00  0.00     0.031 A 
ATOM     41  C   UNL A   1      42.374  27.634  30.169  1.00  0.00     0.074 A 
ATOM     42  C   UNL A   1      40.590  28.587  28.737  1.00  0.00     0.049 A 
ATOM     43  N   UNL A   1      42.137  28.208  31.318  1.00  0.00    -0.248 NA
ATOM     44  C   UNL A   1      43.552  26.750  30.166  1.00  0.00     0.031 C 
ATOM     45  C   UNL A   1      39.815  28.784  27.514  1.00  0.00     0.029 A 
ATOM     46  N   UNL A   1      40.008  29.428  29.650  1.00  0.00    -0.354 N 
ATOM     47  C   UNL A   1      43.121  27.739  32.178  1.00  0.00     0.074 A 
ATOM     48  C   UNL A   1      43.939  26.812  31.430  1.00  0.00     0.031 C 
ATOM     49  C   UNL A   1      38.836  29.672  27.761  1.00  0.00     0.029 A 
ATOM     50  C   UNL A   1      38.896  30.068  29.166  1.00  0.00     0.049 A 
ATOM     51  H   UNL A   1      40.355  29.559  30.562  1.00  0.00     0.167 HD
ATOM     52  C   UNL A   1      43.321  28.059  33.477  1.00  0.00     0.037 A 
ATOM     53  C   UNL A   1      38.007  30.853  29.805  1.00  0.00     0.037 A 
ATOM     54  C   UNL A   1      42.494  28.983  34.205  1.00  0.00     0.049 A 
ATOM     55  C   UNL A   1      38.213  31.150  31.267  1.00  0.00     0.074 A 
ATOM     56  C   UNL A   1      42.624  29.410  35.514  1.00  0.00     0.029 A 
ATOM     57  N   UNL A   1      41.374  29.615  33.684  1.00  0.00    -0.354 N 
ATOM     58  N   UNL A   1      39.164  30.733  32.069  1.00  0.00    -0.248 NA
ATOM     59  C   UNL A   1      37.225  32.026  31.912  1.00  0.00     0.031 C 
ATOM     60  C   UNL A   1      41.544  30.250  35.804  1.00  0.00     0.029 A 
ATOM     61  C   UNL A   1      40.781  30.401  34.656  1.00  0.00     0.049 A 
ATOM     62  H   UNL A   1      41.049  29.517  32.760  1.00  0.00     0.167 HD
ATOM     63  C   UNL A   1      38.908  31.318  33.303  1.00  0.00     0.074 A 
ATOM     64  C   UNL A   1      37.716  32.125  33.140  1.00  0.00     0.031 C 
ATOM     65  C   UNL A   1      39.597  31.202  34.466  1.00  0.00     0.037 A 
BRANCH  52  66
ATOM     66  C   UNL A   1      44.448  27.373  34.195  1.00  0.00     0.057 A 
ATOM     67  C   UNL A   1      45.738  27.916  34.254  1.00  0.00     0.134 A 
ATOM     68  C   UNL A   1      44.234  26.150  34.844  1.00  0.00     0.134 A 
ATOM     69  F   UNL A   1      46.018  29.076  33.639  1.00  0.00    -0.206 F 
ATOM     70  C   UNL A   1      46.781  27.254  34.906  1.00  0.00     0.040 A 
ATOM     71  C   UNL A   1      45.261  25.494  35.525  1.00  0.00     0.040 A 
ATOM     72  F   UNL A   1      43.024  25.571  34.827  1.00  0.00    -0.206 F 
ATOM     73  C   UNL A   1      46.541  26.042  35.550  1.00  0.00     0.006 A 
ENDBRANCH  52  66
BRANCH  53  74
ATOM     74  C   UNL A   1      36.836  31.392  29.068  1.00  0.00     0.057 A 
ATOM     75  C   UNL A   1      36.791  32.725  28.649  1.00  0.00     0.134 A 
ATOM     76  C   UNL A   1      35.736  30.581  28.759  1.00  0.00     0.134 A 
ATOM     77  F   UNL A   1      37.805  33.556  28.929  1.00  0.00    -0.206 F 
ATOM     78  C   UNL A   1      35.689  33.238  27.961  1.00  0.00     0.040 A 
ATOM     79  C   UNL A   1      34.641  31.073  28.048  1.00  0.00     0.040 A 
ATOM     80  F   UNL A   1      35.720  29.291  29.127  1.00  0.00    -0.206 F 
ATOM     81  C   UNL A   1      34.613  32.408  27.653  1.00  0.00     0.006 A 
ENDBRANCH  53  74
BRANCH  65  82
ATOM     82  C   UNL A   1      39.106  31.996  35.642  1.00  0.00     0.057 A 
ATOM     83  C   UNL A   1      38.258  31.444  36.611  1.00  0.00     0.134 A 
ATOM     84  C   UNL A   1      39.543  33.313  35.839  1.00  0.00     0.134 A 
ATOM     85  F   UNL A   1      37.795  30.192  36.475  1.00  0.00    -0.206 F 
ATOM     86  C   UNL A   1      37.847  32.180  37.723  1.00  0.00     0.040 A 
ATOM     87  C   UNL A   1      39.164  34.048  36.963  1.00  0.00     0.040 A 
ATOM     88  F   UNL A   1      40.366  33.897  34.955  1.00  0.00    -0.206 F 
ATOM     89  C   UNL A   1      38.309  33.482  37.907  1.00  0.00     0.006 A 
ENDBRANCH  65  82
ENDBRANCH  39  40
ENDBRANCH  32  34
ENDBRANCH  31  32
ENDBRANCH  30  31
ENDBRANCH  29  30
ENDBRANCH  28  29
ENDBRANCH   1  28
TORSDOF 18
ENDMDL
MODEL 3
REMARK VINA RESULT:     -11.7      5.054     10.257
REMARK SMILES O=C(CSc1ccc(NC(=O)c2cccc3ccccc23)cc1)OCCOCCOC(=O)c1ccc(-c2c3nc(c(-c4c(F)cccc4F)c4ccc([nH]4)c(-c4c(F)cccc4F)c4nc(c(-c5c(F)cccc5F)c5ccc2[nH]5)C=C4)C=C3)cc1
REMARK SMILES IDX 26 1 25 2 24 3 2 4 1 5 3 6 4 7 5 8 6 9 23 10 7 11 22 12 8 13
REMARK SMILES IDX 9 14 10 15 11 17 12 18 13 19 21 20 14 21 16 22 20 23 15 24
REMARK SMILES IDX 17 25 19 26 18 27 27 28 28 29 29 30 30 31 31 32 32 33 33 34
REMARK SMILES IDX 34 35 86 36 35 37 85 38 36 39 37 40 38 41 79 42 39 43 84 44
REMARK SMILES IDX 78 45 80 46 40 47 83 48 77 49 76 50 41 52 67 53 50 54 66 55
REMARK SMILES IDX 51 56 54 57 65 58 81 59 52 60 53 61 64 63 82 64 55 65 42 66
REMARK SMILES IDX 43 67 48 68 44 69 45 70 47 71 49 72 46 73 68 74 69 75 74 76
REMARK SMILES IDX 70 77 71 78 73 79 75 80 72 81 56 82 57 83 62 84 58 85 59 86
REMARK SMILES IDX 61 87 63 88 60 89
REMARK H PARENT 9 16 80 51 54 62
REMARK Flexibility Score: inf
ROOT
ATOM      1  C   UNL A   1      42.574  19.699  26.153  1.00  0.00     0.202 C 
ENDROOT
BRANCH   1   2
ATOM      2  C   UNL A   1      41.049  19.780  26.126  1.00  0.00     0.261 C 
BRANCH   2   3
ATOM      3  O   UNL A   1      40.519  20.550  27.214  1.00  0.00    -0.463 OA
BRANCH   3   4
ATOM      4  C   UNL A   1      40.019  21.796  27.061  1.00  0.00     0.316 C 
ATOM      5  O   UNL A   1      40.450  22.705  27.773  1.00  0.00    -0.251 OA
BRANCH   4   6
ATOM      6  C   UNL A   1      38.891  22.060  26.083  1.00  0.00     0.197 C 
BRANCH   6   7
ATOM      7  S   UNL A   1      38.162  23.724  26.142  1.00  0.00    -0.114 SA
BRANCH   7   8
ATOM      8  C   UNL A   1      36.538  23.459  25.477  1.00  0.00     0.008 A 
ATOM      9  C   UNL A   1      35.398  23.338  26.269  1.00  0.00     0.017 A 
ATOM     10  C   UNL A   1      36.407  23.394  24.087  1.00  0.00     0.017 A 
ATOM     11  C   UNL A   1      34.134  23.301  25.690  1.00  0.00     0.027 A 
ATOM     12  C   UNL A   1      35.141  23.330  23.506  1.00  0.00     0.027 A 
ATOM     13  C   UNL A   1      34.000  23.375  24.310  1.00  0.00     0.041 A 
BRANCH  13  14
ATOM     14  N   UNL A   1      32.774  23.545  23.663  1.00  0.00    -0.322 N 
ATOM     15  C   UNL A   1      32.076  24.672  23.305  1.00  0.00     0.256 C 
ATOM     16  H   UNL A   1      32.328  22.703  23.419  1.00  0.00     0.170 HD
ATOM     17  O   UNL A   1      30.944  24.529  22.836  1.00  0.00    -0.269 OA
BRANCH  15  18
ATOM     18  C   UNL A   1      32.593  26.057  23.429  1.00  0.00     0.048 A 
ATOM     19  C   UNL A   1      33.253  26.521  22.279  1.00  0.00     0.014 A 
ATOM     20  C   UNL A   1      32.575  26.837  24.627  1.00  0.00    -0.006 A 
ATOM     21  C   UNL A   1      33.947  27.724  22.300  1.00  0.00     0.001 A 
ATOM     22  C   UNL A   1      33.340  28.034  24.637  1.00  0.00    -0.018 A 
ATOM     23  C   UNL A   1      31.844  26.539  25.806  1.00  0.00     0.009 A 
ATOM     24  C   UNL A   1      34.022  28.451  23.484  1.00  0.00     0.009 A 
ATOM     25  C   UNL A   1      33.410  28.828  25.793  1.00  0.00     0.009 A 
ATOM     26  C   UNL A   1      31.838  27.400  26.909  1.00  0.00     0.001 A 
ATOM     27  C   UNL A   1      32.643  28.529  26.914  1.00  0.00     0.001 A 
ENDBRANCH  15  18
ENDBRANCH  13  14
ENDBRANCH   7   8
ENDBRANCH   6   7
ENDBRANCH   4   6
ENDBRANCH   3   4
ENDBRANCH   2   3
ENDBRANCH   1   2
BRANCH   1  28
ATOM     28  O   UNL A   1      43.246  20.544  25.220  1.00  0.00    -0.374 OA
BRANCH  28  29
ATOM     29  C   UNL A   1      43.421  21.906  25.635  1.00  0.00     0.202 C 
BRANCH  29  30
ATOM     30  C   UNL A   1      43.992  22.831  24.560  1.00  0.00     0.261 C 
BRANCH  30  31
ATOM     31  O   UNL A   1      43.363  24.119  24.621  1.00  0.00    -0.460 OA
BRANCH  31  32
ATOM     32  C   UNL A   1      44.150  25.112  25.103  1.00  0.00     0.338 C 
ATOM     33  O   UNL A   1      45.227  25.479  24.679  1.00  0.00    -0.246 OA
BRANCH  32  34
ATOM     34  C   UNL A   1      43.383  25.853  26.124  1.00  0.00     0.060 A 
ATOM     35  C   UNL A   1      43.798  27.157  26.429  1.00  0.00     0.016 A 
ATOM     36  C   UNL A   1      42.283  25.282  26.766  1.00  0.00     0.016 A 
ATOM     37  C   UNL A   1      43.147  27.877  27.425  1.00  0.00     0.010 A 
ATOM     38  C   UNL A   1      41.640  25.999  27.771  1.00  0.00     0.010 A 
ATOM     39  C   UNL A   1      42.101  27.277  28.132  1.00  0.00    -0.014 A 
BRANCH  39  40
ATOM     40  C   UNL A   1      41.623  27.886  29.390  1.00  0.00     0.031 A 
ATOM     41  C   UNL A   1      40.403  28.759  29.328  1.00  0.00     0.074 A 
ATOM     42  C   UNL A   1      42.270  27.676  30.546  1.00  0.00     0.049 A 
ATOM     43  N   UNL A   1      39.860  29.495  30.260  1.00  0.00    -0.248 NA
ATOM     44  C   UNL A   1      39.711  28.821  28.030  1.00  0.00     0.031 C 
ATOM     45  C   UNL A   1      43.441  26.818  30.717  1.00  0.00     0.029 A 
ATOM     46  N   UNL A   1      42.042  28.196  31.794  1.00  0.00    -0.354 N 
ATOM     47  C   UNL A   1      38.779  30.123  29.657  1.00  0.00     0.074 A 
ATOM     48  C   UNL A   1      38.758  29.707  28.273  1.00  0.00     0.031 C 
ATOM     49  C   UNL A   1      43.849  26.893  31.995  1.00  0.00     0.029 A 
ATOM     50  C   UNL A   1      42.993  27.834  32.714  1.00  0.00     0.049 A 
ATOM     51  H   UNL A   1      41.274  28.772  32.008  1.00  0.00     0.167 HD
ATOM     52  C   UNL A   1      37.883  30.970  30.213  1.00  0.00     0.037 A 
ATOM     53  C   UNL A   1      43.167  28.251  33.983  1.00  0.00     0.037 A 
ATOM     54  C   UNL A   1      37.921  31.374  31.593  1.00  0.00     0.049 A 
ATOM     55  C   UNL A   1      42.194  29.241  34.567  1.00  0.00     0.074 A 
ATOM     56  C   UNL A   1      37.045  32.200  32.274  1.00  0.00     0.029 A 
ATOM     57  N   UNL A   1      38.899  30.988  32.498  1.00  0.00    -0.354 N 
ATOM     58  N   UNL A   1      41.152  29.806  34.004  1.00  0.00    -0.248 NA
ATOM     59  C   UNL A   1      42.419  29.650  35.960  1.00  0.00     0.031 C 
ATOM     60  C   UNL A   1      37.529  32.364  33.575  1.00  0.00     0.029 A 
ATOM     61  C   UNL A   1      38.668  31.586  33.724  1.00  0.00     0.049 A 
ATOM     62  H   UNL A   1      39.645  30.379  32.298  1.00  0.00     0.167 HD
ATOM     63  C   UNL A   1      40.580  30.612  34.980  1.00  0.00     0.074 A 
ATOM     64  C   UNL A   1      41.387  30.456  36.173  1.00  0.00     0.031 C 
ATOM     65  C   UNL A   1      39.484  31.408  34.900  1.00  0.00     0.037 A 
BRANCH  52  66
ATOM     66  C   UNL A   1      36.821  31.542  29.318  1.00  0.00     0.057 A 
ATOM     67  C   UNL A   1      35.684  30.812  28.946  1.00  0.00     0.134 A 
ATOM     68  C   UNL A   1      36.936  32.849  28.827  1.00  0.00     0.134 A 
ATOM     69  F   UNL A   1      35.518  29.549  29.365  1.00  0.00    -0.206 F 
ATOM     70  C   UNL A   1      34.716  31.351  28.095  1.00  0.00     0.040 A 
ATOM     71  C   UNL A   1      35.960  33.409  28.001  1.00  0.00     0.040 A 
ATOM     72  F   UNL A   1      37.999  33.605  29.143  1.00  0.00    -0.206 F 
ATOM     73  C   UNL A   1      34.850  32.656  27.625  1.00  0.00     0.006 A 
ENDBRANCH  52  66
BRANCH  53  74
ATOM     74  C   UNL A   1      44.320  27.748  34.772  1.00  0.00     0.057 A 
ATOM     75  C   UNL A   1      45.578  28.354  34.690  1.00  0.00     0.134 A 
ATOM     76  C   UNL A   1      44.187  26.651  35.634  1.00  0.00     0.134 A 
ATOM     77  F   UNL A   1      45.772  29.396  33.870  1.00  0.00    -0.206 F 
ATOM     78  C   UNL A   1      46.666  27.880  35.425  1.00  0.00     0.040 A 
ATOM     79  C   UNL A   1      45.259  26.185  36.395  1.00  0.00     0.040 A 
ATOM     80  F   UNL A   1      43.006  26.029  35.764  1.00  0.00    -0.206 F 
ATOM     81  C   UNL A   1      46.506  26.797  36.286  1.00  0.00     0.006 A 
ENDBRANCH  53  74
BRANCH  65  82
ATOM     82  C   UNL A   1      39.068  32.139  36.145  1.00  0.00     0.057 A 
ATOM     83  C   UNL A   1      39.464  33.458  36.400  1.00  0.00     0.134 A 
ATOM     84  C   UNL A   1      38.206  31.531  37.067  1.00  0.00     0.134 A 
ATOM     85  F   UNL A   1      40.298  34.092  35.562  1.00  0.00    -0.206 F 
ATOM     86  C   UNL A   1      39.031  34.139  37.538  1.00  0.00     0.040 A 
ATOM     87  C   UNL A   1      37.742  32.213  38.192  1.00  0.00     0.040 A 
ATOM     88  F   UNL A   1      37.780  30.273  36.875  1.00  0.00    -0.206 F 
ATOM     89  C   UNL A   1      38.160  33.520  38.433  1.00  0.00     0.006 A 
ENDBRANCH  65  82
ENDBRANCH  39  40
ENDBRANCH  32  34
ENDBRANCH  31  32
ENDBRANCH  30  31
ENDBRANCH  29  30
ENDBRANCH  28  29
ENDBRANCH   1  28
TORSDOF 18
ENDMDL
