MODEL 1
REMARK VINA RESULT:     -12.4      0.000      0.000
REMARK SMILES CC1=C(C)C[C@@H](C(=O)OCCOCCOC(=O)c2ccc(-c3c4nc(c(-c5c(F)cccc5F)c5ccc([nH]5)c(-c5c(F)cccc5F)c5nc(c(-c6c(F)cccc6F)c6ccc3[nH]6)C=C5)C=C4)cc2)[C@@H](C(=O)N2CCN(c3cccc(C(F)(F)F)c3)CC2)C1
REMARK SMILES IDX 11 1 10 2 9 3 7 4 8 5 6 6 1 7 2 8 3 9 91 10 4 11 5 12 72 13
REMARK SMILES IDX 73 14 74 15 75 16 76 17 90 18 77 19 89 20 78 21 79 22 80 23
REMARK SMILES IDX 88 24 81 25 83 26 82 27 84 28 85 29 86 30 87 31 12 32 13 33
REMARK SMILES IDX 14 34 15 35 16 36 17 37 18 38 19 39 71 40 20 41 70 42 21 43
REMARK SMILES IDX 22 44 23 45 64 46 24 47 69 48 63 49 65 50 25 51 68 52 62 53
REMARK SMILES IDX 61 54 26 56 52 57 35 58 51 59 36 60 39 61 50 62 66 63 37 64
REMARK SMILES IDX 38 65 49 67 67 68 40 69 27 70 28 71 33 72 29 73 30 74 32 75
REMARK SMILES IDX 34 76 31 77 53 78 54 79 59 80 55 81 56 82 58 83 60 84 57 85
REMARK SMILES IDX 41 86 42 87 47 88 43 89 44 90 46 91 48 92 45 93
REMARK H PARENT 65 55 39 66
REMARK Flexibility Score: inf
ROOT
ATOM      1  C   UNL A   1      32.627  28.443  27.241  1.00  0.00     0.202 C 
ENDROOT
BRANCH   1   2
ATOM      2  C   UNL A   1      31.551  27.450  26.583  1.00  0.00     0.261 C 
BRANCH   2   3
ATOM      3  O   UNL A   1      31.802  25.994  26.835  1.00  0.00    -0.463 OA
BRANCH   3   4
ATOM      4  C   UNL A   1      32.051  25.144  25.762  1.00  0.00     0.310 C 
ATOM      5  O   UNL A   1      31.176  24.854  24.949  1.00  0.00    -0.252 OA
BRANCH   4   6
ATOM      6  C   UNL A   1      33.600  24.817  25.451  1.00  0.00     0.116 C 
ATOM      7  C   UNL A   1      32.872  26.220  21.499  1.00  0.00     0.039 C 
ATOM      8  C   UNL A   1      33.431  25.747  22.818  1.00  0.00    -0.074 C 
ATOM      9  C   UNL A   1      33.839  26.612  23.782  1.00  0.00    -0.073 C 
ATOM     10  C   UNL A   1      33.474  24.194  23.014  1.00  0.00     0.045 C 
ATOM     11  C   UNL A   1      33.773  28.117  23.791  1.00  0.00     0.039 C 
ATOM     12  C   UNL A   1      34.357  26.085  25.085  1.00  0.00     0.046 C 
ATOM     13  C   UNL A   1      34.028  23.752  24.401  1.00  0.00     0.097 C 
BRANCH  13  14
ATOM     14  C   UNL A   1      34.103  22.203  24.866  1.00  0.00     0.227 C 
ATOM     15  O   UNL A   1      33.106  21.583  25.223  1.00  0.00    -0.275 OA
ATOM     16  N   UNL A   1      35.393  21.606  24.808  1.00  0.00    -0.339 N 
ATOM     17  C   UNL A   1      35.821  20.181  24.929  1.00  0.00     0.141 C 
ATOM     18  C   UNL A   1      36.233  22.304  25.677  1.00  0.00     0.141 C 
ATOM     19  C   UNL A   1      37.458  19.968  25.028  1.00  0.00     0.138 C 
ATOM     20  C   UNL A   1      37.676  22.390  25.274  1.00  0.00     0.138 C 
ATOM     21  N   UNL A   1      38.214  21.104  25.660  1.00  0.00    -0.368 N 
BRANCH  21  22
ATOM     22  C   UNL A   1      39.499  21.142  26.185  1.00  0.00     0.037 A 
ATOM     23  C   UNL A   1      39.988  22.257  26.852  1.00  0.00     0.026 A 
ATOM     24  C   UNL A   1      40.374  20.015  26.142  1.00  0.00     0.039 A 
ATOM     25  C   UNL A   1      41.256  22.253  27.457  1.00  0.00     0.003 A 
ATOM     26  C   UNL A   1      41.668  19.996  26.708  1.00  0.00     0.058 A 
ATOM     27  C   UNL A   1      42.095  21.138  27.383  1.00  0.00     0.013 A 
BRANCH  26  28
ATOM     28  C   UNL A   1      42.596  18.804  26.594  1.00  0.00     0.416 C 
ATOM     29  F   UNL A   1      42.063  17.799  25.839  1.00  0.00    -0.166 F 
ATOM     30  F   UNL A   1      43.784  19.112  25.996  1.00  0.00    -0.166 F 
ATOM     31  F   UNL A   1      42.924  18.231  27.787  1.00  0.00    -0.166 F 
ENDBRANCH  26  28
ENDBRANCH  21  22
ENDBRANCH  13  14
ENDBRANCH   4   6
ENDBRANCH   3   4
ENDBRANCH   2   3
ENDBRANCH   1   2
BRANCH   1  32
ATOM     32  O   UNL A   1      32.789  29.754  26.688  1.00  0.00    -0.374 OA
BRANCH  32  33
ATOM     33  C   UNL A   1      31.699  30.712  26.548  1.00  0.00     0.202 C 
BRANCH  33  34
ATOM     34  C   UNL A   1      31.922  32.202  26.947  1.00  0.00     0.261 C 
BRANCH  34  35
ATOM     35  O   UNL A   1      33.252  32.427  27.403  1.00  0.00    -0.460 OA
BRANCH  35  36
ATOM     36  C   UNL A   1      33.367  33.593  28.069  1.00  0.00     0.338 C 
ATOM     37  O   UNL A   1      32.535  34.485  28.162  1.00  0.00    -0.246 OA
BRANCH  36  38
ATOM     38  C   UNL A   1      34.459  33.384  29.018  1.00  0.00     0.060 A 
ATOM     39  C   UNL A   1      35.658  34.046  28.729  1.00  0.00     0.016 A 
ATOM     40  C   UNL A   1      34.278  32.677  30.212  1.00  0.00     0.016 A 
ATOM     41  C   UNL A   1      36.729  33.908  29.586  1.00  0.00     0.010 A 
ATOM     42  C   UNL A   1      35.371  32.496  31.053  1.00  0.00     0.010 A 
ATOM     43  C   UNL A   1      36.612  33.037  30.676  1.00  0.00    -0.014 A 
BRANCH  43  44
ATOM     44  C   UNL A   1      37.870  32.383  31.074  1.00  0.00     0.031 A 
ATOM     45  C   UNL A   1      38.375  32.685  32.460  1.00  0.00     0.074 A 
ATOM     46  C   UNL A   1      38.398  31.401  30.332  1.00  0.00     0.049 A 
ATOM     47  N   UNL A   1      39.341  32.122  33.133  1.00  0.00    -0.248 NA
ATOM     48  C   UNL A   1      37.673  33.752  33.199  1.00  0.00     0.031 C 
ATOM     49  C   UNL A   1      37.912  30.972  29.023  1.00  0.00     0.029 A 
ATOM     50  N   UNL A   1      39.439  30.561  30.608  1.00  0.00    -0.354 N 
ATOM     51  C   UNL A   1      39.359  32.767  34.364  1.00  0.00     0.074 A 
ATOM     52  C   UNL A   1      38.337  33.783  34.340  1.00  0.00     0.031 C 
ATOM     53  C   UNL A   1      38.660  29.936  28.607  1.00  0.00     0.029 A 
ATOM     54  C   UNL A   1      39.683  29.653  29.614  1.00  0.00     0.049 A 
ATOM     55  H   UNL A   1      39.963  30.605  31.442  1.00  0.00     0.167 HD
ATOM     56  C   UNL A   1      40.152  32.523  35.431  1.00  0.00     0.037 A 
ATOM     57  C   UNL A   1      40.638  28.710  29.532  1.00  0.00     0.037 A 
ATOM     58  C   UNL A   1      41.167  31.508  35.445  1.00  0.00     0.049 A 
ATOM     59  C   UNL A   1      41.571  28.516  30.697  1.00  0.00     0.074 A 
ATOM     60  C   UNL A   1      42.040  31.179  36.463  1.00  0.00     0.029 A 
ATOM     61  N   UNL A   1      41.449  30.666  34.379  1.00  0.00    -0.354 N 
ATOM     62  N   UNL A   1      41.591  29.130  31.858  1.00  0.00    -0.248 NA
ATOM     63  C   UNL A   1      42.605  27.486  30.545  1.00  0.00     0.031 C 
ATOM     64  C   UNL A   1      42.898  30.182  35.988  1.00  0.00     0.029 A 
ATOM     65  C   UNL A   1      42.508  29.837  34.702  1.00  0.00     0.049 A 
ATOM     66  H   UNL A   1      40.966  30.659  33.521  1.00  0.00     0.167 HD
ATOM     67  C   UNL A   1      42.619  28.542  32.583  1.00  0.00     0.074 A 
ATOM     68  C   UNL A   1      43.185  27.511  31.736  1.00  0.00     0.031 C 
ATOM     69  C   UNL A   1      43.057  28.822  33.838  1.00  0.00     0.037 A 
BRANCH  56  70
ATOM     70  C   UNL A   1      39.992  33.419  36.624  1.00  0.00     0.057 A 
ATOM     71  C   UNL A   1      39.118  33.122  37.678  1.00  0.00     0.134 A 
ATOM     72  C   UNL A   1      40.717  34.614  36.704  1.00  0.00     0.134 A 
ATOM     73  F   UNL A   1      38.368  32.010  37.650  1.00  0.00    -0.206 F 
ATOM     74  C   UNL A   1      38.951  33.996  38.755  1.00  0.00     0.040 A 
ATOM     75  C   UNL A   1      40.584  35.479  37.790  1.00  0.00     0.040 A 
ATOM     76  F   UNL A   1      41.563  34.964  35.724  1.00  0.00    -0.206 F 
ATOM     77  C   UNL A   1      39.692  35.174  38.816  1.00  0.00     0.006 A 
ENDBRANCH  56  70
BRANCH  57  78
ATOM     78  C   UNL A   1      40.769  27.905  28.294  1.00  0.00     0.057 A 
ATOM     79  C   UNL A   1      41.531  28.343  27.207  1.00  0.00     0.134 A 
ATOM     80  C   UNL A   1      40.118  26.670  28.171  1.00  0.00     0.134 A 
ATOM     81  F   UNL A   1      42.163  29.525  27.256  1.00  0.00    -0.206 F 
ATOM     82  C   UNL A   1      41.628  27.592  26.034  1.00  0.00     0.040 A 
ATOM     83  C   UNL A   1      40.229  25.896  27.018  1.00  0.00     0.040 A 
ATOM     84  F   UNL A   1      39.376  26.192  29.181  1.00  0.00    -0.206 F 
ATOM     85  C   UNL A   1      40.980  26.361  25.940  1.00  0.00     0.006 A 
ENDBRANCH  57  78
BRANCH  69  86
ATOM     86  C   UNL A   1      44.172  27.973  34.380  1.00  0.00     0.057 A 
ATOM     87  C   UNL A   1      43.931  26.812  35.125  1.00  0.00     0.134 A 
ATOM     88  C   UNL A   1      45.508  28.316  34.133  1.00  0.00     0.134 A 
ATOM     89  F   UNL A   1      42.676  26.430  35.403  1.00  0.00    -0.206 F 
ATOM     90  C   UNL A   1      44.979  26.047  35.643  1.00  0.00     0.040 A 
ATOM     91  C   UNL A   1      46.563  27.540  34.613  1.00  0.00     0.040 A 
ATOM     92  F   UNL A   1      45.811  29.406  33.411  1.00  0.00    -0.206 F 
ATOM     93  C   UNL A   1      46.300  26.408  35.381  1.00  0.00     0.006 A 
ENDBRANCH  69  86
ENDBRANCH  43  44
ENDBRANCH  36  38
ENDBRANCH  35  36
ENDBRANCH  34  35
ENDBRANCH  33  34
ENDBRANCH  32  33
ENDBRANCH   1  32
TORSDOF 17
ENDMDL
MODEL 2
REMARK VINA RESULT:     -12.3      1.844      6.205
REMARK SMILES CC1=C(C)C[C@@H](C(=O)OCCOCCOC(=O)c2ccc(-c3c4nc(c(-c5c(F)cccc5F)c5ccc([nH]5)c(-c5c(F)cccc5F)c5nc(c(-c6c(F)cccc6F)c6ccc3[nH]6)C=C5)C=C4)cc2)[C@@H](C(=O)N2CCN(c3cccc(C(F)(F)F)c3)CC2)C1
REMARK SMILES IDX 11 1 10 2 9 3 7 4 8 5 6 6 1 7 2 8 3 9 91 10 4 11 5 12 72 13
REMARK SMILES IDX 73 14 74 15 75 16 76 17 90 18 77 19 89 20 78 21 79 22 80 23
REMARK SMILES IDX 88 24 81 25 83 26 82 27 84 28 85 29 86 30 87 31 12 32 13 33
REMARK SMILES IDX 14 34 15 35 16 36 17 37 18 38 19 39 71 40 20 41 70 42 21 43
REMARK SMILES IDX 22 44 23 45 64 46 24 47 69 48 63 49 65 50 25 51 68 52 62 53
REMARK SMILES IDX 61 54 26 56 52 57 35 58 51 59 36 60 39 61 50 62 66 63 37 64
REMARK SMILES IDX 38 65 49 67 67 68 40 69 27 70 28 71 33 72 29 73 30 74 32 75
REMARK SMILES IDX 34 76 31 77 53 78 54 79 59 80 55 81 56 82 58 83 60 84 57 85
REMARK SMILES IDX 41 86 42 87 47 88 43 89 44 90 46 91 48 92 45 93
REMARK H PARENT 65 55 39 66
REMARK Flexibility Score: inf
ROOT
ATOM      1  C   UNL A   1      33.679  27.986  25.017  1.00  0.00     0.202 C 
ENDROOT
BRANCH   1   2
ATOM      2  C   UNL A   1      33.680  26.986  23.762  1.00  0.00     0.261 C 
BRANCH   2   3
ATOM      3  O   UNL A   1      33.352  25.562  24.093  1.00  0.00    -0.463 OA
BRANCH   3   4
ATOM      4  C   UNL A   1      32.897  24.710  23.091  1.00  0.00     0.310 C 
ATOM      5  O   UNL A   1      33.561  24.488  22.080  1.00  0.00    -0.252 OA
BRANCH   4   6
ATOM      6  C   UNL A   1      31.627  23.786  23.457  1.00  0.00     0.116 C 
ATOM      7  C   UNL A   1      30.698  26.643  26.473  1.00  0.00     0.039 C 
ATOM      8  C   UNL A   1      30.737  25.528  25.457  1.00  0.00    -0.074 C 
ATOM      9  C   UNL A   1      30.232  25.672  24.206  1.00  0.00    -0.073 C 
ATOM     10  C   UNL A   1      31.430  24.207  25.933  1.00  0.00     0.045 C 
ATOM     11  C   UNL A   1      29.628  26.895  23.565  1.00  0.00     0.039 C 
ATOM     12  C   UNL A   1      30.326  24.541  23.228  1.00  0.00     0.046 C 
ATOM     13  C   UNL A   1      31.476  23.095  24.843  1.00  0.00     0.097 C 
BRANCH  13  14
ATOM     14  C   UNL A   1      32.204  21.668  25.073  1.00  0.00     0.227 C 
ATOM     15  O   UNL A   1      31.577  20.663  25.399  1.00  0.00    -0.275 OA
ATOM     16  N   UNL A   1      33.609  21.651  24.849  1.00  0.00    -0.339 N 
ATOM     17  C   UNL A   1      34.570  20.515  24.735  1.00  0.00     0.141 C 
ATOM     18  C   UNL A   1      34.203  22.529  25.755  1.00  0.00     0.141 C 
ATOM     19  C   UNL A   1      36.161  20.970  24.699  1.00  0.00     0.138 C 
ATOM     20  C   UNL A   1      35.441  23.232  25.279  1.00  0.00     0.138 C 
ATOM     21  N   UNL A   1      36.479  22.239  25.440  1.00  0.00    -0.368 N 
BRANCH  21  22
ATOM     22  C   UNL A   1      37.699  22.734  25.884  1.00  0.00     0.037 A 
ATOM     23  C   UNL A   1      37.872  24.071  26.215  1.00  0.00     0.026 A 
ATOM     24  C   UNL A   1      38.830  21.892  26.100  1.00  0.00     0.039 A 
ATOM     25  C   UNL A   1      39.083  24.544  26.748  1.00  0.00     0.003 A 
ATOM     26  C   UNL A   1      40.072  22.348  26.597  1.00  0.00     0.058 A 
ATOM     27  C   UNL A   1      40.178  23.696  26.932  1.00  0.00     0.013 A 
BRANCH  26  28
ATOM     28  C   UNL A   1      41.273  21.440  26.760  1.00  0.00     0.416 C 
ATOM     29  F   UNL A   1      41.921  21.638  27.945  1.00  0.00    -0.166 F 
ATOM     30  F   UNL A   1      40.941  20.116  26.749  1.00  0.00    -0.166 F 
ATOM     31  F   UNL A   1      42.224  21.587  25.793  1.00  0.00    -0.166 F 
ENDBRANCH  26  28
ENDBRANCH  21  22
ENDBRANCH  13  14
ENDBRANCH   4   6
ENDBRANCH   3   4
ENDBRANCH   2   3
ENDBRANCH   1   2
BRANCH   1  32
ATOM     32  O   UNL A   1      33.218  29.330  24.834  1.00  0.00    -0.374 OA
BRANCH  32  33
ATOM     33  C   UNL A   1      31.931  29.813  25.317  1.00  0.00     0.202 C 
BRANCH  33  34
ATOM     34  C   UNL A   1      31.875  30.785  26.534  1.00  0.00     0.261 C 
BRANCH  34  35
ATOM     35  O   UNL A   1      32.987  30.596  27.403  1.00  0.00    -0.460 OA
BRANCH  35  36
ATOM     36  C   UNL A   1      33.676  31.738  27.599  1.00  0.00     0.338 C 
ATOM     37  O   UNL A   1      33.223  32.858  27.798  1.00  0.00    -0.246 OA
BRANCH  36  38
ATOM     38  C   UNL A   1      35.020  31.312  27.985  1.00  0.00     0.060 A 
ATOM     39  C   UNL A   1      35.186  29.943  28.218  1.00  0.00     0.016 A 
ATOM     40  C   UNL A   1      36.104  32.198  27.989  1.00  0.00     0.016 A 
ATOM     41  C   UNL A   1      36.430  29.465  28.573  1.00  0.00     0.010 A 
ATOM     42  C   UNL A   1      37.349  31.726  28.395  1.00  0.00     0.010 A 
ATOM     43  C   UNL A   1      37.471  30.379  28.776  1.00  0.00    -0.014 A 
BRANCH  43  44
ATOM     44  C   UNL A   1      38.454  29.970  29.793  1.00  0.00     0.031 A 
ATOM     45  C   UNL A   1      39.590  29.103  29.319  1.00  0.00     0.074 A 
ATOM     46  C   UNL A   1      38.459  30.534  31.008  1.00  0.00     0.049 A 
ATOM     47  N   UNL A   1      40.681  28.749  29.943  1.00  0.00    -0.248 NA
ATOM     48  C   UNL A   1      39.495  28.588  27.940  1.00  0.00     0.031 C 
ATOM     49  C   UNL A   1      37.453  31.465  31.515  1.00  0.00     0.029 A 
ATOM     50  N   UNL A   1      39.375  30.429  32.015  1.00  0.00    -0.354 N 
ATOM     51  C   UNL A   1      41.391  27.974  29.035  1.00  0.00     0.074 A 
ATOM     52  C   UNL A   1      40.603  27.877  27.832  1.00  0.00     0.031 C 
ATOM     53  C   UNL A   1      37.814  31.853  32.750  1.00  0.00     0.029 A 
ATOM     54  C   UNL A   1      39.059  31.178  33.117  1.00  0.00     0.049 A 
ATOM     55  H   UNL A   1      40.184  29.869  31.955  1.00  0.00     0.167 HD
ATOM     56  C   UNL A   1      42.606  27.401  29.186  1.00  0.00     0.037 A 
ATOM     57  C   UNL A   1      39.706  31.287  34.290  1.00  0.00     0.037 A 
ATOM     58  C   UNL A   1      43.383  27.503  30.388  1.00  0.00     0.049 A 
ATOM     59  C   UNL A   1      41.015  30.566  34.470  1.00  0.00     0.074 A 
ATOM     60  C   UNL A   1      44.621  26.954  30.661  1.00  0.00     0.029 A 
ATOM     61  N   UNL A   1      42.985  28.196  31.523  1.00  0.00    -0.354 N 
ATOM     62  N   UNL A   1      41.682  29.829  33.613  1.00  0.00    -0.248 NA
ATOM     63  C   UNL A   1      41.666  30.706  35.778  1.00  0.00     0.031 C 
ATOM     64  C   UNL A   1      44.941  27.257  31.988  1.00  0.00     0.029 A 
ATOM     65  C   UNL A   1      43.940  28.060  32.515  1.00  0.00     0.049 A 
ATOM     66  H   UNL A   1      42.149  28.707  31.609  1.00  0.00     0.167 HD
ATOM     67  C   UNL A   1      42.845  29.441  34.268  1.00  0.00     0.074 A 
ATOM     68  C   UNL A   1      42.796  30.042  35.586  1.00  0.00     0.031 C 
ATOM     69  C   UNL A   1      43.865  28.663  33.822  1.00  0.00     0.037 A 
BRANCH  56  70
ATOM     70  C   UNL A   1      43.115  26.562  28.050  1.00  0.00     0.057 A 
ATOM     71  C   UNL A   1      43.060  25.162  28.062  1.00  0.00     0.134 A 
ATOM     72  C   UNL A   1      43.692  27.175  26.932  1.00  0.00     0.134 A 
ATOM     73  F   UNL A   1      42.550  24.509  29.118  1.00  0.00    -0.206 F 
ATOM     74  C   UNL A   1      43.584  24.402  27.014  1.00  0.00     0.040 A 
ATOM     75  C   UNL A   1      44.190  26.429  25.864  1.00  0.00     0.040 A 
ATOM     76  F   UNL A   1      43.788  28.511  26.861  1.00  0.00    -0.206 F 
ATOM     77  C   UNL A   1      44.144  25.037  25.907  1.00  0.00     0.006 A 
ENDBRANCH  56  70
BRANCH  57  78
ATOM     78  C   UNL A   1      39.107  32.087  35.385  1.00  0.00     0.057 A 
ATOM     79  C   UNL A   1      39.322  33.465  35.495  1.00  0.00     0.134 A 
ATOM     80  C   UNL A   1      38.304  31.478  36.359  1.00  0.00     0.134 A 
ATOM     81  F   UNL A   1      40.096  34.102  34.605  1.00  0.00    -0.206 F 
ATOM     82  C   UNL A   1      38.776  34.205  36.545  1.00  0.00     0.040 A 
ATOM     83  C   UNL A   1      37.729  32.211  37.396  1.00  0.00     0.040 A 
ATOM     84  F   UNL A   1      38.055  30.162  36.306  1.00  0.00    -0.206 F 
ATOM     85  C   UNL A   1      37.972  33.579  37.496  1.00  0.00     0.006 A 
ENDBRANCH  57  78
BRANCH  69  86
ATOM     86  C   UNL A   1      45.026  28.455  34.753  1.00  0.00     0.057 A 
ATOM     87  C   UNL A   1      45.089  27.370  35.636  1.00  0.00     0.134 A 
ATOM     88  C   UNL A   1      46.107  29.348  34.747  1.00  0.00     0.134 A 
ATOM     89  F   UNL A   1      44.086  26.482  35.697  1.00  0.00    -0.206 F 
ATOM     90  C   UNL A   1      46.164  27.205  36.512  1.00  0.00     0.040 A 
ATOM     91  C   UNL A   1      47.204  29.172  35.591  1.00  0.00     0.040 A 
ATOM     92  F   UNL A   1      46.120  30.399  33.914  1.00  0.00    -0.206 F 
ATOM     93  C   UNL A   1      47.228  28.105  36.486  1.00  0.00     0.006 A 
ENDBRANCH  69  86
ENDBRANCH  43  44
ENDBRANCH  36  38
ENDBRANCH  35  36
ENDBRANCH  34  35
ENDBRANCH  33  34
ENDBRANCH  32  33
ENDBRANCH   1  32
TORSDOF 17
ENDMDL
MODEL 3
REMARK VINA RESULT:     -12.0      1.094      6.053
REMARK SMILES CC1=C(C)C[C@@H](C(=O)OCCOCCOC(=O)c2ccc(-c3c4nc(c(-c5c(F)cccc5F)c5ccc([nH]5)c(-c5c(F)cccc5F)c5nc(c(-c6c(F)cccc6F)c6ccc3[nH]6)C=C5)C=C4)cc2)[C@@H](C(=O)N2CCN(c3cccc(C(F)(F)F)c3)CC2)C1
REMARK SMILES IDX 11 1 10 2 9 3 7 4 8 5 6 6 1 7 2 8 3 9 91 10 4 11 5 12 72 13
REMARK SMILES IDX 73 14 74 15 75 16 76 17 90 18 77 19 89 20 78 21 79 22 80 23
REMARK SMILES IDX 88 24 81 25 83 26 82 27 84 28 85 29 86 30 87 31 12 32 13 33
REMARK SMILES IDX 14 34 15 35 16 36 17 37 18 38 19 39 71 40 20 41 70 42 21 43
REMARK SMILES IDX 22 44 23 45 64 46 24 47 69 48 63 49 65 50 25 51 68 52 62 53
REMARK SMILES IDX 61 54 26 56 52 57 35 58 51 59 36 60 39 61 50 62 66 63 37 64
REMARK SMILES IDX 38 65 49 67 67 68 40 69 27 70 28 71 33 72 29 73 30 74 32 75
REMARK SMILES IDX 34 76 31 77 53 78 54 79 59 80 55 81 56 82 58 83 60 84 57 85
REMARK SMILES IDX 41 86 42 87 47 88 43 89 44 90 46 91 48 92 45 93
REMARK H PARENT 65 55 39 66
REMARK Flexibility Score: inf
ROOT
ATOM      1  C   UNL A   1      32.177  28.985  27.115  1.00  0.00     0.202 C 
ENDROOT
BRANCH   1   2
ATOM      2  C   UNL A   1      31.410  27.762  26.414  1.00  0.00     0.261 C 
BRANCH   2   3
ATOM      3  O   UNL A   1      31.872  26.402  26.842  1.00  0.00    -0.463 OA
BRANCH   3   4
ATOM      4  C   UNL A   1      32.110  25.424  25.882  1.00  0.00     0.310 C 
ATOM      5  O   UNL A   1      31.228  25.036  25.120  1.00  0.00    -0.252 OA
BRANCH   4   6
ATOM      6  C   UNL A   1      33.656  25.059  25.600  1.00  0.00     0.116 C 
ATOM      7  C   UNL A   1      33.043  26.501  21.642  1.00  0.00     0.039 C 
ATOM      8  C   UNL A   1      33.564  26.007  22.970  1.00  0.00    -0.074 C 
ATOM      9  C   UNL A   1      33.974  26.855  23.946  1.00  0.00    -0.073 C 
ATOM     10  C   UNL A   1      33.563  24.452  23.157  1.00  0.00     0.045 C 
ATOM     11  C   UNL A   1      33.946  28.362  23.963  1.00  0.00     0.039 C 
ATOM     12  C   UNL A   1      34.453  26.309  25.257  1.00  0.00     0.046 C 
ATOM     13  C   UNL A   1      34.077  23.989  24.553  1.00  0.00     0.097 C 
BRANCH  13  14
ATOM     14  C   UNL A   1      34.104  22.436  25.009  1.00  0.00     0.227 C 
ATOM     15  O   UNL A   1      33.095  21.857  25.403  1.00  0.00    -0.275 OA
ATOM     16  N   UNL A   1      35.363  21.785  24.901  1.00  0.00    -0.339 N 
ATOM     17  C   UNL A   1      35.734  20.342  25.001  1.00  0.00     0.141 C 
ATOM     18  C   UNL A   1      36.265  22.441  25.740  1.00  0.00     0.141 C 
ATOM     19  C   UNL A   1      37.363  20.058  25.038  1.00  0.00     0.138 C 
ATOM     20  C   UNL A   1      37.694  22.468  25.283  1.00  0.00     0.138 C 
ATOM     21  N   UNL A   1      38.190  21.158  25.645  1.00  0.00    -0.368 N 
BRANCH  21  22
ATOM     22  C   UNL A   1      39.495  21.139  26.121  1.00  0.00     0.037 A 
ATOM     23  C   UNL A   1      39.968  22.097  27.008  1.00  0.00     0.026 A 
ATOM     24  C   UNL A   1      40.411  20.095  25.792  1.00  0.00     0.039 A 
ATOM     25  C   UNL A   1      41.260  22.017  27.553  1.00  0.00     0.003 A 
ATOM     26  C   UNL A   1      41.729  20.012  26.295  1.00  0.00     0.058 A 
ATOM     27  C   UNL A   1      42.138  20.990  27.198  1.00  0.00     0.013 A 
BRANCH  26  28
ATOM     28  C   UNL A   1      42.697  18.923  25.881  1.00  0.00     0.416 C 
ATOM     29  F   UNL A   1      43.734  18.786  26.757  1.00  0.00    -0.166 F 
ATOM     30  F   UNL A   1      42.113  17.691  25.818  1.00  0.00    -0.166 F 
ATOM     31  F   UNL A   1      43.272  19.118  24.659  1.00  0.00    -0.166 F 
ENDBRANCH  26  28
ENDBRANCH  21  22
ENDBRANCH  13  14
ENDBRANCH   4   6
ENDBRANCH   3   4
ENDBRANCH   2   3
ENDBRANCH   1   2
BRANCH   1  32
ATOM     32  O   UNL A   1      32.282  30.231  26.416  1.00  0.00    -0.374 OA
BRANCH  32  33
ATOM     33  C   UNL A   1      31.293  31.297  26.514  1.00  0.00     0.202 C 
BRANCH  33  34
ATOM     34  C   UNL A   1      31.746  32.742  26.881  1.00  0.00     0.261 C 
BRANCH  34  35
ATOM     35  O   UNL A   1      33.165  32.858  26.889  1.00  0.00    -0.460 OA
BRANCH  35  36
ATOM     36  C   UNL A   1      33.615  33.472  28.001  1.00  0.00     0.338 C 
ATOM     37  O   UNL A   1      32.970  34.139  28.799  1.00  0.00    -0.246 OA
BRANCH  36  38
ATOM     38  C   UNL A   1      34.883  32.815  28.313  1.00  0.00     0.060 A 
ATOM     39  C   UNL A   1      34.852  31.417  28.366  1.00  0.00     0.016 A 
ATOM     40  C   UNL A   1      36.082  33.530  28.417  1.00  0.00     0.016 A 
ATOM     41  C   UNL A   1      36.013  30.726  28.642  1.00  0.00     0.010 A 
ATOM     42  C   UNL A   1      37.244  32.839  28.743  1.00  0.00     0.010 A 
ATOM     43  C   UNL A   1      37.172  31.450  28.947  1.00  0.00    -0.014 A 
BRANCH  43  44
ATOM     44  C   UNL A   1      38.081  30.780  29.891  1.00  0.00     0.031 A 
ATOM     45  C   UNL A   1      39.090  29.833  29.296  1.00  0.00     0.074 A 
ATOM     46  C   UNL A   1      38.155  31.173  31.169  1.00  0.00     0.049 A 
ATOM     47  N   UNL A   1      40.116  29.252  29.857  1.00  0.00    -0.248 NA
ATOM     48  C   UNL A   1      38.935  29.521  27.863  1.00  0.00     0.031 C 
ATOM     49  C   UNL A   1      37.285  32.159  31.805  1.00  0.00     0.029 A 
ATOM     50  N   UNL A   1      39.040  30.811  32.145  1.00  0.00    -0.354 N 
ATOM     51  C   UNL A   1      40.719  28.512  28.847  1.00  0.00     0.074 A 
ATOM     52  C   UNL A   1      39.934  28.684  27.650  1.00  0.00     0.031 C 
ATOM     53  C   UNL A   1      37.687  32.328  33.076  1.00  0.00     0.029 A 
ATOM     54  C   UNL A   1      38.823  31.445  33.338  1.00  0.00     0.049 A 
ATOM     55  H   UNL A   1      39.764  30.157  32.003  1.00  0.00     0.167 HD
ATOM     56  C   UNL A   1      41.841  27.761  28.909  1.00  0.00     0.037 A 
ATOM     57  C   UNL A   1      39.470  31.309  34.509  1.00  0.00     0.037 A 
ATOM     58  C   UNL A   1      42.616  27.596  30.105  1.00  0.00     0.049 A 
ATOM     59  C   UNL A   1      40.665  30.396  34.579  1.00  0.00     0.074 A 
ATOM     60  C   UNL A   1      43.763  26.850  30.291  1.00  0.00     0.029 A 
ATOM     61  N   UNL A   1      42.309  28.183  31.325  1.00  0.00    -0.354 N 
ATOM     62  N   UNL A   1      41.230  29.692  33.626  1.00  0.00    -0.248 NA
ATOM     63  C   UNL A   1      41.319  30.272  35.886  1.00  0.00     0.031 C 
ATOM     64  C   UNL A   1      44.113  26.929  31.643  1.00  0.00     0.029 A 
ATOM     65  C   UNL A   1      43.229  27.787  32.280  1.00  0.00     0.049 A 
ATOM     66  H   UNL A   1      41.551  28.789  31.486  1.00  0.00     0.167 HD
ATOM     67  C   UNL A   1      42.323  29.065  34.211  1.00  0.00     0.074 A 
ATOM     68  C   UNL A   1      42.347  29.488  35.597  1.00  0.00     0.031 C 
ATOM     69  C   UNL A   1      43.228  28.218  33.656  1.00  0.00     0.037 A 
BRANCH  56  70
ATOM     70  C   UNL A   1      42.237  27.016  27.668  1.00  0.00     0.057 A 
ATOM     71  C   UNL A   1      43.155  27.529  26.741  1.00  0.00     0.134 A 
ATOM     72  C   UNL A   1      41.669  25.768  27.390  1.00  0.00     0.134 A 
ATOM     73  F   UNL A   1      43.713  28.735  26.929  1.00  0.00    -0.206 F 
ATOM     74  C   UNL A   1      43.472  26.837  25.569  1.00  0.00     0.040 A 
ATOM     75  C   UNL A   1      42.001  25.052  26.239  1.00  0.00     0.040 A 
ATOM     76  F   UNL A   1      40.774  25.225  28.229  1.00  0.00    -0.206 F 
ATOM     77  C   UNL A   1      42.900  25.591  25.321  1.00  0.00     0.006 A 
ENDBRANCH  56  70
BRANCH  57  78
ATOM     78  C   UNL A   1      38.979  32.034  35.705  1.00  0.00     0.057 A 
ATOM     79  C   UNL A   1      38.165  31.417  36.659  1.00  0.00     0.134 A 
ATOM     80  C   UNL A   1      39.316  33.379  35.915  1.00  0.00     0.134 A 
ATOM     81  F   UNL A   1      37.794  30.137  36.506  1.00  0.00    -0.206 F 
ATOM     82  C   UNL A   1      37.685  32.115  37.769  1.00  0.00     0.040 A 
ATOM     83  C   UNL A   1      38.867  34.079  37.033  1.00  0.00     0.040 A 
ATOM     84  F   UNL A   1      40.098  34.026  35.038  1.00  0.00    -0.206 F 
ATOM     85  C   UNL A   1      38.042  33.449  37.961  1.00  0.00     0.006 A 
ENDBRANCH  57  78
BRANCH  69  86
ATOM     86  C   UNL A   1      44.342  27.731  34.539  1.00  0.00     0.057 A 
ATOM     87  C   UNL A   1      45.499  28.487  34.766  1.00  0.00     0.134 A 
ATOM     88  C   UNL A   1      44.241  26.494  35.189  1.00  0.00     0.134 A 
ATOM     89  F   UNL A   1      45.662  29.678  34.170  1.00  0.00    -0.206 F 
ATOM     90  C   UNL A   1      46.536  28.010  35.571  1.00  0.00     0.040 A 
ATOM     91  C   UNL A   1      45.254  26.023  36.025  1.00  0.00     0.040 A 
ATOM     92  F   UNL A   1      43.153  25.726  35.031  1.00  0.00    -0.206 F 
ATOM     93  C   UNL A   1      46.411  26.776  36.207  1.00  0.00     0.006 A 
ENDBRANCH  69  86
ENDBRANCH  43  44
ENDBRANCH  36  38
ENDBRANCH  35  36
ENDBRANCH  34  35
ENDBRANCH  33  34
ENDBRANCH  32  33
ENDBRANCH   1  32
TORSDOF 17
ENDMDL
