MODEL 1
REMARK VINA RESULT:      -8.8      0.000      0.000
REMARK SMILES CC[C@@H](C)[C@H](NC(=O)[C@H]1CCCN(S(=O)(=O)c2ccccc2)C1)C(=O)OCCOCCOC(=O)c1ccc(-c2c3nc(c(-c4c(F)cccc4F)c4ccc([nH]4)c(-c4c(F)cccc4F)c4nc(c(-c5c(F)cccc5F)c5ccc2[nH]5)C=C4)C=C3)cc1
REMARK SMILES IDX 28 1 27 2 26 3 24 4 25 5 5 6 3 7 4 8 2 9 1 10 6 11 7 12 8 14
REMARK SMILES IDX 9 15 10 16 23 17 11 18 13 19 12 20 14 21 15 22 16 23 17 24
REMARK SMILES IDX 18 25 22 26 19 27 21 28 20 29 29 30 30 31 31 32 32 33 33 34
REMARK SMILES IDX 34 35 35 36 36 37 88 38 37 39 87 40 38 41 39 42 40 43 81 44
REMARK SMILES IDX 41 45 86 46 80 47 82 48 42 49 85 50 79 51 78 52 43 54 69 55
REMARK SMILES IDX 52 56 68 57 53 58 56 59 67 60 83 61 54 62 55 63 66 65 84 66
REMARK SMILES IDX 57 67 44 68 45 69 50 70 46 71 47 72 49 73 51 74 48 75 70 76
REMARK SMILES IDX 71 77 76 78 72 79 73 80 75 81 77 82 74 83 58 84 59 85 64 86
REMARK SMILES IDX 60 87 61 88 63 89 65 90 62 91
REMARK H PARENT 6 13 82 53 56 64
REMARK Flexibility Score: inf
ROOT
ATOM      1  C   UNL A   1      46.104  20.879  24.997  1.00  0.00     0.202 C 
ENDROOT
BRANCH   1   2
ATOM      2  C   UNL A   1      44.580  20.235  24.975  1.00  0.00     0.261 C 
BRANCH   2   3
ATOM      3  O   UNL A   1      42.911  20.879  25.680  1.00  0.00    -0.462 OA
BRANCH   3   4
ATOM      4  C   UNL A   1      41.686  21.598  25.894  1.00  0.00     0.328 C 
ATOM      5  O   UNL A   1      40.562  21.214  25.566  1.00  0.00    -0.250 OA
BRANCH   4   6
ATOM      6  C   UNL A   1      41.772  22.815  26.910  1.00  0.00     0.195 C 
BRANCH   6   7
ATOM      7  C   UNL A   1      42.928  22.582  27.912  1.00  0.00     0.019 C 
ATOM      8  C   UNL A   1      42.453  22.650  29.366  1.00  0.00     0.010 C 
BRANCH   7   9
ATOM      9  C   UNL A   1      44.055  23.548  27.540  1.00  0.00     0.002 C 
ATOM     10  C   UNL A   1      44.767  24.250  28.664  1.00  0.00     0.004 C 
ENDBRANCH   7   9
ENDBRANCH   6   7
BRANCH   6  11
ATOM     11  N   UNL A   1      40.639  23.345  27.671  1.00  0.00    -0.342 N 
ATOM     12  C   UNL A   1      40.349  24.627  27.965  1.00  0.00     0.225 C 
ATOM     13  H   UNL A   1      40.004  22.675  28.013  1.00  0.00     0.164 HD
ATOM     14  O   UNL A   1      39.234  24.937  28.376  1.00  0.00    -0.275 OA
BRANCH  12  15
ATOM     15  C   UNL A   1      41.435  25.625  27.779  1.00  0.00     0.094 C 
ATOM     16  C   UNL A   1      41.440  26.207  25.934  1.00  0.00     0.016 C 
ATOM     17  C   UNL A   1      41.257  26.892  29.186  1.00  0.00     0.116 C 
ATOM     18  C   UNL A   1      41.488  28.131  25.568  1.00  0.00     0.018 C 
ATOM     19  N   UNL A   1      41.364  28.717  28.803  1.00  0.00    -0.197 NA
ATOM     20  C   UNL A   1      41.332  29.383  27.040  1.00  0.00     0.102 C 
BRANCH  19  21
ATOM     21  S   UNL A   1      40.642  29.697  30.016  1.00  0.00     0.243 S 
ATOM     22  O   UNL A   1      40.771  29.030  31.299  1.00  0.00    -0.207 OA
ATOM     23  O   UNL A   1      41.136  31.041  29.821  1.00  0.00    -0.207 OA
BRANCH  21  24
ATOM     24  C   UNL A   1      38.906  29.709  29.600  1.00  0.00     0.082 A 
ATOM     25  C   UNL A   1      37.960  29.321  30.553  1.00  0.00     0.022 A 
ATOM     26  C   UNL A   1      38.490  30.018  28.308  1.00  0.00     0.022 A 
ATOM     27  C   UNL A   1      36.597  29.328  30.251  1.00  0.00     0.001 A 
ATOM     28  C   UNL A   1      37.126  30.032  28.004  1.00  0.00     0.001 A 
ATOM     29  C   UNL A   1      36.180  29.702  28.978  1.00  0.00     0.000 A 
ENDBRANCH  21  24
ENDBRANCH  19  21
ENDBRANCH  12  15
ENDBRANCH   6  11
ENDBRANCH   4   6
ENDBRANCH   3   4
ENDBRANCH   2   3
ENDBRANCH   1   2
BRANCH   1  30
ATOM     30  O   UNL A   1      46.404  22.214  25.360  1.00  0.00    -0.374 OA
BRANCH  30  31
ATOM     31  C   UNL A   1      46.400  23.310  24.443  1.00  0.00     0.202 C 
BRANCH  31  32
ATOM     32  C   UNL A   1      47.128  24.645  24.728  1.00  0.00     0.261 C 
BRANCH  32  33
ATOM     33  O   UNL A   1      46.448  25.832  24.306  1.00  0.00    -0.460 OA
BRANCH  33  34
ATOM     34  C   UNL A   1      47.027  27.007  24.626  1.00  0.00     0.338 C 
ATOM     35  O   UNL A   1      47.693  27.713  23.891  1.00  0.00    -0.246 OA
BRANCH  34  36
ATOM     36  C   UNL A   1      46.518  27.428  25.953  1.00  0.00     0.060 A 
ATOM     37  C   UNL A   1      45.138  27.343  26.175  1.00  0.00     0.016 A 
ATOM     38  C   UNL A   1      47.361  27.917  26.955  1.00  0.00     0.016 A 
ATOM     39  C   UNL A   1      44.587  27.800  27.372  1.00  0.00     0.010 A 
ATOM     40  C   UNL A   1      46.800  28.417  28.142  1.00  0.00     0.010 A 
ATOM     41  C   UNL A   1      45.406  28.407  28.334  1.00  0.00    -0.014 A 
BRANCH  41  42
ATOM     42  C   UNL A   1      44.762  29.267  29.364  1.00  0.00     0.031 A 
ATOM     43  C   UNL A   1      44.471  28.658  30.709  1.00  0.00     0.074 A 
ATOM     44  C   UNL A   1      44.466  30.562  29.156  1.00  0.00     0.049 A 
ATOM     45  N   UNL A   1      43.947  29.207  31.774  1.00  0.00    -0.248 NA
ATOM     46  C   UNL A   1      44.797  27.232  30.863  1.00  0.00     0.031 C 
ATOM     47  C   UNL A   1      44.647  31.270  27.899  1.00  0.00     0.029 A 
ATOM     48  N   UNL A   1      43.939  31.508  30.006  1.00  0.00    -0.354 N 
ATOM     49  C   UNL A   1      43.846  28.188  32.710  1.00  0.00     0.074 A 
ATOM     50  C   UNL A   1      44.357  26.986  32.086  1.00  0.00     0.031 C 
ATOM     51  C   UNL A   1      44.247  32.543  28.062  1.00  0.00     0.029 A 
ATOM     52  C   UNL A   1      43.799  32.750  29.434  1.00  0.00     0.049 A 
ATOM     53  H   UNL A   1      43.685  31.314  30.938  1.00  0.00     0.167 HD
ATOM     54  C   UNL A   1      43.361  28.242  33.972  1.00  0.00     0.037 A 
ATOM     55  C   UNL A   1      43.365  33.921  29.945  1.00  0.00     0.037 A 
ATOM     56  C   UNL A   1      42.839  29.428  34.597  1.00  0.00     0.049 A 
ATOM     57  C   UNL A   1      42.849  33.961  31.359  1.00  0.00     0.074 A 
ATOM     58  C   UNL A   1      42.342  29.573  35.881  1.00  0.00     0.029 A 
ATOM     59  N   UNL A   1      42.730  30.666  33.985  1.00  0.00    -0.354 N 
ATOM     60  N   UNL A   1      42.800  33.000  32.249  1.00  0.00    -0.248 NA
ATOM     61  C   UNL A   1      42.299  35.242  31.832  1.00  0.00     0.031 C 
ATOM     62  C   UNL A   1      41.879  30.884  36.027  1.00  0.00     0.029 A 
ATOM     63  C   UNL A   1      42.151  31.575  34.858  1.00  0.00     0.049 A 
ATOM     64  H   UNL A   1      43.020  30.871  33.067  1.00  0.00     0.167 HD
ATOM     65  C   UNL A   1      42.219  33.558  33.380  1.00  0.00     0.074 A 
ATOM     66  C   UNL A   1      41.970  34.952  33.082  1.00  0.00     0.031 C 
ATOM     67  C   UNL A   1      41.903  32.962  34.557  1.00  0.00     0.037 A 
BRANCH  54  68
ATOM     68  C   UNL A   1      43.329  26.956  34.744  1.00  0.00     0.057 A 
ATOM     69  C   UNL A   1      42.164  26.189  34.867  1.00  0.00     0.134 A 
ATOM     70  C   UNL A   1      44.490  26.475  35.366  1.00  0.00     0.134 A 
ATOM     71  F   UNL A   1      41.014  26.605  34.314  1.00  0.00    -0.206 F 
ATOM     72  C   UNL A   1      42.147  25.003  35.602  1.00  0.00     0.040 A 
ATOM     73  C   UNL A   1      44.492  25.276  36.076  1.00  0.00     0.040 A 
ATOM     74  F   UNL A   1      45.639  27.162  35.287  1.00  0.00    -0.206 F 
ATOM     75  C   UNL A   1      43.316  24.539  36.202  1.00  0.00     0.006 A 
ENDBRANCH  54  68
BRANCH  55  76
ATOM     76  C   UNL A   1      43.400  35.170  29.132  1.00  0.00     0.057 A 
ATOM     77  C   UNL A   1      42.251  35.638  28.479  1.00  0.00     0.134 A 
ATOM     78  C   UNL A   1      44.576  35.909  28.956  1.00  0.00     0.134 A 
ATOM     79  F   UNL A   1      41.095  34.963  28.579  1.00  0.00    -0.206 F 
ATOM     80  C   UNL A   1      42.273  36.776  27.669  1.00  0.00     0.040 A 
ATOM     81  C   UNL A   1      44.604  37.072  28.182  1.00  0.00     0.040 A 
ATOM     82  F   UNL A   1      45.716  35.517  29.542  1.00  0.00    -0.206 F 
ATOM     83  C   UNL A   1      43.454  37.502  27.526  1.00  0.00     0.006 A 
ENDBRANCH  55  76
BRANCH  67  84
ATOM     84  C   UNL A   1      41.277  33.817  35.621  1.00  0.00     0.057 A 
ATOM     85  C   UNL A   1      42.043  34.622  36.476  1.00  0.00     0.134 A 
ATOM     86  C   UNL A   1      39.885  33.864  35.770  1.00  0.00     0.134 A 
ATOM     87  F   UNL A   1      43.382  34.618  36.395  1.00  0.00    -0.206 F 
ATOM     88  C   UNL A   1      41.449  35.419  37.456  1.00  0.00     0.040 A 
ATOM     89  C   UNL A   1      39.278  34.681  36.726  1.00  0.00     0.040 A 
ATOM     90  F   UNL A   1      39.090  33.128  34.979  1.00  0.00    -0.206 F 
ATOM     91  C   UNL A   1      40.062  35.455  37.578  1.00  0.00     0.006 A 
ENDBRANCH  67  84
ENDBRANCH  41  42
ENDBRANCH  34  36
ENDBRANCH  33  34
ENDBRANCH  32  33
ENDBRANCH  31  32
ENDBRANCH  30  31
ENDBRANCH   1  30
TORSDOF 20
ENDMDL
MODEL 2
REMARK VINA RESULT:      -8.7      3.481     10.442
REMARK SMILES CC[C@@H](C)[C@H](NC(=O)[C@H]1CCCN(S(=O)(=O)c2ccccc2)C1)C(=O)OCCOCCOC(=O)c1ccc(-c2c3nc(c(-c4c(F)cccc4F)c4ccc([nH]4)c(-c4c(F)cccc4F)c4nc(c(-c5c(F)cccc5F)c5ccc2[nH]5)C=C4)C=C3)cc1
REMARK SMILES IDX 28 1 27 2 26 3 24 4 25 5 5 6 3 7 4 8 2 9 1 10 6 11 7 12 8 14
REMARK SMILES IDX 9 15 10 16 23 17 11 18 13 19 12 20 14 21 15 22 16 23 17 24
REMARK SMILES IDX 18 25 22 26 19 27 21 28 20 29 29 30 30 31 31 32 32 33 33 34
REMARK SMILES IDX 34 35 35 36 36 37 88 38 37 39 87 40 38 41 39 42 40 43 81 44
REMARK SMILES IDX 41 45 86 46 80 47 82 48 42 49 85 50 79 51 78 52 43 54 69 55
REMARK SMILES IDX 52 56 68 57 53 58 56 59 67 60 83 61 54 62 55 63 66 65 84 66
REMARK SMILES IDX 57 67 44 68 45 69 50 70 46 71 47 72 49 73 51 74 48 75 70 76
REMARK SMILES IDX 71 77 76 78 72 79 73 80 75 81 77 82 74 83 58 84 59 85 64 86
REMARK SMILES IDX 60 87 61 88 63 89 65 90 62 91
REMARK H PARENT 6 13 82 53 56 64
REMARK Flexibility Score: inf
ROOT
ATOM      1  C   UNL A   1      35.120  34.951  33.565  1.00  0.00     0.202 C 
ENDROOT
BRANCH   1   2
ATOM      2  C   UNL A   1      35.663  33.751  34.567  1.00  0.00     0.261 C 
BRANCH   2   3
ATOM      3  O   UNL A   1      37.418  33.015  34.845  1.00  0.00    -0.462 OA
BRANCH   3   4
ATOM      4  C   UNL A   1      38.834  32.842  35.015  1.00  0.00     0.328 C 
ATOM      5  O   UNL A   1      39.448  32.958  36.076  1.00  0.00    -0.250 OA
BRANCH   4   6
ATOM      6  C   UNL A   1      39.590  32.141  33.808  1.00  0.00     0.195 C 
BRANCH   6   7
ATOM      7  C   UNL A   1      39.611  33.084  32.582  1.00  0.00     0.019 C 
ATOM      8  C   UNL A   1      39.384  32.328  31.269  1.00  0.00     0.010 C 
BRANCH   7   9
ATOM      9  C   UNL A   1      40.903  33.902  32.658  1.00  0.00     0.002 C 
ATOM     10  C   UNL A   1      42.005  33.379  33.536  1.00  0.00     0.004 C 
ENDBRANCH   7   9
ENDBRANCH   6   7
BRANCH   6  11
ATOM     11  N   UNL A   1      39.299  30.793  33.314  1.00  0.00    -0.342 N 
ATOM     12  C   UNL A   1      40.003  29.660  33.496  1.00  0.00     0.225 C 
ATOM     13  H   UNL A   1      38.478  30.704  32.777  1.00  0.00     0.164 HD
ATOM     14  O   UNL A   1      39.500  28.567  33.253  1.00  0.00    -0.275 OA
BRANCH  12  15
ATOM     15  C   UNL A   1      41.398  29.803  33.990  1.00  0.00     0.094 C 
ATOM     16  C   UNL A   1      41.488  29.153  35.810  1.00  0.00     0.016 C 
ATOM     17  C   UNL A   1      42.528  29.067  32.649  1.00  0.00     0.116 C 
ATOM     18  C   UNL A   1      42.915  27.894  36.276  1.00  0.00     0.018 C 
ATOM     19  N   UNL A   1      43.913  27.914  33.140  1.00  0.00    -0.197 NA
ATOM     20  C   UNL A   1      44.060  27.194  34.876  1.00  0.00     0.102 C 
BRANCH  19  21
ATOM     21  S   UNL A   1      44.451  26.926  31.842  1.00  0.00     0.243 S 
ATOM     22  O   UNL A   1      44.123  25.542  32.137  1.00  0.00    -0.207 OA
ATOM     23  O   UNL A   1      44.002  27.554  30.620  1.00  0.00    -0.207 OA
BRANCH  21  24
ATOM     24  C   UNL A   1      46.230  27.067  31.884  1.00  0.00     0.082 A 
ATOM     25  C   UNL A   1      46.991  26.079  32.514  1.00  0.00     0.022 A 
ATOM     26  C   UNL A   1      46.862  28.197  31.371  1.00  0.00     0.022 A 
ATOM     27  C   UNL A   1      48.384  26.167  32.553  1.00  0.00     0.001 A 
ATOM     28  C   UNL A   1      48.256  28.285  31.403  1.00  0.00     0.001 A 
ATOM     29  C   UNL A   1      49.017  27.265  31.980  1.00  0.00     0.000 A 
ENDBRANCH  21  24
ENDBRANCH  19  21
ENDBRANCH  12  15
ENDBRANCH   6  11
ENDBRANCH   4   6
ENDBRANCH   3   4
ENDBRANCH   2   3
ENDBRANCH   1   2
BRANCH   1  30
ATOM     30  O   UNL A   1      34.856  34.782  32.184  1.00  0.00    -0.374 OA
BRANCH  30  31
ATOM     31  C   UNL A   1      34.780  33.511  31.536  1.00  0.00     0.202 C 
BRANCH  31  32
ATOM     32  C   UNL A   1      36.001  32.833  30.870  1.00  0.00     0.261 C 
BRANCH  32  33
ATOM     33  O   UNL A   1      35.953  31.406  30.779  1.00  0.00    -0.460 OA
BRANCH  33  34
ATOM     34  C   UNL A   1      35.748  30.884  29.552  1.00  0.00     0.338 C 
ATOM     35  O   UNL A   1      34.839  31.157  28.789  1.00  0.00    -0.246 OA
BRANCH  34  36
ATOM     36  C   UNL A   1      36.947  30.100  29.174  1.00  0.00     0.060 A 
ATOM     37  C   UNL A   1      37.655  29.464  30.202  1.00  0.00     0.016 A 
ATOM     38  C   UNL A   1      37.389  30.000  27.852  1.00  0.00     0.016 A 
ATOM     39  C   UNL A   1      38.838  28.778  29.924  1.00  0.00     0.010 A 
ATOM     40  C   UNL A   1      38.602  29.346  27.580  1.00  0.00     0.010 A 
ATOM     41  C   UNL A   1      39.357  28.777  28.623  1.00  0.00    -0.014 A 
BRANCH  41  42
ATOM     42  C   UNL A   1      40.796  28.443  28.440  1.00  0.00     0.031 A 
ATOM     43  C   UNL A   1      41.148  27.033  28.052  1.00  0.00     0.074 A 
ATOM     44  C   UNL A   1      41.780  29.349  28.571  1.00  0.00     0.049 A 
ATOM     45  N   UNL A   1      42.321  26.507  27.807  1.00  0.00    -0.248 NA
ATOM     46  C   UNL A   1      40.028  26.085  27.948  1.00  0.00     0.031 C 
ATOM     47  C   UNL A   1      41.595  30.731  28.984  1.00  0.00     0.029 A 
ATOM     48  N   UNL A   1      43.138  29.232  28.376  1.00  0.00    -0.354 N 
ATOM     49  C   UNL A   1      42.084  25.163  27.557  1.00  0.00     0.074 A 
ATOM     50  C   UNL A   1      40.658  24.952  27.685  1.00  0.00     0.031 C 
ATOM     51  C   UNL A   1      42.795  31.338  29.002  1.00  0.00     0.029 A 
ATOM     52  C   UNL A   1      43.831  30.401  28.586  1.00  0.00     0.049 A 
ATOM     53  H   UNL A   1      43.574  28.390  28.111  1.00  0.00     0.167 HD
ATOM     54  C   UNL A   1      42.972  24.187  27.257  1.00  0.00     0.037 A 
ATOM     55  C   UNL A   1      45.142  30.692  28.461  1.00  0.00     0.037 A 
ATOM     56  C   UNL A   1      44.393  24.383  27.139  1.00  0.00     0.049 A 
ATOM     57  C   UNL A   1      46.110  29.593  28.107  1.00  0.00     0.074 A 
ATOM     58  C   UNL A   1      45.364  23.449  26.822  1.00  0.00     0.029 A 
ATOM     59  N   UNL A   1      45.049  25.586  27.347  1.00  0.00    -0.354 N 
ATOM     60  N   UNL A   1      45.868  28.336  27.830  1.00  0.00    -0.248 NA
ATOM     61  C   UNL A   1      47.539  29.948  28.078  1.00  0.00     0.031 C 
ATOM     62  C   UNL A   1      46.613  24.073  26.895  1.00  0.00     0.029 A 
ATOM     63  C   UNL A   1      46.416  25.413  27.188  1.00  0.00     0.049 A 
ATOM     64  H   UNL A   1      44.610  26.438  27.574  1.00  0.00     0.167 HD
ATOM     65  C   UNL A   1      47.106  27.753  27.593  1.00  0.00     0.074 A 
ATOM     66  C   UNL A   1      48.096  28.801  27.717  1.00  0.00     0.031 C 
ATOM     67  C   UNL A   1      47.398  26.458  27.315  1.00  0.00     0.037 A 
BRANCH  54  68
ATOM     68  C   UNL A   1      42.428  22.800  27.087  1.00  0.00     0.057 A 
ATOM     69  C   UNL A   1      42.031  22.015  28.176  1.00  0.00     0.134 A 
ATOM     70  C   UNL A   1      42.290  22.247  25.806  1.00  0.00     0.134 A 
ATOM     71  F   UNL A   1      42.158  22.477  29.429  1.00  0.00    -0.206 F 
ATOM     72  C   UNL A   1      41.541  20.720  28.001  1.00  0.00     0.040 A 
ATOM     73  C   UNL A   1      41.772  20.967  25.617  1.00  0.00     0.040 A 
ATOM     74  F   UNL A   1      42.652  22.946  24.720  1.00  0.00    -0.206 F 
ATOM     75  C   UNL A   1      41.403  20.196  26.717  1.00  0.00     0.006 A 
ENDBRANCH  54  68
BRANCH  55  76
ATOM     76  C   UNL A   1      45.639  32.084  28.658  1.00  0.00     0.057 A 
ATOM     77  C   UNL A   1      45.638  33.006  27.601  1.00  0.00     0.134 A 
ATOM     78  C   UNL A   1      46.156  32.522  29.883  1.00  0.00     0.134 A 
ATOM     79  F   UNL A   1      45.185  32.645  26.392  1.00  0.00    -0.206 F 
ATOM     80  C   UNL A   1      46.148  34.298  27.749  1.00  0.00     0.040 A 
ATOM     81  C   UNL A   1      46.631  33.824  30.057  1.00  0.00     0.040 A 
ATOM     82  F   UNL A   1      46.198  31.692  30.936  1.00  0.00    -0.206 F 
ATOM     83  C   UNL A   1      46.640  34.713  28.985  1.00  0.00     0.006 A 
ENDBRANCH  55  76
BRANCH  67  84
ATOM     84  C   UNL A   1      48.842  26.103  27.100  1.00  0.00     0.057 A 
ATOM     85  C   UNL A   1      49.482  26.302  25.869  1.00  0.00     0.134 A 
ATOM     86  C   UNL A   1      49.612  25.588  28.151  1.00  0.00     0.134 A 
ATOM     87  F   UNL A   1      48.801  26.782  24.818  1.00  0.00    -0.206 F 
ATOM     88  C   UNL A   1      50.827  25.976  25.684  1.00  0.00     0.040 A 
ATOM     89  C   UNL A   1      50.966  25.288  27.986  1.00  0.00     0.040 A 
ATOM     90  F   UNL A   1      49.067  25.382  29.358  1.00  0.00    -0.206 F 
ATOM     91  C   UNL A   1      51.575  25.474  26.747  1.00  0.00     0.006 A 
ENDBRANCH  67  84
ENDBRANCH  41  42
ENDBRANCH  34  36
ENDBRANCH  33  34
ENDBRANCH  32  33
ENDBRANCH  31  32
ENDBRANCH  30  31
ENDBRANCH   1  30
TORSDOF 20
ENDMDL
MODEL 3
REMARK VINA RESULT:      -8.5      3.402     11.264
REMARK SMILES CC[C@@H](C)[C@H](NC(=O)[C@H]1CCCN(S(=O)(=O)c2ccccc2)C1)C(=O)OCCOCCOC(=O)c1ccc(-c2c3nc(c(-c4c(F)cccc4F)c4ccc([nH]4)c(-c4c(F)cccc4F)c4nc(c(-c5c(F)cccc5F)c5ccc2[nH]5)C=C4)C=C3)cc1
REMARK SMILES IDX 28 1 27 2 26 3 24 4 25 5 5 6 3 7 4 8 2 9 1 10 6 11 7 12 8 14
REMARK SMILES IDX 9 15 10 16 23 17 11 18 13 19 12 20 14 21 15 22 16 23 17 24
REMARK SMILES IDX 18 25 22 26 19 27 21 28 20 29 29 30 30 31 31 32 32 33 33 34
REMARK SMILES IDX 34 35 35 36 36 37 88 38 37 39 87 40 38 41 39 42 40 43 81 44
REMARK SMILES IDX 41 45 86 46 80 47 82 48 42 49 85 50 79 51 78 52 43 54 69 55
REMARK SMILES IDX 52 56 68 57 53 58 56 59 67 60 83 61 54 62 55 63 66 65 84 66
REMARK SMILES IDX 57 67 44 68 45 69 50 70 46 71 47 72 49 73 51 74 48 75 70 76
REMARK SMILES IDX 71 77 76 78 72 79 73 80 75 81 77 82 74 83 58 84 59 85 64 86
REMARK SMILES IDX 60 87 61 88 63 89 65 90 62 91
REMARK H PARENT 6 13 82 53 56 64
REMARK Flexibility Score: inf
ROOT
ATOM      1  C   UNL A   1      37.506  32.529  34.726  1.00  0.00     0.202 C 
ENDROOT
BRANCH   1   2
ATOM      2  C   UNL A   1      38.153  31.895  36.110  1.00  0.00     0.261 C 
BRANCH   2   3
ATOM      3  O   UNL A   1      39.966  31.482  36.601  1.00  0.00    -0.462 OA
BRANCH   3   4
ATOM      4  C   UNL A   1      41.363  31.149  36.577  1.00  0.00     0.328 C 
ATOM      5  O   UNL A   1      42.078  30.980  37.566  1.00  0.00    -0.250 OA
BRANCH   4   6
ATOM      6  C   UNL A   1      41.928  30.653  35.178  1.00  0.00     0.195 C 
BRANCH   6   7
ATOM      7  C   UNL A   1      42.525  31.849  34.400  1.00  0.00     0.019 C 
ATOM      8  C   UNL A   1      42.203  31.783  32.904  1.00  0.00     0.010 C 
BRANCH   7   9
ATOM      9  C   UNL A   1      44.014  31.924  34.751  1.00  0.00     0.002 C 
ATOM     10  C   UNL A   1      44.812  30.652  34.664  1.00  0.00     0.004 C 
ENDBRANCH   7   9
ENDBRANCH   6   7
BRANCH   6  11
ATOM     11  N   UNL A   1      41.176  29.842  34.218  1.00  0.00    -0.342 N 
ATOM     12  C   UNL A   1      41.067  28.501  34.152  1.00  0.00     0.225 C 
ATOM     13  H   UNL A   1      40.685  30.344  33.528  1.00  0.00     0.164 HD
ATOM     14  O   UNL A   1      40.195  27.979  33.464  1.00  0.00    -0.275 OA
BRANCH  12  15
ATOM     15  C   UNL A   1      42.048  27.705  34.936  1.00  0.00     0.094 C 
ATOM     16  C   UNL A   1      41.095  26.364  35.953  1.00  0.00     0.016 C 
ATOM     17  C   UNL A   1      43.425  27.196  33.727  1.00  0.00     0.116 C 
ATOM     18  C   UNL A   1      41.734  24.513  35.875  1.00  0.00     0.018 C 
ATOM     19  N   UNL A   1      44.046  25.435  33.724  1.00  0.00    -0.197 NA
ATOM     20  C   UNL A   1      43.161  24.050  34.647  1.00  0.00     0.102 C 
BRANCH  19  21
ATOM     21  S   UNL A   1      44.837  25.008  32.259  1.00  0.00     0.243 S 
ATOM     22  O   UNL A   1      45.202  23.604  32.312  1.00  0.00    -0.207 OA
ATOM     23  O   UNL A   1      44.030  25.528  31.178  1.00  0.00    -0.207 OA
BRANCH  21  24
ATOM     24  C   UNL A   1      46.354  25.949  32.284  1.00  0.00     0.082 A 
ATOM     25  C   UNL A   1      46.433  27.159  31.587  1.00  0.00     0.022 A 
ATOM     26  C   UNL A   1      47.487  25.448  32.918  1.00  0.00     0.022 A 
ATOM     27  C   UNL A   1      47.607  27.914  31.598  1.00  0.00     0.001 A 
ATOM     28  C   UNL A   1      48.662  26.204  32.936  1.00  0.00     0.001 A 
ATOM     29  C   UNL A   1      48.718  27.441  32.290  1.00  0.00     0.000 A 
ENDBRANCH  21  24
ENDBRANCH  19  21
ENDBRANCH  12  15
ENDBRANCH   6  11
ENDBRANCH   4   6
ENDBRANCH   3   4
ENDBRANCH   2   3
ENDBRANCH   1   2
BRANCH   1  30
ATOM     30  O   UNL A   1      36.145  32.411  34.352  1.00  0.00    -0.374 OA
BRANCH  30  31
ATOM     31  C   UNL A   1      35.541  33.157  33.294  1.00  0.00     0.202 C 
BRANCH  31  32
ATOM     32  C   UNL A   1      34.956  32.492  32.026  1.00  0.00     0.261 C 
BRANCH  32  33
ATOM     33  O   UNL A   1      35.775  31.495  31.407  1.00  0.00    -0.460 OA
BRANCH  33  34
ATOM     34  C   UNL A   1      36.022  31.647  30.089  1.00  0.00     0.338 C 
ATOM     35  O   UNL A   1      35.583  32.521  29.364  1.00  0.00    -0.246 OA
BRANCH  34  36
ATOM     36  C   UNL A   1      37.113  30.718  29.711  1.00  0.00     0.060 A 
ATOM     37  C   UNL A   1      37.917  30.210  30.739  1.00  0.00     0.016 A 
ATOM     38  C   UNL A   1      37.364  30.363  28.383  1.00  0.00     0.016 A 
ATOM     39  C   UNL A   1      39.010  29.397  30.443  1.00  0.00     0.010 A 
ATOM     40  C   UNL A   1      38.491  29.579  28.083  1.00  0.00     0.010 A 
ATOM     41  C   UNL A   1      39.348  29.136  29.108  1.00  0.00    -0.014 A 
BRANCH  41  42
ATOM     42  C   UNL A   1      40.727  28.663  28.810  1.00  0.00     0.031 A 
ATOM     43  C   UNL A   1      41.861  29.633  29.003  1.00  0.00     0.074 A 
ATOM     44  C   UNL A   1      41.002  27.408  28.414  1.00  0.00     0.049 A 
ATOM     45  N   UNL A   1      43.146  29.452  28.840  1.00  0.00    -0.248 NA
ATOM     46  C   UNL A   1      41.491  30.996  29.415  1.00  0.00     0.031 C 
ATOM     47  C   UNL A   1      40.009  26.380  28.144  1.00  0.00     0.029 A 
ATOM     48  N   UNL A   1      42.207  26.791  28.163  1.00  0.00    -0.354 N 
ATOM     49  C   UNL A   1      43.734  30.683  29.092  1.00  0.00     0.074 A 
ATOM     50  C   UNL A   1      42.665  31.605  29.413  1.00  0.00     0.031 C 
ATOM     51  C   UNL A   1      40.647  25.255  27.773  1.00  0.00     0.029 A 
ATOM     52  C   UNL A   1      42.088  25.471  27.797  1.00  0.00     0.049 A 
ATOM     53  H   UNL A   1      43.074  27.251  28.240  1.00  0.00     0.167 HD
ATOM     54  C   UNL A   1      45.043  31.022  29.051  1.00  0.00     0.037 A 
ATOM     55  C   UNL A   1      43.022  24.540  27.513  1.00  0.00     0.037 A 
ATOM     56  C   UNL A   1      46.112  30.116  28.721  1.00  0.00     0.049 A 
ATOM     57  C   UNL A   1      44.475  24.935  27.493  1.00  0.00     0.074 A 
ATOM     58  C   UNL A   1      47.471  30.375  28.672  1.00  0.00     0.029 A 
ATOM     59  N   UNL A   1      45.946  28.786  28.370  1.00  0.00    -0.354 N 
ATOM     60  N   UNL A   1      45.020  26.093  27.776  1.00  0.00    -0.248 NA
ATOM     61  C   UNL A   1      45.441  23.903  27.083  1.00  0.00     0.031 C 
ATOM     62  C   UNL A   1      48.122  29.218  28.235  1.00  0.00     0.029 A 
ATOM     63  C   UNL A   1      47.177  28.217  28.080  1.00  0.00     0.049 A 
ATOM     64  H   UNL A   1      45.082  28.314  28.333  1.00  0.00     0.167 HD
ATOM     65  C   UNL A   1      46.386  25.928  27.582  1.00  0.00     0.074 A 
ATOM     66  C   UNL A   1      46.593  24.548  27.197  1.00  0.00     0.031 C 
ATOM     67  C   UNL A   1      47.378  26.845  27.695  1.00  0.00     0.037 A 
BRANCH  54  68
ATOM     68  C   UNL A   1      45.383  32.457  29.323  1.00  0.00     0.057 A 
ATOM     69  C   UNL A   1      45.651  32.928  30.615  1.00  0.00     0.134 A 
ATOM     70  C   UNL A   1      45.454  33.379  28.270  1.00  0.00     0.134 A 
ATOM     71  F   UNL A   1      45.578  32.102  31.669  1.00  0.00    -0.206 F 
ATOM     72  C   UNL A   1      45.951  34.270  30.852  1.00  0.00     0.040 A 
ATOM     73  C   UNL A   1      45.785  34.715  28.491  1.00  0.00     0.040 A 
ATOM     74  F   UNL A   1      45.209  32.993  27.009  1.00  0.00    -0.206 F 
ATOM     75  C   UNL A   1      46.027  35.166  29.787  1.00  0.00     0.006 A 
ENDBRANCH  54  68
BRANCH  55  76
ATOM     76  C   UNL A   1      42.633  23.128  27.231  1.00  0.00     0.057 A 
ATOM     77  C   UNL A   1      42.539  22.656  25.914  1.00  0.00     0.134 A 
ATOM     78  C   UNL A   1      42.314  22.227  28.254  1.00  0.00     0.134 A 
ATOM     79  F   UNL A   1      42.801  23.473  24.883  1.00  0.00    -0.206 F 
ATOM     80  C   UNL A   1      42.124  21.353  25.625  1.00  0.00     0.040 A 
ATOM     81  C   UNL A   1      41.938  20.909  27.982  1.00  0.00     0.040 A 
ATOM     82  F   UNL A   1      42.372  22.612  29.537  1.00  0.00    -0.206 F 
ATOM     83  C   UNL A   1      41.831  20.472  26.664  1.00  0.00     0.006 A 
ENDBRANCH  55  76
BRANCH  67  84
ATOM     84  C   UNL A   1      48.782  26.383  27.425  1.00  0.00     0.057 A 
ATOM     85  C   UNL A   1      49.554  25.736  28.400  1.00  0.00     0.134 A 
ATOM     86  C   UNL A   1      49.358  26.557  26.160  1.00  0.00     0.134 A 
ATOM     87  F   UNL A   1      49.069  25.546  29.637  1.00  0.00    -0.206 F 
ATOM     88  C   UNL A   1      50.855  25.305  28.135  1.00  0.00     0.040 A 
ATOM     89  C   UNL A   1      50.647  26.101  25.874  1.00  0.00     0.040 A 
ATOM     90  F   UNL A   1      48.673  27.158  25.176  1.00  0.00    -0.206 F 
ATOM     91  C   UNL A   1      51.402  25.481  26.866  1.00  0.00     0.006 A 
ENDBRANCH  67  84
ENDBRANCH  41  42
ENDBRANCH  34  36
ENDBRANCH  33  34
ENDBRANCH  32  33
ENDBRANCH  31  32
ENDBRANCH  30  31
ENDBRANCH   1  30
TORSDOF 20
ENDMDL
