MODEL 1
REMARK VINA RESULT:     -11.1      0.000      0.000
REMARK SMILES C[C@@H](C(=O)OCCOCCOC(=O)c1ccc(-c2c3nc(c(-c4c(F)cccc4F)c4ccc([nH]4)c(-c4c(F)cccc4F)c4nc(c(-c5c(F)cccc5F)c5ccc2[nH]5)C=C4)C=C3)cc1)c1ccc(Cc2ccco2)cc1F
REMARK SMILES IDX 7 1 6 2 5 3 3 4 4 5 2 6 1 7 68 8 69 9 79 10 70 11 78 12
REMARK SMILES IDX 80 13 71 14 72 15 73 16 74 17 77 18 75 19 76 20 8 21 9 22
REMARK SMILES IDX 10 23 11 24 12 25 13 26 14 27 15 28 67 29 16 30 66 31 17 32
REMARK SMILES IDX 18 33 19 34 60 35 20 36 65 37 59 38 61 39 21 40 64 41 58 42
REMARK SMILES IDX 57 43 22 45 48 46 31 47 47 48 32 49 35 50 46 51 62 52 33 53
REMARK SMILES IDX 34 54 45 56 63 57 36 58 23 59 24 60 29 61 25 62 26 63 28 64
REMARK SMILES IDX 30 65 27 66 49 67 50 68 55 69 51 70 52 71 54 72 56 73 53 74
REMARK SMILES IDX 37 75 38 76 43 77 39 78 40 79 42 80 44 81 41 82
REMARK H PARENT 61 44 35 55
REMARK Flexibility Score: inf
ROOT
ATOM      1  C   UNL A   1      35.027  34.012  29.257  1.00  0.00     0.202 C 
ENDROOT
BRANCH   1   2
ATOM      2  C   UNL A   1      34.818  33.116  28.033  1.00  0.00     0.261 C 
BRANCH   2   3
ATOM      3  O   UNL A   1      34.401  31.806  28.459  1.00  0.00    -0.463 OA
BRANCH   3   4
ATOM      4  C   UNL A   1      33.492  31.186  27.661  1.00  0.00     0.313 C 
ATOM      5  O   UNL A   1      32.541  31.754  27.137  1.00  0.00    -0.252 OA
BRANCH   4   6
ATOM      6  C   UNL A   1      33.830  29.709  27.422  1.00  0.00     0.129 C 
ATOM      7  C   UNL A   1      35.321  29.390  27.266  1.00  0.00     0.025 C 
BRANCH   6   8
ATOM      8  C   UNL A   1      33.043  29.144  26.250  1.00  0.00     0.002 A 
ATOM      9  C   UNL A   1      33.482  29.285  24.926  1.00  0.00     0.008 A 
ATOM     10  C   UNL A   1      31.845  28.462  26.467  1.00  0.00     0.127 A 
ATOM     11  C   UNL A   1      32.732  28.784  23.862  1.00  0.00     0.005 A 
ATOM     12  C   UNL A   1      31.070  27.988  25.406  1.00  0.00     0.043 A 
ATOM     13  F   UNL A   1      31.413  28.263  27.720  1.00  0.00    -0.207 F 
ATOM     14  C   UNL A   1      31.494  28.167  24.083  1.00  0.00    -0.038 A 
BRANCH  14  15
ATOM     15  C   UNL A   1      30.638  27.720  22.916  1.00  0.00     0.111 C 
BRANCH  15  16
ATOM     16  C   UNL A   1      29.582  28.706  22.536  1.00  0.00     0.108 A 
ATOM     17  C   UNL A   1      28.261  28.886  22.901  1.00  0.00     0.046 A 
ATOM     18  O   UNL A   1      29.949  29.684  21.655  1.00  0.00    -0.469 OA
ATOM     19  C   UNL A   1      27.792  30.013  22.187  1.00  0.00     0.042 A 
ATOM     20  C   UNL A   1      28.859  30.467  21.450  1.00  0.00     0.195 A 
ENDBRANCH  15  16
ENDBRANCH  14  15
ENDBRANCH   6   8
ENDBRANCH   4   6
ENDBRANCH   3   4
ENDBRANCH   2   3
ENDBRANCH   1   2
BRANCH   1  21
ATOM     21  O   UNL A   1      33.929  34.061  30.174  1.00  0.00    -0.374 OA
BRANCH  21  22
ATOM     22  C   UNL A   1      34.196  34.601  31.468  1.00  0.00     0.202 C 
BRANCH  22  23
ATOM     23  C   UNL A   1      34.185  33.611  32.634  1.00  0.00     0.261 C 
BRANCH  23  24
ATOM     24  O   UNL A   1      34.875  32.397  32.303  1.00  0.00    -0.460 OA
BRANCH  24  25
ATOM     25  C   UNL A   1      36.027  32.208  32.986  1.00  0.00     0.338 C 
ATOM     26  O   UNL A   1      36.251  32.491  34.157  1.00  0.00    -0.246 OA
BRANCH  25  27
ATOM     27  C   UNL A   1      36.971  31.428  32.169  1.00  0.00     0.060 A 
ATOM     28  C   UNL A   1      37.994  30.755  32.847  1.00  0.00     0.016 A 
ATOM     29  C   UNL A   1      36.893  31.390  30.774  1.00  0.00     0.016 A 
ATOM     30  C   UNL A   1      38.986  30.094  32.131  1.00  0.00     0.010 A 
ATOM     31  C   UNL A   1      37.895  30.733  30.055  1.00  0.00     0.010 A 
ATOM     32  C   UNL A   1      38.966  30.119  30.731  1.00  0.00    -0.014 A 
BRANCH  32  33
ATOM     33  C   UNL A   1      40.160  29.658  29.988  1.00  0.00     0.031 A 
ATOM     34  C   UNL A   1      41.299  30.620  29.786  1.00  0.00     0.074 A 
ATOM     35  C   UNL A   1      40.249  28.392  29.546  1.00  0.00     0.049 A 
ATOM     36  N   UNL A   1      42.438  30.439  29.170  1.00  0.00    -0.248 NA
ATOM     37  C   UNL A   1      41.129  31.966  30.357  1.00  0.00     0.031 C 
ATOM     38  C   UNL A   1      39.228  27.361  29.723  1.00  0.00     0.029 A 
ATOM     39  N   UNL A   1      41.253  27.761  28.858  1.00  0.00    -0.354 N 
ATOM     40  C   UNL A   1      43.117  31.647  29.274  1.00  0.00     0.074 A 
ATOM     41  C   UNL A   1      42.252  32.562  29.987  1.00  0.00     0.031 C 
ATOM     42  C   UNL A   1      39.657  26.223  29.151  1.00  0.00     0.029 A 
ATOM     43  C   UNL A   1      40.968  26.454  28.547  1.00  0.00     0.049 A 
ATOM     44  H   UNL A   1      42.098  28.202  28.610  1.00  0.00     0.167 HD
ATOM     45  C   UNL A   1      44.355  31.960  28.825  1.00  0.00     0.037 A 
ATOM     46  C   UNL A   1      41.681  25.557  27.841  1.00  0.00     0.037 A 
ATOM     47  C   UNL A   1      45.214  31.046  28.122  1.00  0.00     0.049 A 
ATOM     48  C   UNL A   1      43.026  25.952  27.293  1.00  0.00     0.074 A 
ATOM     49  C   UNL A   1      46.495  31.259  27.644  1.00  0.00     0.029 A 
ATOM     50  N   UNL A   1      44.873  29.743  27.791  1.00  0.00    -0.354 N 
ATOM     51  N   UNL A   1      43.671  27.087  27.420  1.00  0.00    -0.248 NA
ATOM     52  C   UNL A   1      43.744  24.940  26.504  1.00  0.00     0.031 C 
ATOM     53  C   UNL A   1      46.912  30.099  26.984  1.00  0.00     0.029 A 
ATOM     54  C   UNL A   1      45.909  29.148  27.092  1.00  0.00     0.049 A 
ATOM     55  H   UNL A   1      44.022  29.306  28.020  1.00  0.00     0.167 HD
ATOM     56  C   UNL A   1      44.878  26.917  26.754  1.00  0.00     0.074 A 
ATOM     57  C   UNL A   1      44.880  25.565  26.233  1.00  0.00     0.031 C 
ATOM     58  C   UNL A   1      45.895  27.799  26.589  1.00  0.00     0.037 A 
BRANCH  45  59
ATOM     59  C   UNL A   1      44.839  33.360  29.058  1.00  0.00     0.057 A 
ATOM     60  C   UNL A   1      45.583  33.708  30.194  1.00  0.00     0.134 A 
ATOM     61  C   UNL A   1      44.582  34.367  28.120  1.00  0.00     0.134 A 
ATOM     62  F   UNL A   1      45.848  32.793  31.139  1.00  0.00    -0.206 F 
ATOM     63  C   UNL A   1      46.035  35.013  30.398  1.00  0.00     0.040 A 
ATOM     64  C   UNL A   1      45.050  35.670  28.301  1.00  0.00     0.040 A 
ATOM     65  F   UNL A   1      43.877  34.101  27.010  1.00  0.00    -0.206 F 
ATOM     66  C   UNL A   1      45.775  35.996  29.446  1.00  0.00     0.006 A 
ENDBRANCH  45  59
BRANCH  46  67
ATOM     67  C   UNL A   1      41.138  24.196  27.602  1.00  0.00     0.057 A 
ATOM     68  C   UNL A   1      41.639  23.083  28.286  1.00  0.00     0.134 A 
ATOM     69  C   UNL A   1      40.119  23.974  26.667  1.00  0.00     0.134 A 
ATOM     70  F   UNL A   1      42.630  23.230  29.178  1.00  0.00    -0.206 F 
ATOM     71  C   UNL A   1      41.158  21.797  28.039  1.00  0.00     0.040 A 
ATOM     72  C   UNL A   1      39.613  22.696  26.426  1.00  0.00     0.040 A 
ATOM     73  F   UNL A   1      39.597  25.000  25.978  1.00  0.00    -0.206 F 
ATOM     74  C   UNL A   1      40.139  21.600  27.110  1.00  0.00     0.006 A 
ENDBRANCH  46  67
BRANCH  58  75
ATOM     75  C   UNL A   1      47.107  27.318  25.846  1.00  0.00     0.057 A 
ATOM     76  C   UNL A   1      48.145  26.633  26.491  1.00  0.00     0.134 A 
ATOM     77  C   UNL A   1      47.215  27.506  24.462  1.00  0.00     0.134 A 
ATOM     78  F   UNL A   1      48.106  26.432  27.817  1.00  0.00    -0.206 F 
ATOM     79  C   UNL A   1      49.258  26.171  25.787  1.00  0.00     0.040 A 
ATOM     80  C   UNL A   1      48.311  27.026  23.745  1.00  0.00     0.040 A 
ATOM     81  F   UNL A   1      46.250  28.145  23.785  1.00  0.00    -0.206 F 
ATOM     82  C   UNL A   1      49.339  26.360  24.409  1.00  0.00     0.006 A 
ENDBRANCH  58  75
ENDBRANCH  32  33
ENDBRANCH  25  27
ENDBRANCH  24  25
ENDBRANCH  23  24
ENDBRANCH  22  23
ENDBRANCH  21  22
ENDBRANCH   1  21
TORSDOF 17
ENDMDL
MODEL 2
REMARK VINA RESULT:     -10.9      3.829      6.325
REMARK SMILES C[C@@H](C(=O)OCCOCCOC(=O)c1ccc(-c2c3nc(c(-c4c(F)cccc4F)c4ccc([nH]4)c(-c4c(F)cccc4F)c4nc(c(-c5c(F)cccc5F)c5ccc2[nH]5)C=C4)C=C3)cc1)c1ccc(Cc2ccco2)cc1F
REMARK SMILES IDX 7 1 6 2 5 3 3 4 4 5 2 6 1 7 68 8 69 9 79 10 70 11 78 12
REMARK SMILES IDX 80 13 71 14 72 15 73 16 74 17 77 18 75 19 76 20 8 21 9 22
REMARK SMILES IDX 10 23 11 24 12 25 13 26 14 27 15 28 67 29 16 30 66 31 17 32
REMARK SMILES IDX 18 33 19 34 60 35 20 36 65 37 59 38 61 39 21 40 64 41 58 42
REMARK SMILES IDX 57 43 22 45 48 46 31 47 47 48 32 49 35 50 46 51 62 52 33 53
REMARK SMILES IDX 34 54 45 56 63 57 36 58 23 59 24 60 29 61 25 62 26 63 28 64
REMARK SMILES IDX 30 65 27 66 49 67 50 68 55 69 51 70 52 71 54 72 56 73 53 74
REMARK SMILES IDX 37 75 38 76 43 77 39 78 40 79 42 80 44 81 41 82
REMARK H PARENT 61 44 35 55
REMARK Flexibility Score: inf
ROOT
ATOM      1  C   UNL A   1      32.771  29.898  26.090  1.00  0.00     0.202 C 
ENDROOT
BRANCH   1   2
ATOM      2  C   UNL A   1      32.624  28.390  26.306  1.00  0.00     0.261 C 
BRANCH   2   3
ATOM      3  O   UNL A   1      33.438  27.683  25.353  1.00  0.00    -0.463 OA
BRANCH   3   4
ATOM      4  C   UNL A   1      33.173  26.357  25.216  1.00  0.00     0.313 C 
ATOM      5  O   UNL A   1      33.284  25.540  26.124  1.00  0.00    -0.252 OA
BRANCH   4   6
ATOM      6  C   UNL A   1      32.643  26.003  23.822  1.00  0.00     0.129 C 
ATOM      7  C   UNL A   1      33.632  26.203  22.669  1.00  0.00     0.025 C 
BRANCH   6   8
ATOM      8  C   UNL A   1      31.335  26.721  23.527  1.00  0.00     0.002 A 
ATOM      9  C   UNL A   1      31.288  27.880  22.739  1.00  0.00     0.008 A 
ATOM     10  C   UNL A   1      30.132  26.238  24.043  1.00  0.00     0.127 A 
ATOM     11  C   UNL A   1      30.083  28.541  22.503  1.00  0.00     0.005 A 
ATOM     12  C   UNL A   1      28.926  26.913  23.842  1.00  0.00     0.043 A 
ATOM     13  F   UNL A   1      30.125  25.107  24.762  1.00  0.00    -0.207 F 
ATOM     14  C   UNL A   1      28.891  28.092  23.087  1.00  0.00    -0.038 A 
BRANCH  14  15
ATOM     15  C   UNL A   1      27.606  28.875  22.911  1.00  0.00     0.111 C 
BRANCH  15  16
ATOM     16  C   UNL A   1      27.819  30.275  22.435  1.00  0.00     0.108 A 
ATOM     17  C   UNL A   1      27.982  31.491  23.072  1.00  0.00     0.046 A 
ATOM     18  O   UNL A   1      27.904  30.454  21.083  1.00  0.00    -0.469 OA
ATOM     19  C   UNL A   1      28.148  32.463  22.058  1.00  0.00     0.042 A 
ATOM     20  C   UNL A   1      28.101  31.780  20.867  1.00  0.00     0.195 A 
ENDBRANCH  15  16
ENDBRANCH  14  15
ENDBRANCH   6   8
ENDBRANCH   4   6
ENDBRANCH   3   4
ENDBRANCH   2   3
ENDBRANCH   1   2
BRANCH   1  21
ATOM     21  O   UNL A   1      32.257  30.720  27.143  1.00  0.00    -0.374 OA
BRANCH  21  22
ATOM     22  C   UNL A   1      31.473  31.847  26.753  1.00  0.00     0.202 C 
BRANCH  22  23
ATOM     23  C   UNL A   1      32.153  33.215  26.846  1.00  0.00     0.261 C 
BRANCH  23  24
ATOM     24  O   UNL A   1      32.345  33.617  28.210  1.00  0.00    -0.460 OA
BRANCH  24  25
ATOM     25  C   UNL A   1      33.421  34.410  28.410  1.00  0.00     0.338 C 
ATOM     26  O   UNL A   1      33.434  35.631  28.516  1.00  0.00    -0.246 OA
BRANCH  25  27
ATOM     27  C   UNL A   1      34.611  33.584  28.670  1.00  0.00     0.060 A 
ATOM     28  C   UNL A   1      34.397  32.319  29.232  1.00  0.00     0.016 A 
ATOM     29  C   UNL A   1      35.906  34.045  28.421  1.00  0.00     0.016 A 
ATOM     30  C   UNL A   1      35.481  31.534  29.609  1.00  0.00     0.010 A 
ATOM     31  C   UNL A   1      36.994  33.258  28.808  1.00  0.00     0.010 A 
ATOM     32  C   UNL A   1      36.783  32.020  29.441  1.00  0.00    -0.014 A 
BRANCH  32  33
ATOM     33  C   UNL A   1      37.905  31.306  30.091  1.00  0.00     0.031 A 
ATOM     34  C   UNL A   1      38.196  31.589  31.539  1.00  0.00     0.074 A 
ATOM     35  C   UNL A   1      38.618  30.387  29.419  1.00  0.00     0.049 A 
ATOM     36  N   UNL A   1      39.123  31.087  32.313  1.00  0.00    -0.248 NA
ATOM     37  C   UNL A   1      37.323  32.571  32.204  1.00  0.00     0.031 C 
ATOM     38  C   UNL A   1      38.398  29.998  28.027  1.00  0.00     0.029 A 
ATOM     39  N   UNL A   1      39.673  29.611  29.825  1.00  0.00    -0.354 N 
ATOM     40  C   UNL A   1      38.948  31.693  33.551  1.00  0.00     0.074 A 
ATOM     41  C   UNL A   1      37.846  32.621  33.419  1.00  0.00     0.031 C 
ATOM     42  C   UNL A   1      39.298  29.058  27.692  1.00  0.00     0.029 A 
ATOM     43  C   UNL A   1      40.170  28.799  28.835  1.00  0.00     0.049 A 
ATOM     44  H   UNL A   1      40.040  29.633  30.739  1.00  0.00     0.167 HD
ATOM     45  C   UNL A   1      39.638  31.487  34.697  1.00  0.00     0.037 A 
ATOM     46  C   UNL A   1      41.221  27.958  28.852  1.00  0.00     0.037 A 
ATOM     47  C   UNL A   1      40.729  30.558  34.826  1.00  0.00     0.049 A 
ATOM     48  C   UNL A   1      42.015  27.796  30.121  1.00  0.00     0.074 A 
ATOM     49  C   UNL A   1      41.479  30.259  35.949  1.00  0.00     0.029 A 
ATOM     50  N   UNL A   1      41.229  29.783  33.790  1.00  0.00    -0.354 N 
ATOM     51  N   UNL A   1      41.826  28.353  31.293  1.00  0.00    -0.248 NA
ATOM     52  C   UNL A   1      43.169  26.887  30.069  1.00  0.00     0.031 C 
ATOM     53  C   UNL A   1      42.464  29.336  35.582  1.00  0.00     0.029 A 
ATOM     54  C   UNL A   1      42.296  29.025  34.241  1.00  0.00     0.049 A 
ATOM     55  H   UNL A   1      40.877  29.774  32.871  1.00  0.00     0.167 HD
ATOM     56  C   UNL A   1      42.816  27.843  32.122  1.00  0.00     0.074 A 
ATOM     57  C   UNL A   1      43.597  26.923  31.323  1.00  0.00     0.031 C 
ATOM     58  C   UNL A   1      43.056  28.109  33.430  1.00  0.00     0.037 A 
BRANCH  45  59
ATOM     59  C   UNL A   1      39.248  32.301  35.894  1.00  0.00     0.057 A 
ATOM     60  C   UNL A   1      39.788  33.572  36.133  1.00  0.00     0.134 A 
ATOM     61  C   UNL A   1      38.301  31.819  36.805  1.00  0.00     0.134 A 
ATOM     62  F   UNL A   1      40.713  34.084  35.308  1.00  0.00    -0.206 F 
ATOM     63  C   UNL A   1      39.413  34.326  37.247  1.00  0.00     0.040 A 
ATOM     64  C   UNL A   1      37.900  32.573  37.910  1.00  0.00     0.040 A 
ATOM     65  F   UNL A   1      37.745  30.610  36.634  1.00  0.00    -0.206 F 
ATOM     66  C   UNL A   1      38.461  33.829  38.135  1.00  0.00     0.006 A 
ENDBRANCH  45  59
BRANCH  46  67
ATOM     67  C   UNL A   1      41.592  27.205  27.628  1.00  0.00     0.057 A 
ATOM     68  C   UNL A   1      42.412  27.772  26.646  1.00  0.00     0.134 A 
ATOM     69  C   UNL A   1      41.117  25.908  27.400  1.00  0.00     0.134 A 
ATOM     70  F   UNL A   1      42.879  29.021  26.797  1.00  0.00    -0.206 F 
ATOM     71  C   UNL A   1      42.734  27.085  25.476  1.00  0.00     0.040 A 
ATOM     72  C   UNL A   1      41.449  25.199  26.245  1.00  0.00     0.040 A 
ATOM     73  F   UNL A   1      40.326  25.308  28.303  1.00  0.00    -0.206 F 
ATOM     74  C   UNL A   1      42.255  25.792  25.274  1.00  0.00     0.006 A 
ENDBRANCH  46  67
BRANCH  58  75
ATOM     75  C   UNL A   1      44.186  27.371  34.086  1.00  0.00     0.057 A 
ATOM     76  C   UNL A   1      44.009  26.104  34.656  1.00  0.00     0.134 A 
ATOM     77  C   UNL A   1      45.476  27.917  34.107  1.00  0.00     0.134 A 
ATOM     78  F   UNL A   1      42.795  25.532  34.678  1.00  0.00    -0.206 F 
ATOM     79  C   UNL A   1      45.071  25.416  35.243  1.00  0.00     0.040 A 
ATOM     80  C   UNL A   1      46.551  27.227  34.668  1.00  0.00     0.040 A 
ATOM     81  F   UNL A   1      45.713  29.122  33.568  1.00  0.00    -0.206 F 
ATOM     82  C   UNL A   1      46.348  25.975  35.243  1.00  0.00     0.006 A 
ENDBRANCH  58  75
ENDBRANCH  32  33
ENDBRANCH  25  27
ENDBRANCH  24  25
ENDBRANCH  23  24
ENDBRANCH  22  23
ENDBRANCH  21  22
ENDBRANCH   1  21
TORSDOF 17
ENDMDL
MODEL 3
REMARK VINA RESULT:     -10.6      4.766     11.274
REMARK SMILES C[C@@H](C(=O)OCCOCCOC(=O)c1ccc(-c2c3nc(c(-c4c(F)cccc4F)c4ccc([nH]4)c(-c4c(F)cccc4F)c4nc(c(-c5c(F)cccc5F)c5ccc2[nH]5)C=C4)C=C3)cc1)c1ccc(Cc2ccco2)cc1F
REMARK SMILES IDX 7 1 6 2 5 3 3 4 4 5 2 6 1 7 68 8 69 9 79 10 70 11 78 12
REMARK SMILES IDX 80 13 71 14 72 15 73 16 74 17 77 18 75 19 76 20 8 21 9 22
REMARK SMILES IDX 10 23 11 24 12 25 13 26 14 27 15 28 67 29 16 30 66 31 17 32
REMARK SMILES IDX 18 33 19 34 60 35 20 36 65 37 59 38 61 39 21 40 64 41 58 42
REMARK SMILES IDX 57 43 22 45 48 46 31 47 47 48 32 49 35 50 46 51 62 52 33 53
REMARK SMILES IDX 34 54 45 56 63 57 36 58 23 59 24 60 29 61 25 62 26 63 28 64
REMARK SMILES IDX 30 65 27 66 49 67 50 68 55 69 51 70 52 71 54 72 56 73 53 74
REMARK SMILES IDX 37 75 38 76 43 77 39 78 40 79 42 80 44 81 41 82
REMARK H PARENT 61 44 35 55
REMARK Flexibility Score: inf
ROOT
ATOM      1  C   UNL A   1      45.542  20.823  24.789  1.00  0.00     0.202 C 
ENDROOT
BRANCH   1   2
ATOM      2  C   UNL A   1      45.497  22.036  25.721  1.00  0.00     0.261 C 
BRANCH   2   3
ATOM      3  O   UNL A   1      45.897  23.215  24.999  1.00  0.00    -0.463 OA
BRANCH   3   4
ATOM      4  C   UNL A   1      46.739  24.055  25.657  1.00  0.00     0.313 C 
ATOM      5  O   UNL A   1      47.328  23.761  26.692  1.00  0.00    -0.252 OA
BRANCH   4   6
ATOM      6  C   UNL A   1      46.936  25.386  24.923  1.00  0.00     0.129 C 
ATOM      7  C   UNL A   1      48.389  25.841  24.758  1.00  0.00     0.025 C 
BRANCH   6   8
ATOM      8  C   UNL A   1      46.104  26.494  25.551  1.00  0.00     0.002 A 
ATOM      9  C   UNL A   1      46.685  27.508  26.325  1.00  0.00     0.008 A 
ATOM     10  C   UNL A   1      44.720  26.527  25.372  1.00  0.00     0.127 A 
ATOM     11  C   UNL A   1      45.902  28.499  26.917  1.00  0.00     0.005 A 
ATOM     12  C   UNL A   1      43.925  27.494  25.990  1.00  0.00     0.043 A 
ATOM     13  F   UNL A   1      44.130  25.603  24.600  1.00  0.00    -0.207 F 
ATOM     14  C   UNL A   1      44.507  28.482  26.794  1.00  0.00    -0.038 A 
BRANCH  14  15
ATOM     15  C   UNL A   1      43.657  29.501  27.526  1.00  0.00     0.111 C 
BRANCH  15  16
ATOM     16  C   UNL A   1      44.031  30.916  27.226  1.00  0.00     0.108 A 
ATOM     17  C   UNL A   1      44.617  31.930  27.960  1.00  0.00     0.046 A 
ATOM     18  O   UNL A   1      43.786  31.356  25.956  1.00  0.00    -0.469 OA
ATOM     19  C   UNL A   1      44.709  33.052  27.104  1.00  0.00     0.042 A 
ATOM     20  C   UNL A   1      44.198  32.649  25.894  1.00  0.00     0.195 A 
ENDBRANCH  15  16
ENDBRANCH  14  15
ENDBRANCH   6   8
ENDBRANCH   4   6
ENDBRANCH   3   4
ENDBRANCH   2   3
ENDBRANCH   1   2
BRANCH   1  21
ATOM     21  O   UNL A   1      44.294  20.147  24.604  1.00  0.00    -0.374 OA
BRANCH  21  22
ATOM     22  C   UNL A   1      44.054  19.005  25.427  1.00  0.00     0.202 C 
BRANCH  22  23
ATOM     23  C   UNL A   1      42.667  18.905  26.065  1.00  0.00     0.261 C 
BRANCH  23  24
ATOM     24  O   UNL A   1      41.725  19.772  25.417  1.00  0.00    -0.460 OA
BRANCH  24  25
ATOM     25  C   UNL A   1      40.888  20.415  26.262  1.00  0.00     0.338 C 
ATOM     26  O   UNL A   1      39.801  20.026  26.670  1.00  0.00    -0.246 OA
BRANCH  25  27
ATOM     27  C   UNL A   1      41.545  21.619  26.797  1.00  0.00     0.060 A 
ATOM     28  C   UNL A   1      41.716  21.688  28.185  1.00  0.00     0.016 A 
ATOM     29  C   UNL A   1      41.941  22.678  25.975  1.00  0.00     0.016 A 
ATOM     30  C   UNL A   1      42.225  22.844  28.766  1.00  0.00     0.010 A 
ATOM     31  C   UNL A   1      42.444  23.843  26.561  1.00  0.00     0.010 A 
ATOM     32  C   UNL A   1      42.547  23.944  27.961  1.00  0.00    -0.014 A 
BRANCH  32  33
ATOM     33  C   UNL A   1      42.820  25.249  28.604  1.00  0.00     0.031 A 
ATOM     34  C   UNL A   1      41.694  26.237  28.732  1.00  0.00     0.074 A 
ATOM     35  C   UNL A   1      44.033  25.527  29.109  1.00  0.00     0.049 A 
ATOM     36  N   UNL A   1      41.697  27.436  29.255  1.00  0.00    -0.248 NA
ATOM     37  C   UNL A   1      40.387  25.817  28.198  1.00  0.00     0.031 C 
ATOM     38  C   UNL A   1      45.187  24.629  29.082  1.00  0.00     0.029 A 
ATOM     39  N   UNL A   1      44.493  26.650  29.747  1.00  0.00    -0.354 N 
ATOM     40  C   UNL A   1      40.401  27.913  29.110  1.00  0.00     0.074 A 
ATOM     41  C   UNL A   1      39.644  26.889  28.425  1.00  0.00     0.031 C 
ATOM     42  C   UNL A   1      46.226  25.241  29.674  1.00  0.00     0.029 A 
ATOM     43  C   UNL A   1      45.819  26.579  30.096  1.00  0.00     0.049 A 
ATOM     44  H   UNL A   1      43.927  27.433  29.937  1.00  0.00     0.167 HD
ATOM     45  C   UNL A   1      39.886  29.096  29.520  1.00  0.00     0.037 A 
ATOM     46  C   UNL A   1      46.612  27.500  30.675  1.00  0.00     0.037 A 
ATOM     47  C   UNL A   1      40.640  30.110  30.207  1.00  0.00     0.049 A 
ATOM     48  C   UNL A   1      46.031  28.834  31.061  1.00  0.00     0.074 A 
ATOM     49  C   UNL A   1      40.206  31.334  30.685  1.00  0.00     0.029 A 
ATOM     50  N   UNL A   1      41.991  30.017  30.507  1.00  0.00    -0.354 N 
ATOM     51  N   UNL A   1      44.799  29.266  30.944  1.00  0.00    -0.248 NA
ATOM     52  C   UNL A   1      46.953  29.809  31.661  1.00  0.00     0.031 C 
ATOM     53  C   UNL A   1      41.306  32.001  31.234  1.00  0.00     0.029 A 
ATOM     54  C   UNL A   1      42.414  31.173  31.141  1.00  0.00     0.049 A 
ATOM     55  H   UNL A   1      42.564  29.244  30.301  1.00  0.00     0.167 HD
ATOM     56  C   UNL A   1      44.791  30.547  31.480  1.00  0.00     0.074 A 
ATOM     57  C   UNL A   1      46.139  30.819  31.932  1.00  0.00     0.031 C 
ATOM     58  C   UNL A   1      43.759  31.421  31.590  1.00  0.00     0.037 A 
BRANCH  45  59
ATOM     59  C   UNL A   1      38.443  29.365  29.211  1.00  0.00     0.057 A 
ATOM     60  C   UNL A   1      38.010  29.684  27.917  1.00  0.00     0.134 A 
ATOM     61  C   UNL A   1      37.473  29.279  30.216  1.00  0.00     0.134 A 
ATOM     62  F   UNL A   1      38.893  29.800  26.914  1.00  0.00    -0.206 F 
ATOM     63  C   UNL A   1      36.663  29.926  27.639  1.00  0.00     0.040 A 
ATOM     64  C   UNL A   1      36.120  29.496  29.945  1.00  0.00     0.040 A 
ATOM     65  F   UNL A   1      37.821  28.977  31.476  1.00  0.00    -0.206 F 
ATOM     66  C   UNL A   1      35.714  29.826  28.653  1.00  0.00     0.006 A 
ENDBRANCH  45  59
BRANCH  46  67
ATOM     67  C   UNL A   1      48.045  27.199  30.922  1.00  0.00     0.057 A 
ATOM     68  C   UNL A   1      49.030  27.537  29.987  1.00  0.00     0.134 A 
ATOM     69  C   UNL A   1      48.460  26.547  32.089  1.00  0.00     0.134 A 
ATOM     70  F   UNL A   1      48.690  28.143  28.840  1.00  0.00    -0.206 F 
ATOM     71  C   UNL A   1      50.373  27.224  30.196  1.00  0.00     0.040 A 
ATOM     72  C   UNL A   1      49.803  26.248  32.322  1.00  0.00     0.040 A 
ATOM     73  F   UNL A   1      47.564  26.196  33.025  1.00  0.00    -0.206 F 
ATOM     74  C   UNL A   1      50.764  26.581  31.368  1.00  0.00     0.006 A 
ENDBRANCH  46  67
BRANCH  58  75
ATOM     75  C   UNL A   1      44.041  32.736  32.255  1.00  0.00     0.057 A 
ATOM     76  C   UNL A   1      44.415  33.870  31.523  1.00  0.00     0.134 A 
ATOM     77  C   UNL A   1      43.894  32.879  33.641  1.00  0.00     0.134 A 
ATOM     78  F   UNL A   1      44.584  33.795  30.194  1.00  0.00    -0.206 F 
ATOM     79  C   UNL A   1      44.652  35.094  32.149  1.00  0.00     0.040 A 
ATOM     80  C   UNL A   1      44.104  34.104  34.275  1.00  0.00     0.040 A 
ATOM     81  F   UNL A   1      43.528  31.833  34.398  1.00  0.00    -0.206 F 
ATOM     82  C   UNL A   1      44.489  35.215  33.528  1.00  0.00     0.006 A 
ENDBRANCH  58  75
ENDBRANCH  32  33
ENDBRANCH  25  27
ENDBRANCH  24  25
ENDBRANCH  23  24
ENDBRANCH  22  23
ENDBRANCH  21  22
ENDBRANCH   1  21
TORSDOF 17
ENDMDL
