MODEL 1
REMARK VINA RESULT:     -11.7      0.000      0.000
REMARK SMILES Cc1ccnc(C(=O)c2[nH]c3ccc(OC(F)(F)F)cc3c2CC(=O)OCCOCCOC(=O)c2ccc(-c3c4nc(c(-c5c(F)cccc5F)c5ccc([nH]5)c(-c5c(F)cccc5F)c5nc(c(-c6c(F)cccc6F)c6ccc3[nH]6)C=C5)C=C4)cc2)c1
REMARK SMILES IDX 28 1 27 2 26 3 24 4 25 5 23 6 22 7 9 8 10 9 11 10 21 12
REMARK SMILES IDX 12 13 20 14 13 15 14 16 7 17 8 18 6 19 1 20 2 21 3 22 89 23
REMARK SMILES IDX 4 24 5 25 15 26 16 27 17 28 18 29 19 30 29 31 30 32 31 33
REMARK SMILES IDX 32 34 33 35 34 36 35 37 36 38 88 39 37 40 87 41 38 42 39 43
REMARK SMILES IDX 40 44 81 45 41 46 86 47 80 48 82 49 42 50 85 51 79 52 78 53
REMARK SMILES IDX 43 55 69 56 52 57 68 58 53 59 56 60 67 61 83 62 54 63 55 64
REMARK SMILES IDX 66 66 84 67 57 68 44 69 45 70 50 71 46 72 47 73 49 74 51 75
REMARK SMILES IDX 48 76 70 77 71 78 76 79 72 80 73 81 75 82 77 83 74 84 58 85
REMARK SMILES IDX 59 86 64 87 60 88 61 89 63 90 65 91 62 92
REMARK H PARENT 10 11 82 54 56 65
REMARK Flexibility Score: inf
ROOT
ATOM      1  C   UNL A   1      40.157  20.188  26.144  1.00  0.00     0.202 C 
ENDROOT
BRANCH   1   2
ATOM      2  C   UNL A   1      38.903  20.556  25.340  1.00  0.00     0.261 C 
BRANCH   2   3
ATOM      3  O   UNL A   1      38.081  21.558  25.979  1.00  0.00    -0.463 OA
BRANCH   3   4
ATOM      4  C   UNL A   1      36.945  21.883  25.305  1.00  0.00     0.310 C 
ATOM      5  O   UNL A   1      36.938  22.429  24.202  1.00  0.00    -0.252 OA
BRANCH   4   6
ATOM      6  C   UNL A   1      35.646  21.620  26.035  1.00  0.00     0.161 C 
BRANCH   6   7
ATOM      7  C   UNL A   1      34.382  21.390  25.245  1.00  0.00     0.000 A 
ATOM      8  C   UNL A   1      33.246  22.203  25.201  1.00  0.00     0.093 A 
ATOM      9  N   UNL A   1      32.355  21.587  24.343  1.00  0.00    -0.352 N 
ATOM     10  C   UNL A   1      32.750  20.294  24.089  1.00  0.00     0.046 A 
ATOM     11  H   UNL A   1      31.551  22.014  23.967  1.00  0.00     0.167 HD
ATOM     12  C   UNL A   1      34.026  20.150  24.619  1.00  0.00     0.008 A 
ATOM     13  C   UNL A   1      32.077  19.241  23.454  1.00  0.00     0.030 A 
ATOM     14  C   UNL A   1      34.653  18.891  24.528  1.00  0.00     0.057 A 
ATOM     15  C   UNL A   1      32.705  17.985  23.423  1.00  0.00     0.049 A 
ATOM     16  C   UNL A   1      33.973  17.800  23.972  1.00  0.00     0.130 A 
BRANCH   8  17
ATOM     17  C   UNL A   1      33.036  23.460  25.914  1.00  0.00     0.227 C 
ATOM     18  O   UNL A   1      32.718  23.478  27.102  1.00  0.00    -0.285 OA
BRANCH  17  19
ATOM     19  C   UNL A   1      33.132  24.783  25.223  1.00  0.00     0.113 A 
ATOM     20  C   UNL A   1      33.875  28.425  25.950  1.00  0.00     0.044 C 
ATOM     21  C   UNL A   1      33.599  27.136  25.234  1.00  0.00    -0.047 A 
ATOM     22  C   UNL A   1      33.740  27.067  23.845  1.00  0.00     0.023 A 
ATOM     23  C   UNL A   1      33.299  25.965  25.940  1.00  0.00     0.036 A 
ATOM     24  C   UNL A   1      33.533  25.853  23.213  1.00  0.00     0.112 A 
ATOM     25  N   UNL A   1      33.216  24.718  23.868  1.00  0.00    -0.253 NA
ENDBRANCH  17  19
ENDBRANCH   8  17
BRANCH  16  26
ATOM     26  O   UNL A   1      34.664  16.624  24.048  1.00  0.00    -0.406 OA
BRANCH  26  27
ATOM     27  C   UNL A   1      34.698  15.954  25.295  1.00  0.00     0.573 C 
ATOM     28  F   UNL A   1      33.776  16.447  26.150  1.00  0.00    -0.132 F 
ATOM     29  F   UNL A   1      34.500  14.629  25.134  1.00  0.00    -0.132 F 
ATOM     30  F   UNL A   1      35.918  16.134  25.849  1.00  0.00    -0.132 F 
ENDBRANCH  26  27
ENDBRANCH  16  26
ENDBRANCH   6   7
ENDBRANCH   4   6
ENDBRANCH   3   4
ENDBRANCH   2   3
ENDBRANCH   1   2
BRANCH   1  31
ATOM     31  O   UNL A   1      41.185  21.167  26.274  1.00  0.00    -0.374 OA
BRANCH  31  32
ATOM     32  C   UNL A   1      42.526  20.721  26.088  1.00  0.00     0.202 C 
BRANCH  32  33
ATOM     33  C   UNL A   1      43.484  21.673  25.358  1.00  0.00     0.261 C 
BRANCH  33  34
ATOM     34  O   UNL A   1      42.859  22.892  24.926  1.00  0.00    -0.460 OA
BRANCH  34  35
ATOM     35  C   UNL A   1      43.639  23.993  25.038  1.00  0.00     0.338 C 
ATOM     36  O   UNL A   1      44.600  24.307  24.350  1.00  0.00    -0.246 OA
BRANCH  35  37
ATOM     37  C   UNL A   1      43.065  24.897  26.046  1.00  0.00     0.060 A 
ATOM     38  C   UNL A   1      43.611  26.182  26.154  1.00  0.00     0.016 A 
ATOM     39  C   UNL A   1      42.037  24.481  26.894  1.00  0.00     0.016 A 
ATOM     40  C   UNL A   1      43.136  27.057  27.126  1.00  0.00     0.010 A 
ATOM     41  C   UNL A   1      41.574  25.356  27.879  1.00  0.00     0.010 A 
ATOM     42  C   UNL A   1      42.133  26.639  28.010  1.00  0.00    -0.014 A 
BRANCH  42  43
ATOM     43  C   UNL A   1      41.732  27.517  29.132  1.00  0.00     0.031 A 
ATOM     44  C   UNL A   1      42.489  27.441  30.425  1.00  0.00     0.074 A 
ATOM     45  C   UNL A   1      40.707  28.372  28.983  1.00  0.00     0.049 A 
ATOM     46  N   UNL A   1      42.276  28.074  31.549  1.00  0.00    -0.248 NA
ATOM     47  C   UNL A   1      43.642  26.525  30.459  1.00  0.00     0.031 C 
ATOM     48  C   UNL A   1      39.929  28.552  27.756  1.00  0.00     0.029 A 
ATOM     49  N   UNL A   1      40.136  29.246  29.873  1.00  0.00    -0.354 N 
ATOM     50  C   UNL A   1      43.259  27.630  32.424  1.00  0.00     0.074 A 
ATOM     51  C   UNL A   1      44.056  26.656  31.711  1.00  0.00     0.031 C 
ATOM     52  C   UNL A   1      38.976  29.473  27.975  1.00  0.00     0.029 A 
ATOM     53  C   UNL A   1      39.051  29.918  29.364  1.00  0.00     0.049 A 
ATOM     54  H   UNL A   1      40.473  29.380  30.789  1.00  0.00     0.167 HD
ATOM     55  C   UNL A   1      43.474  28.008  33.706  1.00  0.00     0.037 A 
ATOM     56  C   UNL A   1      38.202  30.771  29.966  1.00  0.00     0.037 A 
ATOM     57  C   UNL A   1      42.672  28.981  34.402  1.00  0.00     0.049 A 
ATOM     58  C   UNL A   1      38.417  31.110  31.418  1.00  0.00     0.074 A 
ATOM     59  C   UNL A   1      42.827  29.463  35.689  1.00  0.00     0.029 A 
ATOM     60  N   UNL A   1      41.556  29.609  33.868  1.00  0.00    -0.354 N 
ATOM     61  N   UNL A   1      39.373  30.718  32.226  1.00  0.00    -0.248 NA
ATOM     62  C   UNL A   1      37.433  32.005  32.043  1.00  0.00     0.031 C 
ATOM     63  C   UNL A   1      41.767  30.336  35.956  1.00  0.00     0.029 A 
ATOM     64  C   UNL A   1      40.987  30.443  34.817  1.00  0.00     0.049 A 
ATOM     65  H   UNL A   1      41.219  29.481  32.953  1.00  0.00     0.167 HD
ATOM     66  C   UNL A   1      39.119  31.335  33.445  1.00  0.00     0.074 A 
ATOM     67  C   UNL A   1      37.931  32.143  33.263  1.00  0.00     0.031 C 
ATOM     68  C   UNL A   1      39.803  31.238  34.612  1.00  0.00     0.037 A 
BRANCH  55  69
ATOM     69  C   UNL A   1      44.597  27.349  34.451  1.00  0.00     0.057 A 
ATOM     70  C   UNL A   1      45.904  27.852  34.426  1.00  0.00     0.134 A 
ATOM     71  C   UNL A   1      44.357  26.220  35.247  1.00  0.00     0.134 A 
ATOM     72  F   UNL A   1      46.207  28.921  33.674  1.00  0.00    -0.206 F 
ATOM     73  C   UNL A   1      46.933  27.249  35.153  1.00  0.00     0.040 A 
ATOM     74  C   UNL A   1      45.370  25.624  35.998  1.00  0.00     0.040 A 
ATOM     75  F   UNL A   1      43.127  25.689  35.319  1.00  0.00    -0.206 F 
ATOM     76  C   UNL A   1      46.665  26.136  35.949  1.00  0.00     0.006 A 
ENDBRANCH  55  69
BRANCH  56  77
ATOM     77  C   UNL A   1      37.056  31.346  29.215  1.00  0.00     0.057 A 
ATOM     78  C   UNL A   1      35.900  30.595  28.966  1.00  0.00     0.134 A 
ATOM     79  C   UNL A   1      37.099  32.648  28.699  1.00  0.00     0.134 A 
ATOM     80  F   UNL A   1      35.807  29.334  29.413  1.00  0.00    -0.206 F 
ATOM     81  C   UNL A   1      34.841  31.109  28.217  1.00  0.00     0.040 A 
ATOM     82  C   UNL A   1      36.035  33.184  27.972  1.00  0.00     0.040 A 
ATOM     83  F   UNL A   1      38.176  33.421  28.900  1.00  0.00    -0.206 F 
ATOM     84  C   UNL A   1      34.905  32.410  27.721  1.00  0.00     0.006 A 
ENDBRANCH  56  77
BRANCH  68  85
ATOM     85  C   UNL A   1      39.293  32.042  35.773  1.00  0.00     0.057 A 
ATOM     86  C   UNL A   1      39.700  33.365  35.989  1.00  0.00     0.134 A 
ATOM     87  C   UNL A   1      38.352  31.502  36.658  1.00  0.00     0.134 A 
ATOM     88  F   UNL A   1      40.609  33.936  35.184  1.00  0.00    -0.206 F 
ATOM     89  C   UNL A   1      39.207  34.113  37.058  1.00  0.00     0.040 A 
ATOM     90  C   UNL A   1      37.829  32.250  37.713  1.00  0.00     0.040 A 
ATOM     91  F   UNL A   1      37.912  30.244  36.502  1.00  0.00    -0.206 F 
ATOM     92  C   UNL A   1      38.262  33.558  37.918  1.00  0.00     0.006 A 
ENDBRANCH  68  85
ENDBRANCH  42  43
ENDBRANCH  35  37
ENDBRANCH  34  35
ENDBRANCH  33  34
ENDBRANCH  32  33
ENDBRANCH  31  32
ENDBRANCH   1  31
TORSDOF 19
ENDMDL
MODEL 2
REMARK VINA RESULT:     -11.6      4.114      6.233
REMARK SMILES Cc1ccnc(C(=O)c2[nH]c3ccc(OC(F)(F)F)cc3c2CC(=O)OCCOCCOC(=O)c2ccc(-c3c4nc(c(-c5c(F)cccc5F)c5ccc([nH]5)c(-c5c(F)cccc5F)c5nc(c(-c6c(F)cccc6F)c6ccc3[nH]6)C=C5)C=C4)cc2)c1
REMARK SMILES IDX 28 1 27 2 26 3 24 4 25 5 23 6 22 7 9 8 10 9 11 10 21 12
REMARK SMILES IDX 12 13 20 14 13 15 14 16 7 17 8 18 6 19 1 20 2 21 3 22 89 23
REMARK SMILES IDX 4 24 5 25 15 26 16 27 17 28 18 29 19 30 29 31 30 32 31 33
REMARK SMILES IDX 32 34 33 35 34 36 35 37 36 38 88 39 37 40 87 41 38 42 39 43
REMARK SMILES IDX 40 44 81 45 41 46 86 47 80 48 82 49 42 50 85 51 79 52 78 53
REMARK SMILES IDX 43 55 69 56 52 57 68 58 53 59 56 60 67 61 83 62 54 63 55 64
REMARK SMILES IDX 66 66 84 67 57 68 44 69 45 70 50 71 46 72 47 73 49 74 51 75
REMARK SMILES IDX 48 76 70 77 71 78 76 79 72 80 73 81 75 82 77 83 74 84 58 85
REMARK SMILES IDX 59 86 64 87 60 88 61 89 63 90 65 91 62 92
REMARK H PARENT 10 11 82 54 56 65
REMARK Flexibility Score: inf
ROOT
ATOM      1  C   UNL A   1      37.847  22.614  26.136  1.00  0.00     0.202 C 
ENDROOT
BRANCH   1   2
ATOM      2  C   UNL A   1      36.882  23.594  25.456  1.00  0.00     0.261 C 
BRANCH   2   3
ATOM      3  O   UNL A   1      35.730  22.952  24.866  1.00  0.00    -0.463 OA
BRANCH   3   4
ATOM      4  C   UNL A   1      35.640  23.067  23.512  1.00  0.00     0.310 C 
ATOM      5  O   UNL A   1      36.601  22.947  22.753  1.00  0.00    -0.252 OA
BRANCH   4   6
ATOM      6  C   UNL A   1      34.282  23.452  22.971  1.00  0.00     0.161 C 
BRANCH   6   7
ATOM      7  C   UNL A   1      33.075  23.387  23.873  1.00  0.00     0.000 A 
ATOM      8  C   UNL A   1      32.131  22.359  23.958  1.00  0.00     0.093 A 
ATOM      9  N   UNL A   1      31.219  22.743  24.922  1.00  0.00    -0.352 N 
ATOM     10  C   UNL A   1      31.371  24.076  25.223  1.00  0.00     0.046 A 
ATOM     11  H   UNL A   1      30.554  22.145  25.335  1.00  0.00     0.167 HD
ATOM     12  C   UNL A   1      32.540  24.499  24.601  1.00  0.00     0.008 A 
ATOM     13  C   UNL A   1      30.565  24.942  25.974  1.00  0.00     0.030 A 
ATOM     14  C   UNL A   1      32.910  25.855  24.719  1.00  0.00     0.057 A 
ATOM     15  C   UNL A   1      30.931  26.296  26.032  1.00  0.00     0.049 A 
ATOM     16  C   UNL A   1      32.081  26.759  25.395  1.00  0.00     0.130 A 
BRANCH   8  17
ATOM     17  C   UNL A   1      32.110  21.118  23.189  1.00  0.00     0.227 C 
ATOM     18  O   UNL A   1      31.810  21.109  21.996  1.00  0.00    -0.285 OA
BRANCH  17  19
ATOM     19  C   UNL A   1      32.386  19.792  23.823  1.00  0.00     0.113 A 
ATOM     20  C   UNL A   1      34.106  16.496  23.101  1.00  0.00     0.044 C 
ATOM     21  C   UNL A   1      33.397  17.617  23.802  1.00  0.00    -0.047 A 
ATOM     22  C   UNL A   1      33.248  17.586  25.191  1.00  0.00     0.023 A 
ATOM     23  C   UNL A   1      32.966  18.751  23.104  1.00  0.00     0.036 A 
ATOM     24  C   UNL A   1      32.639  18.658  25.821  1.00  0.00     0.112 A 
ATOM     25  N   UNL A   1      32.191  19.748  25.167  1.00  0.00    -0.253 NA
ENDBRANCH  17  19
ENDBRANCH   8  17
BRANCH  16  26
ATOM     26  O   UNL A   1      32.516  28.053  25.336  1.00  0.00    -0.406 OA
BRANCH  26  27
ATOM     27  C   UNL A   1      33.320  28.531  26.399  1.00  0.00     0.573 C 
ATOM     28  F   UNL A   1      34.546  27.965  26.389  1.00  0.00    -0.132 F 
ATOM     29  F   UNL A   1      33.443  29.874  26.341  1.00  0.00    -0.132 F 
ATOM     30  F   UNL A   1      32.724  28.212  27.570  1.00  0.00    -0.132 F 
ENDBRANCH  26  27
ENDBRANCH  16  26
ENDBRANCH   6   7
ENDBRANCH   4   6
ENDBRANCH   3   4
ENDBRANCH   2   3
ENDBRANCH   1   2
BRANCH   1  31
ATOM     31  O   UNL A   1      38.651  21.777  25.307  1.00  0.00    -0.374 OA
BRANCH  31  32
ATOM     32  C   UNL A   1      38.153  20.469  25.038  1.00  0.00     0.202 C 
BRANCH  32  33
ATOM     33  C   UNL A   1      39.102  19.291  25.303  1.00  0.00     0.261 C 
BRANCH  33  34
ATOM     34  O   UNL A   1      39.991  19.512  26.409  1.00  0.00    -0.460 OA
BRANCH  34  35
ATOM     35  C   UNL A   1      41.288  19.683  26.062  1.00  0.00     0.338 C 
ATOM     36  O   UNL A   1      41.975  18.968  25.346  1.00  0.00    -0.246 OA
BRANCH  35  37
ATOM     37  C   UNL A   1      41.756  20.988  26.552  1.00  0.00     0.060 A 
ATOM     38  C   UNL A   1      41.599  21.266  27.915  1.00  0.00     0.016 A 
ATOM     39  C   UNL A   1      42.304  21.936  25.685  1.00  0.00     0.016 A 
ATOM     40  C   UNL A   1      41.981  22.506  28.419  1.00  0.00     0.010 A 
ATOM     41  C   UNL A   1      42.671  23.185  26.190  1.00  0.00     0.010 A 
ATOM     42  C   UNL A   1      42.494  23.480  27.554  1.00  0.00    -0.014 A 
BRANCH  42  43
ATOM     43  C   UNL A   1      42.763  24.844  28.062  1.00  0.00     0.031 A 
ATOM     44  C   UNL A   1      44.163  25.212  28.460  1.00  0.00     0.074 A 
ATOM     45  C   UNL A   1      41.763  25.737  28.155  1.00  0.00     0.049 A 
ATOM     46  N   UNL A   1      44.612  26.325  28.979  1.00  0.00    -0.248 NA
ATOM     47  C   UNL A   1      45.197  24.185  28.248  1.00  0.00     0.031 C 
ATOM     48  C   UNL A   1      40.376  25.493  27.759  1.00  0.00     0.029 A 
ATOM     49  N   UNL A   1      41.759  27.026  28.621  1.00  0.00    -0.354 N 
ATOM     50  C   UNL A   1      45.975  26.132  29.162  1.00  0.00     0.074 A 
ATOM     51  C   UNL A   1      46.278  24.787  28.723  1.00  0.00     0.031 C 
ATOM     52  C   UNL A   1      39.651  26.597  28.008  1.00  0.00     0.029 A 
ATOM     53  C   UNL A   1      40.514  27.608  28.615  1.00  0.00     0.049 A 
ATOM     54  H   UNL A   1      42.570  27.492  28.929  1.00  0.00     0.167 HD
ATOM     55  C   UNL A   1      46.887  27.004  29.652  1.00  0.00     0.037 A 
ATOM     56  C   UNL A   1      40.117  28.808  29.076  1.00  0.00     0.037 A 
ATOM     57  C   UNL A   1      46.569  28.340  30.084  1.00  0.00     0.049 A 
ATOM     58  C   UNL A   1      41.141  29.726  29.691  1.00  0.00     0.074 A 
ATOM     59  C   UNL A   1      47.424  29.318  30.561  1.00  0.00     0.029 A 
ATOM     60  N   UNL A   1      45.291  28.880  30.103  1.00  0.00    -0.354 N 
ATOM     61  N   UNL A   1      42.435  29.553  29.824  1.00  0.00    -0.248 NA
ATOM     62  C   UNL A   1      40.650  31.004  30.227  1.00  0.00     0.031 C 
ATOM     63  C   UNL A   1      46.655  30.427  30.928  1.00  0.00     0.029 A 
ATOM     64  C   UNL A   1      45.329  30.163  30.624  1.00  0.00     0.049 A 
ATOM     65  H   UNL A   1      44.479  28.420  29.793  1.00  0.00     0.167 HD
ATOM     66  C   UNL A   1      42.913  30.705  30.434  1.00  0.00     0.074 A 
ATOM     67  C   UNL A   1      41.774  31.578  30.628  1.00  0.00     0.031 C 
ATOM     68  C   UNL A   1      44.180  31.013  30.808  1.00  0.00     0.037 A 
BRANCH  55  69
ATOM     69  C   UNL A   1      48.307  26.535  29.777  1.00  0.00     0.057 A 
ATOM     70  C   UNL A   1      48.757  25.815  30.891  1.00  0.00     0.134 A 
ATOM     71  C   UNL A   1      49.226  26.766  28.744  1.00  0.00     0.134 A 
ATOM     72  F   UNL A   1      47.934  25.571  31.922  1.00  0.00    -0.206 F 
ATOM     73  C   UNL A   1      50.073  25.354  30.979  1.00  0.00     0.040 A 
ATOM     74  C   UNL A   1      50.535  26.289  28.809  1.00  0.00     0.040 A 
ATOM     75  F   UNL A   1      48.859  27.447  27.648  1.00  0.00    -0.206 F 
ATOM     76  C   UNL A   1      50.963  25.583  29.932  1.00  0.00     0.006 A 
ENDBRANCH  55  69
BRANCH  56  77
ATOM     77  C   UNL A   1      38.688  29.207  29.003  1.00  0.00     0.057 A 
ATOM     78  C   UNL A   1      37.846  29.102  30.117  1.00  0.00     0.134 A 
ATOM     79  C   UNL A   1      38.119  29.673  27.811  1.00  0.00     0.134 A 
ATOM     80  F   UNL A   1      38.324  28.641  31.282  1.00  0.00    -0.206 F 
ATOM     81  C   UNL A   1      36.490  29.426  30.043  1.00  0.00     0.040 A 
ATOM     82  C   UNL A   1      36.771  30.027  27.730  1.00  0.00     0.040 A 
ATOM     83  F   UNL A   1      38.869  29.797  26.705  1.00  0.00    -0.206 F 
ATOM     84  C   UNL A   1      35.950  29.894  28.846  1.00  0.00     0.006 A 
ENDBRANCH  56  77
BRANCH  68  85
ATOM     85  C   UNL A   1      44.401  32.355  31.442  1.00  0.00     0.057 A 
ATOM     86  C   UNL A   1      44.369  32.528  32.832  1.00  0.00     0.134 A 
ATOM     87  C   UNL A   1      44.690  33.479  30.657  1.00  0.00     0.134 A 
ATOM     88  F   UNL A   1      44.085  31.494  33.639  1.00  0.00    -0.206 F 
ATOM     89  C   UNL A   1      44.596  33.774  33.417  1.00  0.00     0.040 A 
ATOM     90  C   UNL A   1      44.948  34.723  31.231  1.00  0.00     0.040 A 
ATOM     91  F   UNL A   1      44.746  33.380  29.321  1.00  0.00    -0.206 F 
ATOM     92  C   UNL A   1      44.894  34.874  32.616  1.00  0.00     0.006 A 
ENDBRANCH  68  85
ENDBRANCH  42  43
ENDBRANCH  35  37
ENDBRANCH  34  35
ENDBRANCH  33  34
ENDBRANCH  32  33
ENDBRANCH  31  32
ENDBRANCH   1  31
TORSDOF 19
ENDMDL
MODEL 3
REMARK VINA RESULT:     -11.3      4.616      8.758
REMARK SMILES Cc1ccnc(C(=O)c2[nH]c3ccc(OC(F)(F)F)cc3c2CC(=O)OCCOCCOC(=O)c2ccc(-c3c4nc(c(-c5c(F)cccc5F)c5ccc([nH]5)c(-c5c(F)cccc5F)c5nc(c(-c6c(F)cccc6F)c6ccc3[nH]6)C=C5)C=C4)cc2)c1
REMARK SMILES IDX 28 1 27 2 26 3 24 4 25 5 23 6 22 7 9 8 10 9 11 10 21 12
REMARK SMILES IDX 12 13 20 14 13 15 14 16 7 17 8 18 6 19 1 20 2 21 3 22 89 23
REMARK SMILES IDX 4 24 5 25 15 26 16 27 17 28 18 29 19 30 29 31 30 32 31 33
REMARK SMILES IDX 32 34 33 35 34 36 35 37 36 38 88 39 37 40 87 41 38 42 39 43
REMARK SMILES IDX 40 44 81 45 41 46 86 47 80 48 82 49 42 50 85 51 79 52 78 53
REMARK SMILES IDX 43 55 69 56 52 57 68 58 53 59 56 60 67 61 83 62 54 63 55 64
REMARK SMILES IDX 66 66 84 67 57 68 44 69 45 70 50 71 46 72 47 73 49 74 51 75
REMARK SMILES IDX 48 76 70 77 71 78 76 79 72 80 73 81 75 82 77 83 74 84 58 85
REMARK SMILES IDX 59 86 64 87 60 88 61 89 63 90 65 91 62 92
REMARK H PARENT 10 11 82 54 56 65
REMARK Flexibility Score: inf
ROOT
ATOM      1  C   UNL A   1      36.178  20.557  25.033  1.00  0.00     0.202 C 
ENDROOT
BRANCH   1   2
ATOM      2  C   UNL A   1      36.654  22.000  25.247  1.00  0.00     0.261 C 
BRANCH   2   3
ATOM      3  O   UNL A   1      35.673  22.993  24.872  1.00  0.00    -0.463 OA
BRANCH   3   4
ATOM      4  C   UNL A   1      35.565  23.217  23.534  1.00  0.00     0.310 C 
ATOM      5  O   UNL A   1      36.508  23.124  22.749  1.00  0.00    -0.252 OA
BRANCH   4   6
ATOM      6  C   UNL A   1      34.213  23.691  23.051  1.00  0.00     0.161 C 
BRANCH   6   7
ATOM      7  C   UNL A   1      33.013  23.564  23.955  1.00  0.00     0.000 A 
ATOM      8  C   UNL A   1      32.119  22.492  24.038  1.00  0.00     0.093 A 
ATOM      9  N   UNL A   1      31.192  22.828  25.005  1.00  0.00    -0.352 N 
ATOM     10  C   UNL A   1      31.280  24.166  25.312  1.00  0.00     0.046 A 
ATOM     11  H   UNL A   1      30.557  22.198  25.418  1.00  0.00     0.167 HD
ATOM     12  C   UNL A   1      32.426  24.647  24.689  1.00  0.00     0.008 A 
ATOM     13  C   UNL A   1      30.435  24.989  26.068  1.00  0.00     0.030 A 
ATOM     14  C   UNL A   1      32.732  26.018  24.811  1.00  0.00     0.057 A 
ATOM     15  C   UNL A   1      30.736  26.359  26.130  1.00  0.00     0.049 A 
ATOM     16  C   UNL A   1      31.862  26.879  25.492  1.00  0.00     0.130 A 
BRANCH   8  17
ATOM     17  C   UNL A   1      32.156  21.254  23.264  1.00  0.00     0.227 C 
ATOM     18  O   UNL A   1      31.897  21.243  22.061  1.00  0.00    -0.285 OA
BRANCH  17  19
ATOM     19  C   UNL A   1      32.444  19.933  23.903  1.00  0.00     0.113 A 
ATOM     20  C   UNL A   1      34.028  16.582  23.125  1.00  0.00     0.044 C 
ATOM     21  C   UNL A   1      33.398  17.732  23.852  1.00  0.00    -0.047 A 
ATOM     22  C   UNL A   1      33.347  17.729  25.249  1.00  0.00     0.023 A 
ATOM     23  C   UNL A   1      32.946  18.865  23.164  1.00  0.00     0.036 A 
ATOM     24  C   UNL A   1      32.810  18.827  25.899  1.00  0.00     0.112 A 
ATOM     25  N   UNL A   1      32.343  19.917  25.258  1.00  0.00    -0.253 NA
ENDBRANCH  17  19
ENDBRANCH   8  17
BRANCH  16  26
ATOM     26  O   UNL A   1      32.233  28.193  25.438  1.00  0.00    -0.406 OA
BRANCH  26  27
ATOM     27  C   UNL A   1      33.019  28.704  26.499  1.00  0.00     0.573 C 
ATOM     28  F   UNL A   1      32.259  29.036  27.565  1.00  0.00    -0.132 F 
ATOM     29  F   UNL A   1      33.957  27.811  26.875  1.00  0.00    -0.132 F 
ATOM     30  F   UNL A   1      33.648  29.822  26.071  1.00  0.00    -0.132 F 
ENDBRANCH  26  27
ENDBRANCH  16  26
ENDBRANCH   6   7
ENDBRANCH   4   6
ENDBRANCH   3   4
ENDBRANCH   2   3
ENDBRANCH   1   2
BRANCH   1  31
ATOM     31  O   UNL A   1      37.156  19.520  25.017  1.00  0.00    -0.374 OA
BRANCH  31  32
ATOM     32  C   UNL A   1      38.478  19.888  24.631  1.00  0.00     0.202 C 
BRANCH  32  33
ATOM     33  C   UNL A   1      39.516  20.045  25.751  1.00  0.00     0.261 C 
BRANCH  33  34
ATOM     34  O   UNL A   1      40.277  18.852  25.995  1.00  0.00    -0.460 OA
BRANCH  34  35
ATOM     35  C   UNL A   1      41.618  19.036  26.018  1.00  0.00     0.338 C 
ATOM     36  O   UNL A   1      42.490  18.263  25.647  1.00  0.00    -0.246 OA
BRANCH  35  37
ATOM     37  C   UNL A   1      41.913  20.420  26.420  1.00  0.00     0.060 A 
ATOM     38  C   UNL A   1      42.235  21.336  25.411  1.00  0.00     0.016 A 
ATOM     39  C   UNL A   1      41.912  20.802  27.763  1.00  0.00     0.016 A 
ATOM     40  C   UNL A   1      42.570  22.645  25.745  1.00  0.00     0.010 A 
ATOM     41  C   UNL A   1      42.265  22.111  28.096  1.00  0.00     0.010 A 
ATOM     42  C   UNL A   1      42.612  23.031  27.091  1.00  0.00    -0.014 A 
BRANCH  42  43
ATOM     43  C   UNL A   1      43.109  24.378  27.451  1.00  0.00     0.031 A 
ATOM     44  C   UNL A   1      42.125  25.428  27.878  1.00  0.00     0.074 A 
ATOM     45  C   UNL A   1      44.424  24.646  27.403  1.00  0.00     0.049 A 
ATOM     46  N   UNL A   1      42.332  26.682  28.184  1.00  0.00    -0.248 NA
ATOM     47  C   UNL A   1      40.716  25.010  27.970  1.00  0.00     0.031 C 
ATOM     48  C   UNL A   1      45.467  23.686  27.039  1.00  0.00     0.029 A 
ATOM     49  N   UNL A   1      45.108  25.808  27.652  1.00  0.00    -0.354 N 
ATOM     50  C   UNL A   1      41.083  27.205  28.496  1.00  0.00     0.074 A 
ATOM     51  C   UNL A   1      40.120  26.140  28.321  1.00  0.00     0.031 C 
ATOM     52  C   UNL A   1      46.660  24.303  27.079  1.00  0.00     0.029 A 
ATOM     53  C   UNL A   1      46.461  25.706  27.433  1.00  0.00     0.049 A 
ATOM     54  H   UNL A   1      44.673  26.635  27.959  1.00  0.00     0.167 HD
ATOM     55  C   UNL A   1      40.776  28.461  28.896  1.00  0.00     0.037 A 
ATOM     56  C   UNL A   1      47.420  26.649  27.486  1.00  0.00     0.037 A 
ATOM     57  C   UNL A   1      41.747  29.510  29.068  1.00  0.00     0.049 A 
ATOM     58  C   UNL A   1      47.035  28.058  27.854  1.00  0.00     0.074 A 
ATOM     59  C   UNL A   1      41.547  30.807  29.505  1.00  0.00     0.029 A 
ATOM     60  N   UNL A   1      43.102  29.382  28.796  1.00  0.00    -0.354 N 
ATOM     61  N   UNL A   1      45.859  28.534  28.188  1.00  0.00    -0.248 NA
ATOM     62  C   UNL A   1      48.109  29.062  27.847  1.00  0.00     0.031 C 
ATOM     63  C   UNL A   1      42.770  31.482  29.438  1.00  0.00     0.029 A 
ATOM     64  C   UNL A   1      43.743  30.590  29.016  1.00  0.00     0.049 A 
ATOM     65  H   UNL A   1      43.542  28.556  28.493  1.00  0.00     0.167 HD
ATOM     66  C   UNL A   1      46.056  29.884  28.452  1.00  0.00     0.074 A 
ATOM     67  C   UNL A   1      47.467  30.146  28.259  1.00  0.00     0.031 C 
ATOM     68  C   UNL A   1      45.150  30.826  28.816  1.00  0.00     0.037 A 
BRANCH  55  69
ATOM     69  C   UNL A   1      39.331  28.783  29.145  1.00  0.00     0.057 A 
ATOM     70  C   UNL A   1      38.738  28.618  30.404  1.00  0.00     0.134 A 
ATOM     71  C   UNL A   1      38.534  29.313  28.121  1.00  0.00     0.134 A 
ATOM     72  F   UNL A   1      39.440  28.103  31.424  1.00  0.00    -0.206 F 
ATOM     73  C   UNL A   1      37.402  28.955  30.631  1.00  0.00     0.040 A 
ATOM     74  C   UNL A   1      37.206  29.676  28.342  1.00  0.00     0.040 A 
ATOM     75  F   UNL A   1      39.041  29.498  26.893  1.00  0.00    -0.206 F 
ATOM     76  C   UNL A   1      36.634  29.494  29.600  1.00  0.00     0.006 A 
ENDBRANCH  55  69
BRANCH  56  77
ATOM     77  C   UNL A   1      48.829  26.308  27.159  1.00  0.00     0.057 A 
ATOM     78  C   UNL A   1      49.294  26.330  25.838  1.00  0.00     0.134 A 
ATOM     79  C   UNL A   1      49.737  25.923  28.153  1.00  0.00     0.134 A 
ATOM     80  F   UNL A   1      48.467  26.667  24.838  1.00  0.00    -0.206 F 
ATOM     81  C   UNL A   1      50.601  25.960  25.517  1.00  0.00     0.040 A 
ATOM     82  C   UNL A   1      51.055  25.578  27.849  1.00  0.00     0.040 A 
ATOM     83  F   UNL A   1      49.357  25.880  29.439  1.00  0.00    -0.206 F 
ATOM     84  C   UNL A   1      51.488  25.588  26.525  1.00  0.00     0.006 A 
ENDBRANCH  56  77
BRANCH  68  85
ATOM     85  C   UNL A   1      45.664  32.217  29.049  1.00  0.00     0.057 A 
ATOM     86  C   UNL A   1      46.181  32.613  30.289  1.00  0.00     0.134 A 
ATOM     87  C   UNL A   1      45.682  33.155  28.010  1.00  0.00     0.134 A 
ATOM     88  F   UNL A   1      46.180  31.765  31.329  1.00  0.00    -0.206 F 
ATOM     89  C   UNL A   1      46.677  33.902  30.493  1.00  0.00     0.040 A 
ATOM     90  C   UNL A   1      46.203  34.436  28.193  1.00  0.00     0.040 A 
ATOM     91  F   UNL A   1      45.213  32.837  26.795  1.00  0.00    -0.206 F 
ATOM     92  C   UNL A   1      46.696  34.814  29.441  1.00  0.00     0.006 A 
ENDBRANCH  68  85
ENDBRANCH  42  43
ENDBRANCH  35  37
ENDBRANCH  34  35
ENDBRANCH  33  34
ENDBRANCH  32  33
ENDBRANCH  31  32
ENDBRANCH   1  31
TORSDOF 19
ENDMDL
