MODEL 1
REMARK VINA RESULT:     -12.1      0.000      0.000
REMARK SMILES O=C(CN1C(=O)N[C@@](CCC(=O)OCCOCCOC(=O)c2ccc(-c3c4nc(c(-c5c(F)cccc5F)c5ccc([nH]5)c(-c5c(F)cccc5F)c5nc(c(-c6c(F)cccc6F)c6ccc3[nH]6)C=C5)C=C4)cc2)(c2ccccc2)C1=O)Nc1cccc(F)c1
REMARK SMILES IDX 14 1 13 2 11 3 12 4 10 5 9 6 8 7 4 8 5 9 82 10 6 11 7 12
REMARK SMILES IDX 83 13 3 15 2 16 1 17 84 18 85 20 86 21 91 22 87 23 89 24
REMARK SMILES IDX 88 25 90 26 76 27 77 28 81 29 78 30 80 31 79 32 15 33 16 34
REMARK SMILES IDX 17 35 18 36 19 37 20 38 21 39 22 40 23 41 75 42 24 43 74 44
REMARK SMILES IDX 25 45 26 46 27 47 68 48 28 49 73 50 67 51 69 52 29 53 72 54
REMARK SMILES IDX 66 55 65 56 30 58 56 59 39 60 55 61 40 62 43 63 54 64 70 65
REMARK SMILES IDX 41 66 42 67 53 69 71 70 44 71 31 72 32 73 37 74 33 75 34 76
REMARK SMILES IDX 36 77 38 78 35 79 57 80 58 81 63 82 59 83 60 84 62 85 64 86
REMARK SMILES IDX 61 87 45 88 46 89 51 90 47 91 48 92 50 93 52 94 49 95
REMARK H PARENT 7 14 84 19 69 57 43 68
REMARK Flexibility Score: inf
ROOT
ATOM      1  C   UNL A   1      39.984  21.419  26.312  1.00  0.00     0.261 C 
ENDROOT
BRANCH   1   2
ATOM      2  O   UNL A   1      38.703  21.616  25.666  1.00  0.00    -0.463 OA
BRANCH   2   3
ATOM      3  C   UNL A   1      38.073  22.803  25.858  1.00  0.00     0.305 C 
ATOM      4  O   UNL A   1      38.542  23.734  26.500  1.00  0.00    -0.252 OA
BRANCH   3   5
ATOM      5  C   UNL A   1      36.655  22.832  25.285  1.00  0.00     0.126 C 
BRANCH   5   6
ATOM      6  C   UNL A   1      36.080  21.567  24.607  1.00  0.00     0.055 C 
BRANCH   6   7
ATOM      7  C   UNL A   1      34.676  21.100  25.096  1.00  0.00     0.147 C 
ATOM      8  N   UNL A   1      32.704  22.222  25.761  1.00  0.00    -0.252 N 
ATOM      9  C   UNL A   1      33.319  21.761  26.886  1.00  0.00     0.325 C 
ATOM     10  C   UNL A   1      33.521  22.055  24.676  1.00  0.00     0.261 C 
ATOM     11  O   UNL A   1      32.896  21.769  28.021  1.00  0.00    -0.248 OA
ATOM     12  N   UNL A   1      34.535  21.222  26.528  1.00  0.00    -0.319 N 
ATOM     13  O   UNL A   1      33.305  22.467  23.544  1.00  0.00    -0.271 OA
ATOM     14  H   UNL A   1      35.228  20.952  27.173  1.00  0.00     0.166 HD
BRANCH   8  15
ATOM     15  C   UNL A   1      31.415  22.879  25.770  1.00  0.00     0.230 C 
BRANCH  15  16
ATOM     16  C   UNL A   1      31.454  24.384  26.067  1.00  0.00     0.244 C 
ATOM     17  O   UNL A   1      31.243  24.777  27.214  1.00  0.00    -0.273 OA
ATOM     18  N   UNL A   1      31.890  25.200  25.034  1.00  0.00    -0.324 N 
ATOM     19  H   UNL A   1      31.922  24.813  24.131  1.00  0.00     0.170 HD
BRANCH  18  20
ATOM     20  C   UNL A   1      32.293  26.553  25.183  1.00  0.00     0.044 A 
ATOM     21  C   UNL A   1      33.583  26.809  25.650  1.00  0.00     0.026 A 
ATOM     22  C   UNL A   1      31.456  27.643  24.920  1.00  0.00     0.065 A 
ATOM     23  C   UNL A   1      34.026  28.125  25.841  1.00  0.00     0.005 A 
ATOM     24  C   UNL A   1      31.903  28.948  25.132  1.00  0.00     0.125 A 
ATOM     25  C   UNL A   1      33.183  29.201  25.596  1.00  0.00     0.039 A 
ATOM     26  F   UNL A   1      31.079  29.977  24.893  1.00  0.00    -0.207 F 
ENDBRANCH  18  20
ENDBRANCH  15  16
ENDBRANCH   8  15
BRANCH   7  27
ATOM     27  C   UNL A   1      34.267  19.712  24.636  1.00  0.00    -0.013 A 
ATOM     28  C   UNL A   1      35.219  18.707  24.626  1.00  0.00     0.007 A 
ATOM     29  C   UNL A   1      32.973  19.392  24.185  1.00  0.00     0.007 A 
ATOM     30  C   UNL A   1      34.814  17.396  24.480  1.00  0.00     0.000 A 
ATOM     31  C   UNL A   1      32.606  18.075  23.931  1.00  0.00     0.000 A 
ATOM     32  C   UNL A   1      33.515  17.064  24.162  1.00  0.00     0.000 A 
ENDBRANCH   7  27
ENDBRANCH   6   7
ENDBRANCH   5   6
ENDBRANCH   3   5
ENDBRANCH   2   3
ENDBRANCH   1   2
BRANCH   1  33
ATOM     33  C   UNL A   1      40.638  20.023  26.169  1.00  0.00     0.202 C 
BRANCH  33  34
ATOM     34  O   UNL A   1      41.858  19.922  25.443  1.00  0.00    -0.374 OA
BRANCH  34  35
ATOM     35  C   UNL A   1      43.027  20.477  26.035  1.00  0.00     0.202 C 
BRANCH  35  36
ATOM     36  C   UNL A   1      43.878  21.397  25.132  1.00  0.00     0.261 C 
BRANCH  36  37
ATOM     37  O   UNL A   1      43.240  22.661  24.821  1.00  0.00    -0.460 OA
BRANCH  37  38
ATOM     38  C   UNL A   1      43.973  23.799  24.967  1.00  0.00     0.338 C 
ATOM     39  O   UNL A   1      44.893  24.156  24.252  1.00  0.00    -0.246 OA
BRANCH  38  40
ATOM     40  C   UNL A   1      43.383  24.680  26.025  1.00  0.00     0.060 A 
ATOM     41  C   UNL A   1      43.946  25.953  26.220  1.00  0.00     0.016 A 
ATOM     42  C   UNL A   1      42.251  24.332  26.763  1.00  0.00     0.016 A 
ATOM     43  C   UNL A   1      43.384  26.877  27.129  1.00  0.00     0.010 A 
ATOM     44  C   UNL A   1      41.701  25.256  27.678  1.00  0.00     0.010 A 
ATOM     45  C   UNL A   1      42.251  26.545  27.883  1.00  0.00    -0.014 A 
BRANCH  45  46
ATOM     46  C   UNL A   1      41.751  27.441  28.993  1.00  0.00     0.031 A 
ATOM     47  C   UNL A   1      42.434  27.353  30.343  1.00  0.00     0.074 A 
ATOM     48  C   UNL A   1      40.681  28.267  28.903  1.00  0.00     0.049 A 
ATOM     49  N   UNL A   1      42.136  27.953  31.470  1.00  0.00    -0.248 NA
ATOM     50  C   UNL A   1      43.549  26.404  30.444  1.00  0.00     0.031 C 
ATOM     51  C   UNL A   1      39.857  28.478  27.721  1.00  0.00     0.029 A 
ATOM     52  N   UNL A   1      40.077  29.072  29.854  1.00  0.00    -0.354 N 
ATOM     53  C   UNL A   1      43.016  27.437  32.413  1.00  0.00     0.074 A 
ATOM     54  C   UNL A   1      43.783  26.407  31.745  1.00  0.00     0.031 C 
ATOM     55  C   UNL A   1      38.854  29.329  28.008  1.00  0.00     0.029 A 
ATOM     56  C   UNL A   1      38.965  29.754  29.402  1.00  0.00     0.049 A 
ATOM     57  H   UNL A   1      40.413  29.152  30.777  1.00  0.00     0.167 HD
ATOM     58  C   UNL A   1      43.213  27.799  33.706  1.00  0.00     0.037 A 
ATOM     59  C   UNL A   1      38.142  30.634  30.016  1.00  0.00     0.037 A 
ATOM     60  C   UNL A   1      42.490  28.832  34.398  1.00  0.00     0.049 A 
ATOM     61  C   UNL A   1      38.380  31.039  31.454  1.00  0.00     0.074 A 
ATOM     62  C   UNL A   1      42.696  29.313  35.680  1.00  0.00     0.029 A 
ATOM     63  N   UNL A   1      41.418  29.536  33.878  1.00  0.00    -0.354 N 
ATOM     64  N   UNL A   1      39.311  30.641  32.284  1.00  0.00    -0.248 NA
ATOM     65  C   UNL A   1      37.465  32.043  32.029  1.00  0.00     0.031 C 
ATOM     66  C   UNL A   1      41.718  30.274  35.954  1.00  0.00     0.029 A 
ATOM     67  C   UNL A   1      40.942  30.437  34.820  1.00  0.00     0.049 A 
ATOM     68  H   UNL A   1      41.047  29.416  32.973  1.00  0.00     0.167 HD
ATOM     69  C   UNL A   1      39.128  31.383  33.449  1.00  0.00     0.074 A 
ATOM     70  C   UNL A   1      38.000  32.257  33.222  1.00  0.00     0.031 C 
ATOM     71  C   UNL A   1      39.844  31.342  34.599  1.00  0.00     0.037 A 
BRANCH  58  72
ATOM     72  C   UNL A   1      44.291  27.063  34.452  1.00  0.00     0.057 A 
ATOM     73  C   UNL A   1      44.021  25.886  35.166  1.00  0.00     0.134 A 
ATOM     74  C   UNL A   1      45.607  27.541  34.469  1.00  0.00     0.134 A 
ATOM     75  F   UNL A   1      42.778  25.379  35.197  1.00  0.00    -0.206 F 
ATOM     76  C   UNL A   1      45.004  25.250  35.925  1.00  0.00     0.040 A 
ATOM     77  C   UNL A   1      46.608  26.887  35.188  1.00  0.00     0.040 A 
ATOM     78  F   UNL A   1      45.940  28.650  33.794  1.00  0.00    -0.206 F 
ATOM     79  C   UNL A   1      46.304  25.749  35.934  1.00  0.00     0.006 A 
ENDBRANCH  58  72
BRANCH  59  80
ATOM     80  C   UNL A   1      37.026  31.291  29.271  1.00  0.00     0.057 A 
ATOM     81  C   UNL A   1      35.868  30.569  28.940  1.00  0.00     0.134 A 
ATOM     82  C   UNL A   1      37.121  32.600  28.788  1.00  0.00     0.134 A 
ATOM     83  F   UNL A   1      35.732  29.296  29.341  1.00  0.00    -0.206 F 
ATOM     84  C   UNL A   1      34.865  31.113  28.134  1.00  0.00     0.040 A 
ATOM     85  C   UNL A   1      36.114  33.166  28.000  1.00  0.00     0.040 A 
ATOM     86  F   UNL A   1      38.203  33.345  29.060  1.00  0.00    -0.206 F 
ATOM     87  C   UNL A   1      34.987  32.417  27.662  1.00  0.00     0.006 A 
ENDBRANCH  59  80
BRANCH  71  88
ATOM     88  C   UNL A   1      39.501  32.319  35.693  1.00  0.00     0.057 A 
ATOM     89  C   UNL A   1      40.077  33.592  35.777  1.00  0.00     0.134 A 
ATOM     90  C   UNL A   1      38.526  31.993  36.648  1.00  0.00     0.134 A 
ATOM     91  F   UNL A   1      41.022  33.970  34.904  1.00  0.00    -0.206 F 
ATOM     92  C   UNL A   1      39.713  34.497  36.780  1.00  0.00     0.040 A 
ATOM     93  C   UNL A   1      38.132  32.899  37.635  1.00  0.00     0.040 A 
ATOM     94  F   UNL A   1      37.923  30.795  36.626  1.00  0.00    -0.206 F 
ATOM     95  C   UNL A   1      38.731  34.155  37.707  1.00  0.00     0.006 A 
ENDBRANCH  71  88
ENDBRANCH  45  46
ENDBRANCH  38  40
ENDBRANCH  37  38
ENDBRANCH  36  37
ENDBRANCH  35  36
ENDBRANCH  34  35
ENDBRANCH  33  34
ENDBRANCH   1  33
TORSDOF 20
ENDMDL
MODEL 2
REMARK VINA RESULT:     -12.0      1.859      4.312
REMARK SMILES O=C(CN1C(=O)N[C@@](CCC(=O)OCCOCCOC(=O)c2ccc(-c3c4nc(c(-c5c(F)cccc5F)c5ccc([nH]5)c(-c5c(F)cccc5F)c5nc(c(-c6c(F)cccc6F)c6ccc3[nH]6)C=C5)C=C4)cc2)(c2ccccc2)C1=O)Nc1cccc(F)c1
REMARK SMILES IDX 14 1 13 2 11 3 12 4 10 5 9 6 8 7 4 8 5 9 82 10 6 11 7 12
REMARK SMILES IDX 83 13 3 15 2 16 1 17 84 18 85 20 86 21 91 22 87 23 89 24
REMARK SMILES IDX 88 25 90 26 76 27 77 28 81 29 78 30 80 31 79 32 15 33 16 34
REMARK SMILES IDX 17 35 18 36 19 37 20 38 21 39 22 40 23 41 75 42 24 43 74 44
REMARK SMILES IDX 25 45 26 46 27 47 68 48 28 49 73 50 67 51 69 52 29 53 72 54
REMARK SMILES IDX 66 55 65 56 30 58 56 59 39 60 55 61 40 62 43 63 54 64 70 65
REMARK SMILES IDX 41 66 42 67 53 69 71 70 44 71 31 72 32 73 37 74 33 75 34 76
REMARK SMILES IDX 36 77 38 78 35 79 57 80 58 81 63 82 59 83 60 84 62 85 64 86
REMARK SMILES IDX 61 87 45 88 46 89 51 90 47 91 48 92 50 93 52 94 49 95
REMARK H PARENT 7 14 84 19 69 57 43 68
REMARK Flexibility Score: inf
ROOT
ATOM      1  C   UNL A   1      39.445  21.738  26.128  1.00  0.00     0.261 C 
ENDROOT
BRANCH   1   2
ATOM      2  O   UNL A   1      38.419  21.374  25.172  1.00  0.00    -0.463 OA
BRANCH   2   3
ATOM      3  C   UNL A   1      37.169  21.864  25.366  1.00  0.00     0.305 C 
ATOM      4  O   UNL A   1      36.228  21.201  25.784  1.00  0.00    -0.252 OA
BRANCH   3   5
ATOM      5  C   UNL A   1      37.011  23.313  24.902  1.00  0.00     0.126 C 
BRANCH   5   6
ATOM      6  C   UNL A   1      35.945  24.215  25.565  1.00  0.00     0.055 C 
BRANCH   6   7
ATOM      7  C   UNL A   1      34.619  24.413  24.770  1.00  0.00     0.147 C 
ATOM      8  N   UNL A   1      32.999  22.945  23.870  1.00  0.00    -0.252 N 
ATOM      9  C   UNL A   1      33.761  23.404  22.839  1.00  0.00     0.325 C 
ATOM     10  C   UNL A   1      33.546  23.326  25.065  1.00  0.00     0.261 C 
ATOM     11  O   UNL A   1      33.585  23.239  21.651  1.00  0.00    -0.248 OA
ATOM     12  N   UNL A   1      34.792  24.155  23.360  1.00  0.00    -0.319 N 
ATOM     13  O   UNL A   1      33.162  22.978  26.174  1.00  0.00    -0.271 OA
ATOM     14  H   UNL A   1      35.558  24.478  22.832  1.00  0.00     0.166 HD
BRANCH   8  15
ATOM     15  C   UNL A   1      31.843  22.096  23.689  1.00  0.00     0.230 C 
BRANCH  15  16
ATOM     16  C   UNL A   1      32.143  20.591  23.631  1.00  0.00     0.244 C 
ATOM     17  O   UNL A   1      32.155  20.022  22.540  1.00  0.00    -0.273 OA
ATOM     18  N   UNL A   1      32.545  20.002  24.819  1.00  0.00    -0.324 N 
ATOM     19  H   UNL A   1      32.394  20.504  25.651  1.00  0.00     0.170 HD
BRANCH  18  20
ATOM     20  C   UNL A   1      33.159  18.726  24.926  1.00  0.00     0.044 A 
ATOM     21  C   UNL A   1      34.451  18.572  24.419  1.00  0.00     0.026 A 
ATOM     22  C   UNL A   1      32.528  17.608  25.481  1.00  0.00     0.065 A 
ATOM     23  C   UNL A   1      35.096  17.329  24.474  1.00  0.00     0.005 A 
ATOM     24  C   UNL A   1      33.174  16.371  25.512  1.00  0.00     0.125 A 
ATOM     25  C   UNL A   1      34.455  16.219  25.009  1.00  0.00     0.039 A 
ATOM     26  F   UNL A   1      32.544  15.308  26.029  1.00  0.00    -0.207 F 
ENDBRANCH  18  20
ENDBRANCH  15  16
ENDBRANCH   8  15
BRANCH   7  27
ATOM     27  C   UNL A   1      33.937  25.753  24.987  1.00  0.00    -0.013 A 
ATOM     28  C   UNL A   1      33.170  25.931  26.125  1.00  0.00     0.007 A 
ATOM     29  C   UNL A   1      34.014  26.821  24.076  1.00  0.00     0.007 A 
ATOM     30  C   UNL A   1      32.774  27.206  26.478  1.00  0.00     0.000 A 
ATOM     31  C   UNL A   1      33.510  28.077  24.396  1.00  0.00     0.000 A 
ATOM     32  C   UNL A   1      32.960  28.285  25.643  1.00  0.00     0.000 A 
ENDBRANCH   7  27
ENDBRANCH   6   7
ENDBRANCH   5   6
ENDBRANCH   3   5
ENDBRANCH   2   3
ENDBRANCH   1   2
BRANCH   1  33
ATOM     33  C   UNL A   1      40.654  20.782  26.262  1.00  0.00     0.202 C 
BRANCH  33  34
ATOM     34  O   UNL A   1      41.926  21.344  26.566  1.00  0.00    -0.374 OA
BRANCH  34  35
ATOM     35  C   UNL A   1      43.072  20.751  25.966  1.00  0.00     0.202 C 
BRANCH  35  36
ATOM     36  C   UNL A   1      43.943  21.680  25.091  1.00  0.00     0.261 C 
BRANCH  36  37
ATOM     37  O   UNL A   1      43.316  22.953  24.789  1.00  0.00    -0.460 OA
BRANCH  37  38
ATOM     38  C   UNL A   1      44.042  24.085  24.987  1.00  0.00     0.338 C 
ATOM     39  O   UNL A   1      44.988  24.459  24.314  1.00  0.00    -0.246 OA
BRANCH  38  40
ATOM     40  C   UNL A   1      43.415  24.943  26.045  1.00  0.00     0.060 A 
ATOM     41  C   UNL A   1      43.944  26.227  26.260  1.00  0.00     0.016 A 
ATOM     42  C   UNL A   1      42.281  24.560  26.762  1.00  0.00     0.016 A 
ATOM     43  C   UNL A   1      43.345  27.128  27.168  1.00  0.00     0.010 A 
ATOM     44  C   UNL A   1      41.695  25.461  27.678  1.00  0.00     0.010 A 
ATOM     45  C   UNL A   1      42.210  26.761  27.902  1.00  0.00    -0.014 A 
BRANCH  45  46
ATOM     46  C   UNL A   1      41.672  27.634  29.012  1.00  0.00     0.031 A 
ATOM     47  C   UNL A   1      42.338  27.552  30.371  1.00  0.00     0.074 A 
ATOM     48  C   UNL A   1      40.583  28.433  28.914  1.00  0.00     0.049 A 
ATOM     49  N   UNL A   1      42.009  28.134  31.499  1.00  0.00    -0.248 NA
ATOM     50  C   UNL A   1      43.475  26.631  30.480  1.00  0.00     0.031 C 
ATOM     51  C   UNL A   1      39.770  28.634  27.722  1.00  0.00     0.029 A 
ATOM     52  N   UNL A   1      39.945  29.215  29.863  1.00  0.00    -0.354 N 
ATOM     53  C   UNL A   1      42.888  27.632  32.450  1.00  0.00     0.074 A 
ATOM     54  C   UNL A   1      43.690  26.628  31.784  1.00  0.00     0.031 C 
ATOM     55  C   UNL A   1      38.742  29.457  28.003  1.00  0.00     0.029 A 
ATOM     56  C   UNL A   1      38.822  29.872  29.401  1.00  0.00     0.049 A 
ATOM     57  H   UNL A   1      40.265  29.295  30.791  1.00  0.00     0.167 HD
ATOM     58  C   UNL A   1      43.058  27.987  33.748  1.00  0.00     0.037 A 
ATOM     59  C   UNL A   1      37.968  30.726  30.011  1.00  0.00     0.037 A 
ATOM     60  C   UNL A   1      42.298  28.995  34.439  1.00  0.00     0.049 A 
ATOM     61  C   UNL A   1      38.176  31.124  31.455  1.00  0.00     0.074 A 
ATOM     62  C   UNL A   1      42.474  29.470  35.728  1.00  0.00     0.029 A 
ATOM     63  N   UNL A   1      41.216  29.677  33.909  1.00  0.00    -0.354 N 
ATOM     64  N   UNL A   1      39.104  30.742  32.295  1.00  0.00    -0.248 NA
ATOM     65  C   UNL A   1      37.227  32.098  32.026  1.00  0.00     0.031 C 
ATOM     66  C   UNL A   1      41.468  30.404  35.996  1.00  0.00     0.029 A 
ATOM     67  C   UNL A   1      40.705  30.557  34.852  1.00  0.00     0.049 A 
ATOM     68  H   UNL A   1      40.862  29.555  32.999  1.00  0.00     0.167 HD
ATOM     69  C   UNL A   1      38.886  31.468  33.464  1.00  0.00     0.074 A 
ATOM     70  C   UNL A   1      37.740  32.316  33.228  1.00  0.00     0.031 C 
ATOM     71  C   UNL A   1      39.587  31.436  34.623  1.00  0.00     0.037 A 
BRANCH  58  72
ATOM     72  C   UNL A   1      44.144  27.273  34.503  1.00  0.00     0.057 A 
ATOM     73  C   UNL A   1      43.895  26.080  35.198  1.00  0.00     0.134 A 
ATOM     74  C   UNL A   1      45.445  27.787  34.550  1.00  0.00     0.134 A 
ATOM     75  F   UNL A   1      42.667  25.537  35.201  1.00  0.00    -0.206 F 
ATOM     76  C   UNL A   1      44.883  25.461  35.965  1.00  0.00     0.040 A 
ATOM     77  C   UNL A   1      46.452  27.153  35.277  1.00  0.00     0.040 A 
ATOM     78  F   UNL A   1      45.758  28.915  33.894  1.00  0.00    -0.206 F 
ATOM     79  C   UNL A   1      46.168  25.997  36.003  1.00  0.00     0.006 A 
ENDBRANCH  58  72
BRANCH  59  80
ATOM     80  C   UNL A   1      36.847  31.360  29.255  1.00  0.00     0.057 A 
ATOM     81  C   UNL A   1      35.717  30.610  28.894  1.00  0.00     0.134 A 
ATOM     82  C   UNL A   1      36.912  32.678  28.793  1.00  0.00     0.134 A 
ATOM     83  F   UNL A   1      35.611  29.328  29.273  1.00  0.00    -0.206 F 
ATOM     84  C   UNL A   1      34.712  31.136  28.077  1.00  0.00     0.040 A 
ATOM     85  C   UNL A   1      35.902  33.226  27.995  1.00  0.00     0.040 A 
ATOM     86  F   UNL A   1      37.966  33.451  29.095  1.00  0.00    -0.206 F 
ATOM     87  C   UNL A   1      34.803  32.450  27.626  1.00  0.00     0.006 A 
ENDBRANCH  59  80
BRANCH  71  88
ATOM     88  C   UNL A   1      39.203  32.394  35.720  1.00  0.00     0.057 A 
ATOM     89  C   UNL A   1      38.348  32.037  36.770  1.00  0.00     0.134 A 
ATOM     90  C   UNL A   1      39.752  33.684  35.754  1.00  0.00     0.134 A 
ATOM     91  F   UNL A   1      37.778  30.823  36.800  1.00  0.00    -0.206 F 
ATOM     92  C   UNL A   1      38.036  32.932  37.799  1.00  0.00     0.040 A 
ATOM     93  C   UNL A   1      39.474  34.576  36.792  1.00  0.00     0.040 A 
ATOM     94  F   UNL A   1      40.588  34.095  34.787  1.00  0.00    -0.206 F 
ATOM     95  C   UNL A   1      38.608  34.202  37.817  1.00  0.00     0.006 A 
ENDBRANCH  71  88
ENDBRANCH  45  46
ENDBRANCH  38  40
ENDBRANCH  37  38
ENDBRANCH  36  37
ENDBRANCH  35  36
ENDBRANCH  34  35
ENDBRANCH  33  34
ENDBRANCH   1  33
TORSDOF 20
ENDMDL
MODEL 3
REMARK VINA RESULT:     -11.6      3.771      6.368
REMARK SMILES O=C(CN1C(=O)N[C@@](CCC(=O)OCCOCCOC(=O)c2ccc(-c3c4nc(c(-c5c(F)cccc5F)c5ccc([nH]5)c(-c5c(F)cccc5F)c5nc(c(-c6c(F)cccc6F)c6ccc3[nH]6)C=C5)C=C4)cc2)(c2ccccc2)C1=O)Nc1cccc(F)c1
REMARK SMILES IDX 14 1 13 2 11 3 12 4 10 5 9 6 8 7 4 8 5 9 82 10 6 11 7 12
REMARK SMILES IDX 83 13 3 15 2 16 1 17 84 18 85 20 86 21 91 22 87 23 89 24
REMARK SMILES IDX 88 25 90 26 76 27 77 28 81 29 78 30 80 31 79 32 15 33 16 34
REMARK SMILES IDX 17 35 18 36 19 37 20 38 21 39 22 40 23 41 75 42 24 43 74 44
REMARK SMILES IDX 25 45 26 46 27 47 68 48 28 49 73 50 67 51 69 52 29 53 72 54
REMARK SMILES IDX 66 55 65 56 30 58 56 59 39 60 55 61 40 62 43 63 54 64 70 65
REMARK SMILES IDX 41 66 42 67 53 69 71 70 44 71 31 72 32 73 37 74 33 75 34 76
REMARK SMILES IDX 36 77 38 78 35 79 57 80 58 81 63 82 59 83 60 84 62 85 64 86
REMARK SMILES IDX 61 87 45 88 46 89 51 90 47 91 48 92 50 93 52 94 49 95
REMARK H PARENT 7 14 84 19 69 57 43 68
REMARK Flexibility Score: inf
ROOT
ATOM      1  C   UNL A   1      33.370  17.720  23.602  1.00  0.00     0.261 C 
ENDROOT
BRANCH   1   2
ATOM      2  O   UNL A   1      32.150  18.497  23.661  1.00  0.00    -0.463 OA
BRANCH   2   3
ATOM      3  C   UNL A   1      32.240  19.789  24.068  1.00  0.00     0.305 C 
ATOM      4  O   UNL A   1      32.075  20.158  25.224  1.00  0.00    -0.252 OA
BRANCH   3   5
ATOM      5  C   UNL A   1      32.458  20.770  22.915  1.00  0.00     0.126 C 
BRANCH   5   6
ATOM      6  C   UNL A   1      31.648  22.086  22.869  1.00  0.00     0.055 C 
BRANCH   6   7
ATOM      7  C   UNL A   1      32.475  23.406  22.899  1.00  0.00     0.147 C 
ATOM      8  N   UNL A   1      32.012  25.656  22.338  1.00  0.00    -0.252 N 
ATOM      9  C   UNL A   1      32.774  25.127  21.339  1.00  0.00     0.325 C 
ATOM     10  C   UNL A   1      31.620  24.671  23.202  1.00  0.00     0.261 C 
ATOM     11  O   UNL A   1      33.271  25.703  20.397  1.00  0.00    -0.248 OA
ATOM     12  N   UNL A   1      32.940  23.781  21.585  1.00  0.00    -0.319 N 
ATOM     13  O   UNL A   1      30.840  24.804  24.136  1.00  0.00    -0.271 OA
ATOM     14  H   UNL A   1      33.330  23.149  20.938  1.00  0.00     0.166 HD
BRANCH   8  15
ATOM     15  C   UNL A   1      31.615  27.045  22.384  1.00  0.00     0.230 C 
BRANCH  15  16
ATOM     16  C   UNL A   1      32.486  27.942  23.276  1.00  0.00     0.244 C 
ATOM     17  O   UNL A   1      33.141  28.848  22.760  1.00  0.00    -0.273 OA
ATOM     18  N   UNL A   1      32.344  27.767  24.643  1.00  0.00    -0.324 N 
ATOM     19  H   UNL A   1      31.893  26.950  24.954  1.00  0.00     0.170 HD
BRANCH  18  20
ATOM     20  C   UNL A   1      32.804  28.677  25.631  1.00  0.00     0.044 A 
ATOM     21  C   UNL A   1      32.007  29.784  25.928  1.00  0.00     0.026 A 
ATOM     22  C   UNL A   1      34.027  28.544  26.297  1.00  0.00     0.065 A 
ATOM     23  C   UNL A   1      32.423  30.730  26.876  1.00  0.00     0.005 A 
ATOM     24  C   UNL A   1      34.438  29.503  27.224  1.00  0.00     0.125 A 
ATOM     25  C   UNL A   1      33.646  30.600  27.519  1.00  0.00     0.039 A 
ATOM     26  F   UNL A   1      35.621  29.367  27.836  1.00  0.00    -0.207 F 
ENDBRANCH  18  20
ENDBRANCH  15  16
ENDBRANCH   8  15
BRANCH   7  27
ATOM     27  C   UNL A   1      33.622  23.421  23.895  1.00  0.00    -0.013 A 
ATOM     28  C   UNL A   1      34.910  23.232  23.428  1.00  0.00     0.007 A 
ATOM     29  C   UNL A   1      33.445  23.583  25.281  1.00  0.00     0.007 A 
ATOM     30  C   UNL A   1      35.976  23.513  24.259  1.00  0.00     0.000 A 
ATOM     31  C   UNL A   1      34.534  23.753  26.129  1.00  0.00     0.000 A 
ATOM     32  C   UNL A   1      35.805  23.799  25.595  1.00  0.00     0.000 A 
ENDBRANCH   7  27
ENDBRANCH   6   7
ENDBRANCH   5   6
ENDBRANCH   3   5
ENDBRANCH   2   3
ENDBRANCH   1   2
BRANCH   1  33
ATOM     33  C   UNL A   1      34.400  17.937  24.737  1.00  0.00     0.202 C 
BRANCH  33  34
ATOM     34  O   UNL A   1      35.697  18.406  24.389  1.00  0.00    -0.374 OA
BRANCH  34  35
ATOM     35  C   UNL A   1      36.143  19.621  24.982  1.00  0.00     0.202 C 
BRANCH  35  36
ATOM     36  C   UNL A   1      37.649  19.935  24.845  1.00  0.00     0.261 C 
BRANCH  36  37
ATOM     37  O   UNL A   1      38.116  20.962  25.757  1.00  0.00    -0.460 OA
BRANCH  37  38
ATOM     38  C   UNL A   1      39.383  20.857  26.241  1.00  0.00     0.338 C 
ATOM     39  O   UNL A   1      40.075  19.853  26.230  1.00  0.00    -0.246 OA
BRANCH  38  40
ATOM     40  C   UNL A   1      39.918  22.201  26.632  1.00  0.00     0.060 A 
ATOM     41  C   UNL A   1      39.294  23.345  26.103  1.00  0.00     0.016 A 
ATOM     42  C   UNL A   1      40.945  22.372  27.560  1.00  0.00     0.016 A 
ATOM     43  C   UNL A   1      39.677  24.645  26.501  1.00  0.00     0.010 A 
ATOM     44  C   UNL A   1      41.331  23.675  27.945  1.00  0.00     0.010 A 
ATOM     45  C   UNL A   1      40.710  24.837  27.427  1.00  0.00    -0.014 A 
BRANCH  45  46
ATOM     46  C   UNL A   1      41.261  26.214  27.720  1.00  0.00     0.031 A 
ATOM     47  C   UNL A   1      42.663  26.537  27.245  1.00  0.00     0.074 A 
ATOM     48  C   UNL A   1      40.628  27.166  28.448  1.00  0.00     0.049 A 
ATOM     49  N   UNL A   1      43.385  27.613  27.446  1.00  0.00    -0.248 NA
ATOM     50  C   UNL A   1      43.361  25.472  26.516  1.00  0.00     0.031 C 
ATOM     51  C   UNL A   1      39.299  27.057  29.032  1.00  0.00     0.029 A 
ATOM     52  N   UNL A   1      41.046  28.423  28.851  1.00  0.00    -0.354 N 
ATOM     53  C   UNL A   1      44.626  27.342  26.883  1.00  0.00     0.074 A 
ATOM     54  C   UNL A   1      44.583  25.968  26.429  1.00  0.00     0.031 C 
ATOM     55  C   UNL A   1      39.012  28.174  29.728  1.00  0.00     0.029 A 
ATOM     56  C   UNL A   1      40.132  29.106  29.629  1.00  0.00     0.049 A 
ATOM     57  H   UNL A   1      41.923  28.799  28.605  1.00  0.00     0.167 HD
ATOM     58  C   UNL A   1      45.699  28.154  26.713  1.00  0.00     0.037 A 
ATOM     59  C   UNL A   1      40.169  30.341  30.179  1.00  0.00     0.037 A 
ATOM     60  C   UNL A   1      45.771  29.530  27.129  1.00  0.00     0.049 A 
ATOM     61  C   UNL A   1      41.366  31.243  29.971  1.00  0.00     0.074 A 
ATOM     62  C   UNL A   1      46.793  30.440  26.911  1.00  0.00     0.029 A 
ATOM     63  N   UNL A   1      44.797  30.194  27.854  1.00  0.00    -0.354 N 
ATOM     64  N   UNL A   1      42.473  31.013  29.312  1.00  0.00    -0.248 NA
ATOM     65  C   UNL A   1      41.301  32.592  30.565  1.00  0.00     0.031 C 
ATOM     66  C   UNL A   1      46.458  31.640  27.545  1.00  0.00     0.029 A 
ATOM     67  C   UNL A   1      45.201  31.497  28.105  1.00  0.00     0.049 A 
ATOM     68  H   UNL A   1      43.945  29.799  28.148  1.00  0.00     0.167 HD
ATOM     69  C   UNL A   1      43.203  32.198  29.362  1.00  0.00     0.074 A 
ATOM     70  C   UNL A   1      42.416  33.149  30.114  1.00  0.00     0.031 C 
ATOM     71  C   UNL A   1      44.415  32.469  28.820  1.00  0.00     0.037 A 
BRANCH  58  72
ATOM     72  C   UNL A   1      46.889  27.558  26.016  1.00  0.00     0.057 A 
ATOM     73  C   UNL A   1      47.922  26.929  26.728  1.00  0.00     0.134 A 
ATOM     74  C   UNL A   1      47.014  27.624  24.623  1.00  0.00     0.134 A 
ATOM     75  F   UNL A   1      47.868  26.839  28.066  1.00  0.00    -0.206 F 
ATOM     76  C   UNL A   1      49.064  26.449  26.087  1.00  0.00     0.040 A 
ATOM     77  C   UNL A   1      48.131  27.106  23.967  1.00  0.00     0.040 A 
ATOM     78  F   UNL A   1      46.056  28.195  23.878  1.00  0.00    -0.206 F 
ATOM     79  C   UNL A   1      49.169  26.534  24.701  1.00  0.00     0.006 A 
ENDBRANCH  58  72
BRANCH  59  80
ATOM     80  C   UNL A   1      39.000  30.879  30.938  1.00  0.00     0.057 A 
ATOM     81  C   UNL A   1      38.858  30.614  32.309  1.00  0.00     0.134 A 
ATOM     82  C   UNL A   1      37.961  31.573  30.311  1.00  0.00     0.134 A 
ATOM     83  F   UNL A   1      39.802  29.920  32.961  1.00  0.00    -0.206 F 
ATOM     84  C   UNL A   1      37.714  30.990  33.018  1.00  0.00     0.040 A 
ATOM     85  C   UNL A   1      36.821  31.977  31.014  1.00  0.00     0.040 A 
ATOM     86  F   UNL A   1      38.027  31.854  29.001  1.00  0.00    -0.206 F 
ATOM     87  C   UNL A   1      36.691  31.676  32.369  1.00  0.00     0.006 A 
ENDBRANCH  59  80
BRANCH  71  88
ATOM     88  C   UNL A   1      44.956  33.870  28.938  1.00  0.00     0.057 A 
ATOM     89  C   UNL A   1      44.665  34.873  28.006  1.00  0.00     0.134 A 
ATOM     90  C   UNL A   1      45.740  34.232  30.044  1.00  0.00     0.134 A 
ATOM     91  F   UNL A   1      43.930  34.599  26.918  1.00  0.00    -0.206 F 
ATOM     92  C   UNL A   1      45.148  36.178  28.157  1.00  0.00     0.040 A 
ATOM     93  C   UNL A   1      46.202  35.537  30.223  1.00  0.00     0.040 A 
ATOM     94  F   UNL A   1      46.053  33.326  30.983  1.00  0.00    -0.206 F 
ATOM     95  C   UNL A   1      45.911  36.515  29.273  1.00  0.00     0.006 A 
ENDBRANCH  71  88
ENDBRANCH  45  46
ENDBRANCH  38  40
ENDBRANCH  37  38
ENDBRANCH  36  37
ENDBRANCH  35  36
ENDBRANCH  34  35
ENDBRANCH  33  34
ENDBRANCH   1  33
TORSDOF 20
ENDMDL
