MODEL 1
REMARK VINA RESULT:      -9.2      0.000      0.000
REMARK SMILES O=C(OCCOCCOC(=O)[C@@H](Cc1ccncc1)c1ccc(Cl)cc1)c1ccc(-c2c3nc(c(-c4c(F)cccc4F)c4ccc([nH]4)c(-c4c(F)cccc4F)c4nc(c(-c5c(F)cccc5F)c5ccc2[nH]5)C=C4)C=C3)cc1
REMARK SMILES IDX 6 1 5 2 4 3 3 4 2 5 1 6 27 7 28 8 80 9 29 10 79 11 30 12
REMARK SMILES IDX 31 13 32 14 73 15 33 16 78 17 72 18 74 19 34 20 77 21 71 22
REMARK SMILES IDX 70 23 35 25 61 26 44 27 60 28 45 29 48 30 59 31 75 32 46 33
REMARK SMILES IDX 47 34 58 36 76 37 49 38 36 39 37 40 42 41 38 42 39 43 41 44
REMARK SMILES IDX 43 45 40 46 62 47 63 48 68 49 64 50 65 51 67 52 69 53 66 54
REMARK SMILES IDX 50 55 51 56 56 57 52 58 53 59 55 60 57 61 54 62 7 63 8 64
REMARK SMILES IDX 9 65 10 66 11 67 12 68 13 69 14 70 15 71 19 72 16 73 18 74
REMARK SMILES IDX 17 75 20 76 21 77 26 78 22 79 25 80 23 81 24 82
REMARK H PARENT 74 24 48 35
REMARK Flexibility Score: inf
ROOT
ATOM      1  O   UNL A   1      46.029  20.399  25.364  1.00  0.00    -0.374 OA
ENDROOT
BRANCH   1   2
ATOM      2  C   UNL A   1      45.087  19.647  24.597  1.00  0.00     0.202 C 
BRANCH   2   3
ATOM      3  C   UNL A   1      44.011  18.878  25.385  1.00  0.00     0.261 C 
BRANCH   3   4
ATOM      4  O   UNL A   1      42.684  19.290  25.015  1.00  0.00    -0.460 OA
BRANCH   4   5
ATOM      5  C   UNL A   1      41.756  19.908  25.784  1.00  0.00     0.338 C 
ATOM      6  O   UNL A   1      40.665  19.365  25.941  1.00  0.00    -0.246 OA
BRANCH   5   7
ATOM      7  C   UNL A   1      41.984  21.231  26.441  1.00  0.00     0.060 A 
ATOM      8  C   UNL A   1      42.314  22.403  25.762  1.00  0.00     0.016 A 
ATOM      9  C   UNL A   1      41.778  21.315  27.827  1.00  0.00     0.016 A 
ATOM     10  C   UNL A   1      42.420  23.616  26.388  1.00  0.00     0.010 A 
ATOM     11  C   UNL A   1      41.916  22.536  28.491  1.00  0.00     0.010 A 
ATOM     12  C   UNL A   1      42.241  23.678  27.756  1.00  0.00    -0.014 A 
BRANCH  12  13
ATOM     13  C   UNL A   1      42.621  24.950  28.356  1.00  0.00     0.031 A 
ATOM     14  C   UNL A   1      41.531  25.939  28.585  1.00  0.00     0.074 A 
ATOM     15  C   UNL A   1      43.848  25.072  28.883  1.00  0.00     0.049 A 
ATOM     16  N   UNL A   1      41.604  27.157  29.032  1.00  0.00    -0.248 NA
ATOM     17  C   UNL A   1      40.159  25.479  28.289  1.00  0.00     0.031 C 
ATOM     18  C   UNL A   1      44.872  24.021  28.886  1.00  0.00     0.029 A 
ATOM     19  N   UNL A   1      44.429  26.113  29.542  1.00  0.00    -0.354 N 
ATOM     20  C   UNL A   1      40.301  27.632  29.014  1.00  0.00     0.074 A 
ATOM     21  C   UNL A   1      39.449  26.563  28.549  1.00  0.00     0.031 C 
ATOM     22  C   UNL A   1      45.970  24.488  29.498  1.00  0.00     0.029 A 
ATOM     23  C   UNL A   1      45.747  25.885  29.846  1.00  0.00     0.049 A 
ATOM     24  H   UNL A   1      43.953  26.943  29.775  1.00  0.00     0.167 HD
ATOM     25  C   UNL A   1      39.884  28.877  29.326  1.00  0.00     0.037 A 
ATOM     26  C   UNL A   1      46.674  26.754  30.280  1.00  0.00     0.037 A 
ATOM     27  C   UNL A   1      40.797  29.893  29.771  1.00  0.00     0.049 A 
ATOM     28  C   UNL A   1      46.223  28.169  30.509  1.00  0.00     0.074 A 
ATOM     29  C   UNL A   1      40.558  31.222  30.043  1.00  0.00     0.029 A 
ATOM     30  N   UNL A   1      42.153  29.666  29.999  1.00  0.00    -0.354 N 
ATOM     31  N   UNL A   1      45.016  28.675  30.381  1.00  0.00    -0.248 NA
ATOM     32  C   UNL A   1      47.245  29.136  30.914  1.00  0.00     0.031 C 
ATOM     33  C   UNL A   1      41.782  31.812  30.385  1.00  0.00     0.029 A 
ATOM     34  C   UNL A   1      42.772  30.837  30.385  1.00  0.00     0.049 A 
ATOM     35  H   UNL A   1      42.603  28.796  29.898  1.00  0.00     0.167 HD
ATOM     36  C   UNL A   1      45.125  30.018  30.702  1.00  0.00     0.074 A 
ATOM     37  C   UNL A   1      46.521  30.242  31.039  1.00  0.00     0.031 C 
ATOM     38  C   UNL A   1      44.172  30.983  30.717  1.00  0.00     0.037 A 
BRANCH  25  39
ATOM     39  C   UNL A   1      38.444  29.193  29.053  1.00  0.00     0.057 A 
ATOM     40  C   UNL A   1      37.984  29.610  27.796  1.00  0.00     0.134 A 
ATOM     41  C   UNL A   1      37.519  29.185  30.105  1.00  0.00     0.134 A 
ATOM     42  F   UNL A   1      38.826  29.685  26.754  1.00  0.00    -0.206 F 
ATOM     43  C   UNL A   1      36.669  30.045  27.607  1.00  0.00     0.040 A 
ATOM     44  C   UNL A   1      36.196  29.592  29.922  1.00  0.00     0.040 A 
ATOM     45  F   UNL A   1      37.895  28.815  31.338  1.00  0.00    -0.206 F 
ATOM     46  C   UNL A   1      35.772  30.037  28.673  1.00  0.00     0.006 A 
ENDBRANCH  25  39
BRANCH  26  47
ATOM     47  C   UNL A   1      48.086  26.319  30.408  1.00  0.00     0.057 A 
ATOM     48  C   UNL A   1      49.047  26.640  29.444  1.00  0.00     0.134 A 
ATOM     49  C   UNL A   1      48.525  25.615  31.541  1.00  0.00     0.134 A 
ATOM     50  F   UNL A   1      48.693  27.301  28.333  1.00  0.00    -0.206 F 
ATOM     51  C   UNL A   1      50.388  26.280  29.602  1.00  0.00     0.040 A 
ATOM     52  C   UNL A   1      49.865  25.272  31.723  1.00  0.00     0.040 A 
ATOM     53  F   UNL A   1      47.658  25.281  32.508  1.00  0.00    -0.206 F 
ATOM     54  C   UNL A   1      50.802  25.603  30.748  1.00  0.00     0.006 A 
ENDBRANCH  26  47
BRANCH  38  55
ATOM     55  C   UNL A   1      44.606  32.347  31.149  1.00  0.00     0.057 A 
ATOM     56  C   UNL A   1      45.066  33.297  30.231  1.00  0.00     0.134 A 
ATOM     57  C   UNL A   1      44.466  32.736  32.486  1.00  0.00     0.134 A 
ATOM     58  F   UNL A   1      45.230  32.972  28.939  1.00  0.00    -0.206 F 
ATOM     59  C   UNL A   1      45.377  34.594  30.633  1.00  0.00     0.040 A 
ATOM     60  C   UNL A   1      44.748  34.037  32.894  1.00  0.00     0.040 A 
ATOM     61  F   UNL A   1      44.018  31.866  33.405  1.00  0.00    -0.206 F 
ATOM     62  C   UNL A   1      45.206  34.970  31.965  1.00  0.00     0.006 A 
ENDBRANCH  38  55
ENDBRANCH  12  13
ENDBRANCH   5   7
ENDBRANCH   4   5
ENDBRANCH   3   4
ENDBRANCH   2   3
ENDBRANCH   1   2
BRANCH   1  63
ATOM     63  C   UNL A   1      45.660  21.723  25.758  1.00  0.00     0.202 C 
BRANCH  63  64
ATOM     64  C   UNL A   1      46.201  22.749  24.772  1.00  0.00     0.261 C 
BRANCH  64  65
ATOM     65  O   UNL A   1      46.844  23.789  25.516  1.00  0.00    -0.463 OA
BRANCH  65  66
ATOM     66  C   UNL A   1      47.294  24.846  24.789  1.00  0.00     0.313 C 
ATOM     67  O   UNL A   1      47.571  24.828  23.603  1.00  0.00    -0.252 OA
BRANCH  66  68
ATOM     68  C   UNL A   1      47.472  26.077  25.665  1.00  0.00     0.133 C 
BRANCH  68  69
ATOM     69  C   UNL A   1      48.671  27.022  25.335  1.00  0.00     0.055 C 
BRANCH  69  70
ATOM     70  C   UNL A   1      50.087  26.496  25.232  1.00  0.00    -0.044 A 
ATOM     71  C   UNL A   1      50.943  26.862  24.185  1.00  0.00     0.024 A 
ATOM     72  C   UNL A   1      50.587  25.583  26.157  1.00  0.00     0.024 A 
ATOM     73  C   UNL A   1      52.264  26.435  24.188  1.00  0.00     0.111 A 
ATOM     74  C   UNL A   1      51.918  25.198  26.081  1.00  0.00     0.111 A 
ATOM     75  N   UNL A   1      52.776  25.624  25.132  1.00  0.00    -0.265 NA
ENDBRANCH  69  70
ENDBRANCH  68  69
BRANCH  68  76
ATOM     76  C   UNL A   1      46.111  26.708  25.896  1.00  0.00    -0.033 A 
ATOM     77  C   UNL A   1      45.958  27.854  26.688  1.00  0.00     0.006 A 
ATOM     78  C   UNL A   1      45.001  26.231  25.182  1.00  0.00     0.006 A 
ATOM     79  C   UNL A   1      44.717  28.469  26.825  1.00  0.00     0.021 A 
ATOM     80  C   UNL A   1      43.763  26.864  25.293  1.00  0.00     0.021 A 
ATOM     81  C   UNL A   1      43.623  27.972  26.126  1.00  0.00     0.041 A 
ATOM     82  Cl  UNL A   1      42.098  28.748  26.270  1.00  0.00    -0.084 Cl
ENDBRANCH  68  76
ENDBRANCH  66  68
ENDBRANCH  65  66
ENDBRANCH  64  65
ENDBRANCH  63  64
ENDBRANCH   1  63
TORSDOF 17
ENDMDL
MODEL 2
REMARK VINA RESULT:      -9.0      6.758     12.354
REMARK SMILES O=C(OCCOCCOC(=O)[C@@H](Cc1ccncc1)c1ccc(Cl)cc1)c1ccc(-c2c3nc(c(-c4c(F)cccc4F)c4ccc([nH]4)c(-c4c(F)cccc4F)c4nc(c(-c5c(F)cccc5F)c5ccc2[nH]5)C=C4)C=C3)cc1
REMARK SMILES IDX 6 1 5 2 4 3 3 4 2 5 1 6 27 7 28 8 80 9 29 10 79 11 30 12
REMARK SMILES IDX 31 13 32 14 73 15 33 16 78 17 72 18 74 19 34 20 77 21 71 22
REMARK SMILES IDX 70 23 35 25 61 26 44 27 60 28 45 29 48 30 59 31 75 32 46 33
REMARK SMILES IDX 47 34 58 36 76 37 49 38 36 39 37 40 42 41 38 42 39 43 41 44
REMARK SMILES IDX 43 45 40 46 62 47 63 48 68 49 64 50 65 51 67 52 69 53 66 54
REMARK SMILES IDX 50 55 51 56 56 57 52 58 53 59 55 60 57 61 54 62 7 63 8 64
REMARK SMILES IDX 9 65 10 66 11 67 12 68 13 69 14 70 15 71 19 72 16 73 18 74
REMARK SMILES IDX 17 75 20 76 21 77 26 78 22 79 25 80 23 81 24 82
REMARK H PARENT 74 24 48 35
REMARK Flexibility Score: inf
ROOT
ATOM      1  O   UNL A   1      32.960  30.789  27.225  1.00  0.00    -0.374 OA
ENDROOT
BRANCH   1   2
ATOM      2  C   UNL A   1      31.860  31.698  27.173  1.00  0.00     0.202 C 
BRANCH   2   3
ATOM      3  C   UNL A   1      32.195  33.172  26.883  1.00  0.00     0.261 C 
BRANCH   3   4
ATOM      4  O   UNL A   1      32.391  33.922  28.094  1.00  0.00    -0.460 OA
BRANCH   4   5
ATOM      5  C   UNL A   1      33.538  34.468  28.564  1.00  0.00     0.338 C 
ATOM      6  O   UNL A   1      33.647  35.692  28.574  1.00  0.00    -0.246 OA
BRANCH   5   7
ATOM      7  C   UNL A   1      34.691  33.655  29.056  1.00  0.00     0.060 A 
ATOM      8  C   UNL A   1      34.575  32.402  29.655  1.00  0.00     0.016 A 
ATOM      9  C   UNL A   1      35.984  34.154  28.830  1.00  0.00     0.016 A 
ATOM     10  C   UNL A   1      35.661  31.645  30.005  1.00  0.00     0.010 A 
ATOM     11  C   UNL A   1      37.105  33.414  29.212  1.00  0.00     0.010 A 
ATOM     12  C   UNL A   1      36.926  32.161  29.801  1.00  0.00    -0.014 A 
BRANCH  12  13
ATOM     13  C   UNL A   1      37.996  31.399  30.432  1.00  0.00     0.031 A 
ATOM     14  C   UNL A   1      38.169  31.570  31.901  1.00  0.00     0.074 A 
ATOM     15  C   UNL A   1      38.596  30.427  29.728  1.00  0.00     0.049 A 
ATOM     16  N   UNL A   1      39.076  31.073  32.687  1.00  0.00    -0.248 NA
ATOM     17  C   UNL A   1      37.160  32.403  32.585  1.00  0.00     0.031 C 
ATOM     18  C   UNL A   1      38.276  30.072  28.341  1.00  0.00     0.029 A 
ATOM     19  N   UNL A   1      39.568  29.543  30.089  1.00  0.00    -0.354 N 
ATOM     20  C   UNL A   1      38.786  31.579  33.946  1.00  0.00     0.074 A 
ATOM     21  C   UNL A   1      37.599  32.392  33.831  1.00  0.00     0.031 C 
ATOM     22  C   UNL A   1      39.065  29.056  27.961  1.00  0.00     0.029 A 
ATOM     23  C   UNL A   1      39.989  28.757  29.047  1.00  0.00     0.049 A 
ATOM     24  H   UNL A   1      39.931  29.477  31.002  1.00  0.00     0.167 HD
ATOM     25  C   UNL A   1      39.496  31.396  35.080  1.00  0.00     0.037 A 
ATOM     26  C   UNL A   1      41.062  27.953  28.979  1.00  0.00     0.037 A 
ATOM     27  C   UNL A   1      40.678  30.580  35.111  1.00  0.00     0.049 A 
ATOM     28  C   UNL A   1      41.913  27.852  30.214  1.00  0.00     0.074 A 
ATOM     29  C   UNL A   1      41.559  30.361  36.147  1.00  0.00     0.029 A 
ATOM     30  N   UNL A   1      41.140  29.849  34.019  1.00  0.00    -0.354 N 
ATOM     31  N   UNL A   1      41.728  28.420  31.386  1.00  0.00    -0.248 NA
ATOM     32  C   UNL A   1      43.122  27.032  30.123  1.00  0.00     0.031 C 
ATOM     33  C   UNL A   1      42.584  29.537  35.665  1.00  0.00     0.029 A 
ATOM     34  C   UNL A   1      42.310  29.194  34.347  1.00  0.00     0.049 A 
ATOM     35  H   UNL A   1      40.696  29.806  33.141  1.00  0.00     0.167 HD
ATOM     36  C   UNL A   1      42.788  28.017  32.180  1.00  0.00     0.074 A 
ATOM     37  C   UNL A   1      43.608  27.148  31.353  1.00  0.00     0.031 C 
ATOM     38  C   UNL A   1      43.070  28.333  33.469  1.00  0.00     0.037 A 
BRANCH  25  39
ATOM     39  C   UNL A   1      39.074  32.198  36.274  1.00  0.00     0.057 A 
ATOM     40  C   UNL A   1      38.133  31.737  37.204  1.00  0.00     0.134 A 
ATOM     41  C   UNL A   1      39.542  33.510  36.430  1.00  0.00     0.134 A 
ATOM     42  F   UNL A   1      37.609  30.507  37.089  1.00  0.00    -0.206 F 
ATOM     43  C   UNL A   1      37.643  32.564  38.220  1.00  0.00     0.040 A 
ATOM     44  C   UNL A   1      39.080  34.336  37.457  1.00  0.00     0.040 A 
ATOM     45  F   UNL A   1      40.429  34.024  35.565  1.00  0.00    -0.206 F 
ATOM     46  C   UNL A   1      38.118  33.868  38.347  1.00  0.00     0.006 A 
ENDBRANCH  25  39
BRANCH  26  47
ATOM     47  C   UNL A   1      41.412  27.301  27.694  1.00  0.00     0.057 A 
ATOM     48  C   UNL A   1      41.015  25.995  27.398  1.00  0.00     0.134 A 
ATOM     49  C   UNL A   1      42.110  28.001  26.696  1.00  0.00     0.134 A 
ATOM     50  F   UNL A   1      40.354  25.267  28.309  1.00  0.00    -0.206 F 
ATOM     51  C   UNL A   1      41.295  25.409  26.160  1.00  0.00     0.040 A 
ATOM     52  C   UNL A   1      42.375  27.437  25.447  1.00  0.00     0.040 A 
ATOM     53  F   UNL A   1      42.516  29.261  26.911  1.00  0.00    -0.206 F 
ATOM     54  C   UNL A   1      41.968  26.134  25.178  1.00  0.00     0.006 A 
ENDBRANCH  26  47
BRANCH  38  55
ATOM     55  C   UNL A   1      44.288  27.700  34.063  1.00  0.00     0.057 A 
ATOM     56  C   UNL A   1      45.521  28.359  34.087  1.00  0.00     0.134 A 
ATOM     57  C   UNL A   1      44.191  26.458  34.702  1.00  0.00     0.134 A 
ATOM     58  F   UNL A   1      45.671  29.546  33.479  1.00  0.00    -0.206 F 
ATOM     59  C   UNL A   1      46.624  27.799  34.727  1.00  0.00     0.040 A 
ATOM     60  C   UNL A   1      45.280  25.901  35.368  1.00  0.00     0.040 A 
ATOM     61  F   UNL A   1      43.028  25.789  34.718  1.00  0.00    -0.206 F 
ATOM     62  C   UNL A   1      46.501  26.573  35.380  1.00  0.00     0.006 A 
ENDBRANCH  38  55
ENDBRANCH  12  13
ENDBRANCH   5   7
ENDBRANCH   4   5
ENDBRANCH   3   4
ENDBRANCH   2   3
ENDBRANCH   1   2
BRANCH   1  63
ATOM     63  C   UNL A   1      32.703  29.416  26.917  1.00  0.00     0.202 C 
BRANCH  63  64
ATOM     64  C   UNL A   1      33.206  29.073  25.522  1.00  0.00     0.261 C 
BRANCH  64  65
ATOM     65  O   UNL A   1      32.297  29.634  24.568  1.00  0.00    -0.463 OA
BRANCH  65  66
ATOM     66  C   UNL A   1      31.872  28.791  23.589  1.00  0.00     0.313 C 
ATOM     67  O   UNL A   1      32.468  28.541  22.556  1.00  0.00    -0.252 OA
BRANCH  66  68
ATOM     68  C   UNL A   1      30.499  28.223  23.914  1.00  0.00     0.133 C 
BRANCH  68  69
ATOM     69  C   UNL A   1      29.338  28.548  22.921  1.00  0.00     0.055 C 
BRANCH  69  70
ATOM     70  C   UNL A   1      28.932  29.976  22.620  1.00  0.00    -0.044 A 
ATOM     71  C   UNL A   1      28.536  30.382  21.339  1.00  0.00     0.024 A 
ATOM     72  C   UNL A   1      28.978  30.962  23.602  1.00  0.00     0.024 A 
ATOM     73  C   UNL A   1      28.076  31.676  21.134  1.00  0.00     0.111 A 
ATOM     74  C   UNL A   1      28.509  32.236  23.309  1.00  0.00     0.111 A 
ATOM     75  N   UNL A   1      28.035  32.608  22.103  1.00  0.00    -0.265 NA
ENDBRANCH  69  70
ENDBRANCH  68  69
BRANCH  68  76
ATOM     76  C   UNL A   1      30.665  26.785  24.368  1.00  0.00    -0.033 A 
ATOM     77  C   UNL A   1      30.684  26.442  25.727  1.00  0.00     0.006 A 
ATOM     78  C   UNL A   1      30.645  25.755  23.415  1.00  0.00     0.006 A 
ATOM     79  C   UNL A   1      30.754  25.110  26.128  1.00  0.00     0.021 A 
ATOM     80  C   UNL A   1      30.685  24.419  23.815  1.00  0.00     0.021 A 
ATOM     81  C   UNL A   1      30.754  24.104  25.170  1.00  0.00     0.041 A 
ATOM     82  Cl  UNL A   1      30.811  22.459  25.665  1.00  0.00    -0.084 Cl
ENDBRANCH  68  76
ENDBRANCH  66  68
ENDBRANCH  65  66
ENDBRANCH  64  65
ENDBRANCH  63  64
ENDBRANCH   1  63
TORSDOF 17
ENDMDL
MODEL 3
REMARK VINA RESULT:      -9.0      6.883     12.929
REMARK SMILES O=C(OCCOCCOC(=O)[C@@H](Cc1ccncc1)c1ccc(Cl)cc1)c1ccc(-c2c3nc(c(-c4c(F)cccc4F)c4ccc([nH]4)c(-c4c(F)cccc4F)c4nc(c(-c5c(F)cccc5F)c5ccc2[nH]5)C=C4)C=C3)cc1
REMARK SMILES IDX 6 1 5 2 4 3 3 4 2 5 1 6 27 7 28 8 80 9 29 10 79 11 30 12
REMARK SMILES IDX 31 13 32 14 73 15 33 16 78 17 72 18 74 19 34 20 77 21 71 22
REMARK SMILES IDX 70 23 35 25 61 26 44 27 60 28 45 29 48 30 59 31 75 32 46 33
REMARK SMILES IDX 47 34 58 36 76 37 49 38 36 39 37 40 42 41 38 42 39 43 41 44
REMARK SMILES IDX 43 45 40 46 62 47 63 48 68 49 64 50 65 51 67 52 69 53 66 54
REMARK SMILES IDX 50 55 51 56 56 57 52 58 53 59 55 60 57 61 54 62 7 63 8 64
REMARK SMILES IDX 9 65 10 66 11 67 12 68 13 69 14 70 15 71 19 72 16 73 18 74
REMARK SMILES IDX 17 75 20 76 21 77 26 78 22 79 25 80 23 81 24 82
REMARK H PARENT 74 24 48 35
REMARK Flexibility Score: inf
ROOT
ATOM      1  O   UNL A   1      31.626  30.770  26.685  1.00  0.00    -0.374 OA
ENDROOT
BRANCH   1   2
ATOM      2  C   UNL A   1      31.428  32.175  26.850  1.00  0.00     0.202 C 
BRANCH   2   3
ATOM      3  C   UNL A   1      32.674  33.015  27.182  1.00  0.00     0.261 C 
BRANCH   3   4
ATOM      4  O   UNL A   1      32.346  34.162  27.986  1.00  0.00    -0.460 OA
BRANCH   4   5
ATOM      5  C   UNL A   1      33.088  34.741  28.960  1.00  0.00     0.338 C 
ATOM      6  O   UNL A   1      32.748  35.843  29.382  1.00  0.00    -0.246 OA
BRANCH   5   7
ATOM      7  C   UNL A   1      34.315  34.113  29.538  1.00  0.00     0.060 A 
ATOM      8  C   UNL A   1      34.307  33.095  30.490  1.00  0.00     0.016 A 
ATOM      9  C   UNL A   1      35.558  34.525  29.031  1.00  0.00     0.016 A 
ATOM     10  C   UNL A   1      35.450  32.479  30.923  1.00  0.00     0.010 A 
ATOM     11  C   UNL A   1      36.739  33.935  29.487  1.00  0.00     0.010 A 
ATOM     12  C   UNL A   1      36.668  32.913  30.436  1.00  0.00    -0.014 A 
BRANCH  12  13
ATOM     13  C   UNL A   1      37.825  32.376  31.140  1.00  0.00     0.031 A 
ATOM     14  C   UNL A   1      38.584  31.292  30.457  1.00  0.00     0.074 A 
ATOM     15  C   UNL A   1      38.282  33.028  32.219  1.00  0.00     0.049 A 
ATOM     16  N   UNL A   1      39.596  30.598  30.886  1.00  0.00    -0.248 NA
ATOM     17  C   UNL A   1      38.154  30.958  29.085  1.00  0.00     0.031 C 
ATOM     18  C   UNL A   1      37.691  34.249  32.778  1.00  0.00     0.029 A 
ATOM     19  N   UNL A   1      39.360  32.778  33.014  1.00  0.00    -0.354 N 
ATOM     20  C   UNL A   1      39.886  29.705  29.865  1.00  0.00     0.074 A 
ATOM     21  C   UNL A   1      38.972  29.965  28.779  1.00  0.00     0.031 C 
ATOM     22  C   UNL A   1      38.407  34.625  33.849  1.00  0.00     0.029 A 
ATOM     23  C   UNL A   1      39.441  33.627  34.088  1.00  0.00     0.049 A 
ATOM     24  H   UNL A   1      40.013  32.062  32.836  1.00  0.00     0.167 HD
ATOM     25  C   UNL A   1      40.820  28.730  29.878  1.00  0.00     0.037 A 
ATOM     26  C   UNL A   1      40.221  33.536  35.177  1.00  0.00     0.037 A 
ATOM     27  C   UNL A   1      41.687  28.526  31.005  1.00  0.00     0.049 A 
ATOM     28  C   UNL A   1      41.174  32.375  35.233  1.00  0.00     0.074 A 
ATOM     29  C   UNL A   1      42.622  27.536  31.219  1.00  0.00     0.029 A 
ATOM     30  N   UNL A   1      41.702  29.351  32.128  1.00  0.00    -0.354 N 
ATOM     31  N   UNL A   1      41.383  31.442  34.330  1.00  0.00    -0.248 NA
ATOM     32  C   UNL A   1      41.976  32.232  36.449  1.00  0.00     0.031 C 
ATOM     33  C   UNL A   1      43.166  27.734  32.494  1.00  0.00     0.029 A 
ATOM     34  C   UNL A   1      42.613  28.881  33.051  1.00  0.00     0.049 A 
ATOM     35  H   UNL A   1      41.143  30.153  32.244  1.00  0.00     0.167 HD
ATOM     36  C   UNL A   1      42.351  30.604  34.859  1.00  0.00     0.074 A 
ATOM     37  C   UNL A   1      42.692  31.151  36.162  1.00  0.00     0.031 C 
ATOM     38  C   UNL A   1      42.909  29.487  34.330  1.00  0.00     0.037 A 
BRANCH  25  39
ATOM     39  C   UNL A   1      40.816  27.780  28.719  1.00  0.00     0.057 A 
ATOM     40  C   UNL A   1      41.618  27.964  27.584  1.00  0.00     0.134 A 
ATOM     41  C   UNL A   1      39.903  26.718  28.695  1.00  0.00     0.134 A 
ATOM     42  F   UNL A   1      42.484  28.987  27.522  1.00  0.00    -0.206 F 
ATOM     43  C   UNL A   1      41.484  27.150  26.455  1.00  0.00     0.040 A 
ATOM     44  C   UNL A   1      39.778  25.883  27.582  1.00  0.00     0.040 A 
ATOM     45  F   UNL A   1      39.090  26.495  29.738  1.00  0.00    -0.206 F 
ATOM     46  C   UNL A   1      40.560  26.107  26.453  1.00  0.00     0.006 A 
ENDBRANCH  25  39
BRANCH  26  47
ATOM     47  C   UNL A   1      40.040  34.495  36.293  1.00  0.00     0.057 A 
ATOM     48  C   UNL A   1      39.196  34.220  37.372  1.00  0.00     0.134 A 
ATOM     49  C   UNL A   1      40.764  35.699  36.335  1.00  0.00     0.134 A 
ATOM     50  F   UNL A   1      38.469  33.095  37.390  1.00  0.00    -0.206 F 
ATOM     51  C   UNL A   1      39.078  35.102  38.450  1.00  0.00     0.040 A 
ATOM     52  C   UNL A   1      40.675  36.575  37.417  1.00  0.00     0.040 A 
ATOM     53  F   UNL A   1      41.598  36.022  35.336  1.00  0.00    -0.206 F 
ATOM     54  C   UNL A   1      39.826  36.278  38.479  1.00  0.00     0.006 A 
ENDBRANCH  26  47
BRANCH  38  55
ATOM     55  C   UNL A   1      43.968  28.816  35.145  1.00  0.00     0.057 A 
ATOM     56  C   UNL A   1      45.313  29.188  35.052  1.00  0.00     0.134 A 
ATOM     57  C   UNL A   1      43.614  27.857  36.101  1.00  0.00     0.134 A 
ATOM     58  F   UNL A   1      45.708  30.094  34.144  1.00  0.00    -0.206 F 
ATOM     59  C   UNL A   1      46.276  28.623  35.884  1.00  0.00     0.040 A 
ATOM     60  C   UNL A   1      44.564  27.305  36.956  1.00  0.00     0.040 A 
ATOM     61  F   UNL A   1      42.336  27.472  36.239  1.00  0.00    -0.206 F 
ATOM     62  C   UNL A   1      45.899  27.687  36.848  1.00  0.00     0.006 A 
ENDBRANCH  38  55
ENDBRANCH  12  13
ENDBRANCH   5   7
ENDBRANCH   4   5
ENDBRANCH   3   4
ENDBRANCH   2   3
ENDBRANCH   1   2
BRANCH   1  63
ATOM     63  C   UNL A   1      32.972  30.292  26.620  1.00  0.00     0.202 C 
BRANCH  63  64
ATOM     64  C   UNL A   1      33.170  29.402  25.400  1.00  0.00     0.261 C 
BRANCH  64  65
ATOM     65  O   UNL A   1      32.162  29.730  24.438  1.00  0.00    -0.463 OA
BRANCH  65  66
ATOM     66  C   UNL A   1      31.846  28.748  23.553  1.00  0.00     0.313 C 
ATOM     67  O   UNL A   1      32.557  28.349  22.647  1.00  0.00    -0.252 OA
BRANCH  66  68
ATOM     68  C   UNL A   1      30.438  28.226  23.795  1.00  0.00     0.133 C 
BRANCH  68  69
ATOM     69  C   UNL A   1      29.348  28.596  22.739  1.00  0.00     0.055 C 
BRANCH  69  70
ATOM     70  C   UNL A   1      28.903  30.029  22.530  1.00  0.00    -0.044 A 
ATOM     71  C   UNL A   1      28.886  30.962  23.575  1.00  0.00     0.024 A 
ATOM     72  C   UNL A   1      28.445  30.469  21.291  1.00  0.00     0.024 A 
ATOM     73  C   UNL A   1      28.567  32.288  23.313  1.00  0.00     0.111 A 
ATOM     74  C   UNL A   1      28.136  31.811  21.118  1.00  0.00     0.111 A 
ATOM     75  N   UNL A   1      28.212  32.736  22.096  1.00  0.00    -0.265 NA
ENDBRANCH  69  70
ENDBRANCH  68  69
BRANCH  68  76
ATOM     76  C   UNL A   1      30.528  26.781  24.248  1.00  0.00    -0.033 A 
ATOM     77  C   UNL A   1      30.232  25.719  23.381  1.00  0.00     0.006 A 
ATOM     78  C   UNL A   1      31.066  26.487  25.510  1.00  0.00     0.006 A 
ATOM     79  C   UNL A   1      30.397  24.398  23.785  1.00  0.00     0.021 A 
ATOM     80  C   UNL A   1      31.262  25.164  25.906  1.00  0.00     0.021 A 
ATOM     81  C   UNL A   1      30.912  24.125  25.047  1.00  0.00     0.041 A 
ATOM     82  Cl  UNL A   1      31.145  22.494  25.536  1.00  0.00    -0.084 Cl
ENDBRANCH  68  76
ENDBRANCH  66  68
ENDBRANCH  65  66
ENDBRANCH  64  65
ENDBRANCH  63  64
ENDBRANCH   1  63
TORSDOF 17
ENDMDL
