MODEL 1
REMARK VINA RESULT:     -10.4      0.000      0.000
REMARK SMILES CC1(C)Cc2c(-c3ccccc3)c(-c3ccc(Cl)cc3)c(CC(=O)OCCOCCOC(=O)c3ccc(-c4c5nc(c(-c6c(F)cccc6F)c6ccc([nH]6)c(-c6c(F)cccc6F)c6nc(c(-c7c(F)cccc7F)c7ccc4[nH]7)C=C6)C=C5)cc3)n2C1
REMARK SMILES IDX 28 1 27 2 26 3 25 4 23 5 24 6 22 7 21 8 1 9 2 10 3 11 4 12
REMARK SMILES IDX 89 13 5 14 88 15 6 16 13 17 7 18 8 19 12 20 9 21 11 22 10 23
REMARK SMILES IDX 14 24 15 25 20 26 16 27 19 28 17 29 18 30 29 31 30 32 31 33
REMARK SMILES IDX 32 34 33 35 34 36 35 37 87 38 36 39 86 40 37 41 38 42 39 43
REMARK SMILES IDX 80 44 40 45 85 46 79 47 81 48 41 49 84 50 78 51 77 52 42 54
REMARK SMILES IDX 68 55 51 56 67 57 52 58 55 59 66 60 82 61 53 62 54 63 65 65
REMARK SMILES IDX 83 66 56 67 43 68 44 69 49 70 45 71 46 72 48 73 50 74 47 75
REMARK SMILES IDX 69 76 70 77 75 78 71 79 72 80 74 81 76 82 73 83 57 84 58 85
REMARK SMILES IDX 63 86 59 87 60 88 62 89 64 90 61 91
REMARK H PARENT 81 53 55 64
REMARK Flexibility Score: inf
ROOT
ATOM      1  O   UNL A   1      34.862  35.704  33.921  1.00  0.00    -0.374 OA
ENDROOT
BRANCH   1   2
ATOM      2  C   UNL A   1      34.241  36.368  32.835  1.00  0.00     0.202 C 
BRANCH   2   3
ATOM      3  C   UNL A   1      33.361  35.467  31.954  1.00  0.00     0.261 C 
BRANCH   3   4
ATOM      4  O   UNL A   1      33.862  35.293  30.604  1.00  0.00    -0.463 OA
BRANCH   4   5
ATOM      5  C   UNL A   1      34.428  34.098  30.312  1.00  0.00     0.311 C 
ATOM      6  O   UNL A   1      34.209  33.076  30.962  1.00  0.00    -0.252 OA
BRANCH   5   7
ATOM      7  C   UNL A   1      35.379  34.060  29.122  1.00  0.00     0.177 C 
BRANCH   7   8
ATOM      8  C   UNL A   1      36.514  33.062  29.042  1.00  0.00     0.037 A 
ATOM      9  C   UNL A   1      39.973  33.925  32.475  1.00  0.00     0.013 C 
ATOM     10  C   UNL A   1      39.644  33.713  30.992  1.00  0.00    -0.012 C 
ATOM     11  C   UNL A   1      40.723  34.395  30.135  1.00  0.00     0.013 C 
ATOM     12  C   UNL A   1      39.600  32.193  30.656  1.00  0.00     0.063 C 
ATOM     13  C   UNL A   1      38.222  34.252  30.629  1.00  0.00     0.129 C 
ATOM     14  C   UNL A   1      38.431  32.088  29.755  1.00  0.00     0.027 A 
ATOM     15  N   UNL A   1      37.689  33.232  29.729  1.00  0.00    -0.346 N 
ATOM     16  C   UNL A   1      37.815  31.146  28.978  1.00  0.00     0.011 A 
ATOM     17  C   UNL A   1      36.576  31.746  28.532  1.00  0.00     0.011 A 
BRANCH  16  18
ATOM     18  C   UNL A   1      38.307  29.789  28.801  1.00  0.00    -0.016 A 
ATOM     19  C   UNL A   1      39.013  29.408  27.653  1.00  0.00     0.009 A 
ATOM     20  C   UNL A   1      38.096  28.846  29.810  1.00  0.00     0.009 A 
ATOM     21  C   UNL A   1      39.476  28.098  27.508  1.00  0.00     0.001 A 
ATOM     22  C   UNL A   1      38.604  27.555  29.686  1.00  0.00     0.001 A 
ATOM     23  C   UNL A   1      39.271  27.172  28.527  1.00  0.00     0.000 A 
ENDBRANCH  16  18
BRANCH  17  24
ATOM     24  C   UNL A   1      35.497  30.992  27.880  1.00  0.00    -0.016 A 
ATOM     25  C   UNL A   1      34.247  31.593  27.682  1.00  0.00     0.010 A 
ATOM     26  C   UNL A   1      35.591  29.608  27.690  1.00  0.00     0.010 A 
ATOM     27  C   UNL A   1      33.139  30.823  27.292  1.00  0.00     0.021 A 
ATOM     28  C   UNL A   1      34.501  28.840  27.276  1.00  0.00     0.021 A 
ATOM     29  C   UNL A   1      33.273  29.452  27.086  1.00  0.00     0.041 A 
ATOM     30  Cl  UNL A   1      31.911  28.498  26.649  1.00  0.00    -0.084 Cl
ENDBRANCH  17  24
ENDBRANCH   7   8
ENDBRANCH   5   7
ENDBRANCH   4   5
ENDBRANCH   3   4
ENDBRANCH   2   3
ENDBRANCH   1   2
BRANCH   1  31
ATOM     31  C   UNL A   1      35.897  34.771  33.635  1.00  0.00     0.202 C 
BRANCH  31  32
ATOM     32  C   UNL A   1      36.076  33.527  34.504  1.00  0.00     0.261 C 
BRANCH  32  33
ATOM     33  O   UNL A   1      37.107  32.650  34.060  1.00  0.00    -0.460 OA
BRANCH  33  34
ATOM     34  C   UNL A   1      37.774  32.098  35.089  1.00  0.00     0.338 C 
ATOM     35  O   UNL A   1      37.503  32.270  36.261  1.00  0.00    -0.246 OA
BRANCH  34  36
ATOM     36  C   UNL A   1      38.849  31.215  34.594  1.00  0.00     0.060 A 
ATOM     37  C   UNL A   1      38.481  30.243  33.665  1.00  0.00     0.016 A 
ATOM     38  C   UNL A   1      40.165  31.285  35.089  1.00  0.00     0.016 A 
ATOM     39  C   UNL A   1      39.425  29.323  33.251  1.00  0.00     0.010 A 
ATOM     40  C   UNL A   1      41.087  30.328  34.730  1.00  0.00     0.010 A 
ATOM     41  C   UNL A   1      40.709  29.363  33.806  1.00  0.00    -0.014 A 
BRANCH  41  42
ATOM     42  C   UNL A   1      41.716  28.484  33.262  1.00  0.00     0.031 A 
ATOM     43  C   UNL A   1      42.188  27.433  34.184  1.00  0.00     0.074 A 
ATOM     44  C   UNL A   1      42.131  28.523  31.989  1.00  0.00     0.049 A 
ATOM     45  N   UNL A   1      43.363  27.348  34.708  1.00  0.00    -0.248 NA
ATOM     46  C   UNL A   1      41.236  26.419  34.655  1.00  0.00     0.031 C 
ATOM     47  C   UNL A   1      41.583  29.311  30.895  1.00  0.00     0.029 A 
ATOM     48  N   UNL A   1      43.095  27.774  31.395  1.00  0.00    -0.354 N 
ATOM     49  C   UNL A   1      43.367  26.170  35.436  1.00  0.00     0.074 A 
ATOM     50  C   UNL A   1      42.001  25.715  35.491  1.00  0.00     0.031 C 
ATOM     51  C   UNL A   1      42.076  28.847  29.725  1.00  0.00     0.029 A 
ATOM     52  C   UNL A   1      43.085  27.843  30.015  1.00  0.00     0.049 A 
ATOM     53  H   UNL A   1      43.743  27.232  31.901  1.00  0.00     0.167 HD
ATOM     54  C   UNL A   1      44.532  25.545  35.749  1.00  0.00     0.037 A 
ATOM     55  C   UNL A   1      43.836  27.102  29.169  1.00  0.00     0.037 A 
ATOM     56  C   UNL A   1      45.668  26.417  35.586  1.00  0.00     0.049 A 
ATOM     57  C   UNL A   1      45.029  26.638  29.915  1.00  0.00     0.074 A 
ATOM     58  C   UNL A   1      46.045  27.632  36.124  1.00  0.00     0.029 A 
ATOM     59  N   UNL A   1      46.463  26.235  34.481  1.00  0.00    -0.354 N 
ATOM     60  N   UNL A   1      45.983  27.430  30.321  1.00  0.00    -0.248 NA
ATOM     61  C   UNL A   1      44.978  25.342  30.577  1.00  0.00     0.031 C 
ATOM     62  C   UNL A   1      46.713  28.319  35.068  1.00  0.00     0.029 A 
ATOM     63  C   UNL A   1      46.725  27.475  33.957  1.00  0.00     0.049 A 
ATOM     64  H   UNL A   1      46.784  25.374  34.129  1.00  0.00     0.167 HD
ATOM     65  C   UNL A   1      46.357  26.927  31.557  1.00  0.00     0.074 A 
ATOM     66  C   UNL A   1      45.809  25.576  31.597  1.00  0.00     0.031 C 
ATOM     67  C   UNL A   1      46.826  27.752  32.541  1.00  0.00     0.037 A 
BRANCH  54  68
ATOM     68  C   UNL A   1      44.671  24.055  35.870  1.00  0.00     0.057 A 
ATOM     69  C   UNL A   1      45.275  23.508  37.013  1.00  0.00     0.134 A 
ATOM     70  C   UNL A   1      44.488  23.161  34.795  1.00  0.00     0.134 A 
ATOM     71  F   UNL A   1      45.530  24.272  38.087  1.00  0.00    -0.206 F 
ATOM     72  C   UNL A   1      45.711  22.180  37.065  1.00  0.00     0.040 A 
ATOM     73  C   UNL A   1      44.869  21.819  34.856  1.00  0.00     0.040 A 
ATOM     74  F   UNL A   1      44.029  23.561  33.602  1.00  0.00    -0.206 F 
ATOM     75  C   UNL A   1      45.509  21.332  35.984  1.00  0.00     0.006 A 
ENDBRANCH  54  68
BRANCH  55  76
ATOM     76  C   UNL A   1      43.452  26.598  27.839  1.00  0.00     0.057 A 
ATOM     77  C   UNL A   1      42.557  25.534  27.687  1.00  0.00     0.134 A 
ATOM     78  C   UNL A   1      43.771  27.317  26.674  1.00  0.00     0.134 A 
ATOM     79  F   UNL A   1      42.162  24.821  28.751  1.00  0.00    -0.206 F 
ATOM     80  C   UNL A   1      42.004  25.207  26.443  1.00  0.00     0.040 A 
ATOM     81  C   UNL A   1      43.230  27.000  25.426  1.00  0.00     0.040 A 
ATOM     82  F   UNL A   1      44.556  28.405  26.725  1.00  0.00    -0.206 F 
ATOM     83  C   UNL A   1      42.333  25.945  25.309  1.00  0.00     0.006 A 
ENDBRANCH  55  76
BRANCH  67  84
ATOM     84  C   UNL A   1      47.209  29.153  32.151  1.00  0.00     0.057 A 
ATOM     85  C   UNL A   1      46.316  30.235  32.150  1.00  0.00     0.134 A 
ATOM     86  C   UNL A   1      48.555  29.447  31.911  1.00  0.00     0.134 A 
ATOM     87  F   UNL A   1      45.027  30.070  32.471  1.00  0.00    -0.206 F 
ATOM     88  C   UNL A   1      46.734  31.539  31.874  1.00  0.00     0.040 A 
ATOM     89  C   UNL A   1      48.993  30.751  31.665  1.00  0.00     0.040 A 
ATOM     90  F   UNL A   1      49.479  28.472  31.956  1.00  0.00    -0.206 F 
ATOM     91  C   UNL A   1      48.080  31.802  31.635  1.00  0.00     0.006 A 
ENDBRANCH  67  84
ENDBRANCH  41  42
ENDBRANCH  34  36
ENDBRANCH  33  34
ENDBRANCH  32  33
ENDBRANCH  31  32
ENDBRANCH   1  31
TORSDOF 17
ENDMDL
MODEL 2
REMARK VINA RESULT:     -10.2      2.811      5.709
REMARK SMILES CC1(C)Cc2c(-c3ccccc3)c(-c3ccc(Cl)cc3)c(CC(=O)OCCOCCOC(=O)c3ccc(-c4c5nc(c(-c6c(F)cccc6F)c6ccc([nH]6)c(-c6c(F)cccc6F)c6nc(c(-c7c(F)cccc7F)c7ccc4[nH]7)C=C6)C=C5)cc3)n2C1
REMARK SMILES IDX 28 1 27 2 26 3 25 4 23 5 24 6 22 7 21 8 1 9 2 10 3 11 4 12
REMARK SMILES IDX 89 13 5 14 88 15 6 16 13 17 7 18 8 19 12 20 9 21 11 22 10 23
REMARK SMILES IDX 14 24 15 25 20 26 16 27 19 28 17 29 18 30 29 31 30 32 31 33
REMARK SMILES IDX 32 34 33 35 34 36 35 37 87 38 36 39 86 40 37 41 38 42 39 43
REMARK SMILES IDX 80 44 40 45 85 46 79 47 81 48 41 49 84 50 78 51 77 52 42 54
REMARK SMILES IDX 68 55 51 56 67 57 52 58 55 59 66 60 82 61 53 62 54 63 65 65
REMARK SMILES IDX 83 66 56 67 43 68 44 69 49 70 45 71 46 72 48 73 50 74 47 75
REMARK SMILES IDX 69 76 70 77 75 78 71 79 72 80 74 81 76 82 73 83 57 84 58 85
REMARK SMILES IDX 63 86 59 87 60 88 62 89 64 90 61 91
REMARK H PARENT 81 53 55 64
REMARK Flexibility Score: inf
ROOT
ATOM      1  O   UNL A   1      33.615  34.140  31.708  1.00  0.00    -0.374 OA
ENDROOT
BRANCH   1   2
ATOM      2  C   UNL A   1      34.192  34.595  32.918  1.00  0.00     0.202 C 
BRANCH   2   3
ATOM      3  C   UNL A   1      35.277  33.672  33.496  1.00  0.00     0.261 C 
BRANCH   3   4
ATOM      4  O   UNL A   1      35.287  32.341  32.919  1.00  0.00    -0.463 OA
BRANCH   4   5
ATOM      5  C   UNL A   1      36.475  31.886  32.455  1.00  0.00     0.311 C 
ATOM      6  O   UNL A   1      36.756  30.690  32.392  1.00  0.00    -0.252 OA
BRANCH   5   7
ATOM      7  C   UNL A   1      37.486  32.935  32.009  1.00  0.00     0.177 C 
BRANCH   7   8
ATOM      8  C   UNL A   1      38.901  32.957  32.545  1.00  0.00     0.037 A 
ATOM      9  C   UNL A   1      41.944  35.531  29.611  1.00  0.00     0.013 C 
ATOM     10  C   UNL A   1      41.657  34.214  30.344  1.00  0.00    -0.012 C 
ATOM     11  C   UNL A   1      42.383  33.068  29.621  1.00  0.00     0.013 C 
ATOM     12  C   UNL A   1      42.152  34.293  31.819  1.00  0.00     0.063 C 
ATOM     13  C   UNL A   1      40.124  33.927  30.444  1.00  0.00     0.129 C 
ATOM     14  C   UNL A   1      41.066  33.622  32.568  1.00  0.00     0.027 A 
ATOM     15  N   UNL A   1      39.960  33.405  31.799  1.00  0.00    -0.346 N 
ATOM     16  C   UNL A   1      40.803  33.210  33.845  1.00  0.00     0.011 A 
ATOM     17  C   UNL A   1      39.413  32.802  33.853  1.00  0.00     0.011 A 
BRANCH  16  18
ATOM     18  C   UNL A   1      41.743  33.323  34.947  1.00  0.00    -0.016 A 
ATOM     19  C   UNL A   1      42.099  34.567  35.485  1.00  0.00     0.009 A 
ATOM     20  C   UNL A   1      42.287  32.164  35.505  1.00  0.00     0.009 A 
ATOM     21  C   UNL A   1      43.004  34.647  36.546  1.00  0.00     0.001 A 
ATOM     22  C   UNL A   1      43.150  32.244  36.596  1.00  0.00     0.001 A 
ATOM     23  C   UNL A   1      43.528  33.483  37.101  1.00  0.00     0.000 A 
ENDBRANCH  16  18
BRANCH  17  24
ATOM     24  C   UNL A   1      38.655  32.525  35.080  1.00  0.00    -0.016 A 
ATOM     25  C   UNL A   1      38.206  33.586  35.877  1.00  0.00     0.010 A 
ATOM     26  C   UNL A   1      38.596  31.235  35.620  1.00  0.00     0.010 A 
ATOM     27  C   UNL A   1      37.702  33.347  37.166  1.00  0.00     0.021 A 
ATOM     28  C   UNL A   1      38.072  30.985  36.890  1.00  0.00     0.021 A 
ATOM     29  C   UNL A   1      37.632  32.048  37.664  1.00  0.00     0.041 A 
ATOM     30  Cl  UNL A   1      37.055  31.753  39.256  1.00  0.00    -0.084 Cl
ENDBRANCH  17  24
ENDBRANCH   7   8
ENDBRANCH   5   7
ENDBRANCH   4   5
ENDBRANCH   3   4
ENDBRANCH   2   3
ENDBRANCH   1   2
BRANCH   1  31
ATOM     31  C   UNL A   1      34.049  34.734  30.491  1.00  0.00     0.202 C 
BRANCH  31  32
ATOM     32  C   UNL A   1      34.379  33.862  29.280  1.00  0.00     0.261 C 
BRANCH  32  33
ATOM     33  O   UNL A   1      34.749  32.526  29.607  1.00  0.00    -0.460 OA
BRANCH  33  34
ATOM     34  C   UNL A   1      35.070  31.813  28.514  1.00  0.00     0.338 C 
ATOM     35  O   UNL A   1      34.437  31.814  27.477  1.00  0.00    -0.246 OA
BRANCH  34  36
ATOM     36  C   UNL A   1      36.324  31.065  28.734  1.00  0.00     0.060 A 
ATOM     37  C   UNL A   1      36.201  29.703  29.003  1.00  0.00     0.016 A 
ATOM     38  C   UNL A   1      37.580  31.699  28.759  1.00  0.00     0.016 A 
ATOM     39  C   UNL A   1      37.333  28.980  29.323  1.00  0.00     0.010 A 
ATOM     40  C   UNL A   1      38.699  30.995  29.145  1.00  0.00     0.010 A 
ATOM     41  C   UNL A   1      38.564  29.640  29.412  1.00  0.00    -0.014 A 
BRANCH  41  42
ATOM     42  C   UNL A   1      39.753  28.846  29.613  1.00  0.00     0.031 A 
ATOM     43  C   UNL A   1      40.190  28.724  31.017  1.00  0.00     0.074 A 
ATOM     44  C   UNL A   1      40.370  28.168  28.636  1.00  0.00     0.049 A 
ATOM     45  N   UNL A   1      41.260  29.229  31.529  1.00  0.00    -0.248 NA
ATOM     46  C   UNL A   1      39.309  28.056  31.982  1.00  0.00     0.031 C 
ATOM     47  C   UNL A   1      39.921  27.969  27.267  1.00  0.00     0.029 A 
ATOM     48  N   UNL A   1      41.508  27.432  28.712  1.00  0.00    -0.354 N 
ATOM     49  C   UNL A   1      41.290  28.795  32.844  1.00  0.00     0.074 A 
ATOM     50  C   UNL A   1      40.004  28.203  33.112  1.00  0.00     0.031 C 
ATOM     51  C   UNL A   1      40.660  26.992  26.696  1.00  0.00     0.029 A 
ATOM     52  C   UNL A   1      41.725  26.623  27.613  1.00  0.00     0.049 A 
ATOM     53  H   UNL A   1      42.124  27.472  29.480  1.00  0.00     0.167 HD
ATOM     54  C   UNL A   1      42.455  28.759  33.543  1.00  0.00     0.037 A 
ATOM     55  C   UNL A   1      42.696  25.692  27.481  1.00  0.00     0.037 A 
ATOM     56  C   UNL A   1      43.481  29.549  32.913  1.00  0.00     0.049 A 
ATOM     57  C   UNL A   1      43.794  26.053  28.408  1.00  0.00     0.074 A 
ATOM     58  C   UNL A   1      43.604  30.879  32.560  1.00  0.00     0.029 A 
ATOM     59  N   UNL A   1      44.469  28.889  32.225  1.00  0.00    -0.354 N 
ATOM     60  N   UNL A   1      44.557  27.100  28.255  1.00  0.00    -0.248 NA
ATOM     61  C   UNL A   1      43.796  25.477  29.745  1.00  0.00     0.031 C 
ATOM     62  C   UNL A   1      44.349  30.878  31.344  1.00  0.00     0.029 A 
ATOM     63  C   UNL A   1      44.658  29.552  31.040  1.00  0.00     0.049 A 
ATOM     64  H   UNL A   1      44.952  28.085  32.526  1.00  0.00     0.167 HD
ATOM     65  C   UNL A   1      44.776  27.568  29.542  1.00  0.00     0.074 A 
ATOM     66  C   UNL A   1      44.405  26.460  30.415  1.00  0.00     0.031 C 
ATOM     67  C   UNL A   1      44.962  28.900  29.785  1.00  0.00     0.037 A 
BRANCH  54  68
ATOM     68  C   UNL A   1      42.759  27.738  34.601  1.00  0.00     0.057 A 
ATOM     69  C   UNL A   1      43.138  26.441  34.221  1.00  0.00     0.134 A 
ATOM     70  C   UNL A   1      42.430  27.899  35.963  1.00  0.00     0.134 A 
ATOM     71  F   UNL A   1      43.441  26.161  32.944  1.00  0.00    -0.206 F 
ATOM     72  C   UNL A   1      43.140  25.370  35.120  1.00  0.00     0.040 A 
ATOM     73  C   UNL A   1      42.483  26.848  36.881  1.00  0.00     0.040 A 
ATOM     74  F   UNL A   1      41.945  29.047  36.451  1.00  0.00    -0.206 F 
ATOM     75  C   UNL A   1      42.811  25.571  36.454  1.00  0.00     0.006 A 
ENDBRANCH  54  68
BRANCH  55  76
ATOM     76  C   UNL A   1      42.611  24.404  26.771  1.00  0.00     0.057 A 
ATOM     77  C   UNL A   1      43.558  24.029  25.813  1.00  0.00     0.134 A 
ATOM     78  C   UNL A   1      41.725  23.400  27.200  1.00  0.00     0.134 A 
ATOM     79  F   UNL A   1      44.471  24.909  25.379  1.00  0.00    -0.206 F 
ATOM     80  C   UNL A   1      43.626  22.723  25.313  1.00  0.00     0.040 A 
ATOM     81  C   UNL A   1      41.778  22.094  26.706  1.00  0.00     0.040 A 
ATOM     82  F   UNL A   1      40.832  23.634  28.173  1.00  0.00    -0.206 F 
ATOM     83  C   UNL A   1      42.739  21.749  25.765  1.00  0.00     0.006 A 
ENDBRANCH  55  76
BRANCH  67  84
ATOM     84  C   UNL A   1      45.225  29.794  28.604  1.00  0.00     0.057 A 
ATOM     85  C   UNL A   1      44.213  30.402  27.846  1.00  0.00     0.134 A 
ATOM     86  C   UNL A   1      46.541  30.168  28.316  1.00  0.00     0.134 A 
ATOM     87  F   UNL A   1      42.920  30.188  28.116  1.00  0.00    -0.206 F 
ATOM     88  C   UNL A   1      44.501  31.302  26.816  1.00  0.00     0.040 A 
ATOM     89  C   UNL A   1      46.841  31.091  27.311  1.00  0.00     0.040 A 
ATOM     90  F   UNL A   1      47.558  29.674  29.040  1.00  0.00    -0.206 F 
ATOM     91  C   UNL A   1      45.820  31.654  26.549  1.00  0.00     0.006 A 
ENDBRANCH  67  84
ENDBRANCH  41  42
ENDBRANCH  34  36
ENDBRANCH  33  34
ENDBRANCH  32  33
ENDBRANCH  31  32
ENDBRANCH   1  31
TORSDOF 17
ENDMDL
MODEL 3
REMARK VINA RESULT:      -9.5      3.123      6.348
REMARK SMILES CC1(C)Cc2c(-c3ccccc3)c(-c3ccc(Cl)cc3)c(CC(=O)OCCOCCOC(=O)c3ccc(-c4c5nc(c(-c6c(F)cccc6F)c6ccc([nH]6)c(-c6c(F)cccc6F)c6nc(c(-c7c(F)cccc7F)c7ccc4[nH]7)C=C6)C=C5)cc3)n2C1
REMARK SMILES IDX 28 1 27 2 26 3 25 4 23 5 24 6 22 7 21 8 1 9 2 10 3 11 4 12
REMARK SMILES IDX 89 13 5 14 88 15 6 16 13 17 7 18 8 19 12 20 9 21 11 22 10 23
REMARK SMILES IDX 14 24 15 25 20 26 16 27 19 28 17 29 18 30 29 31 30 32 31 33
REMARK SMILES IDX 32 34 33 35 34 36 35 37 87 38 36 39 86 40 37 41 38 42 39 43
REMARK SMILES IDX 80 44 40 45 85 46 79 47 81 48 41 49 84 50 78 51 77 52 42 54
REMARK SMILES IDX 68 55 51 56 67 57 52 58 55 59 66 60 82 61 53 62 54 63 65 65
REMARK SMILES IDX 83 66 56 67 43 68 44 69 49 70 45 71 46 72 48 73 50 74 47 75
REMARK SMILES IDX 69 76 70 77 75 78 71 79 72 80 74 81 76 82 73 83 57 84 58 85
REMARK SMILES IDX 63 86 59 87 60 88 62 89 64 90 61 91
REMARK H PARENT 81 53 55 64
REMARK Flexibility Score: inf
ROOT
ATOM      1  O   UNL A   1      34.920  34.279  30.331  1.00  0.00    -0.374 OA
ENDROOT
BRANCH   1   2
ATOM      2  C   UNL A   1      34.662  33.515  31.495  1.00  0.00     0.202 C 
BRANCH   2   3
ATOM      3  C   UNL A   1      35.785  32.539  31.881  1.00  0.00     0.261 C 
BRANCH   3   4
ATOM      4  O   UNL A   1      37.119  33.092  31.744  1.00  0.00    -0.463 OA
BRANCH   4   5
ATOM      5  C   UNL A   1      37.934  32.995  32.821  1.00  0.00     0.311 C 
ATOM      6  O   UNL A   1      37.597  33.348  33.950  1.00  0.00    -0.252 OA
BRANCH   5   7
ATOM      7  C   UNL A   1      39.326  32.423  32.581  1.00  0.00     0.177 C 
BRANCH   7   8
ATOM      8  C   UNL A   1      40.569  33.279  32.696  1.00  0.00     0.037 A 
ATOM      9  C   UNL A   1      41.576  35.644  28.467  1.00  0.00     0.013 C 
ATOM     10  C   UNL A   1      42.075  34.720  29.584  1.00  0.00    -0.012 C 
ATOM     11  C   UNL A   1      43.219  33.847  29.043  1.00  0.00     0.013 C 
ATOM     12  C   UNL A   1      42.588  35.557  30.794  1.00  0.00     0.063 C 
ATOM     13  C   UNL A   1      40.924  33.833  30.162  1.00  0.00     0.129 C 
ATOM     14  C   UNL A   1      42.075  34.802  31.959  1.00  0.00     0.027 A 
ATOM     15  N   UNL A   1      41.175  33.842  31.602  1.00  0.00    -0.346 N 
ATOM     16  C   UNL A   1      42.177  34.826  33.322  1.00  0.00     0.011 A 
ATOM     17  C   UNL A   1      41.203  33.872  33.811  1.00  0.00     0.011 A 
BRANCH  16  18
ATOM     18  C   UNL A   1      43.019  35.752  34.060  1.00  0.00    -0.016 A 
ATOM     19  C   UNL A   1      42.688  37.108  34.184  1.00  0.00     0.009 A 
ATOM     20  C   UNL A   1      44.174  35.278  34.687  1.00  0.00     0.009 A 
ATOM     21  C   UNL A   1      43.515  37.977  34.900  1.00  0.00     0.001 A 
ATOM     22  C   UNL A   1      44.969  36.136  35.443  1.00  0.00     0.001 A 
ATOM     23  C   UNL A   1      44.656  37.488  35.530  1.00  0.00     0.000 A 
ENDBRANCH  16  18
BRANCH  17  24
ATOM     24  C   UNL A   1      40.810  33.763  35.221  1.00  0.00    -0.016 A 
ATOM     25  C   UNL A   1      40.930  32.536  35.887  1.00  0.00     0.010 A 
ATOM     26  C   UNL A   1      40.070  34.773  35.847  1.00  0.00     0.010 A 
ATOM     27  C   UNL A   1      40.336  32.346  37.145  1.00  0.00     0.021 A 
ATOM     28  C   UNL A   1      39.499  34.601  37.111  1.00  0.00     0.021 A 
ATOM     29  C   UNL A   1      39.629  33.380  37.753  1.00  0.00     0.041 A 
ATOM     30  Cl  UNL A   1      38.865  33.140  39.275  1.00  0.00    -0.084 Cl
ENDBRANCH  17  24
ENDBRANCH   7   8
ENDBRANCH   5   7
ENDBRANCH   4   5
ENDBRANCH   3   4
ENDBRANCH   2   3
ENDBRANCH   1   2
BRANCH   1  31
ATOM     31  C   UNL A   1      33.912  34.339  29.330  1.00  0.00     0.202 C 
BRANCH  31  32
ATOM     32  C   UNL A   1      34.189  33.813  27.922  1.00  0.00     0.261 C 
BRANCH  32  33
ATOM     33  O   UNL A   1      35.424  33.114  27.794  1.00  0.00    -0.460 OA
BRANCH  33  34
ATOM     34  C   UNL A   1      35.247  31.781  27.786  1.00  0.00     0.338 C 
ATOM     35  O   UNL A   1      34.210  31.222  27.491  1.00  0.00    -0.246 OA
BRANCH  34  36
ATOM     36  C   UNL A   1      36.505  31.092  28.138  1.00  0.00     0.060 A 
ATOM     37  C   UNL A   1      36.529  29.709  27.963  1.00  0.00     0.016 A 
ATOM     38  C   UNL A   1      37.600  31.772  28.702  1.00  0.00     0.016 A 
ATOM     39  C   UNL A   1      37.642  29.003  28.378  1.00  0.00     0.010 A 
ATOM     40  C   UNL A   1      38.680  31.063  29.178  1.00  0.00     0.010 A 
ATOM     41  C   UNL A   1      38.693  29.686  29.001  1.00  0.00    -0.014 A 
BRANCH  41  42
ATOM     42  C   UNL A   1      39.900  28.954  29.303  1.00  0.00     0.031 A 
ATOM     43  C   UNL A   1      40.215  28.839  30.739  1.00  0.00     0.074 A 
ATOM     44  C   UNL A   1      40.638  28.322  28.381  1.00  0.00     0.049 A 
ATOM     45  N   UNL A   1      41.205  29.394  31.351  1.00  0.00    -0.248 NA
ATOM     46  C   UNL A   1      39.288  28.112  31.616  1.00  0.00     0.031 C 
ATOM     47  C   UNL A   1      40.326  28.116  26.975  1.00  0.00     0.029 A 
ATOM     48  N   UNL A   1      41.804  27.647  28.555  1.00  0.00    -0.354 N 
ATOM     49  C   UNL A   1      41.140  28.945  32.660  1.00  0.00     0.074 A 
ATOM     50  C   UNL A   1      39.869  28.283  32.805  1.00  0.00     0.031 C 
ATOM     51  C   UNL A   1      41.166  27.187  26.466  1.00  0.00     0.029 A 
ATOM     52  C   UNL A   1      42.162  26.864  27.474  1.00  0.00     0.049 A 
ATOM     53  H   UNL A   1      42.345  27.711  29.375  1.00  0.00     0.167 HD
ATOM     54  C   UNL A   1      42.237  28.963  33.461  1.00  0.00     0.037 A 
ATOM     55  C   UNL A   1      43.190  25.988  27.423  1.00  0.00     0.037 A 
ATOM     56  C   UNL A   1      43.272  29.815  32.932  1.00  0.00     0.049 A 
ATOM     57  C   UNL A   1      44.180  26.396  28.449  1.00  0.00     0.074 A 
ATOM     58  C   UNL A   1      43.353  31.154  32.602  1.00  0.00     0.029 A 
ATOM     59  N   UNL A   1      44.352  29.217  32.332  1.00  0.00    -0.354 N 
ATOM     60  N   UNL A   1      44.894  27.484  28.374  1.00  0.00    -0.248 NA
ATOM     61  C   UNL A   1      44.092  25.804  29.777  1.00  0.00     0.031 C 
ATOM     62  C   UNL A   1      44.204  31.208  31.459  1.00  0.00     0.029 A 
ATOM     63  C   UNL A   1      44.611  29.904  31.174  1.00  0.00     0.049 A 
ATOM     64  H   UNL A   1      44.849  28.437  32.670  1.00  0.00     0.167 HD
ATOM     65  C   UNL A   1      44.971  27.947  29.678  1.00  0.00     0.074 A 
ATOM     66  C   UNL A   1      44.584  26.810  30.506  1.00  0.00     0.031 C 
ATOM     67  C   UNL A   1      45.061  29.284  29.947  1.00  0.00     0.037 A 
BRANCH  54  68
ATOM     68  C   UNL A   1      42.500  27.947  34.535  1.00  0.00     0.057 A 
ATOM     69  C   UNL A   1      42.892  26.648  34.175  1.00  0.00     0.134 A 
ATOM     70  C   UNL A   1      42.119  28.114  35.882  1.00  0.00     0.134 A 
ATOM     71  F   UNL A   1      43.245  26.362  32.912  1.00  0.00    -0.206 F 
ATOM     72  C   UNL A   1      42.860  25.581  35.079  1.00  0.00     0.040 A 
ATOM     73  C   UNL A   1      42.135  27.068  36.807  1.00  0.00     0.040 A 
ATOM     74  F   UNL A   1      41.615  29.265  36.345  1.00  0.00    -0.206 F 
ATOM     75  C   UNL A   1      42.479  25.789  36.399  1.00  0.00     0.006 A 
ENDBRANCH  54  68
BRANCH  55  76
ATOM     76  C   UNL A   1      43.240  24.706  26.699  1.00  0.00     0.057 A 
ATOM     77  C   UNL A   1      42.480  23.604  27.103  1.00  0.00     0.134 A 
ATOM     78  C   UNL A   1      43.856  24.612  25.439  1.00  0.00     0.134 A 
ATOM     79  F   UNL A   1      41.821  23.624  28.270  1.00  0.00    -0.206 F 
ATOM     80  C   UNL A   1      42.334  22.471  26.293  1.00  0.00     0.040 A 
ATOM     81  C   UNL A   1      43.723  23.486  24.622  1.00  0.00     0.040 A 
ATOM     82  F   UNL A   1      44.540  25.645  24.923  1.00  0.00    -0.206 F 
ATOM     83  C   UNL A   1      42.950  22.413  25.046  1.00  0.00     0.006 A 
ENDBRANCH  55  76
BRANCH  67  84
ATOM     84  C   UNL A   1      45.381  30.205  28.801  1.00  0.00     0.057 A 
ATOM     85  C   UNL A   1      46.686  30.538  28.409  1.00  0.00     0.134 A 
ATOM     86  C   UNL A   1      44.341  30.651  27.979  1.00  0.00     0.134 A 
ATOM     87  F   UNL A   1      47.750  30.070  29.071  1.00  0.00    -0.206 F 
ATOM     88  C   UNL A   1      46.941  31.320  27.279  1.00  0.00     0.040 A 
ATOM     89  C   UNL A   1      44.584  31.407  26.829  1.00  0.00     0.040 A 
ATOM     90  F   UNL A   1      43.070  30.320  28.257  1.00  0.00    -0.206 F 
ATOM     91  C   UNL A   1      45.887  31.753  26.481  1.00  0.00     0.006 A 
ENDBRANCH  67  84
ENDBRANCH  41  42
ENDBRANCH  34  36
ENDBRANCH  33  34
ENDBRANCH  32  33
ENDBRANCH  31  32
ENDBRANCH   1  31
TORSDOF 17
ENDMDL
