MODEL 1
REMARK VINA RESULT:     -13.4      0.000      0.000
REMARK SMILES O=C(CC1(NC(=O)c2cc(Cl)ccc2Cl)CCC1)OCCOCCOC(=O)c1ccc(-c2c3nc(c(-c4c(F)cccc4F)c4ccc([nH]4)c(-c4c(F)cccc4F)c4nc(c(-c5c(F)cccc5F)c5ccc2[nH]5)C=C4)C=C3)cc1
REMARK SMILES IDX 21 1 20 2 19 3 2 4 1 5 3 6 4 7 16 8 18 9 17 10 5 11 6 12
REMARK SMILES IDX 7 14 8 15 9 16 14 17 10 18 13 19 15 20 11 21 12 22 22 23
REMARK SMILES IDX 23 24 24 25 25 26 26 27 27 28 28 29 29 30 81 31 30 32 80 33
REMARK SMILES IDX 31 34 32 35 33 36 74 37 34 38 79 39 73 40 75 41 35 42 78 43
REMARK SMILES IDX 72 44 71 45 36 47 62 48 45 49 61 50 46 51 49 52 60 53 76 54
REMARK SMILES IDX 47 55 48 56 59 58 77 59 50 60 37 61 38 62 43 63 39 64 40 65
REMARK SMILES IDX 42 66 44 67 41 68 63 69 64 70 69 71 65 72 66 73 68 74 70 75
REMARK SMILES IDX 67 76 51 77 52 78 57 79 53 80 54 81 56 82 58 83 55 84
REMARK H PARENT 5 13 75 46 49 57
REMARK Flexibility Score: inf
ROOT
ATOM      1  C   UNL A   1      34.467  31.469  28.209  1.00  0.00     0.202 C 
ENDROOT
BRANCH   1   2
ATOM      2  C   UNL A   1      33.053  30.836  27.165  1.00  0.00     0.261 C 
BRANCH   2   3
ATOM      3  O   UNL A   1      32.562  29.176  26.956  1.00  0.00    -0.463 OA
BRANCH   3   4
ATOM      4  C   UNL A   1      32.531  27.919  26.323  1.00  0.00     0.308 C 
ATOM      5  O   UNL A   1      33.606  27.293  26.353  1.00  0.00    -0.252 OA
BRANCH   4   6
ATOM      6  C   UNL A   1      31.377  27.191  25.356  1.00  0.00     0.151 C 
BRANCH   6   7
ATOM      7  C   UNL A   1      30.818  27.693  23.984  1.00  0.00     0.051 C 
ATOM      8  C   UNL A   1      29.395  28.149  23.353  1.00  0.00     0.029 C 
ATOM      9  C   UNL A   1      31.190  29.188  23.742  1.00  0.00     0.029 C 
ATOM     10  C   UNL A   1      30.206  29.231  22.567  1.00  0.00     0.005 C 
BRANCH   7  11
ATOM     11  N   UNL A   1      31.116  26.659  23.025  1.00  0.00    -0.346 N 
ATOM     12  C   UNL A   1      32.283  26.042  23.178  1.00  0.00     0.253 C 
ATOM     13  H   UNL A   1      30.492  26.423  22.300  1.00  0.00     0.164 HD
ATOM     14  O   UNL A   1      33.124  26.882  22.806  1.00  0.00    -0.269 OA
BRANCH  12  15
ATOM     15  C   UNL A   1      32.321  24.242  23.650  1.00  0.00     0.059 A 
ATOM     16  C   UNL A   1      30.783  23.476  24.521  1.00  0.00     0.036 A 
ATOM     17  C   UNL A   1      33.857  24.235  24.520  1.00  0.00     0.053 A 
ATOM     18  C   UNL A   1      30.899  23.063  26.280  1.00  0.00     0.041 A 
ATOM     19  C   UNL A   1      33.893  23.811  26.214  1.00  0.00     0.023 A 
ATOM     20  Cl  UNL A   1      35.268  23.624  23.613  1.00  0.00    -0.083 Cl
ATOM     21  Cl  UNL A   1      29.537  22.665  27.232  1.00  0.00    -0.084 Cl
ATOM     22  C   UNL A   1      32.476  23.261  27.076  1.00  0.00     0.022 A 
ENDBRANCH  12  15
ENDBRANCH   7  11
ENDBRANCH   6   7
ENDBRANCH   4   6
ENDBRANCH   3   4
ENDBRANCH   2   3
ENDBRANCH   1   2
BRANCH   1  23
ATOM     23  O   UNL A   1      34.498  32.966  29.177  1.00  0.00    -0.374 OA
BRANCH  23  24
ATOM     24  C   UNL A   1      34.418  34.689  28.496  1.00  0.00     0.202 C 
BRANCH  24  25
ATOM     25  C   UNL A   1      32.846  36.044  29.260  1.00  0.00     0.261 C 
BRANCH  25  26
ATOM     26  O   UNL A   1      32.985  36.890  30.654  1.00  0.00    -0.460 OA
BRANCH  26  27
ATOM     27  C   UNL A   1      32.658  36.313  31.858  1.00  0.00     0.338 C 
ATOM     28  O   UNL A   1      31.628  36.454  32.493  1.00  0.00    -0.246 OA
BRANCH  27  29
ATOM     29  C   UNL A   1      33.645  35.270  32.186  1.00  0.00     0.060 A 
ATOM     30  C   UNL A   1      33.271  34.057  32.797  1.00  0.00     0.016 A 
ATOM     31  C   UNL A   1      34.979  35.551  31.930  1.00  0.00     0.016 A 
ATOM     32  C   UNL A   1      34.237  33.088  33.086  1.00  0.00     0.010 A 
ATOM     33  C   UNL A   1      35.944  34.608  32.260  1.00  0.00     0.010 A 
ATOM     34  C   UNL A   1      35.581  33.377  32.837  1.00  0.00    -0.014 A 
BRANCH  34  35
ATOM     35  C   UNL A   1      36.672  32.510  33.330  1.00  0.00     0.031 A 
ATOM     36  C   UNL A   1      37.310  32.871  34.638  1.00  0.00     0.074 A 
ATOM     37  C   UNL A   1      37.174  31.537  32.552  1.00  0.00     0.049 A 
ATOM     38  N   UNL A   1      38.431  32.455  35.161  1.00  0.00    -0.248 NA
ATOM     39  C   UNL A   1      36.591  33.866  35.453  1.00  0.00     0.031 C 
ATOM     40  C   UNL A   1      36.617  31.111  31.270  1.00  0.00     0.029 A 
ATOM     41  N   UNL A   1      38.302  30.773  32.705  1.00  0.00    -0.354 N 
ATOM     42  C   UNL A   1      38.569  33.157  36.351  1.00  0.00     0.074 A 
ATOM     43  C   UNL A   1      37.428  34.037  36.465  1.00  0.00     0.031 C 
ATOM     44  C   UNL A   1      37.436  30.193  30.726  1.00  0.00     0.029 A 
ATOM     45  C   UNL A   1      38.588  30.003  31.604  1.00  0.00     0.049 A 
ATOM     46  H   UNL A   1      38.853  30.776  33.522  1.00  0.00     0.167 HD
ATOM     47  C   UNL A   1      39.568  33.076  37.260  1.00  0.00     0.037 A 
ATOM     48  C   UNL A   1      39.683  29.269  31.323  1.00  0.00     0.037 A 
ATOM     49  C   UNL A   1      40.704  32.207  37.113  1.00  0.00     0.049 A 
ATOM     50  C   UNL A   1      40.803  29.222  32.329  1.00  0.00     0.074 A 
ATOM     51  C   UNL A   1      41.758  32.008  37.984  1.00  0.00     0.029 A 
ATOM     52  N   UNL A   1      40.937  31.403  36.005  1.00  0.00    -0.354 N 
ATOM     53  N   UNL A   1      40.908  29.846  33.479  1.00  0.00    -0.248 NA
ATOM     54  C   UNL A   1      41.955  28.369  32.003  1.00  0.00     0.031 C 
ATOM     55  C   UNL A   1      42.656  31.123  37.380  1.00  0.00     0.029 A 
ATOM     56  C   UNL A   1      42.133  30.725  36.158  1.00  0.00     0.049 A 
ATOM     57  H   UNL A   1      40.340  31.327  35.227  1.00  0.00     0.167 HD
ATOM     58  C   UNL A   1      42.119  29.441  34.027  1.00  0.00     0.074 A 
ATOM     59  C   UNL A   1      42.710  28.512  33.083  1.00  0.00     0.031 C 
ATOM     60  C   UNL A   1      42.690  29.798  35.203  1.00  0.00     0.037 A 
BRANCH  47  61
ATOM     61  C   UNL A   1      39.484  33.978  38.457  1.00  0.00     0.057 A 
ATOM     62  C   UNL A   1      40.085  35.243  38.479  1.00  0.00     0.134 A 
ATOM     63  C   UNL A   1      38.797  33.571  39.608  1.00  0.00     0.134 A 
ATOM     64  F   UNL A   1      40.775  35.686  37.417  1.00  0.00    -0.206 F 
ATOM     65  C   UNL A   1      40.038  36.057  39.614  1.00  0.00     0.040 A 
ATOM     66  C   UNL A   1      38.716  34.389  40.738  1.00  0.00     0.040 A 
ATOM     67  F   UNL A   1      38.198  32.372  39.658  1.00  0.00    -0.206 F 
ATOM     68  C   UNL A   1      39.347  35.631  40.746  1.00  0.00     0.006 A 
ENDBRANCH  47  61
BRANCH  48  69
ATOM     69  C   UNL A   1      39.773  28.539  30.033  1.00  0.00     0.057 A 
ATOM     70  C   UNL A   1      39.183  27.280  29.873  1.00  0.00     0.134 A 
ATOM     71  C   UNL A   1      40.433  29.086  28.925  1.00  0.00     0.134 A 
ATOM     72  F   UNL A   1      38.556  26.694  30.903  1.00  0.00    -0.206 F 
ATOM     73  C   UNL A   1      39.251  26.588  28.662  1.00  0.00     0.040 A 
ATOM     74  C   UNL A   1      40.487  28.416  27.701  1.00  0.00     0.040 A 
ATOM     75  F   UNL A   1      41.017  30.289  29.012  1.00  0.00    -0.206 F 
ATOM     76  C   UNL A   1      39.898  27.161  27.569  1.00  0.00     0.006 A 
ENDBRANCH  48  69
BRANCH  60  77
ATOM     77  C   UNL A   1      43.999  29.155  35.559  1.00  0.00     0.057 A 
ATOM     78  C   UNL A   1      44.064  27.959  36.282  1.00  0.00     0.134 A 
ATOM     79  C   UNL A   1      45.204  29.707  35.105  1.00  0.00     0.134 A 
ATOM     80  F   UNL A   1      42.945  27.387  36.753  1.00  0.00    -0.206 F 
ATOM     81  C   UNL A   1      45.284  27.338  36.551  1.00  0.00     0.040 A 
ATOM     82  C   UNL A   1      46.427  29.082  35.344  1.00  0.00     0.040 A 
ATOM     83  F   UNL A   1      45.207  30.847  34.398  1.00  0.00    -0.206 F 
ATOM     84  C   UNL A   1      46.469  27.895  36.072  1.00  0.00     0.006 A 
ENDBRANCH  60  77
ENDBRANCH  34  35
ENDBRANCH  27  29
ENDBRANCH  26  27
ENDBRANCH  25  26
ENDBRANCH  24  25
ENDBRANCH  23  24
ENDBRANCH   1  23
TORSDOF 17
ENDMDL
MODEL 2
REMARK VINA RESULT:     -13.3      5.011      7.365
REMARK SMILES O=C(CC1(NC(=O)c2cc(Cl)ccc2Cl)CCC1)OCCOCCOC(=O)c1ccc(-c2c3nc(c(-c4c(F)cccc4F)c4ccc([nH]4)c(-c4c(F)cccc4F)c4nc(c(-c5c(F)cccc5F)c5ccc2[nH]5)C=C4)C=C3)cc1
REMARK SMILES IDX 21 1 20 2 19 3 2 4 1 5 3 6 4 7 16 8 18 9 17 10 5 11 6 12
REMARK SMILES IDX 7 14 8 15 9 16 14 17 10 18 13 19 15 20 11 21 12 22 22 23
REMARK SMILES IDX 23 24 24 25 25 26 26 27 27 28 28 29 29 30 81 31 30 32 80 33
REMARK SMILES IDX 31 34 32 35 33 36 74 37 34 38 79 39 73 40 75 41 35 42 78 43
REMARK SMILES IDX 72 44 71 45 36 47 62 48 45 49 61 50 46 51 49 52 60 53 76 54
REMARK SMILES IDX 47 55 48 56 59 58 77 59 50 60 37 61 38 62 43 63 39 64 40 65
REMARK SMILES IDX 42 66 44 67 41 68 63 69 64 70 69 71 65 72 66 73 68 74 70 75
REMARK SMILES IDX 67 76 51 77 52 78 57 79 53 80 54 81 56 82 58 83 55 84
REMARK H PARENT 5 13 75 46 49 57
REMARK Flexibility Score: inf
ROOT
ATOM      1  C   UNL A   1      30.962  25.885  24.675  1.00  0.00     0.202 C 
ENDROOT
BRANCH   1   2
ATOM      2  C   UNL A   1      32.224  25.938  23.300  1.00  0.00     0.261 C 
BRANCH   2   3
ATOM      3  O   UNL A   1      33.677  24.982  23.170  1.00  0.00    -0.463 OA
BRANCH   3   4
ATOM      4  C   UNL A   1      34.625  24.027  23.586  1.00  0.00     0.308 C 
ATOM      5  O   UNL A   1      35.081  23.313  22.674  1.00  0.00    -0.252 OA
BRANCH   4   6
ATOM      6  C   UNL A   1      35.105  23.530  25.110  1.00  0.00     0.151 C 
BRANCH   6   7
ATOM      7  C   UNL A   1      36.226  22.502  25.475  1.00  0.00     0.051 C 
ATOM      8  C   UNL A   1      37.206  21.461  24.711  1.00  0.00     0.029 C 
ATOM      9  C   UNL A   1      37.566  23.228  25.805  1.00  0.00     0.029 C 
ATOM     10  C   UNL A   1      38.296  21.882  25.750  1.00  0.00     0.005 C 
BRANCH   7  11
ATOM     11  N   UNL A   1      35.621  21.551  26.375  1.00  0.00    -0.346 N 
ATOM     12  C   UNL A   1      34.400  21.853  26.806  1.00  0.00     0.253 C 
ATOM     13  H   UNL A   1      36.084  20.728  26.653  1.00  0.00     0.164 HD
ATOM     14  O   UNL A   1      34.583  22.780  27.618  1.00  0.00    -0.269 OA
BRANCH  12  15
ATOM     15  C   UNL A   1      32.955  20.798  26.298  1.00  0.00     0.059 A 
ATOM     16  C   UNL A   1      33.293  19.084  25.486  1.00  0.00     0.036 A 
ATOM     17  C   UNL A   1      32.072  22.002  25.358  1.00  0.00     0.053 A 
ATOM     18  C   UNL A   1      32.970  18.884  23.715  1.00  0.00     0.041 A 
ATOM     19  C   UNL A   1      31.785  21.734  23.656  1.00  0.00     0.023 A 
ATOM     20  Cl  UNL A   1      30.702  22.793  26.185  1.00  0.00    -0.083 Cl
ATOM     21  Cl  UNL A   1      33.503  17.530  22.821  1.00  0.00    -0.084 Cl
ATOM     22  C   UNL A   1      32.225  20.247  22.850  1.00  0.00     0.022 A 
ENDBRANCH  12  15
ENDBRANCH   7  11
ENDBRANCH   6   7
ENDBRANCH   4   6
ENDBRANCH   3   4
ENDBRANCH   2   3
ENDBRANCH   1   2
BRANCH   1  23
ATOM     23  O   UNL A   1      31.247  26.216  26.404  1.00  0.00    -0.374 OA
BRANCH  23  24
ATOM     24  C   UNL A   1      31.576  27.887  27.139  1.00  0.00     0.202 C 
BRANCH  24  25
ATOM     25  C   UNL A   1      33.671  28.592  27.237  1.00  0.00     0.261 C 
BRANCH  25  26
ATOM     26  O   UNL A   1      34.108  30.151  26.997  1.00  0.00    -0.460 OA
BRANCH  26  27
ATOM     27  C   UNL A   1      34.715  30.869  28.000  1.00  0.00     0.338 C 
ATOM     28  O   UNL A   1      34.228  31.760  28.674  1.00  0.00    -0.246 OA
BRANCH  27  29
ATOM     29  C   UNL A   1      36.005  30.243  28.340  1.00  0.00     0.060 A 
ATOM     30  C   UNL A   1      36.274  29.748  29.630  1.00  0.00     0.016 A 
ATOM     31  C   UNL A   1      36.979  30.216  27.354  1.00  0.00     0.016 A 
ATOM     32  C   UNL A   1      37.508  29.153  29.912  1.00  0.00     0.010 A 
ATOM     33  C   UNL A   1      38.222  29.667  27.647  1.00  0.00     0.010 A 
ATOM     34  C   UNL A   1      38.493  29.135  28.921  1.00  0.00    -0.014 A 
BRANCH  34  35
ATOM     35  C   UNL A   1      39.888  28.745  29.212  1.00  0.00     0.031 A 
ATOM     36  C   UNL A   1      40.833  29.820  29.659  1.00  0.00     0.074 A 
ATOM     37  C   UNL A   1      40.323  27.507  28.925  1.00  0.00     0.049 A 
ATOM     38  N   UNL A   1      42.136  29.810  29.722  1.00  0.00    -0.248 NA
ATOM     39  C   UNL A   1      40.214  31.095  30.061  1.00  0.00     0.031 C 
ATOM     40  C   UNL A   1      39.478  26.396  28.493  1.00  0.00     0.029 A 
ATOM     41  N   UNL A   1      41.596  26.997  28.902  1.00  0.00    -0.354 N 
ATOM     42  C   UNL A   1      42.498  31.083  30.142  1.00  0.00     0.074 A 
ATOM     43  C   UNL A   1      41.279  31.844  30.302  1.00  0.00     0.031 C 
ATOM     44  C   UNL A   1      40.264  25.345  28.197  1.00  0.00     0.029 A 
ATOM     45  C   UNL A   1      41.661  25.727  28.381  1.00  0.00     0.049 A 
ATOM     46  H   UNL A   1      42.384  27.492  29.225  1.00  0.00     0.167 HD
ATOM     47  C   UNL A   1      43.740  31.570  30.364  1.00  0.00     0.037 A 
ATOM     48  C   UNL A   1      42.735  24.984  28.048  1.00  0.00     0.037 A 
ATOM     49  C   UNL A   1      44.939  30.799  30.178  1.00  0.00     0.049 A 
ATOM     50  C   UNL A   1      44.111  25.558  28.266  1.00  0.00     0.074 A 
ATOM     51  C   UNL A   1      46.250  31.169  30.408  1.00  0.00     0.029 A 
ATOM     52  N   UNL A   1      44.965  29.497  29.695  1.00  0.00    -0.354 N 
ATOM     53  N   UNL A   1      44.450  26.744  28.713  1.00  0.00    -0.248 NA
ATOM     54  C   UNL A   1      45.252  24.693  27.935  1.00  0.00     0.031 C 
ATOM     55  C   UNL A   1      47.074  30.110  30.015  1.00  0.00     0.029 A 
ATOM     56  C   UNL A   1      46.273  29.057  29.595  1.00  0.00     0.049 A 
ATOM     57  H   UNL A   1      44.171  28.966  29.458  1.00  0.00     0.167 HD
ATOM     58  C   UNL A   1      45.839  26.759  28.746  1.00  0.00     0.074 A 
ATOM     59  C   UNL A   1      46.278  25.459  28.278  1.00  0.00     0.031 C 
ATOM     60  C   UNL A   1      46.677  27.752  29.133  1.00  0.00     0.037 A 
BRANCH  47  61
ATOM     61  C   UNL A   1      43.850  33.006  30.790  1.00  0.00     0.057 A 
ATOM     62  C   UNL A   1      43.861  33.382  32.140  1.00  0.00     0.134 A 
ATOM     63  C   UNL A   1      43.939  34.027  29.836  1.00  0.00     0.134 A 
ATOM     64  F   UNL A   1      43.759  32.456  33.105  1.00  0.00    -0.206 F 
ATOM     65  C   UNL A   1      43.920  34.724  32.525  1.00  0.00     0.040 A 
ATOM     66  C   UNL A   1      44.030  35.370  30.210  1.00  0.00     0.040 A 
ATOM     67  F   UNL A   1      43.934  33.740  28.526  1.00  0.00    -0.206 F 
ATOM     68  C   UNL A   1      44.010  35.721  31.557  1.00  0.00     0.006 A 
ENDBRANCH  47  61
BRANCH  48  69
ATOM     69  C   UNL A   1      42.546  23.633  27.464  1.00  0.00     0.057 A 
ATOM     70  C   UNL A   1      42.334  22.516  28.281  1.00  0.00     0.134 A 
ATOM     71  C   UNL A   1      42.553  23.424  26.079  1.00  0.00     0.134 A 
ATOM     72  F   UNL A   1      42.338  22.647  29.616  1.00  0.00    -0.206 F 
ATOM     73  C   UNL A   1      42.145  21.241  27.743  1.00  0.00     0.040 A 
ATOM     74  C   UNL A   1      42.340  22.159  25.527  1.00  0.00     0.040 A 
ATOM     75  F   UNL A   1      42.749  24.452  25.241  1.00  0.00    -0.206 F 
ATOM     76  C   UNL A   1      42.139  21.062  26.362  1.00  0.00     0.006 A 
ENDBRANCH  48  69
BRANCH  60  77
ATOM     77  C   UNL A   1      48.149  27.463  29.107  1.00  0.00     0.057 A 
ATOM     78  C   UNL A   1      48.802  26.847  30.180  1.00  0.00     0.134 A 
ATOM     79  C   UNL A   1      48.904  27.739  27.959  1.00  0.00     0.134 A 
ATOM     80  F   UNL A   1      48.137  26.567  31.311  1.00  0.00    -0.206 F 
ATOM     81  C   UNL A   1      50.159  26.526  30.118  1.00  0.00     0.040 A 
ATOM     82  C   UNL A   1      50.253  27.398  27.874  1.00  0.00     0.040 A 
ATOM     83  F   UNL A   1      48.333  28.319  26.892  1.00  0.00    -0.206 F 
ATOM     84  C   UNL A   1      50.885  26.792  28.957  1.00  0.00     0.006 A 
ENDBRANCH  60  77
ENDBRANCH  34  35
ENDBRANCH  27  29
ENDBRANCH  26  27
ENDBRANCH  25  26
ENDBRANCH  24  25
ENDBRANCH  23  24
ENDBRANCH   1  23
TORSDOF 17
ENDMDL
MODEL 3
REMARK VINA RESULT:     -13.1      6.943     12.402
REMARK SMILES O=C(CC1(NC(=O)c2cc(Cl)ccc2Cl)CCC1)OCCOCCOC(=O)c1ccc(-c2c3nc(c(-c4c(F)cccc4F)c4ccc([nH]4)c(-c4c(F)cccc4F)c4nc(c(-c5c(F)cccc5F)c5ccc2[nH]5)C=C4)C=C3)cc1
REMARK SMILES IDX 21 1 20 2 19 3 2 4 1 5 3 6 4 7 16 8 18 9 17 10 5 11 6 12
REMARK SMILES IDX 7 14 8 15 9 16 14 17 10 18 13 19 15 20 11 21 12 22 22 23
REMARK SMILES IDX 23 24 24 25 25 26 26 27 27 28 28 29 29 30 81 31 30 32 80 33
REMARK SMILES IDX 31 34 32 35 33 36 74 37 34 38 79 39 73 40 75 41 35 42 78 43
REMARK SMILES IDX 72 44 71 45 36 47 62 48 45 49 61 50 46 51 49 52 60 53 76 54
REMARK SMILES IDX 47 55 48 56 59 58 77 59 50 60 37 61 38 62 43 63 39 64 40 65
REMARK SMILES IDX 42 66 44 67 41 68 63 69 64 70 69 71 65 72 66 73 68 74 70 75
REMARK SMILES IDX 67 76 51 77 52 78 57 79 53 80 54 81 56 82 58 83 55 84
REMARK H PARENT 5 13 75 46 49 57
REMARK Flexibility Score: inf
ROOT
ATOM      1  C   UNL A   1      39.867  22.685  27.140  1.00  0.00     0.202 C 
ENDROOT
BRANCH   1   2
ATOM      2  C   UNL A   1      38.677  23.912  26.387  1.00  0.00     0.261 C 
BRANCH   2   3
ATOM      3  O   UNL A   1      37.294  23.554  25.385  1.00  0.00    -0.463 OA
BRANCH   3   4
ATOM      4  C   UNL A   1      36.469  22.745  24.582  1.00  0.00     0.308 C 
ATOM      5  O   UNL A   1      37.065  21.846  23.961  1.00  0.00    -0.252 OA
BRANCH   4   6
ATOM      6  C   UNL A   1      34.862  22.891  24.140  1.00  0.00     0.151 C 
BRANCH   6   7
ATOM      7  C   UNL A   1      33.668  21.962  24.538  1.00  0.00     0.051 C 
ATOM      8  C   UNL A   1      32.786  20.776  23.871  1.00  0.00     0.029 C 
ATOM      9  C   UNL A   1      34.141  20.820  25.488  1.00  0.00     0.029 C 
ATOM     10  C   UNL A   1      32.797  20.112  25.287  1.00  0.00     0.005 C 
BRANCH   7  11
ATOM     11  N   UNL A   1      32.571  22.837  24.868  1.00  0.00    -0.346 N 
ATOM     12  C   UNL A   1      32.860  23.854  25.674  1.00  0.00     0.253 C 
ATOM     13  H   UNL A   1      31.662  22.690  24.519  1.00  0.00     0.164 HD
ATOM     14  O   UNL A   1      33.014  23.326  26.791  1.00  0.00    -0.269 OA
BRANCH  12  15
ATOM     15  C   UNL A   1      32.761  25.598  25.031  1.00  0.00     0.059 A 
ATOM     16  C   UNL A   1      34.187  26.824  25.445  1.00  0.00     0.036 A 
ATOM     17  C   UNL A   1      31.137  25.991  25.596  1.00  0.00     0.053 A 
ATOM     18  C   UNL A   1      33.871  28.152  26.636  1.00  0.00     0.041 A 
ATOM     19  C   UNL A   1      30.907  27.295  26.736  1.00  0.00     0.023 A 
ATOM     20  Cl  UNL A   1      29.835  25.884  24.380  1.00  0.00    -0.083 Cl
ATOM     21  Cl  UNL A   1      35.114  29.109  27.312  1.00  0.00    -0.084 Cl
ATOM     22  C   UNL A   1      32.215  28.332  27.256  1.00  0.00     0.022 A 
ENDBRANCH  12  15
ENDBRANCH   7  11
ENDBRANCH   6   7
ENDBRANCH   4   6
ENDBRANCH   3   4
ENDBRANCH   2   3
ENDBRANCH   1   2
BRANCH   1  23
ATOM     23  O   UNL A   1      40.623  21.289  26.329  1.00  0.00    -0.374 OA
BRANCH  23  24
ATOM     24  C   UNL A   1      42.117  20.373  26.934  1.00  0.00     0.202 C 
BRANCH  24  25
ATOM     25  C   UNL A   1      42.955  18.776  25.653  1.00  0.00     0.261 C 
BRANCH  25  26
ATOM     26  O   UNL A   1      44.560  18.572  25.401  1.00  0.00    -0.460 OA
BRANCH  26  27
ATOM     27  C   UNL A   1      45.205  19.268  24.407  1.00  0.00     0.338 C 
ATOM     28  O   UNL A   1      45.649  18.827  23.361  1.00  0.00    -0.246 OA
BRANCH  27  29
ATOM     29  C   UNL A   1      45.079  20.714  24.659  1.00  0.00     0.060 A 
ATOM     30  C   UNL A   1      44.626  21.605  23.667  1.00  0.00     0.016 A 
ATOM     31  C   UNL A   1      45.486  21.183  25.898  1.00  0.00     0.016 A 
ATOM     32  C   UNL A   1      44.512  22.971  23.947  1.00  0.00     0.010 A 
ATOM     33  C   UNL A   1      45.418  22.545  26.162  1.00  0.00     0.010 A 
ATOM     34  C   UNL A   1      44.932  23.443  25.193  1.00  0.00    -0.014 A 
BRANCH  34  35
ATOM     35  C   UNL A   1      45.067  24.887  25.477  1.00  0.00     0.031 A 
ATOM     36  C   UNL A   1      46.438  25.487  25.397  1.00  0.00     0.074 A 
ATOM     37  C   UNL A   1      44.022  25.589  25.947  1.00  0.00     0.049 A 
ATOM     38  N   UNL A   1      46.873  26.634  25.844  1.00  0.00    -0.248 NA
ATOM     39  C   UNL A   1      47.468  24.658  24.748  1.00  0.00     0.031 C 
ATOM     40  C   UNL A   1      42.652  25.093  26.053  1.00  0.00     0.029 A 
ATOM     41  N   UNL A   1      43.970  26.853  26.477  1.00  0.00    -0.354 N 
ATOM     42  C   UNL A   1      48.231  26.654  25.557  1.00  0.00     0.074 A 
ATOM     43  C   UNL A   1      48.552  25.399  24.915  1.00  0.00     0.031 C 
ATOM     44  C   UNL A   1      41.899  26.026  26.662  1.00  0.00     0.029 A 
ATOM     45  C   UNL A   1      42.747  27.161  27.021  1.00  0.00     0.049 A 
ATOM     46  H   UNL A   1      44.732  27.476  26.468  1.00  0.00     0.167 HD
ATOM     47  C   UNL A   1      49.128  27.633  25.818  1.00  0.00     0.037 A 
ATOM     48  C   UNL A   1      42.374  28.220  27.766  1.00  0.00     0.037 A 
ATOM     49  C   UNL A   1      48.787  28.864  26.477  1.00  0.00     0.049 A 
ATOM     50  C   UNL A   1      43.396  29.282  28.080  1.00  0.00     0.074 A 
ATOM     51  C   UNL A   1      49.598  29.946  26.761  1.00  0.00     0.029 A 
ATOM     52  N   UNL A   1      47.525  29.164  26.972  1.00  0.00    -0.354 N 
ATOM     53  N   UNL A   1      44.669  29.323  27.763  1.00  0.00    -0.248 NA
ATOM     54  C   UNL A   1      42.933  30.443  28.853  1.00  0.00     0.031 C 
ATOM     55  C   UNL A   1      48.840  30.879  27.474  1.00  0.00     0.029 A 
ATOM     56  C   UNL A   1      47.541  30.405  27.584  1.00  0.00     0.049 A 
ATOM     57  H   UNL A   1      46.736  28.581  26.900  1.00  0.00     0.167 HD
ATOM     58  C   UNL A   1      45.152  30.523  28.270  1.00  0.00     0.074 A 
ATOM     59  C   UNL A   1      44.032  31.183  28.911  1.00  0.00     0.031 C 
ATOM     60  C   UNL A   1      46.405  31.039  28.207  1.00  0.00     0.037 A 
BRANCH  47  61
ATOM     61  C   UNL A   1      50.555  27.382  25.424  1.00  0.00     0.057 A 
ATOM     62  C   UNL A   1      51.024  27.637  24.128  1.00  0.00     0.134 A 
ATOM     63  C   UNL A   1      51.471  26.869  26.351  1.00  0.00     0.134 A 
ATOM     64  F   UNL A   1      50.195  28.110  23.186  1.00  0.00    -0.206 F 
ATOM     65  C   UNL A   1      52.343  27.360  23.760  1.00  0.00     0.040 A 
ATOM     66  C   UNL A   1      52.799  26.617  26.003  1.00  0.00     0.040 A 
ATOM     67  F   UNL A   1      51.090  26.600  27.609  1.00  0.00    -0.206 F 
ATOM     68  C   UNL A   1      53.236  26.852  24.702  1.00  0.00     0.006 A 
ENDBRANCH  47  61
BRANCH  48  69
ATOM     69  C   UNL A   1      40.982  28.316  28.273  1.00  0.00     0.057 A 
ATOM     70  C   UNL A   1      39.960  28.849  27.479  1.00  0.00     0.134 A 
ATOM     71  C   UNL A   1      40.634  27.862  29.551  1.00  0.00     0.134 A 
ATOM     72  F   UNL A   1      40.233  29.320  26.254  1.00  0.00    -0.206 F 
ATOM     73  C   UNL A   1      38.644  28.934  27.941  1.00  0.00     0.040 A 
ATOM     74  C   UNL A   1      39.318  27.917  30.016  1.00  0.00     0.040 A 
ATOM     75  F   UNL A   1      41.566  27.338  30.361  1.00  0.00    -0.206 F 
ATOM     76  C   UNL A   1      38.319  28.459  29.209  1.00  0.00     0.006 A 
ENDBRANCH  48  69
BRANCH  60  77
ATOM     77  C   UNL A   1      46.625  32.395  28.809  1.00  0.00     0.057 A 
ATOM     78  C   UNL A   1      46.397  33.572  28.087  1.00  0.00     0.134 A 
ATOM     79  C   UNL A   1      46.998  32.519  30.154  1.00  0.00     0.134 A 
ATOM     80  F   UNL A   1      46.048  33.519  26.792  1.00  0.00    -0.206 F 
ATOM     81  C   UNL A   1      46.544  34.827  28.679  1.00  0.00     0.040 A 
ATOM     82  C   UNL A   1      47.121  33.767  30.764  1.00  0.00     0.040 A 
ATOM     83  F   UNL A   1      47.220  31.428  30.903  1.00  0.00    -0.206 F 
ATOM     84  C   UNL A   1      46.897  34.926  30.024  1.00  0.00     0.006 A 
ENDBRANCH  60  77
ENDBRANCH  34  35
ENDBRANCH  27  29
ENDBRANCH  26  27
ENDBRANCH  25  26
ENDBRANCH  24  25
ENDBRANCH  23  24
ENDBRANCH   1  23
TORSDOF 17
ENDMDL
