MODEL 1
REMARK VINA RESULT:     -11.6      0.000      0.000
REMARK SMILES O=C(OCCOCCOC(=O)[C@@H](Cc1ccc(F)cc1)NC(=O)c1ccn(C2CCCC2)n1)c1ccc(-c2c3nc(c(-c4c(F)cccc4F)c4ccc([nH]4)c(-c4c(F)cccc4F)c4nc(c(-c5c(F)cccc5F)c5ccc2[nH]5)C=C4)C=C3)cc1
REMARK SMILES IDX 7 1 6 2 5 3 4 4 3 5 2 6 1 7 34 8 35 9 87 10 36 11 86 12
REMARK SMILES IDX 37 13 38 14 39 15 80 16 40 17 85 18 79 19 81 20 41 21 84 22
REMARK SMILES IDX 78 23 77 24 42 26 68 27 51 28 67 29 52 30 55 31 66 32 82 33
REMARK SMILES IDX 53 34 54 35 65 37 83 38 56 39 43 40 44 41 49 42 45 43 46 44
REMARK SMILES IDX 48 45 50 46 47 47 69 48 70 49 75 50 71 51 72 52 74 53 76 54
REMARK SMILES IDX 73 55 57 56 58 57 63 58 59 59 60 60 62 61 64 62 61 63 8 64
REMARK SMILES IDX 9 65 10 66 11 67 12 68 13 69 14 70 15 71 20 72 16 73 19 74
REMARK SMILES IDX 17 75 18 76 21 77 22 78 23 80 24 81 25 82 33 83 26 84 27 85
REMARK SMILES IDX 28 86 29 87 32 88 30 89 31 90
REMARK H PARENT 81 25 55 36 21 79
REMARK Flexibility Score: inf
ROOT
ATOM      1  C   UNL A   1      31.242  28.530  25.390  1.00  0.00     0.202 C 
ENDROOT
BRANCH   1   2
ATOM      2  O   UNL A   1      32.334  29.427  25.648  1.00  0.00    -0.374 OA
BRANCH   2   3
ATOM      3  C   UNL A   1      32.745  29.663  26.989  1.00  0.00     0.202 C 
BRANCH   3   4
ATOM      4  C   UNL A   1      33.689  30.833  27.267  1.00  0.00     0.261 C 
BRANCH   4   5
ATOM      5  O   UNL A   1      35.067  30.466  27.461  1.00  0.00    -0.460 OA
BRANCH   5   6
ATOM      6  C   UNL A   1      35.998  31.282  27.998  1.00  0.00     0.338 C 
ATOM      7  O   UNL A   1      35.890  32.502  27.964  1.00  0.00    -0.246 OA
BRANCH   6   8
ATOM      8  C   UNL A   1      36.993  30.701  28.910  1.00  0.00     0.060 A 
ATOM      9  C   UNL A   1      38.223  31.294  29.150  1.00  0.00     0.016 A 
ATOM     10  C   UNL A   1      36.743  29.378  29.305  1.00  0.00     0.016 A 
ATOM     11  C   UNL A   1      39.300  30.485  29.346  1.00  0.00     0.010 A 
ATOM     12  C   UNL A   1      37.806  28.578  29.628  1.00  0.00     0.010 A 
ATOM     13  C   UNL A   1      39.079  29.119  29.491  1.00  0.00    -0.014 A 
BRANCH  13  14
ATOM     14  C   UNL A   1      40.258  28.301  29.611  1.00  0.00     0.031 A 
ATOM     15  C   UNL A   1      40.771  28.250  31.004  1.00  0.00     0.074 A 
ATOM     16  C   UNL A   1      40.726  27.645  28.536  1.00  0.00     0.049 A 
ATOM     17  N   UNL A   1      41.950  28.540  31.445  1.00  0.00    -0.248 NA
ATOM     18  C   UNL A   1      39.766  28.041  32.068  1.00  0.00     0.031 C 
ATOM     19  C   UNL A   1      40.115  27.507  27.208  1.00  0.00     0.029 A 
ATOM     20  N   UNL A   1      41.805  26.834  28.458  1.00  0.00    -0.354 N 
ATOM     21  C   UNL A   1      41.883  28.344  32.821  1.00  0.00     0.074 A 
ATOM     22  C   UNL A   1      40.494  28.223  33.165  1.00  0.00     0.031 C 
ATOM     23  C   UNL A   1      40.681  26.460  26.569  1.00  0.00     0.029 A 
ATOM     24  C   UNL A   1      41.771  25.960  27.383  1.00  0.00     0.049 A 
ATOM     25  H   UNL A   1      42.546  26.863  29.106  1.00  0.00     0.167 HD
ATOM     26  C   UNL A   1      42.988  28.027  33.544  1.00  0.00     0.037 A 
ATOM     27  C   UNL A   1      42.504  24.824  27.305  1.00  0.00     0.037 A 
ATOM     28  C   UNL A   1      44.186  28.500  32.907  1.00  0.00     0.049 A 
ATOM     29  C   UNL A   1      43.621  24.965  28.283  1.00  0.00     0.074 A 
ATOM     30  C   UNL A   1      44.659  29.754  32.571  1.00  0.00     0.029 A 
ATOM     31  N   UNL A   1      44.927  27.610  32.168  1.00  0.00    -0.354 N 
ATOM     32  N   UNL A   1      44.576  25.850  28.170  1.00  0.00    -0.248 NA
ATOM     33  C   UNL A   1      43.403  24.454  29.630  1.00  0.00     0.031 C 
ATOM     34  C   UNL A   1      45.299  29.581  31.310  1.00  0.00     0.029 A 
ATOM     35  C   UNL A   1      45.228  28.227  30.980  1.00  0.00     0.049 A 
ATOM     36  H   UNL A   1      45.192  26.702  32.440  1.00  0.00     0.167 HD
ATOM     37  C   UNL A   1      44.815  26.293  29.465  1.00  0.00     0.074 A 
ATOM     38  C   UNL A   1      44.100  25.354  30.328  1.00  0.00     0.031 C 
ATOM     39  C   UNL A   1      45.324  27.536  29.713  1.00  0.00     0.037 A 
BRANCH  26  40
ATOM     40  C   UNL A   1      42.968  26.962  34.609  1.00  0.00     0.057 A 
ATOM     41  C   UNL A   1      42.412  27.135  35.897  1.00  0.00     0.134 A 
ATOM     42  C   UNL A   1      43.254  25.634  34.258  1.00  0.00     0.134 A 
ATOM     43  F   UNL A   1      41.995  28.322  36.353  1.00  0.00    -0.206 F 
ATOM     44  C   UNL A   1      42.151  26.073  36.763  1.00  0.00     0.040 A 
ATOM     45  C   UNL A   1      42.948  24.556  35.098  1.00  0.00     0.040 A 
ATOM     46  F   UNL A   1      43.766  25.335  33.055  1.00  0.00    -0.206 F 
ATOM     47  C   UNL A   1      42.389  24.774  36.353  1.00  0.00     0.006 A 
ENDBRANCH  26  40
BRANCH  27  48
ATOM     48  C   UNL A   1      42.031  23.512  26.806  1.00  0.00     0.057 A 
ATOM     49  C   UNL A   1      40.856  22.904  27.290  1.00  0.00     0.134 A 
ATOM     50  C   UNL A   1      42.863  22.704  26.023  1.00  0.00     0.134 A 
ATOM     51  F   UNL A   1      40.023  23.551  28.118  1.00  0.00    -0.206 F 
ATOM     52  C   UNL A   1      40.532  21.572  27.017  1.00  0.00     0.040 A 
ATOM     53  C   UNL A   1      42.555  21.364  25.750  1.00  0.00     0.040 A 
ATOM     54  F   UNL A   1      44.025  23.181  25.555  1.00  0.00    -0.206 F 
ATOM     55  C   UNL A   1      41.391  20.791  26.255  1.00  0.00     0.006 A 
ENDBRANCH  27  48
BRANCH  39  56
ATOM     56  C   UNL A   1      45.782  28.361  28.540  1.00  0.00     0.057 A 
ATOM     57  C   UNL A   1      47.147  28.417  28.241  1.00  0.00     0.134 A 
ATOM     58  C   UNL A   1      44.946  29.250  27.845  1.00  0.00     0.134 A 
ATOM     59  F   UNL A   1      48.016  27.644  28.910  1.00  0.00    -0.206 F 
ATOM     60  C   UNL A   1      47.659  29.316  27.300  1.00  0.00     0.040 A 
ATOM     61  C   UNL A   1      45.440  30.130  26.877  1.00  0.00     0.040 A 
ATOM     62  F   UNL A   1      43.644  29.342  28.136  1.00  0.00    -0.206 F 
ATOM     63  C   UNL A   1      46.805  30.173  26.611  1.00  0.00     0.006 A 
ENDBRANCH  39  56
ENDBRANCH  13  14
ENDBRANCH   6   8
ENDBRANCH   5   6
ENDBRANCH   4   5
ENDBRANCH   3   4
ENDBRANCH   2   3
ENDBRANCH   1   2
BRANCH   1  64
ATOM     64  C   UNL A   1      31.034  27.950  23.988  1.00  0.00     0.261 C 
BRANCH  64  65
ATOM     65  O   UNL A   1      31.200  26.521  23.985  1.00  0.00    -0.462 OA
BRANCH  65  66
ATOM     66  C   UNL A   1      32.465  26.095  23.762  1.00  0.00     0.329 C 
ATOM     67  O   UNL A   1      33.152  26.450  22.809  1.00  0.00    -0.250 OA
BRANCH  66  68
ATOM     68  C   UNL A   1      33.004  25.136  24.835  1.00  0.00     0.197 C 
BRANCH  68  69
ATOM     69  C   UNL A   1      34.446  25.220  25.374  1.00  0.00     0.072 C 
BRANCH  69  70
ATOM     70  C   UNL A   1      35.434  24.117  25.099  1.00  0.00    -0.045 A 
ATOM     71  C   UNL A   1      36.523  23.951  25.968  1.00  0.00     0.007 A 
ATOM     72  C   UNL A   1      35.350  23.274  23.988  1.00  0.00     0.007 A 
ATOM     73  C   UNL A   1      37.414  22.885  25.818  1.00  0.00     0.039 A 
ATOM     74  C   UNL A   1      36.239  22.207  23.835  1.00  0.00     0.039 A 
ATOM     75  C   UNL A   1      37.244  22.002  24.770  1.00  0.00     0.123 A 
ATOM     76  F   UNL A   1      38.059  20.948  24.650  1.00  0.00    -0.207 F 
ENDBRANCH  69  70
ENDBRANCH  68  69
BRANCH  68  77
ATOM     77  N   UNL A   1      31.999  25.043  25.883  1.00  0.00    -0.337 N 
ATOM     78  C   UNL A   1      31.582  23.918  26.555  1.00  0.00     0.272 C 
ATOM     79  H   UNL A   1      31.567  25.887  26.144  1.00  0.00     0.164 HD
ATOM     80  O   UNL A   1      30.518  23.987  27.159  1.00  0.00    -0.267 OA
BRANCH  78  81
ATOM     81  C   UNL A   1      32.414  22.709  26.511  1.00  0.00     0.150 A 
ATOM     82  C   UNL A   1      33.445  22.287  27.399  1.00  0.00     0.056 A 
ATOM     83  N   UNL A   1      32.244  21.803  25.536  1.00  0.00    -0.167 NA
ATOM     84  C   UNL A   1      33.907  21.096  26.891  1.00  0.00     0.110 A 
ATOM     85  N   UNL A   1      33.132  20.835  25.799  1.00  0.00    -0.269 N 
BRANCH  85  86
ATOM     86  C   UNL A   1      33.132  19.632  24.998  1.00  0.00     0.107 C 
ATOM     87  C   UNL A   1      34.537  19.159  24.627  1.00  0.00     0.027 C 
ATOM     88  C   UNL A   1      32.530  18.414  25.696  1.00  0.00     0.027 C 
ATOM     89  C   UNL A   1      34.323  17.727  24.169  1.00  0.00     0.002 C 
ATOM     90  C   UNL A   1      33.122  17.212  24.962  1.00  0.00     0.002 C 
ENDBRANCH  85  86
ENDBRANCH  78  81
ENDBRANCH  68  77
ENDBRANCH  66  68
ENDBRANCH  65  66
ENDBRANCH  64  65
ENDBRANCH   1  64
TORSDOF 19
ENDMDL
MODEL 2
REMARK VINA RESULT:     -11.4      1.885      2.646
REMARK SMILES O=C(OCCOCCOC(=O)[C@@H](Cc1ccc(F)cc1)NC(=O)c1ccn(C2CCCC2)n1)c1ccc(-c2c3nc(c(-c4c(F)cccc4F)c4ccc([nH]4)c(-c4c(F)cccc4F)c4nc(c(-c5c(F)cccc5F)c5ccc2[nH]5)C=C4)C=C3)cc1
REMARK SMILES IDX 7 1 6 2 5 3 4 4 3 5 2 6 1 7 34 8 35 9 87 10 36 11 86 12
REMARK SMILES IDX 37 13 38 14 39 15 80 16 40 17 85 18 79 19 81 20 41 21 84 22
REMARK SMILES IDX 78 23 77 24 42 26 68 27 51 28 67 29 52 30 55 31 66 32 82 33
REMARK SMILES IDX 53 34 54 35 65 37 83 38 56 39 43 40 44 41 49 42 45 43 46 44
REMARK SMILES IDX 48 45 50 46 47 47 69 48 70 49 75 50 71 51 72 52 74 53 76 54
REMARK SMILES IDX 73 55 57 56 58 57 63 58 59 59 60 60 62 61 64 62 61 63 8 64
REMARK SMILES IDX 9 65 10 66 11 67 12 68 13 69 14 70 15 71 20 72 16 73 19 74
REMARK SMILES IDX 17 75 18 76 21 77 22 78 23 80 24 81 25 82 33 83 26 84 27 85
REMARK SMILES IDX 28 86 29 87 32 88 30 89 31 90
REMARK H PARENT 81 25 55 36 21 79
REMARK Flexibility Score: inf
ROOT
ATOM      1  C   UNL A   1      32.757  29.843  25.533  1.00  0.00     0.202 C 
ENDROOT
BRANCH   1   2
ATOM      2  O   UNL A   1      33.652  29.635  26.638  1.00  0.00    -0.374 OA
BRANCH   2   3
ATOM      3  C   UNL A   1      33.910  30.703  27.541  1.00  0.00     0.202 C 
BRANCH   3   4
ATOM      4  C   UNL A   1      35.347  31.207  27.682  1.00  0.00     0.261 C 
BRANCH   4   5
ATOM      5  O   UNL A   1      36.178  30.429  28.562  1.00  0.00    -0.460 OA
BRANCH   5   6
ATOM      6  C   UNL A   1      37.524  30.518  28.605  1.00  0.00     0.338 C 
ATOM      7  O   UNL A   1      38.097  31.375  29.266  1.00  0.00    -0.246 OA
BRANCH   6   8
ATOM      8  C   UNL A   1      38.315  29.384  28.107  1.00  0.00     0.060 A 
ATOM      9  C   UNL A   1      38.232  28.115  28.661  1.00  0.00     0.016 A 
ATOM     10  C   UNL A   1      39.356  29.719  27.229  1.00  0.00     0.016 A 
ATOM     11  C   UNL A   1      39.366  27.364  28.717  1.00  0.00     0.010 A 
ATOM     12  C   UNL A   1      40.458  28.908  27.176  1.00  0.00     0.010 A 
ATOM     13  C   UNL A   1      40.495  27.824  28.044  1.00  0.00    -0.014 A 
BRANCH  13  14
ATOM     14  C   UNL A   1      41.687  27.034  28.207  1.00  0.00     0.031 A 
ATOM     15  C   UNL A   1      42.433  27.385  29.443  1.00  0.00     0.074 A 
ATOM     16  C   UNL A   1      41.973  26.066  27.321  1.00  0.00     0.049 A 
ATOM     17  N   UNL A   1      43.667  27.748  29.571  1.00  0.00    -0.248 NA
ATOM     18  C   UNL A   1      41.629  27.548  30.673  1.00  0.00     0.031 C 
ATOM     19  C   UNL A   1      41.144  25.558  26.219  1.00  0.00     0.029 A 
ATOM     20  N   UNL A   1      43.033  25.227  27.313  1.00  0.00    -0.354 N 
ATOM     21  C   UNL A   1      43.839  27.979  30.932  1.00  0.00     0.074 A 
ATOM     22  C   UNL A   1      42.532  28.023  31.525  1.00  0.00     0.031 C 
ATOM     23  C   UNL A   1      41.606  24.346  25.844  1.00  0.00     0.029 A 
ATOM     24  C   UNL A   1      42.826  24.071  26.577  1.00  0.00     0.049 A 
ATOM     25  H   UNL A   1      43.874  25.420  27.787  1.00  0.00     0.167 HD
ATOM     26  C   UNL A   1      45.056  27.852  31.521  1.00  0.00     0.037 A 
ATOM     27  C   UNL A   1      43.550  22.936  26.726  1.00  0.00     0.037 A 
ATOM     28  C   UNL A   1      46.121  28.062  30.580  1.00  0.00     0.049 A 
ATOM     29  C   UNL A   1      44.817  23.321  27.413  1.00  0.00     0.074 A 
ATOM     30  C   UNL A   1      46.512  29.136  29.803  1.00  0.00     0.029 A 
ATOM     31  N   UNL A   1      46.735  26.962  30.033  1.00  0.00    -0.354 N 
ATOM     32  N   UNL A   1      45.726  24.092  26.878  1.00  0.00    -0.248 NA
ATOM     33  C   UNL A   1      44.840  23.250  28.869  1.00  0.00     0.031 C 
ATOM     34  C   UNL A   1      46.928  28.565  28.566  1.00  0.00     0.029 A 
ATOM     35  C   UNL A   1      46.820  27.178  28.680  1.00  0.00     0.049 A 
ATOM     36  H   UNL A   1      47.056  26.168  30.519  1.00  0.00     0.167 HD
ATOM     37  C   UNL A   1      46.178  24.895  27.917  1.00  0.00     0.074 A 
ATOM     38  C   UNL A   1      45.634  24.290  29.132  1.00  0.00     0.031 C 
ATOM     39  C   UNL A   1      46.706  26.134  27.686  1.00  0.00     0.037 A 
BRANCH  26  40
ATOM     40  C   UNL A   1      45.234  27.159  32.847  1.00  0.00     0.057 A 
ATOM     41  C   UNL A   1      45.565  27.820  34.052  1.00  0.00     0.134 A 
ATOM     42  C   UNL A   1      44.790  25.836  32.997  1.00  0.00     0.134 A 
ATOM     43  F   UNL A   1      45.916  29.111  34.098  1.00  0.00    -0.206 F 
ATOM     44  C   UNL A   1      45.453  27.220  35.306  1.00  0.00     0.040 A 
ATOM     45  C   UNL A   1      44.624  25.242  34.254  1.00  0.00     0.040 A 
ATOM     46  F   UNL A   1      44.426  25.107  31.931  1.00  0.00    -0.206 F 
ATOM     47  C   UNL A   1      44.950  25.936  35.414  1.00  0.00     0.006 A 
ENDBRANCH  26  40
BRANCH  27  48
ATOM     48  C   UNL A   1      43.015  21.555  26.736  1.00  0.00     0.057 A 
ATOM     49  C   UNL A   1      43.414  20.588  25.793  1.00  0.00     0.134 A 
ATOM     50  C   UNL A   1      41.903  21.227  27.520  1.00  0.00     0.134 A 
ATOM     51  F   UNL A   1      44.412  20.822  24.930  1.00  0.00    -0.206 F 
ATOM     52  C   UNL A   1      42.743  19.371  25.635  1.00  0.00     0.040 A 
ATOM     53  C   UNL A   1      41.215  20.016  27.364  1.00  0.00     0.040 A 
ATOM     54  F   UNL A   1      41.421  22.104  28.413  1.00  0.00    -0.206 F 
ATOM     55  C   UNL A   1      41.629  19.087  26.413  1.00  0.00     0.006 A 
ENDBRANCH  27  48
BRANCH  39  56
ATOM     56  C   UNL A   1      46.944  26.548  26.259  1.00  0.00     0.057 A 
ATOM     57  C   UNL A   1      48.195  26.308  25.682  1.00  0.00     0.134 A 
ATOM     58  C   UNL A   1      46.055  27.350  25.526  1.00  0.00     0.134 A 
ATOM     59  F   UNL A   1      49.122  25.604  26.351  1.00  0.00    -0.206 F 
ATOM     60  C   UNL A   1      48.549  26.842  24.440  1.00  0.00     0.040 A 
ATOM     61  C   UNL A   1      46.383  27.863  24.267  1.00  0.00     0.040 A 
ATOM     62  F   UNL A   1      44.877  27.720  26.040  1.00  0.00    -0.206 F 
ATOM     63  C   UNL A   1      47.641  27.619  23.726  1.00  0.00     0.006 A 
ENDBRANCH  39  56
ENDBRANCH  13  14
ENDBRANCH   6   8
ENDBRANCH   5   6
ENDBRANCH   4   5
ENDBRANCH   3   4
ENDBRANCH   2   3
ENDBRANCH   1   2
BRANCH   1  64
ATOM     64  C   UNL A   1      32.246  28.652  24.718  1.00  0.00     0.261 C 
BRANCH  64  65
ATOM     65  O   UNL A   1      32.841  27.420  25.166  1.00  0.00    -0.462 OA
BRANCH  65  66
ATOM     66  C   UNL A   1      32.285  26.299  24.652  1.00  0.00     0.329 C 
ATOM     67  O   UNL A   1      31.385  26.298  23.817  1.00  0.00    -0.250 OA
BRANCH  66  68
ATOM     68  C   UNL A   1      32.904  24.994  25.175  1.00  0.00     0.197 C 
BRANCH  68  69
ATOM     69  C   UNL A   1      34.374  24.895  25.631  1.00  0.00     0.072 C 
BRANCH  69  70
ATOM     70  C   UNL A   1      35.206  23.688  25.284  1.00  0.00    -0.045 A 
ATOM     71  C   UNL A   1      35.814  23.625  24.022  1.00  0.00     0.007 A 
ATOM     72  C   UNL A   1      35.366  22.597  26.142  1.00  0.00     0.007 A 
ATOM     73  C   UNL A   1      36.675  22.579  23.684  1.00  0.00     0.039 A 
ATOM     74  C   UNL A   1      36.226  21.549  25.808  1.00  0.00     0.039 A 
ATOM     75  C   UNL A   1      36.900  21.565  24.595  1.00  0.00     0.123 A 
ATOM     76  F   UNL A   1      37.765  20.587  24.302  1.00  0.00    -0.207 F 
ENDBRANCH  69  70
ENDBRANCH  68  69
BRANCH  68  77
ATOM     77  N   UNL A   1      31.965  24.414  26.124  1.00  0.00    -0.337 N 
ATOM     78  C   UNL A   1      31.247  23.248  25.996  1.00  0.00     0.272 C 
ATOM     79  H   UNL A   1      31.828  24.917  26.958  1.00  0.00     0.164 HD
ATOM     80  O   UNL A   1      30.283  23.098  26.737  1.00  0.00    -0.267 OA
BRANCH  78  81
ATOM     81  C   UNL A   1      31.658  22.261  24.989  1.00  0.00     0.150 A 
ATOM     82  C   UNL A   1      31.873  22.430  23.591  1.00  0.00     0.056 A 
ATOM     83  N   UNL A   1      31.904  20.991  25.345  1.00  0.00    -0.167 NA
ATOM     84  C   UNL A   1      32.231  21.191  23.119  1.00  0.00     0.110 A 
ATOM     85  N   UNL A   1      32.268  20.376  24.212  1.00  0.00    -0.269 N 
BRANCH  85  86
ATOM     86  C   UNL A   1      32.724  19.005  24.262  1.00  0.00     0.107 C 
ATOM     87  C   UNL A   1      32.614  18.288  22.917  1.00  0.00     0.027 C 
ATOM     88  C   UNL A   1      34.201  18.847  24.619  1.00  0.00     0.027 C 
ATOM     89  C   UNL A   1      33.493  17.061  23.092  1.00  0.00     0.002 C 
ATOM     90  C   UNL A   1      34.589  17.473  24.076  1.00  0.00     0.002 C 
ENDBRANCH  85  86
ENDBRANCH  78  81
ENDBRANCH  68  77
ENDBRANCH  66  68
ENDBRANCH  65  66
ENDBRANCH  64  65
ENDBRANCH   1  64
TORSDOF 19
ENDMDL
MODEL 3
REMARK VINA RESULT:     -11.4      3.010      6.859
REMARK SMILES O=C(OCCOCCOC(=O)[C@@H](Cc1ccc(F)cc1)NC(=O)c1ccn(C2CCCC2)n1)c1ccc(-c2c3nc(c(-c4c(F)cccc4F)c4ccc([nH]4)c(-c4c(F)cccc4F)c4nc(c(-c5c(F)cccc5F)c5ccc2[nH]5)C=C4)C=C3)cc1
REMARK SMILES IDX 7 1 6 2 5 3 4 4 3 5 2 6 1 7 34 8 35 9 87 10 36 11 86 12
REMARK SMILES IDX 37 13 38 14 39 15 80 16 40 17 85 18 79 19 81 20 41 21 84 22
REMARK SMILES IDX 78 23 77 24 42 26 68 27 51 28 67 29 52 30 55 31 66 32 82 33
REMARK SMILES IDX 53 34 54 35 65 37 83 38 56 39 43 40 44 41 49 42 45 43 46 44
REMARK SMILES IDX 48 45 50 46 47 47 69 48 70 49 75 50 71 51 72 52 74 53 76 54
REMARK SMILES IDX 73 55 57 56 58 57 63 58 59 59 60 60 62 61 64 62 61 63 8 64
REMARK SMILES IDX 9 65 10 66 11 67 12 68 13 69 14 70 15 71 20 72 16 73 19 74
REMARK SMILES IDX 17 75 18 76 21 77 22 78 23 80 24 81 25 82 33 83 26 84 27 85
REMARK SMILES IDX 28 86 29 87 32 88 30 89 31 90
REMARK H PARENT 81 25 55 36 21 79
REMARK Flexibility Score: inf
ROOT
ATOM      1  C   UNL A   1      31.604  28.764  24.796  1.00  0.00     0.202 C 
ENDROOT
BRANCH   1   2
ATOM      2  O   UNL A   1      31.564  28.846  26.229  1.00  0.00    -0.374 OA
BRANCH   2   3
ATOM      3  C   UNL A   1      32.754  29.146  26.948  1.00  0.00     0.202 C 
BRANCH   3   4
ATOM      4  C   UNL A   1      33.290  30.578  26.906  1.00  0.00     0.261 C 
BRANCH   4   5
ATOM      5  O   UNL A   1      32.374  31.581  27.382  1.00  0.00    -0.460 OA
BRANCH   5   6
ATOM      6  C   UNL A   1      32.694  32.882  27.540  1.00  0.00     0.338 C 
ATOM      7  O   UNL A   1      31.885  33.779  27.336  1.00  0.00    -0.246 OA
BRANCH   6   8
ATOM      8  C   UNL A   1      33.927  33.214  28.268  1.00  0.00     0.060 A 
ATOM      9  C   UNL A   1      34.989  33.880  27.673  1.00  0.00     0.016 A 
ATOM     10  C   UNL A   1      34.080  32.579  29.508  1.00  0.00     0.016 A 
ATOM     11  C   UNL A   1      36.251  33.542  28.052  1.00  0.00     0.010 A 
ATOM     12  C   UNL A   1      35.346  32.339  29.971  1.00  0.00     0.010 A 
ATOM     13  C   UNL A   1      36.406  32.697  29.147  1.00  0.00    -0.014 A 
BRANCH  13  14
ATOM     14  C   UNL A   1      37.758  32.305  29.451  1.00  0.00     0.031 A 
ATOM     15  C   UNL A   1      38.024  30.883  29.113  1.00  0.00     0.074 A 
ATOM     16  C   UNL A   1      38.626  33.215  29.924  1.00  0.00     0.049 A 
ATOM     17  N   UNL A   1      38.472  29.939  29.873  1.00  0.00    -0.248 NA
ATOM     18  C   UNL A   1      37.527  30.415  27.802  1.00  0.00     0.031 C 
ATOM     19  C   UNL A   1      38.448  34.667  30.060  1.00  0.00     0.029 A 
ATOM     20  N   UNL A   1      39.924  33.037  30.257  1.00  0.00    -0.354 N 
ATOM     21  C   UNL A   1      38.507  28.807  29.064  1.00  0.00     0.074 A 
ATOM     22  C   UNL A   1      37.753  29.107  27.880  1.00  0.00     0.031 C 
ATOM     23  C   UNL A   1      39.661  35.250  30.178  1.00  0.00     0.029 A 
ATOM     24  C   UNL A   1      40.665  34.208  30.265  1.00  0.00     0.049 A 
ATOM     25  H   UNL A   1      40.306  32.156  30.474  1.00  0.00     0.167 HD
ATOM     26  C   UNL A   1      39.379  27.794  29.305  1.00  0.00     0.037 A 
ATOM     27  C   UNL A   1      42.017  34.252  30.182  1.00  0.00     0.037 A 
ATOM     28  C   UNL A   1      39.756  27.743  30.691  1.00  0.00     0.049 A 
ATOM     29  C   UNL A   1      42.514  32.898  30.561  1.00  0.00     0.074 A 
ATOM     30  C   UNL A   1      39.056  27.538  31.865  1.00  0.00     0.029 A 
ATOM     31  N   UNL A   1      40.953  28.304  31.063  1.00  0.00    -0.354 N 
ATOM     32  N   UNL A   1      42.385  32.388  31.757  1.00  0.00    -0.248 NA
ATOM     33  C   UNL A   1      42.713  31.930  29.490  1.00  0.00     0.031 C 
ATOM     34  C   UNL A   1      39.651  28.422  32.809  1.00  0.00     0.029 A 
ATOM     35  C   UNL A   1      40.711  29.072  32.174  1.00  0.00     0.049 A 
ATOM     36  H   UNL A   1      41.822  28.178  30.618  1.00  0.00     0.167 HD
ATOM     37  C   UNL A   1      42.098  31.045  31.549  1.00  0.00     0.074 A 
ATOM     38  C   UNL A   1      42.369  30.811  30.131  1.00  0.00     0.031 C 
ATOM     39  C   UNL A   1      41.394  30.313  32.463  1.00  0.00     0.037 A 
BRANCH  26  40
ATOM     40  C   UNL A   1      40.156  27.128  28.200  1.00  0.00     0.057 A 
ATOM     41  C   UNL A   1      39.918  25.812  27.742  1.00  0.00     0.134 A 
ATOM     42  C   UNL A   1      40.979  27.906  27.372  1.00  0.00     0.134 A 
ATOM     43  F   UNL A   1      39.084  24.969  28.361  1.00  0.00    -0.206 F 
ATOM     44  C   UNL A   1      40.446  25.313  26.551  1.00  0.00     0.040 A 
ATOM     45  C   UNL A   1      41.471  27.433  26.150  1.00  0.00     0.040 A 
ATOM     46  F   UNL A   1      41.265  29.179  27.686  1.00  0.00    -0.206 F 
ATOM     47  C   UNL A   1      41.200  26.135  25.732  1.00  0.00     0.006 A 
ENDBRANCH  26  40
BRANCH  27  48
ATOM     48  C   UNL A   1      42.810  35.205  29.374  1.00  0.00     0.057 A 
ATOM     49  C   UNL A   1      43.665  36.159  29.961  1.00  0.00     0.134 A 
ATOM     50  C   UNL A   1      42.550  35.372  28.008  1.00  0.00     0.134 A 
ATOM     51  F   UNL A   1      43.921  36.152  31.276  1.00  0.00    -0.206 F 
ATOM     52  C   UNL A   1      44.222  37.216  29.236  1.00  0.00     0.040 A 
ATOM     53  C   UNL A   1      43.093  36.435  27.273  1.00  0.00     0.040 A 
ATOM     54  F   UNL A   1      41.712  34.541  27.372  1.00  0.00    -0.206 F 
ATOM     55  C   UNL A   1      43.925  37.365  27.888  1.00  0.00     0.006 A 
ENDBRANCH  27  48
BRANCH  39  56
ATOM     56  C   UNL A   1      41.077  30.952  33.789  1.00  0.00     0.057 A 
ATOM     57  C   UNL A   1      41.869  30.641  34.899  1.00  0.00     0.134 A 
ATOM     58  C   UNL A   1      39.907  31.687  34.035  1.00  0.00     0.134 A 
ATOM     59  F   UNL A   1      42.969  29.886  34.752  1.00  0.00    -0.206 F 
ATOM     60  C   UNL A   1      41.513  31.035  36.192  1.00  0.00     0.040 A 
ATOM     61  C   UNL A   1      39.556  32.117  35.318  1.00  0.00     0.040 A 
ATOM     62  F   UNL A   1      39.035  31.942  33.053  1.00  0.00    -0.206 F 
ATOM     63  C   UNL A   1      40.356  31.780  36.404  1.00  0.00     0.006 A 
ENDBRANCH  39  56
ENDBRANCH  13  14
ENDBRANCH   6   8
ENDBRANCH   5   6
ENDBRANCH   4   5
ENDBRANCH   3   4
ENDBRANCH   2   3
ENDBRANCH   1   2
BRANCH   1  64
ATOM     64  C   UNL A   1      30.523  27.991  24.036  1.00  0.00     0.261 C 
BRANCH  64  65
ATOM     65  O   UNL A   1      30.680  26.571  24.208  1.00  0.00    -0.462 OA
BRANCH  65  66
ATOM     66  C   UNL A   1      31.842  26.064  23.735  1.00  0.00     0.329 C 
ATOM     67  O   UNL A   1      32.288  26.295  22.616  1.00  0.00    -0.250 OA
BRANCH  66  68
ATOM     68  C   UNL A   1      32.599  25.182  24.741  1.00  0.00     0.197 C 
BRANCH  68  69
ATOM     69  C   UNL A   1      34.069  25.439  25.128  1.00  0.00     0.072 C 
BRANCH  69  70
ATOM     70  C   UNL A   1      35.127  24.401  24.860  1.00  0.00    -0.045 A 
ATOM     71  C   UNL A   1      36.134  24.199  25.814  1.00  0.00     0.007 A 
ATOM     72  C   UNL A   1      35.185  23.656  23.679  1.00  0.00     0.007 A 
ATOM     73  C   UNL A   1      37.082  23.183  25.664  1.00  0.00     0.039 A 
ATOM     74  C   UNL A   1      36.131  22.639  23.525  1.00  0.00     0.039 A 
ATOM     75  C   UNL A   1      37.051  22.390  24.533  1.00  0.00     0.123 A 
ATOM     76  F   UNL A   1      37.920  21.380  24.406  1.00  0.00    -0.207 F 
ENDBRANCH  69  70
ENDBRANCH  68  69
BRANCH  68  77
ATOM     77  N   UNL A   1      31.726  24.977  25.887  1.00  0.00    -0.337 N 
ATOM     78  C   UNL A   1      31.506  23.812  26.583  1.00  0.00     0.272 C 
ATOM     79  H   UNL A   1      31.235  25.769  26.203  1.00  0.00     0.164 HD
ATOM     80  O   UNL A   1      30.510  23.763  27.296  1.00  0.00    -0.267 OA
BRANCH  78  81
ATOM     81  C   UNL A   1      32.454  22.701  26.435  1.00  0.00     0.150 A 
ATOM     82  C   UNL A   1      33.442  22.227  27.346  1.00  0.00     0.056 A 
ATOM     83  N   UNL A   1      32.457  21.955  25.320  1.00  0.00    -0.167 NA
ATOM     84  C   UNL A   1      34.061  21.179  26.709  1.00  0.00     0.110 A 
ATOM     85  N   UNL A   1      33.412  21.036  25.517  1.00  0.00    -0.269 N 
BRANCH  85  86
ATOM     86  C   UNL A   1      33.598  19.984  24.543  1.00  0.00     0.107 C 
ATOM     87  C   UNL A   1      34.750  19.041  24.894  1.00  0.00     0.027 C 
ATOM     88  C   UNL A   1      32.407  19.038  24.404  1.00  0.00     0.027 C 
ATOM     89  C   UNL A   1      34.507  17.834  24.004  1.00  0.00     0.002 C 
ATOM     90  C   UNL A   1      32.992  17.758  23.812  1.00  0.00     0.002 C 
ENDBRANCH  85  86
ENDBRANCH  78  81
ENDBRANCH  68  77
ENDBRANCH  66  68
ENDBRANCH  65  66
ENDBRANCH  64  65
ENDBRANCH   1  64
TORSDOF 19
ENDMDL
