MODEL 1
REMARK VINA RESULT:     -11.6      0.000      0.000
REMARK SMILES C[C@@H]1[C@@H](C(=O)OCCOCCOC(=O)c2ccc(-c3c4nc(c(-c5c(F)cccc5F)c5ccc([nH]5)c(-c5c(F)cccc5F)c5nc(c(-c6c(F)cccc6F)c6ccc3[nH]6)C=C5)C=C4)cc2)CC[N@@H+]1[C@H]1CC[C@@H](C(F)(F)F)CC1
REMARK SMILES IDX 9 1 8 2 7 3 6 4 4 5 5 6 3 7 1 8 2 9 71 10 69 11 70 12 72 14
REMARK SMILES IDX 73 15 81 16 74 17 80 18 75 19 76 20 77 21 78 22 79 23 10 24
REMARK SMILES IDX 11 25 12 26 13 27 14 28 15 29 16 30 68 31 17 32 67 33 18 34
REMARK SMILES IDX 19 35 20 36 61 37 21 38 66 39 60 40 62 41 22 42 65 43 59 44
REMARK SMILES IDX 58 45 23 47 49 48 32 49 48 50 33 51 36 52 47 53 63 54 34 55
REMARK SMILES IDX 35 56 46 58 64 59 37 60 24 61 25 62 30 63 26 64 27 65 29 66
REMARK SMILES IDX 31 67 28 68 50 69 51 70 56 71 52 72 53 73 55 74 57 75 54 76
REMARK SMILES IDX 38 77 39 78 44 79 40 80 41 81 43 82 45 83 42 84
REMARK H PARENT 71 13 62 46 36 57
REMARK Flexibility Score: inf
ROOT
ATOM      1  O   UNL A   1      32.756  30.507  26.460  1.00  0.00    -0.374 OA
ENDROOT
BRANCH   1   2
ATOM      2  C   UNL A   1      33.050  29.698  25.322  1.00  0.00     0.202 C 
BRANCH   2   3
ATOM      3  C   UNL A   1      33.854  28.420  25.571  1.00  0.00     0.261 C 
BRANCH   3   4
ATOM      4  O   UNL A   1      33.592  27.446  24.551  1.00  0.00    -0.463 OA
BRANCH   4   5
ATOM      5  C   UNL A   1      33.188  26.223  25.002  1.00  0.00     0.315 C 
ATOM      6  O   UNL A   1      33.523  25.720  26.063  1.00  0.00    -0.252 OA
BRANCH   5   7
ATOM      7  C   UNL A   1      32.222  25.616  24.002  1.00  0.00     0.162 C 
ATOM      8  C   UNL A   1      31.819  25.915  21.546  1.00  0.00     0.076 C 
ATOM      9  C   UNL A   1      31.855  26.627  22.901  1.00  0.00     0.195 C 
ATOM     10  N   UNL A   1      30.570  27.145  23.341  1.00  0.00    -0.330 N 
ATOM     11  C   UNL A   1      30.904  25.256  24.662  1.00  0.00     0.083 C 
ATOM     12  C   UNL A   1      30.096  26.535  24.567  1.00  0.00     0.263 C 
ATOM     13  H   UNL A   1      30.836  28.096  23.084  1.00  0.00     0.348 HD
BRANCH  10  14
ATOM     14  C   UNL A   1      29.703  28.046  22.616  1.00  0.00     0.184 C 
ATOM     15  C   UNL A   1      28.313  28.235  23.248  1.00  0.00     0.066 C 
ATOM     16  C   UNL A   1      30.423  29.382  22.373  1.00  0.00     0.066 C 
ATOM     17  C   UNL A   1      27.469  29.262  22.484  1.00  0.00     0.019 C 
ATOM     18  C   UNL A   1      29.553  30.371  21.607  1.00  0.00     0.019 C 
ATOM     19  C   UNL A   1      28.183  30.602  22.255  1.00  0.00     0.095 C 
BRANCH  19  20
ATOM     20  C   UNL A   1      28.269  31.448  23.524  1.00  0.00     0.391 C 
ATOM     21  F   UNL A   1      28.253  32.766  23.222  1.00  0.00    -0.171 F 
ATOM     22  F   UNL A   1      27.210  31.210  24.329  1.00  0.00    -0.171 F 
ATOM     23  F   UNL A   1      29.383  31.212  24.242  1.00  0.00    -0.171 F 
ENDBRANCH  19  20
ENDBRANCH  10  14
ENDBRANCH   5   7
ENDBRANCH   4   5
ENDBRANCH   3   4
ENDBRANCH   2   3
ENDBRANCH   1   2
BRANCH   1  24
ATOM     24  C   UNL A   1      31.502  31.188  26.501  1.00  0.00     0.202 C 
BRANCH  24  25
ATOM     25  C   UNL A   1      31.521  32.677  26.868  1.00  0.00     0.261 C 
BRANCH  25  26
ATOM     26  O   UNL A   1      32.839  33.252  26.771  1.00  0.00    -0.460 OA
BRANCH  26  27
ATOM     27  C   UNL A   1      33.315  33.778  27.925  1.00  0.00     0.338 C 
ATOM     28  O   UNL A   1      32.771  34.597  28.651  1.00  0.00    -0.246 OA
BRANCH  27  29
ATOM     29  C   UNL A   1      34.553  33.087  28.320  1.00  0.00     0.060 A 
ATOM     30  C   UNL A   1      34.439  31.782  28.819  1.00  0.00     0.016 A 
ATOM     31  C   UNL A   1      35.786  33.741  28.310  1.00  0.00     0.016 A 
ATOM     32  C   UNL A   1      35.554  31.137  29.345  1.00  0.00     0.010 A 
ATOM     33  C   UNL A   1      36.902  33.098  28.854  1.00  0.00     0.010 A 
ATOM     34  C   UNL A   1      36.783  31.808  29.404  1.00  0.00    -0.014 A 
BRANCH  34  35
ATOM     35  C   UNL A   1      37.894  31.213  30.183  1.00  0.00     0.031 A 
ATOM     36  C   UNL A   1      38.793  30.209  29.516  1.00  0.00     0.074 A 
ATOM     37  C   UNL A   1      38.123  31.591  31.452  1.00  0.00     0.049 A 
ATOM     38  N   UNL A   1      39.814  29.555  30.008  1.00  0.00    -0.248 NA
ATOM     39  C   UNL A   1      38.504  29.905  28.106  1.00  0.00     0.031 C 
ATOM     40  C   UNL A   1      37.347  32.585  32.191  1.00  0.00     0.029 A 
ATOM     41  N   UNL A   1      39.080  31.176  32.343  1.00  0.00    -0.354 N 
ATOM     42  C   UNL A   1      40.288  28.763  28.969  1.00  0.00     0.074 A 
ATOM     43  C   UNL A   1      39.427  28.996  27.830  1.00  0.00     0.031 C 
ATOM     44  C   UNL A   1      37.854  32.696  33.431  1.00  0.00     0.029 A 
ATOM     45  C   UNL A   1      38.970  31.765  33.579  1.00  0.00     0.049 A 
ATOM     46  H   UNL A   1      39.778  30.520  32.118  1.00  0.00     0.167 HD
ATOM     47  C   UNL A   1      41.350  27.922  28.964  1.00  0.00     0.037 A 
ATOM     48  C   UNL A   1      39.681  31.558  34.704  1.00  0.00     0.037 A 
ATOM     49  C   UNL A   1      42.205  27.689  30.097  1.00  0.00     0.049 A 
ATOM     50  C   UNL A   1      40.814  30.566  34.693  1.00  0.00     0.074 A 
ATOM     51  C   UNL A   1      43.314  26.866  30.187  1.00  0.00     0.029 A 
ATOM     52  N   UNL A   1      42.040  28.277  31.342  1.00  0.00    -0.354 N 
ATOM     53  N   UNL A   1      41.265  29.838  33.700  1.00  0.00    -0.248 NA
ATOM     54  C   UNL A   1      41.536  30.371  35.959  1.00  0.00     0.031 C 
ATOM     55  C   UNL A   1      43.795  26.925  31.499  1.00  0.00     0.029 A 
ATOM     56  C   UNL A   1      43.012  27.818  32.213  1.00  0.00     0.049 A 
ATOM     57  H   UNL A   1      41.336  28.925  31.571  1.00  0.00     0.167 HD
ATOM     58  C   UNL A   1      42.337  29.118  34.213  1.00  0.00     0.074 A 
ATOM     59  C   UNL A   1      42.476  29.506  35.602  1.00  0.00     0.031 C 
ATOM     60  C   UNL A   1      43.138  28.219  33.590  1.00  0.00     0.037 A 
BRANCH  47  61
ATOM     61  C   UNL A   1      41.629  27.176  27.695  1.00  0.00     0.057 A 
ATOM     62  C   UNL A   1      42.415  27.725  26.673  1.00  0.00     0.134 A 
ATOM     63  C   UNL A   1      41.129  25.883  27.502  1.00  0.00     0.134 A 
ATOM     64  F   UNL A   1      42.912  28.965  26.789  1.00  0.00    -0.206 F 
ATOM     65  C   UNL A   1      42.678  27.020  25.496  1.00  0.00     0.040 A 
ATOM     66  C   UNL A   1      41.402  25.160  26.339  1.00  0.00     0.040 A 
ATOM     67  F   UNL A   1      40.371  25.299  28.442  1.00  0.00    -0.206 F 
ATOM     68  C   UNL A   1      42.175  25.731  25.330  1.00  0.00     0.006 A 
ENDBRANCH  47  61
BRANCH  48  69
ATOM     69  C   UNL A   1      39.338  32.297  35.943  1.00  0.00     0.057 A 
ATOM     70  C   UNL A   1      38.406  31.793  36.856  1.00  0.00     0.134 A 
ATOM     71  C   UNL A   1      39.919  33.538  36.234  1.00  0.00     0.134 A 
ATOM     72  F   UNL A   1      37.798  30.621  36.621  1.00  0.00    -0.206 F 
ATOM     73  C   UNL A   1      38.052  32.500  38.006  1.00  0.00     0.040 A 
ATOM     74  C   UNL A   1      39.591  34.246  37.390  1.00  0.00     0.040 A 
ATOM     75  F   UNL A   1      40.819  34.077  35.397  1.00  0.00    -0.206 F 
ATOM     76  C   UNL A   1      38.649  33.730  38.277  1.00  0.00     0.006 A 
ENDBRANCH  48  69
BRANCH  60  77
ATOM     77  C   UNL A   1      44.252  27.618  34.396  1.00  0.00     0.057 A 
ATOM     78  C   UNL A   1      44.100  26.403  35.074  1.00  0.00     0.134 A 
ATOM     79  C   UNL A   1      45.505  28.242  34.456  1.00  0.00     0.134 A 
ATOM     80  F   UNL A   1      42.922  25.762  35.065  1.00  0.00    -0.206 F 
ATOM     81  C   UNL A   1      45.150  25.840  35.802  1.00  0.00     0.040 A 
ATOM     82  C   UNL A   1      46.568  27.677  35.160  1.00  0.00     0.040 A 
ATOM     83  F   UNL A   1      45.719  29.404  33.820  1.00  0.00    -0.206 F 
ATOM     84  C   UNL A   1      46.390  26.474  35.841  1.00  0.00     0.006 A 
ENDBRANCH  60  77
ENDBRANCH  34  35
ENDBRANCH  27  29
ENDBRANCH  26  27
ENDBRANCH  25  26
ENDBRANCH  24  25
ENDBRANCH   1  24
TORSDOF 16
ENDMDL
MODEL 2
REMARK VINA RESULT:     -11.5      3.471      8.412
REMARK SMILES C[C@@H]1[C@@H](C(=O)OCCOCCOC(=O)c2ccc(-c3c4nc(c(-c5c(F)cccc5F)c5ccc([nH]5)c(-c5c(F)cccc5F)c5nc(c(-c6c(F)cccc6F)c6ccc3[nH]6)C=C5)C=C4)cc2)CC[N@@H+]1[C@H]1CC[C@@H](C(F)(F)F)CC1
REMARK SMILES IDX 9 1 8 2 7 3 6 4 4 5 5 6 3 7 1 8 2 9 71 10 69 11 70 12 72 14
REMARK SMILES IDX 73 15 81 16 74 17 80 18 75 19 76 20 77 21 78 22 79 23 10 24
REMARK SMILES IDX 11 25 12 26 13 27 14 28 15 29 16 30 68 31 17 32 67 33 18 34
REMARK SMILES IDX 19 35 20 36 61 37 21 38 66 39 60 40 62 41 22 42 65 43 59 44
REMARK SMILES IDX 58 45 23 47 49 48 32 49 48 50 33 51 36 52 47 53 63 54 34 55
REMARK SMILES IDX 35 56 46 58 64 59 37 60 24 61 25 62 30 63 26 64 27 65 29 66
REMARK SMILES IDX 31 67 28 68 50 69 51 70 56 71 52 72 53 73 55 74 57 75 54 76
REMARK SMILES IDX 38 77 39 78 44 79 40 80 41 81 43 82 45 83 42 84
REMARK H PARENT 71 13 62 46 36 57
REMARK Flexibility Score: inf
ROOT
ATOM      1  O   UNL A   1      41.904  20.024  25.563  1.00  0.00    -0.374 OA
ENDROOT
BRANCH   1   2
ATOM      2  C   UNL A   1      40.663  20.088  26.263  1.00  0.00     0.202 C 
BRANCH   2   3
ATOM      3  C   UNL A   1      39.874  21.395  26.155  1.00  0.00     0.261 C 
BRANCH   3   4
ATOM      4  O   UNL A   1      38.585  21.165  25.568  1.00  0.00    -0.463 OA
BRANCH   4   5
ATOM      5  C   UNL A   1      37.812  22.278  25.404  1.00  0.00     0.315 C 
ATOM      6  O   UNL A   1      38.086  23.391  25.824  1.00  0.00    -0.252 OA
BRANCH   5   7
ATOM      7  C   UNL A   1      36.592  21.921  24.576  1.00  0.00     0.162 C 
ATOM      8  C   UNL A   1      34.909  23.241  23.270  1.00  0.00     0.076 C 
ATOM      9  C   UNL A   1      35.525  23.026  24.655  1.00  0.00     0.195 C 
ATOM     10  N   UNL A   1      34.597  22.522  25.653  1.00  0.00    -0.330 N 
ATOM     11  C   UNL A   1      35.911  20.676  25.114  1.00  0.00     0.083 C 
ATOM     12  C   UNL A   1      34.959  21.215  26.163  1.00  0.00     0.263 C 
ATOM     13  H   UNL A   1      34.511  23.445  26.078  1.00  0.00     0.348 HD
BRANCH  10  14
ATOM     14  C   UNL A   1      33.333  23.107  26.038  1.00  0.00     0.184 C 
ATOM     15  C   UNL A   1      33.285  24.642  25.934  1.00  0.00     0.066 C 
ATOM     16  C   UNL A   1      32.187  22.431  25.269  1.00  0.00     0.066 C 
ATOM     17  C   UNL A   1      31.898  25.198  26.274  1.00  0.00     0.019 C 
ATOM     18  C   UNL A   1      30.827  23.009  25.640  1.00  0.00     0.019 C 
ATOM     19  C   UNL A   1      30.755  24.533  25.493  1.00  0.00     0.095 C 
BRANCH  19  20
ATOM     20  C   UNL A   1      30.701  24.980  24.034  1.00  0.00     0.391 C 
ATOM     21  F   UNL A   1      31.947  25.184  23.550  1.00  0.00    -0.171 F 
ATOM     22  F   UNL A   1      30.124  24.030  23.265  1.00  0.00    -0.171 F 
ATOM     23  F   UNL A   1      30.008  26.120  23.855  1.00  0.00    -0.171 F 
ENDBRANCH  19  20
ENDBRANCH  10  14
ENDBRANCH   5   7
ENDBRANCH   4   5
ENDBRANCH   3   4
ENDBRANCH   2   3
ENDBRANCH   1   2
BRANCH   1  24
ATOM     24  C   UNL A   1      43.032  20.699  26.121  1.00  0.00     0.202 C 
BRANCH  24  25
ATOM     25  C   UNL A   1      43.757  21.716  25.229  1.00  0.00     0.261 C 
BRANCH  25  26
ATOM     26  O   UNL A   1      42.973  22.903  24.999  1.00  0.00    -0.460 OA
BRANCH  26  27
ATOM     27  C   UNL A   1      43.668  24.064  25.070  1.00  0.00     0.338 C 
ATOM     28  O   UNL A   1      44.648  24.387  24.415  1.00  0.00    -0.246 OA
BRANCH  27  29
ATOM     29  C   UNL A   1      42.971  25.014  25.951  1.00  0.00     0.060 A 
ATOM     30  C   UNL A   1      43.566  26.266  26.157  1.00  0.00     0.016 A 
ATOM     31  C   UNL A   1      41.820  24.649  26.649  1.00  0.00     0.016 A 
ATOM     32  C   UNL A   1      43.031  27.146  27.094  1.00  0.00     0.010 A 
ATOM     33  C   UNL A   1      41.292  25.527  27.602  1.00  0.00     0.010 A 
ATOM     34  C   UNL A   1      41.916  26.764  27.851  1.00  0.00    -0.014 A 
BRANCH  34  35
ATOM     35  C   UNL A   1      41.507  27.597  29.006  1.00  0.00     0.031 A 
ATOM     36  C   UNL A   1      42.267  27.470  30.297  1.00  0.00     0.074 A 
ATOM     37  C   UNL A   1      40.502  28.481  28.895  1.00  0.00     0.049 A 
ATOM     38  N   UNL A   1      42.078  28.087  31.436  1.00  0.00    -0.248 NA
ATOM     39  C   UNL A   1      43.393  26.521  30.305  1.00  0.00     0.031 C 
ATOM     40  C   UNL A   1      39.721  28.725  27.685  1.00  0.00     0.029 A 
ATOM     41  N   UNL A   1      39.967  29.338  29.823  1.00  0.00    -0.354 N 
ATOM     42  C   UNL A   1      43.058  27.603  32.293  1.00  0.00     0.074 A 
ATOM     43  C   UNL A   1      43.822  26.620  31.555  1.00  0.00     0.031 C 
ATOM     44  C   UNL A   1      38.796  29.664  27.948  1.00  0.00     0.029 A 
ATOM     45  C   UNL A   1      38.905  30.067  29.348  1.00  0.00     0.049 A 
ATOM     46  H   UNL A   1      40.312  29.423  30.741  1.00  0.00     0.167 HD
ATOM     47  C   UNL A   1      43.304  27.951  33.579  1.00  0.00     0.037 A 
ATOM     48  C   UNL A   1      38.104  30.946  29.981  1.00  0.00     0.037 A 
ATOM     49  C   UNL A   1      42.543  28.925  34.314  1.00  0.00     0.049 A 
ATOM     50  C   UNL A   1      38.353  31.265  31.430  1.00  0.00     0.074 A 
ATOM     51  C   UNL A   1      42.722  29.357  35.617  1.00  0.00     0.029 A 
ATOM     52  N   UNL A   1      41.452  29.617  33.809  1.00  0.00    -0.354 N 
ATOM     53  N   UNL A   1      39.295  30.816  32.226  1.00  0.00    -0.248 NA
ATOM     54  C   UNL A   1      37.430  32.214  32.069  1.00  0.00     0.031 C 
ATOM     55  C   UNL A   1      41.713  30.280  35.913  1.00  0.00     0.029 A 
ATOM     56  C   UNL A   1      40.933  30.455  34.781  1.00  0.00     0.049 A 
ATOM     57  H   UNL A   1      41.099  29.525  32.895  1.00  0.00     0.167 HD
ATOM     58  C   UNL A   1      39.093  31.446  33.448  1.00  0.00     0.074 A 
ATOM     59  C   UNL A   1      37.947  32.316  33.286  1.00  0.00     0.031 C 
ATOM     60  C   UNL A   1      39.795  31.318  34.600  1.00  0.00     0.037 A 
BRANCH  47  61
ATOM     61  C   UNL A   1      44.431  27.252  34.277  1.00  0.00     0.057 A 
ATOM     62  C   UNL A   1      44.262  25.998  34.880  1.00  0.00     0.134 A 
ATOM     63  C   UNL A   1      45.706  27.827  34.326  1.00  0.00     0.134 A 
ATOM     64  F   UNL A   1      43.061  25.401  34.881  1.00  0.00    -0.206 F 
ATOM     65  C   UNL A   1      45.318  25.350  35.522  1.00  0.00     0.040 A 
ATOM     66  C   UNL A   1      46.776  27.179  34.947  1.00  0.00     0.040 A 
ATOM     67  F   UNL A   1      45.935  29.025  33.767  1.00  0.00    -0.206 F 
ATOM     68  C   UNL A   1      46.582  25.938  35.551  1.00  0.00     0.006 A 
ENDBRANCH  47  61
BRANCH  48  69
ATOM     69  C   UNL A   1      36.979  31.581  29.252  1.00  0.00     0.057 A 
ATOM     70  C   UNL A   1      37.075  32.889  28.765  1.00  0.00     0.134 A 
ATOM     71  C   UNL A   1      35.772  30.902  29.043  1.00  0.00     0.134 A 
ATOM     72  F   UNL A   1      38.197  33.599  28.955  1.00  0.00    -0.206 F 
ATOM     73  C   UNL A   1      36.008  33.506  28.111  1.00  0.00     0.040 A 
ATOM     74  C   UNL A   1      34.705  31.498  28.371  1.00  0.00     0.040 A 
ATOM     75  F   UNL A   1      35.617  29.646  29.487  1.00  0.00    -0.206 F 
ATOM     76  C   UNL A   1      34.818  32.807  27.909  1.00  0.00     0.006 A 
ENDBRANCH  48  69
BRANCH  60  77
ATOM     77  C   UNL A   1      39.363  32.160  35.765  1.00  0.00     0.057 A 
ATOM     78  C   UNL A   1      39.855  33.455  35.961  1.00  0.00     0.134 A 
ATOM     79  C   UNL A   1      38.411  31.682  36.674  1.00  0.00     0.134 A 
ATOM     80  F   UNL A   1      40.778  33.965  35.132  1.00  0.00    -0.206 F 
ATOM     81  C   UNL A   1      39.431  34.240  37.036  1.00  0.00     0.040 A 
ATOM     82  C   UNL A   1      37.961  32.466  37.738  1.00  0.00     0.040 A 
ATOM     83  F   UNL A   1      37.893  30.452  36.537  1.00  0.00    -0.206 F 
ATOM     84  C   UNL A   1      38.476  33.747  37.923  1.00  0.00     0.006 A 
ENDBRANCH  60  77
ENDBRANCH  34  35
ENDBRANCH  27  29
ENDBRANCH  26  27
ENDBRANCH  25  26
ENDBRANCH  24  25
ENDBRANCH   1  24
TORSDOF 16
ENDMDL
MODEL 3
REMARK VINA RESULT:     -11.5      4.134      8.063
REMARK SMILES C[C@@H]1[C@@H](C(=O)OCCOCCOC(=O)c2ccc(-c3c4nc(c(-c5c(F)cccc5F)c5ccc([nH]5)c(-c5c(F)cccc5F)c5nc(c(-c6c(F)cccc6F)c6ccc3[nH]6)C=C5)C=C4)cc2)CC[N@@H+]1[C@H]1CC[C@@H](C(F)(F)F)CC1
REMARK SMILES IDX 9 1 8 2 7 3 6 4 4 5 5 6 3 7 1 8 2 9 71 10 69 11 70 12 72 14
REMARK SMILES IDX 73 15 81 16 74 17 80 18 75 19 76 20 77 21 78 22 79 23 10 24
REMARK SMILES IDX 11 25 12 26 13 27 14 28 15 29 16 30 68 31 17 32 67 33 18 34
REMARK SMILES IDX 19 35 20 36 61 37 21 38 66 39 60 40 62 41 22 42 65 43 59 44
REMARK SMILES IDX 58 45 23 47 49 48 32 49 48 50 33 51 36 52 47 53 63 54 34 55
REMARK SMILES IDX 35 56 46 58 64 59 37 60 24 61 25 62 30 63 26 64 27 65 29 66
REMARK SMILES IDX 31 67 28 68 50 69 51 70 56 71 52 72 53 73 55 74 57 75 54 76
REMARK SMILES IDX 38 77 39 78 44 79 40 80 41 81 43 82 45 83 42 84
REMARK H PARENT 71 13 62 46 36 57
REMARK Flexibility Score: inf
ROOT
ATOM      1  O   UNL A   1      33.872  33.751  29.959  1.00  0.00    -0.374 OA
ENDROOT
BRANCH   1   2
ATOM      2  C   UNL A   1      34.584  33.837  28.726  1.00  0.00     0.202 C 
BRANCH   2   3
ATOM      3  C   UNL A   1      34.889  32.520  28.011  1.00  0.00     0.261 C 
BRANCH   3   4
ATOM      4  O   UNL A   1      33.681  31.898  27.550  1.00  0.00    -0.463 OA
BRANCH   4   5
ATOM      5  C   UNL A   1      33.774  30.561  27.294  1.00  0.00     0.315 C 
ATOM      6  O   UNL A   1      34.816  29.925  27.248  1.00  0.00    -0.252 OA
BRANCH   5   7
ATOM      7  C   UNL A   1      32.380  29.986  27.127  1.00  0.00     0.162 C 
ATOM      8  C   UNL A   1      31.244  27.886  27.892  1.00  0.00     0.076 C 
ATOM      9  C   UNL A   1      32.415  28.449  27.082  1.00  0.00     0.195 C 
ATOM     10  N   UNL A   1      32.356  28.157  25.659  1.00  0.00    -0.330 N 
ATOM     11  C   UNL A   1      31.768  30.406  25.804  1.00  0.00     0.083 C 
ATOM     12  C   UNL A   1      32.250  29.344  24.835  1.00  0.00     0.263 C 
ATOM     13  H   UNL A   1      33.060  27.425  25.752  1.00  0.00     0.348 HD
BRANCH  10  14
ATOM     14  C   UNL A   1      32.238  26.855  25.043  1.00  0.00     0.184 C 
ATOM     15  C   UNL A   1      33.048  25.747  25.739  1.00  0.00     0.066 C 
ATOM     16  C   UNL A   1      30.755  26.484  24.883  1.00  0.00     0.066 C 
ATOM     17  C   UNL A   1      32.820  24.376  25.094  1.00  0.00     0.019 C 
ATOM     18  C   UNL A   1      30.572  25.118  24.234  1.00  0.00     0.019 C 
ATOM     19  C   UNL A   1      31.339  23.999  24.949  1.00  0.00     0.095 C 
BRANCH  19  20
ATOM     20  C   UNL A   1      30.698  23.606  26.279  1.00  0.00     0.391 C 
ATOM     21  F   UNL A   1      29.647  24.409  26.559  1.00  0.00    -0.171 F 
ATOM     22  F   UNL A   1      30.231  22.339  26.227  1.00  0.00    -0.171 F 
ATOM     23  F   UNL A   1      31.550  23.680  27.318  1.00  0.00    -0.171 F 
ENDBRANCH  19  20
ENDBRANCH  10  14
ENDBRANCH   5   7
ENDBRANCH   4   5
ENDBRANCH   3   4
ENDBRANCH   2   3
ENDBRANCH   1   2
BRANCH   1  24
ATOM     24  C   UNL A   1      34.369  34.480  31.082  1.00  0.00     0.202 C 
BRANCH  24  25
ATOM     25  C   UNL A   1      34.408  33.755  32.433  1.00  0.00     0.261 C 
BRANCH  25  26
ATOM     26  O   UNL A   1      34.918  32.412  32.321  1.00  0.00    -0.460 OA
BRANCH  26  27
ATOM     27  C   UNL A   1      36.055  32.177  33.020  1.00  0.00     0.338 C 
ATOM     28  O   UNL A   1      36.269  32.419  34.199  1.00  0.00    -0.246 OA
BRANCH  27  29
ATOM     29  C   UNL A   1      36.996  31.397  32.201  1.00  0.00     0.060 A 
ATOM     30  C   UNL A   1      37.994  30.673  32.868  1.00  0.00     0.016 A 
ATOM     31  C   UNL A   1      36.975  31.462  30.807  1.00  0.00     0.016 A 
ATOM     32  C   UNL A   1      38.999  30.039  32.142  1.00  0.00     0.010 A 
ATOM     33  C   UNL A   1      37.995  30.839  30.080  1.00  0.00     0.010 A 
ATOM     34  C   UNL A   1      39.028  30.155  30.746  1.00  0.00    -0.014 A 
BRANCH  34  35
ATOM     35  C   UNL A   1      40.226  29.692  30.009  1.00  0.00     0.031 A 
ATOM     36  C   UNL A   1      41.363  30.652  29.794  1.00  0.00     0.074 A 
ATOM     37  C   UNL A   1      40.317  28.424  29.572  1.00  0.00     0.049 A 
ATOM     38  N   UNL A   1      42.498  30.467  29.169  1.00  0.00    -0.248 NA
ATOM     39  C   UNL A   1      41.199  31.999  30.363  1.00  0.00     0.031 C 
ATOM     40  C   UNL A   1      39.300  27.391  29.757  1.00  0.00     0.029 A 
ATOM     41  N   UNL A   1      41.319  27.794  28.878  1.00  0.00    -0.354 N 
ATOM     42  C   UNL A   1      43.182  31.672  29.268  1.00  0.00     0.074 A 
ATOM     43  C   UNL A   1      42.325  32.590  29.988  1.00  0.00     0.031 C 
ATOM     44  C   UNL A   1      39.727  26.254  29.180  1.00  0.00     0.029 A 
ATOM     45  C   UNL A   1      41.032  26.488  28.566  1.00  0.00     0.049 A 
ATOM     46  H   UNL A   1      42.163  28.235  28.629  1.00  0.00     0.167 HD
ATOM     47  C   UNL A   1      44.416  31.985  28.808  1.00  0.00     0.037 A 
ATOM     48  C   UNL A   1      41.737  25.593  27.848  1.00  0.00     0.037 A 
ATOM     49  C   UNL A   1      45.267  31.074  28.090  1.00  0.00     0.049 A 
ATOM     50  C   UNL A   1      43.077  25.985  27.286  1.00  0.00     0.074 A 
ATOM     51  C   UNL A   1      46.541  31.292  27.592  1.00  0.00     0.029 A 
ATOM     52  N   UNL A   1      44.926  29.770  27.761  1.00  0.00    -0.354 N 
ATOM     53  N   UNL A   1      43.723  27.121  27.403  1.00  0.00    -0.248 NA
ATOM     54  C   UNL A   1      43.787  24.970  26.493  1.00  0.00     0.031 C 
ATOM     55  C   UNL A   1      46.953  30.133  26.927  1.00  0.00     0.029 A 
ATOM     56  C   UNL A   1      45.955  29.179  27.048  1.00  0.00     0.049 A 
ATOM     57  H   UNL A   1      44.079  29.332  28.000  1.00  0.00     0.167 HD
ATOM     58  C   UNL A   1      44.922  26.948  26.723  1.00  0.00     0.074 A 
ATOM     59  C   UNL A   1      44.920  25.596  26.205  1.00  0.00     0.031 C 
ATOM     60  C   UNL A   1      45.937  27.830  26.545  1.00  0.00     0.037 A 
BRANCH  47  61
ATOM     61  C   UNL A   1      44.908  33.380  29.048  1.00  0.00     0.057 A 
ATOM     62  C   UNL A   1      44.652  34.419  28.144  1.00  0.00     0.134 A 
ATOM     63  C   UNL A   1      45.623  33.694  30.210  1.00  0.00     0.134 A 
ATOM     64  F   UNL A   1      43.986  34.180  27.005  1.00  0.00    -0.206 F 
ATOM     65  C   UNL A   1      45.107  35.718  28.379  1.00  0.00     0.040 A 
ATOM     66  C   UNL A   1      46.065  34.994  30.466  1.00  0.00     0.040 A 
ATOM     67  F   UNL A   1      45.900  32.745  31.117  1.00  0.00    -0.206 F 
ATOM     68  C   UNL A   1      45.811  36.009  29.546  1.00  0.00     0.006 A 
ENDBRANCH  47  61
BRANCH  48  69
ATOM     69  C   UNL A   1      41.187  24.236  27.608  1.00  0.00     0.057 A 
ATOM     70  C   UNL A   1      41.676  23.121  28.297  1.00  0.00     0.134 A 
ATOM     71  C   UNL A   1      40.173  24.020  26.667  1.00  0.00     0.134 A 
ATOM     72  F   UNL A   1      42.663  23.262  29.194  1.00  0.00    -0.206 F 
ATOM     73  C   UNL A   1      41.188  21.837  28.050  1.00  0.00     0.040 A 
ATOM     74  C   UNL A   1      39.660  22.745  26.425  1.00  0.00     0.040 A 
ATOM     75  F   UNL A   1      39.664  25.048  25.971  1.00  0.00    -0.206 F 
ATOM     76  C   UNL A   1      40.173  21.647  27.113  1.00  0.00     0.006 A 
ENDBRANCH  48  69
BRANCH  60  77
ATOM     77  C   UNL A   1      47.139  27.350  25.787  1.00  0.00     0.057 A 
ATOM     78  C   UNL A   1      48.182  26.660  26.417  1.00  0.00     0.134 A 
ATOM     79  C   UNL A   1      47.232  27.543  24.403  1.00  0.00     0.134 A 
ATOM     80  F   UNL A   1      48.157  26.453  27.742  1.00  0.00    -0.206 F 
ATOM     81  C   UNL A   1      49.287  26.197  25.699  1.00  0.00     0.040 A 
ATOM     82  C   UNL A   1      48.320  27.064  23.671  1.00  0.00     0.040 A 
ATOM     83  F   UNL A   1      46.262  28.189  23.738  1.00  0.00    -0.206 F 
ATOM     84  C   UNL A   1      49.353  26.393  24.321  1.00  0.00     0.006 A 
ENDBRANCH  60  77
ENDBRANCH  34  35
ENDBRANCH  27  29
ENDBRANCH  26  27
ENDBRANCH  25  26
ENDBRANCH  24  25
ENDBRANCH   1  24
TORSDOF 16
ENDMDL
