MODEL 1
REMARK VINA RESULT:     -11.6      0.000      0.000
REMARK SMILES Cc1cc(/C=C2\C(=O)N(Cc3ccco3)C(=O)N=C2OCCOCCOC(=O)c2ccc(-c3c4nc(c(-c5c(F)cccc5F)c5ccc([nH]5)c(-c5c(F)cccc5F)c5nc(c(-c6c(F)cccc6F)c6ccc3[nH]6)C=C5)C=C4)cc2)c(C)n1-c1ccc(Cl)c(C(=O)[O-])c1
REMARK SMILES IDX 23 1 22 2 21 3 20 4 19 5 5 6 6 7 7 8 8 9 9 10 18 11 16 12
REMARK SMILES IDX 17 13 4 14 1 15 2 16 3 17 85 18 83 19 84 20 86 21 87 22
REMARK SMILES IDX 95 23 88 24 91 25 89 26 90 27 92 28 93 29 94 30 10 31 11 32
REMARK SMILES IDX 12 33 15 34 13 35 14 36 24 37 25 38 26 39 27 40 28 41 29 42
REMARK SMILES IDX 30 43 82 44 31 45 81 46 32 47 33 48 34 49 75 50 35 51 80 52
REMARK SMILES IDX 74 53 76 54 36 55 79 56 73 57 72 58 37 60 63 61 46 62 62 63
REMARK SMILES IDX 47 64 50 65 61 66 77 67 48 68 49 69 60 71 78 72 51 73 38 74
REMARK SMILES IDX 39 75 44 76 40 77 41 78 43 79 45 80 42 81 64 82 65 83 70 84
REMARK SMILES IDX 66 85 67 86 69 87 71 88 68 89 52 90 53 91 58 92 54 93 55 94
REMARK SMILES IDX 57 95 59 96 56 97
REMARK H PARENT 76 59 50 70
REMARK Flexibility Score: inf
ROOT
ATOM      1  O   UNL A   1      33.943  32.666  27.875  1.00  0.00    -0.374 OA
ENDROOT
BRANCH   1   2
ATOM      2  C   UNL A   1      32.886  31.760  27.555  1.00  0.00     0.202 C 
BRANCH   2   3
ATOM      3  C   UNL A   1      33.338  30.324  27.229  1.00  0.00     0.260 C 
BRANCH   3   4
ATOM      4  O   UNL A   1      32.259  29.485  26.759  1.00  0.00    -0.475 OA
BRANCH   4   5
ATOM      5  C   UNL A   1      32.403  28.949  25.522  1.00  0.00     0.231 C 
ATOM      6  C   UNL A   1      31.814  26.728  26.409  1.00  0.00     0.029 C 
ATOM      7  C   UNL A   1      31.840  27.600  25.381  1.00  0.00     0.103 C 
ATOM      8  C   UNL A   1      31.528  27.266  23.965  1.00  0.00     0.267 C 
ATOM      9  O   UNL A   1      30.574  26.619  23.641  1.00  0.00    -0.268 OA
ATOM     10  N   UNL A   1      32.502  27.778  23.110  1.00  0.00    -0.250 N 
ATOM     11  N   UNL A   1      33.000  29.577  24.569  1.00  0.00    -0.156 NA
ATOM     12  C   UNL A   1      33.247  28.905  23.405  1.00  0.00     0.354 C 
ATOM     13  O   UNL A   1      34.140  29.294  22.648  1.00  0.00    -0.245 OA
BRANCH   6  14
ATOM     14  C   UNL A   1      31.561  25.310  26.449  1.00  0.00    -0.003 A 
ATOM     15  C   UNL A   1      29.361  22.346  26.991  1.00  0.00     0.065 C 
ATOM     16  C   UNL A   1      30.402  23.371  26.699  1.00  0.00     0.020 A 
ATOM     17  C   UNL A   1      30.292  24.748  26.746  1.00  0.00     0.031 A 
ATOM     18  N   UNL A   1      31.711  23.064  26.369  1.00  0.00    -0.318 N 
ATOM     19  C   UNL A   1      32.453  24.248  26.348  1.00  0.00     0.027 A 
ATOM     20  C   UNL A   1      33.923  24.243  26.110  1.00  0.00     0.065 C 
BRANCH  18  21
ATOM     21  C   UNL A   1      32.202  21.784  25.981  1.00  0.00     0.046 A 
ATOM     22  C   UNL A   1      33.138  21.117  26.771  1.00  0.00     0.028 A 
ATOM     23  C   UNL A   1      31.863  21.281  24.718  1.00  0.00     0.038 A 
ATOM     24  C   UNL A   1      33.818  20.016  26.255  1.00  0.00     0.023 A 
ATOM     25  C   UNL A   1      32.535  20.156  24.195  1.00  0.00     0.018 A 
ATOM     26  C   UNL A   1      33.541  19.546  24.964  1.00  0.00     0.050 A 
ATOM     27  Cl  UNL A   1      34.516  18.226  24.422  1.00  0.00    -0.084 Cl
BRANCH  25  28
ATOM     28  C   UNL A   1      32.194  19.676  22.828  1.00  0.00     0.073 C 
ATOM     29  O   UNL A   1      32.173  18.531  22.412  1.00  0.00    -0.545 OA
ATOM     30  O   UNL A   1      31.864  20.686  22.001  1.00  0.00    -0.545 OA
ENDBRANCH  25  28
ENDBRANCH  18  21
ENDBRANCH   6  14
BRANCH  10  31
ATOM     31  C   UNL A   1      32.785  27.062  21.882  1.00  0.00     0.206 C 
BRANCH  31  32
ATOM     32  C   UNL A   1      33.163  25.656  22.137  1.00  0.00     0.123 A 
ATOM     33  C   UNL A   1      32.578  24.446  21.833  1.00  0.00     0.047 A 
ATOM     34  O   UNL A   1      34.365  25.458  22.745  1.00  0.00    -0.467 OA
ATOM     35  C   UNL A   1      33.466  23.451  22.299  1.00  0.00     0.042 A 
ATOM     36  C   UNL A   1      34.539  24.116  22.844  1.00  0.00     0.195 A 
ENDBRANCH  31  32
ENDBRANCH  10  31
ENDBRANCH   4   5
ENDBRANCH   3   4
ENDBRANCH   2   3
ENDBRANCH   1   2
BRANCH   1  37
ATOM     37  C   UNL A   1      33.531  33.920  28.440  1.00  0.00     0.202 C 
BRANCH  37  38
ATOM     38  C   UNL A   1      34.179  34.252  29.803  1.00  0.00     0.261 C 
BRANCH  38  39
ATOM     39  O   UNL A   1      34.083  33.193  30.820  1.00  0.00    -0.460 OA
BRANCH  39  40
ATOM     40  C   UNL A   1      35.263  32.801  31.390  1.00  0.00     0.338 C 
ATOM     41  O   UNL A   1      35.697  33.263  32.437  1.00  0.00    -0.246 OA
BRANCH  40  42
ATOM     42  C   UNL A   1      36.010  31.685  30.681  1.00  0.00     0.060 A 
ATOM     43  C   UNL A   1      36.233  30.522  31.403  1.00  0.00     0.016 A 
ATOM     44  C   UNL A   1      36.712  31.789  29.461  1.00  0.00     0.016 A 
ATOM     45  C   UNL A   1      37.115  29.516  30.921  1.00  0.00     0.010 A 
ATOM     46  C   UNL A   1      37.687  30.788  29.018  1.00  0.00     0.010 A 
ATOM     47  C   UNL A   1      37.956  29.625  29.757  1.00  0.00    -0.014 A 
BRANCH  47  48
ATOM     48  C   UNL A   1      39.254  28.680  29.725  1.00  0.00     0.031 A 
ATOM     49  C   UNL A   1      39.991  29.030  30.976  1.00  0.00     0.074 A 
ATOM     50  C   UNL A   1      39.955  27.761  28.948  1.00  0.00     0.049 A 
ATOM     51  N   UNL A   1      40.339  30.261  31.230  1.00  0.00    -0.248 NA
ATOM     52  C   UNL A   1      40.024  28.128  32.132  1.00  0.00     0.031 C 
ATOM     53  C   UNL A   1      39.639  27.272  27.598  1.00  0.00     0.029 A 
ATOM     54  N   UNL A   1      41.157  27.022  29.200  1.00  0.00    -0.354 N 
ATOM     55  C   UNL A   1      40.906  30.236  32.479  1.00  0.00     0.074 A 
ATOM     56  C   UNL A   1      40.478  28.974  33.061  1.00  0.00     0.031 C 
ATOM     57  C   UNL A   1      40.500  26.285  27.205  1.00  0.00     0.029 A 
ATOM     58  C   UNL A   1      41.527  26.045  28.217  1.00  0.00     0.049 A 
ATOM     59  H   UNL A   1      41.700  27.176  30.006  1.00  0.00     0.167 HD
ATOM     60  C   UNL A   1      42.090  30.887  32.640  1.00  0.00     0.037 A 
ATOM     61  C   UNL A   1      42.596  25.157  28.159  1.00  0.00     0.037 A 
ATOM     62  C   UNL A   1      43.189  29.980  32.810  1.00  0.00     0.049 A 
ATOM     63  C   UNL A   1      43.646  25.624  29.076  1.00  0.00     0.074 A 
ATOM     64  C   UNL A   1      43.378  28.833  33.556  1.00  0.00     0.029 A 
ATOM     65  N   UNL A   1      44.107  29.934  31.784  1.00  0.00    -0.354 N 
ATOM     66  N   UNL A   1      44.460  26.577  28.744  1.00  0.00    -0.248 NA
ATOM     67  C   UNL A   1      43.943  24.965  30.346  1.00  0.00     0.031 C 
ATOM     68  C   UNL A   1      43.995  27.924  32.663  1.00  0.00     0.029 A 
ATOM     69  C   UNL A   1      44.436  28.619  31.543  1.00  0.00     0.049 A 
ATOM     70  H   UNL A   1      44.468  30.713  31.303  1.00  0.00     0.167 HD
ATOM     71  C   UNL A   1      44.997  26.957  29.930  1.00  0.00     0.074 A 
ATOM     72  C   UNL A   1      44.888  25.797  30.790  1.00  0.00     0.031 C 
ATOM     73  C   UNL A   1      44.913  28.274  30.227  1.00  0.00     0.037 A 
BRANCH  60  74
ATOM     74  C   UNL A   1      42.188  32.199  31.921  1.00  0.00     0.057 A 
ATOM     75  C   UNL A   1      42.108  33.385  32.653  1.00  0.00     0.134 A 
ATOM     76  C   UNL A   1      42.239  32.312  30.521  1.00  0.00     0.134 A 
ATOM     77  F   UNL A   1      42.120  33.356  33.995  1.00  0.00    -0.206 F 
ATOM     78  C   UNL A   1      42.004  34.626  32.018  1.00  0.00     0.040 A 
ATOM     79  C   UNL A   1      42.080  33.537  29.874  1.00  0.00     0.040 A 
ATOM     80  F   UNL A   1      42.448  31.233  29.750  1.00  0.00    -0.206 F 
ATOM     81  C   UNL A   1      41.950  34.700  30.626  1.00  0.00     0.006 A 
ENDBRANCH  60  74
BRANCH  61  82
ATOM     82  C   UNL A   1      43.137  23.949  27.374  1.00  0.00     0.057 A 
ATOM     83  C   UNL A   1      42.742  22.612  27.707  1.00  0.00     0.134 A 
ATOM     84  C   UNL A   1      43.657  24.069  26.082  1.00  0.00     0.134 A 
ATOM     85  F   UNL A   1      42.268  22.304  28.922  1.00  0.00    -0.206 F 
ATOM     86  C   UNL A   1      42.743  21.535  26.804  1.00  0.00     0.040 A 
ATOM     87  C   UNL A   1      43.704  22.978  25.175  1.00  0.00     0.040 A 
ATOM     88  F   UNL A   1      44.048  25.265  25.622  1.00  0.00    -0.206 F 
ATOM     89  C   UNL A   1      43.212  21.719  25.518  1.00  0.00     0.006 A 
ENDBRANCH  61  82
BRANCH  73  90
ATOM     90  C   UNL A   1      45.103  29.250  29.073  1.00  0.00     0.057 A 
ATOM     91  C   UNL A   1      44.180  29.542  28.043  1.00  0.00     0.134 A 
ATOM     92  C   UNL A   1      46.343  29.890  28.964  1.00  0.00     0.134 A 
ATOM     93  F   UNL A   1      42.909  29.116  28.073  1.00  0.00    -0.206 F 
ATOM     94  C   UNL A   1      44.517  30.324  26.930  1.00  0.00     0.040 A 
ATOM     95  C   UNL A   1      46.670  30.726  27.890  1.00  0.00     0.040 A 
ATOM     96  F   UNL A   1      47.268  29.727  29.922  1.00  0.00    -0.206 F 
ATOM     97  C   UNL A   1      45.767  30.920  26.850  1.00  0.00     0.006 A 
ENDBRANCH  73  90
ENDBRANCH  47  48
ENDBRANCH  40  42
ENDBRANCH  39  40
ENDBRANCH  38  39
ENDBRANCH  37  38
ENDBRANCH   1  37
TORSDOF 18
ENDMDL
MODEL 2
REMARK VINA RESULT:     -10.9      5.154     10.069
REMARK SMILES Cc1cc(/C=C2\C(=O)N(Cc3ccco3)C(=O)N=C2OCCOCCOC(=O)c2ccc(-c3c4nc(c(-c5c(F)cccc5F)c5ccc([nH]5)c(-c5c(F)cccc5F)c5nc(c(-c6c(F)cccc6F)c6ccc3[nH]6)C=C5)C=C4)cc2)c(C)n1-c1ccc(Cl)c(C(=O)[O-])c1
REMARK SMILES IDX 23 1 22 2 21 3 20 4 19 5 5 6 6 7 7 8 8 9 9 10 18 11 16 12
REMARK SMILES IDX 17 13 4 14 1 15 2 16 3 17 85 18 83 19 84 20 86 21 87 22
REMARK SMILES IDX 95 23 88 24 91 25 89 26 90 27 92 28 93 29 94 30 10 31 11 32
REMARK SMILES IDX 12 33 15 34 13 35 14 36 24 37 25 38 26 39 27 40 28 41 29 42
REMARK SMILES IDX 30 43 82 44 31 45 81 46 32 47 33 48 34 49 75 50 35 51 80 52
REMARK SMILES IDX 74 53 76 54 36 55 79 56 73 57 72 58 37 60 63 61 46 62 62 63
REMARK SMILES IDX 47 64 50 65 61 66 77 67 48 68 49 69 60 71 78 72 51 73 38 74
REMARK SMILES IDX 39 75 44 76 40 77 41 78 43 79 45 80 42 81 64 82 65 83 70 84
REMARK SMILES IDX 66 85 67 86 69 87 71 88 68 89 52 90 53 91 58 92 54 93 55 94
REMARK SMILES IDX 57 95 59 96 56 97
REMARK H PARENT 76 59 50 70
REMARK Flexibility Score: inf
ROOT
ATOM      1  O   UNL A   1      33.914  32.208  27.575  1.00  0.00    -0.374 OA
ENDROOT
BRANCH   1   2
ATOM      2  C   UNL A   1      34.674  30.998  27.562  1.00  0.00     0.202 C 
BRANCH   2   3
ATOM      3  C   UNL A   1      35.731  30.882  28.677  1.00  0.00     0.260 C 
BRANCH   3   4
ATOM      4  O   UNL A   1      35.896  29.529  29.160  1.00  0.00    -0.475 OA
BRANCH   4   5
ATOM      5  C   UNL A   1      36.876  29.330  30.077  1.00  0.00     0.231 C 
ATOM      6  C   UNL A   1      38.371  28.498  28.305  1.00  0.00     0.029 C 
ATOM      7  C   UNL A   1      38.206  29.107  29.496  1.00  0.00     0.103 C 
ATOM      8  C   UNL A   1      39.298  29.423  30.456  1.00  0.00     0.267 C 
ATOM      9  O   UNL A   1      40.333  29.928  30.126  1.00  0.00    -0.268 OA
ATOM     10  N   UNL A   1      38.953  29.026  31.746  1.00  0.00    -0.250 N 
ATOM     11  N   UNL A   1      36.638  29.322  31.342  1.00  0.00    -0.156 NA
ATOM     12  C   UNL A   1      37.645  28.953  32.188  1.00  0.00     0.354 C 
ATOM     13  O   UNL A   1      37.377  28.542  33.320  1.00  0.00    -0.245 OA
BRANCH   6  14
ATOM     14  C   UNL A   1      39.543  27.951  27.669  1.00  0.00    -0.003 A 
ATOM     15  C   UNL A   1      42.443  28.142  25.330  1.00  0.00     0.065 C 
ATOM     16  C   UNL A   1      41.378  27.856  26.332  1.00  0.00     0.020 A 
ATOM     17  C   UNL A   1      40.342  28.672  26.745  1.00  0.00     0.031 A 
ATOM     18  N   UNL A   1      41.246  26.644  26.987  1.00  0.00    -0.318 N 
ATOM     19  C   UNL A   1      40.046  26.655  27.704  1.00  0.00     0.027 A 
ATOM     20  C   UNL A   1      39.571  25.456  28.448  1.00  0.00     0.065 C 
BRANCH  18  21
ATOM     21  C   UNL A   1      42.222  25.607  27.042  1.00  0.00     0.046 A 
ATOM     22  C   UNL A   1      43.310  25.705  27.909  1.00  0.00     0.028 A 
ATOM     23  C   UNL A   1      42.168  24.574  26.098  1.00  0.00     0.038 A 
ATOM     24  C   UNL A   1      44.394  24.844  27.759  1.00  0.00     0.023 A 
ATOM     25  C   UNL A   1      43.255  23.685  25.951  1.00  0.00     0.018 A 
ATOM     26  C   UNL A   1      44.385  23.850  26.770  1.00  0.00     0.050 A 
ATOM     27  Cl  UNL A   1      45.826  22.907  26.641  1.00  0.00    -0.084 Cl
BRANCH  25  28
ATOM     28  C   UNL A   1      43.194  22.630  24.902  1.00  0.00     0.073 C 
ATOM     29  O   UNL A   1      43.624  22.671  23.764  1.00  0.00    -0.545 OA
ATOM     30  O   UNL A   1      42.584  21.512  25.339  1.00  0.00    -0.545 OA
ENDBRANCH  25  28
ENDBRANCH  18  21
ENDBRANCH   6  14
BRANCH  10  31
ATOM     31  C   UNL A   1      40.013  28.613  32.645  1.00  0.00     0.206 C 
BRANCH  31  32
ATOM     32  C   UNL A   1      40.356  29.671  33.619  1.00  0.00     0.123 A 
ATOM     33  C   UNL A   1      40.841  30.954  33.492  1.00  0.00     0.047 A 
ATOM     34  O   UNL A   1      40.101  29.391  34.926  1.00  0.00    -0.467 OA
ATOM     35  C   UNL A   1      40.903  31.482  34.802  1.00  0.00     0.042 A 
ATOM     36  C   UNL A   1      40.441  30.494  35.638  1.00  0.00     0.195 A 
ENDBRANCH  31  32
ENDBRANCH  10  31
ENDBRANCH   4   5
ENDBRANCH   3   4
ENDBRANCH   2   3
ENDBRANCH   1   2
BRANCH   1  37
ATOM     37  C   UNL A   1      34.593  33.356  28.105  1.00  0.00     0.202 C 
BRANCH  37  38
ATOM     38  C   UNL A   1      33.775  34.164  29.139  1.00  0.00     0.261 C 
BRANCH  38  39
ATOM     39  O   UNL A   1      34.503  34.537  30.362  1.00  0.00    -0.460 OA
BRANCH  39  40
ATOM     40  C   UNL A   1      35.075  33.507  31.057  1.00  0.00     0.338 C 
ATOM     41  O   UNL A   1      34.434  32.621  31.606  1.00  0.00    -0.246 OA
BRANCH  40  42
ATOM     42  C   UNL A   1      36.594  33.470  31.067  1.00  0.00     0.060 A 
ATOM     43  C   UNL A   1      37.203  33.116  32.261  1.00  0.00     0.016 A 
ATOM     44  C   UNL A   1      37.451  33.987  30.074  1.00  0.00     0.016 A 
ATOM     45  C   UNL A   1      38.605  33.274  32.445  1.00  0.00     0.010 A 
ATOM     46  C   UNL A   1      38.879  34.229  30.306  1.00  0.00     0.010 A 
ATOM     47  C   UNL A   1      39.505  33.916  31.523  1.00  0.00    -0.014 A 
BRANCH  47  48
ATOM     48  C   UNL A   1      40.863  34.504  32.146  1.00  0.00     0.031 A 
ATOM     49  C   UNL A   1      41.877  34.301  31.068  1.00  0.00     0.074 A 
ATOM     50  C   UNL A   1      41.433  35.026  33.305  1.00  0.00     0.049 A 
ATOM     51  N   UNL A   1      42.092  33.118  30.560  1.00  0.00    -0.248 NA
ATOM     52  C   UNL A   1      42.391  35.419  30.271  1.00  0.00     0.031 C 
ATOM     53  C   UNL A   1      40.808  35.240  34.618  1.00  0.00     0.029 A 
ATOM     54  N   UNL A   1      42.754  35.508  33.582  1.00  0.00    -0.354 N 
ATOM     55  C   UNL A   1      43.002  33.309  29.551  1.00  0.00     0.074 A 
ATOM     56  C   UNL A   1      42.967  34.736  29.277  1.00  0.00     0.031 C 
ATOM     57  C   UNL A   1      41.653  35.881  35.480  1.00  0.00     0.029 A 
ATOM     58  C   UNL A   1      42.960  36.113  34.867  1.00  0.00     0.049 A 
ATOM     59  H   UNL A   1      43.482  35.429  32.925  1.00  0.00     0.167 HD
ATOM     60  C   UNL A   1      44.065  32.462  29.503  1.00  0.00     0.037 A 
ATOM     61  C   UNL A   1      44.086  36.693  35.441  1.00  0.00     0.037 A 
ATOM     62  C   UNL A   1      45.291  33.106  29.879  1.00  0.00     0.049 A 
ATOM     63  C   UNL A   1      45.277  36.229  34.714  1.00  0.00     0.074 A 
ATOM     64  C   UNL A   1      45.868  34.322  29.571  1.00  0.00     0.029 A 
ATOM     65  N   UNL A   1      45.857  32.696  31.067  1.00  0.00    -0.354 N 
ATOM     66  N   UNL A   1      45.799  35.064  34.943  1.00  0.00    -0.248 NA
ATOM     67  C   UNL A   1      46.037  37.084  33.806  1.00  0.00     0.031 C 
ATOM     68  C   UNL A   1      46.322  34.828  30.812  1.00  0.00     0.029 A 
ATOM     69  C   UNL A   1      46.296  33.805  31.753  1.00  0.00     0.049 A 
ATOM     70  H   UNL A   1      45.934  31.764  31.373  1.00  0.00     0.167 HD
ATOM     71  C   UNL A   1      46.600  34.864  33.867  1.00  0.00     0.074 A 
ATOM     72  C   UNL A   1      46.932  36.187  33.383  1.00  0.00     0.031 C 
ATOM     73  C   UNL A   1      46.407  33.710  33.188  1.00  0.00     0.037 A 
BRANCH  60  74
ATOM     74  C   UNL A   1      43.742  31.030  29.809  1.00  0.00     0.057 A 
ATOM     75  C   UNL A   1      43.663  30.617  31.140  1.00  0.00     0.134 A 
ATOM     76  C   UNL A   1      43.628  30.034  28.822  1.00  0.00     0.134 A 
ATOM     77  F   UNL A   1      43.700  31.520  32.133  1.00  0.00    -0.206 F 
ATOM     78  C   UNL A   1      43.554  29.266  31.478  1.00  0.00     0.040 A 
ATOM     79  C   UNL A   1      43.576  28.679  29.144  1.00  0.00     0.040 A 
ATOM     80  F   UNL A   1      43.563  30.360  27.521  1.00  0.00    -0.206 F 
ATOM     81  C   UNL A   1      43.550  28.291  30.480  1.00  0.00     0.006 A 
ENDBRANCH  60  74
BRANCH  61  82
ATOM     82  C   UNL A   1      44.547  37.523  36.652  1.00  0.00     0.057 A 
ATOM     83  C   UNL A   1      44.526  38.956  36.619  1.00  0.00     0.134 A 
ATOM     84  C   UNL A   1      44.587  36.998  37.947  1.00  0.00     0.134 A 
ATOM     85  F   UNL A   1      44.537  39.630  35.460  1.00  0.00    -0.206 F 
ATOM     86  C   UNL A   1      44.424  39.776  37.756  1.00  0.00     0.040 A 
ATOM     87  C   UNL A   1      44.529  37.818  39.103  1.00  0.00     0.040 A 
ATOM     88  F   UNL A   1      44.588  35.672  38.136  1.00  0.00    -0.206 F 
ATOM     89  C   UNL A   1      44.408  39.205  39.013  1.00  0.00     0.006 A 
ENDBRANCH  61  82
BRANCH  73  90
ATOM     90  C   UNL A   1      46.091  32.471  34.016  1.00  0.00     0.057 A 
ATOM     91  C   UNL A   1      44.883  32.181  34.690  1.00  0.00     0.134 A 
ATOM     92  C   UNL A   1      47.117  31.536  34.198  1.00  0.00     0.134 A 
ATOM     93  F   UNL A   1      43.768  32.904  34.512  1.00  0.00    -0.206 F 
ATOM     94  C   UNL A   1      44.753  31.098  35.569  1.00  0.00     0.040 A 
ATOM     95  C   UNL A   1      46.978  30.414  35.024  1.00  0.00     0.040 A 
ATOM     96  F   UNL A   1      48.284  31.687  33.554  1.00  0.00    -0.206 F 
ATOM     97  C   UNL A   1      45.804  30.208  35.739  1.00  0.00     0.006 A 
ENDBRANCH  73  90
ENDBRANCH  47  48
ENDBRANCH  40  42
ENDBRANCH  39  40
ENDBRANCH  38  39
ENDBRANCH  37  38
ENDBRANCH   1  37
TORSDOF 18
ENDMDL
MODEL 3
REMARK VINA RESULT:     -10.3      8.167     15.205
REMARK SMILES Cc1cc(/C=C2\C(=O)N(Cc3ccco3)C(=O)N=C2OCCOCCOC(=O)c2ccc(-c3c4nc(c(-c5c(F)cccc5F)c5ccc([nH]5)c(-c5c(F)cccc5F)c5nc(c(-c6c(F)cccc6F)c6ccc3[nH]6)C=C5)C=C4)cc2)c(C)n1-c1ccc(Cl)c(C(=O)[O-])c1
REMARK SMILES IDX 23 1 22 2 21 3 20 4 19 5 5 6 6 7 7 8 8 9 9 10 18 11 16 12
REMARK SMILES IDX 17 13 4 14 1 15 2 16 3 17 85 18 83 19 84 20 86 21 87 22
REMARK SMILES IDX 95 23 88 24 91 25 89 26 90 27 92 28 93 29 94 30 10 31 11 32
REMARK SMILES IDX 12 33 15 34 13 35 14 36 24 37 25 38 26 39 27 40 28 41 29 42
REMARK SMILES IDX 30 43 82 44 31 45 81 46 32 47 33 48 34 49 75 50 35 51 80 52
REMARK SMILES IDX 74 53 76 54 36 55 79 56 73 57 72 58 37 60 63 61 46 62 62 63
REMARK SMILES IDX 47 64 50 65 61 66 77 67 48 68 49 69 60 71 78 72 51 73 38 74
REMARK SMILES IDX 39 75 44 76 40 77 41 78 43 79 45 80 42 81 64 82 65 83 70 84
REMARK SMILES IDX 66 85 67 86 69 87 71 88 68 89 52 90 53 91 58 92 54 93 55 94
REMARK SMILES IDX 57 95 59 96 56 97
REMARK H PARENT 76 59 50 70
REMARK Flexibility Score: inf
ROOT
ATOM      1  O   UNL A   1      48.179  38.431  34.966  1.00  0.00    -0.374 OA
ENDROOT
BRANCH   1   2
ATOM      2  C   UNL A   1      46.802  38.054  35.026  1.00  0.00     0.202 C 
BRANCH   2   3
ATOM      3  C   UNL A   1      45.836  39.184  35.433  1.00  0.00     0.260 C 
BRANCH   3   4
ATOM      4  O   UNL A   1      44.571  39.124  34.737  1.00  0.00    -0.475 OA
BRANCH   4   5
ATOM      5  C   UNL A   1      44.124  40.282  34.192  1.00  0.00     0.231 C 
ATOM      6  C   UNL A   1      44.271  39.286  31.944  1.00  0.00     0.029 C 
ATOM      7  C   UNL A   1      43.696  40.162  32.792  1.00  0.00     0.103 C 
ATOM      8  C   UNL A   1      42.749  41.240  32.400  1.00  0.00     0.267 C 
ATOM      9  O   UNL A   1      41.826  41.062  31.657  1.00  0.00    -0.268 OA
ATOM     10  N   UNL A   1      43.108  42.452  32.985  1.00  0.00    -0.250 N 
ATOM     11  N   UNL A   1      44.101  41.386  34.854  1.00  0.00    -0.156 NA
ATOM     12  C   UNL A   1      43.792  42.537  34.184  1.00  0.00     0.354 C 
ATOM     13  O   UNL A   1      44.143  43.628  34.641  1.00  0.00    -0.245 OA
BRANCH   6  14
ATOM     14  C   UNL A   1      44.206  39.167  30.509  1.00  0.00    -0.003 A 
ATOM     15  C   UNL A   1      42.743  37.817  27.354  1.00  0.00     0.065 C 
ATOM     16  C   UNL A   1      43.460  38.494  28.470  1.00  0.00     0.020 A 
ATOM     17  C   UNL A   1      43.236  38.386  29.830  1.00  0.00     0.031 A 
ATOM     18  N   UNL A   1      44.545  39.335  28.288  1.00  0.00    -0.318 N 
ATOM     19  C   UNL A   1      45.085  39.641  29.541  1.00  0.00     0.027 A 
ATOM     20  C   UNL A   1      46.322  40.459  29.678  1.00  0.00     0.065 C 
BRANCH  18  21
ATOM     21  C   UNL A   1      44.966  39.909  27.054  1.00  0.00     0.046 A 
ATOM     22  C   UNL A   1      46.025  39.350  26.339  1.00  0.00     0.028 A 
ATOM     23  C   UNL A   1      44.417  41.134  26.653  1.00  0.00     0.038 A 
ATOM     24  C   UNL A   1      46.610  40.066  25.297  1.00  0.00     0.023 A 
ATOM     25  C   UNL A   1      44.993  41.858  25.587  1.00  0.00     0.018 A 
ATOM     26  C   UNL A   1      46.117  41.327  24.933  1.00  0.00     0.050 A 
ATOM     27  Cl  UNL A   1      46.988  42.138  23.680  1.00  0.00    -0.084 Cl
BRANCH  25  28
ATOM     28  C   UNL A   1      44.424  43.184  25.218  1.00  0.00     0.073 C 
ATOM     29  O   UNL A   1      43.543  43.429  24.414  1.00  0.00    -0.545 OA
ATOM     30  O   UNL A   1      44.993  44.192  25.905  1.00  0.00    -0.545 OA
ENDBRANCH  25  28
ENDBRANCH  18  21
ENDBRANCH   6  14
BRANCH  10  31
ATOM     31  C   UNL A   1      42.803  43.678  32.273  1.00  0.00     0.206 C 
BRANCH  31  32
ATOM     32  C   UNL A   1      43.800  43.970  31.223  1.00  0.00     0.123 A 
ATOM     33  C   UNL A   1      45.016  43.415  30.888  1.00  0.00     0.047 A 
ATOM     34  O   UNL A   1      43.469  44.948  30.335  1.00  0.00    -0.467 OA
ATOM     35  C   UNL A   1      45.462  44.106  29.739  1.00  0.00     0.042 A 
ATOM     36  C   UNL A   1      44.485  45.027  29.440  1.00  0.00     0.195 A 
ENDBRANCH  31  32
ENDBRANCH  10  31
ENDBRANCH   4   5
ENDBRANCH   3   4
ENDBRANCH   2   3
ENDBRANCH   1   2
BRANCH   1  37
ATOM     37  C   UNL A   1      48.883  38.006  33.790  1.00  0.00     0.202 C 
BRANCH  37  38
ATOM     38  C   UNL A   1      48.007  37.901  32.520  1.00  0.00     0.261 C 
BRANCH  38  39
ATOM     39  O   UNL A   1      48.143  36.646  31.765  1.00  0.00    -0.460 OA
BRANCH  39  40
ATOM     40  C   UNL A   1      47.387  35.596  32.208  1.00  0.00     0.338 C 
ATOM     41  O   UNL A   1      47.788  34.761  33.009  1.00  0.00    -0.246 OA
BRANCH  40  42
ATOM     42  C   UNL A   1      45.957  35.538  31.698  1.00  0.00     0.060 A 
ATOM     43  C   UNL A   1      44.955  35.837  32.609  1.00  0.00     0.016 A 
ATOM     44  C   UNL A   1      45.525  34.982  30.476  1.00  0.00     0.016 A 
ATOM     45  C   UNL A   1      43.588  35.589  32.303  1.00  0.00     0.010 A 
ATOM     46  C   UNL A   1      44.123  34.648  30.207  1.00  0.00     0.010 A 
ATOM     47  C   UNL A   1      43.100  34.905  31.134  1.00  0.00    -0.014 A 
BRANCH  47  48
ATOM     48  C   UNL A   1      41.650  34.225  31.260  1.00  0.00     0.031 A 
ATOM     49  C   UNL A   1      41.808  33.230  32.363  1.00  0.00     0.074 A 
ATOM     50  C   UNL A   1      40.384  34.165  30.682  1.00  0.00     0.049 A 
ATOM     51  N   UNL A   1      42.731  32.310  32.313  1.00  0.00    -0.248 NA
ATOM     52  C   UNL A   1      41.228  33.451  33.692  1.00  0.00     0.031 C 
ATOM     53  C   UNL A   1      39.884  34.874  29.495  1.00  0.00     0.029 A 
ATOM     54  N   UNL A   1      39.208  33.429  31.041  1.00  0.00    -0.354 N 
ATOM     55  C   UNL A   1      42.652  31.641  33.508  1.00  0.00     0.074 A 
ATOM     56  C   UNL A   1      41.890  32.518  34.381  1.00  0.00     0.031 C 
ATOM     57  C   UNL A   1      38.550  34.648  29.300  1.00  0.00     0.029 A 
ATOM     58  C   UNL A   1      38.018  33.715  30.291  1.00  0.00     0.049 A 
ATOM     59  H   UNL A   1      39.215  32.763  31.765  1.00  0.00     0.167 HD
ATOM     60  C   UNL A   1      42.653  30.281  33.462  1.00  0.00     0.037 A 
ATOM     61  C   UNL A   1      36.726  33.212  30.390  1.00  0.00     0.037 A 
ATOM     62  C   UNL A   1      41.370  29.726  33.785  1.00  0.00     0.049 A 
ATOM     63  C   UNL A   1      36.770  31.941  31.127  1.00  0.00     0.074 A 
ATOM     64  C   UNL A   1      40.431  29.988  34.763  1.00  0.00     0.029 A 
ATOM     65  N   UNL A   1      40.697  29.104  32.755  1.00  0.00    -0.354 N 
ATOM     66  N   UNL A   1      37.123  30.835  30.550  1.00  0.00    -0.248 NA
ATOM     67  C   UNL A   1      36.287  31.801  32.498  1.00  0.00     0.031 C 
ATOM     68  C   UNL A   1      39.194  30.014  34.075  1.00  0.00     0.029 A 
ATOM     69  C   UNL A   1      39.372  29.473  32.806  1.00  0.00     0.049 A 
ATOM     70  H   UNL A   1      41.098  28.497  32.093  1.00  0.00     0.167 HD
ATOM     71  C   UNL A   1      37.393  30.010  31.591  1.00  0.00     0.074 A 
ATOM     72  C   UNL A   1      36.610  30.520  32.698  1.00  0.00     0.031 C 
ATOM     73  C   UNL A   1      38.609  29.419  31.583  1.00  0.00     0.037 A 
BRANCH  60  74
ATOM     74  C   UNL A   1      43.596  29.687  32.459  1.00  0.00     0.057 A 
ATOM     75  C   UNL A   1      44.777  29.088  32.903  1.00  0.00     0.134 A 
ATOM     76  C   UNL A   1      43.420  29.801  31.069  1.00  0.00     0.134 A 
ATOM     77  F   UNL A   1      44.983  28.888  34.214  1.00  0.00    -0.206 F 
ATOM     78  C   UNL A   1      45.772  28.691  32.008  1.00  0.00     0.040 A 
ATOM     79  C   UNL A   1      44.428  29.462  30.167  1.00  0.00     0.040 A 
ATOM     80  F   UNL A   1      42.260  30.244  30.556  1.00  0.00    -0.206 F 
ATOM     81  C   UNL A   1      45.616  28.913  30.639  1.00  0.00     0.006 A 
ENDBRANCH  60  74
BRANCH  61  82
ATOM     82  C   UNL A   1      35.292  33.429  29.877  1.00  0.00     0.057 A 
ATOM     83  C   UNL A   1      34.401  34.342  30.531  1.00  0.00     0.134 A 
ATOM     84  C   UNL A   1      34.912  33.125  28.566  1.00  0.00     0.134 A 
ATOM     85  F   UNL A   1      34.583  34.705  31.808  1.00  0.00    -0.206 F 
ATOM     86  C   UNL A   1      33.321  34.986  29.903  1.00  0.00     0.040 A 
ATOM     87  C   UNL A   1      33.797  33.736  27.935  1.00  0.00     0.040 A 
ATOM     88  F   UNL A   1      35.661  32.302  27.821  1.00  0.00    -0.206 F 
ATOM     89  C   UNL A   1      33.022  34.697  28.586  1.00  0.00     0.006 A 
ENDBRANCH  61  82
BRANCH  73  90
ATOM     90  C   UNL A   1      39.145  28.970  30.230  1.00  0.00     0.057 A 
ATOM     91  C   UNL A   1      39.674  29.789  29.207  1.00  0.00     0.134 A 
ATOM     92  C   UNL A   1      39.050  27.608  29.917  1.00  0.00     0.134 A 
ATOM     93  F   UNL A   1      39.952  31.087  29.397  1.00  0.00    -0.206 F 
ATOM     94  C   UNL A   1      39.977  29.298  27.931  1.00  0.00     0.040 A 
ATOM     95  C   UNL A   1      39.411  27.095  28.665  1.00  0.00     0.040 A 
ATOM     96  F   UNL A   1      38.616  26.736  30.839  1.00  0.00    -0.206 F 
ATOM     97  C   UNL A   1      39.846  27.945  27.655  1.00  0.00     0.006 A 
ENDBRANCH  73  90
ENDBRANCH  47  48
ENDBRANCH  40  42
ENDBRANCH  39  40
ENDBRANCH  38  39
ENDBRANCH  37  38
ENDBRANCH   1  37
TORSDOF 18
ENDMDL
