MODEL 1
REMARK VINA RESULT:     -12.2      0.000      0.000
REMARK SMILES CCn1nc(-c2cccnc2)c2cc(C(=O)OCCOCCOC(=O)c3ccc(-c4c5nc(c(-c6c(F)cccc6F)c6ccc([nH]6)c(-c6c(F)cccc6F)c6nc(c(-c7c(F)cccc7F)c7ccc4[nH]7)C=C6)C=C5)cc3)sc21
REMARK SMILES IDX 21 1 20 2 19 3 18 4 17 5 15 6 16 7 14 8 3 9 4 10 81 11 5 12
REMARK SMILES IDX 12 13 80 14 13 15 2 16 1 17 6 18 7 19 11 20 8 21 10 22 9 23
REMARK SMILES IDX 22 24 23 25 24 26 25 27 26 28 27 29 79 30 28 31 78 32 29 33
REMARK SMILES IDX 30 34 31 35 72 36 32 37 77 38 71 39 73 40 33 41 76 42 70 43
REMARK SMILES IDX 69 44 34 46 60 47 43 48 59 49 44 50 47 51 58 52 74 53 45 54
REMARK SMILES IDX 46 55 57 57 75 58 48 59 35 60 36 61 41 62 37 63 38 64 40 65
REMARK SMILES IDX 42 66 39 67 61 68 62 69 67 70 63 71 64 72 66 73 68 74 65 75
REMARK SMILES IDX 49 76 50 77 55 78 51 79 52 80 54 81 56 82 53 83
REMARK H PARENT 73 45 47 56
REMARK Flexibility Score: inf
ROOT
ATOM      1  C   UNL A   1      42.642  19.039  26.521  1.00  0.00     0.202 C 
ENDROOT
BRANCH   1   2
ATOM      2  O   UNL A   1      41.919  20.223  26.204  1.00  0.00    -0.374 OA
BRANCH   2   3
ATOM      3  C   UNL A   1      40.493  20.175  26.177  1.00  0.00     0.202 C 
BRANCH   3   4
ATOM      4  C   UNL A   1      39.765  21.520  26.126  1.00  0.00     0.261 C 
BRANCH   4   5
ATOM      5  O   UNL A   1      38.551  21.438  25.368  1.00  0.00    -0.459 OA
BRANCH   5   6
ATOM      6  C   UNL A   1      37.618  22.411  25.605  1.00  0.00     0.348 C 
ATOM      7  O   UNL A   1      37.871  23.544  25.976  1.00  0.00    -0.245 OA
BRANCH   6   8
ATOM      8  C   UNL A   1      36.296  21.944  25.221  1.00  0.00     0.115 A 
ATOM      9  N   UNL A   1      32.887  21.587  23.725  1.00  0.00    -0.254 N 
ATOM     10  N   UNL A   1      32.515  20.276  23.795  1.00  0.00    -0.171 NA
ATOM     11  C   UNL A   1      34.080  21.793  24.322  1.00  0.00     0.122 A 
ATOM     12  C   UNL A   1      33.531  19.659  24.456  1.00  0.00     0.103 A 
ATOM     13  C   UNL A   1      34.512  20.609  24.757  1.00  0.00     0.040 A 
ATOM     14  S   UNL A   1      35.125  23.054  24.552  1.00  0.00    -0.109 S 
ATOM     15  C   UNL A   1      35.795  20.635  25.301  1.00  0.00     0.040 A 
BRANCH   9  16
ATOM     16  C   UNL A   1      32.162  22.581  22.962  1.00  0.00     0.142 C 
ATOM     17  C   UNL A   1      31.337  23.577  23.752  1.00  0.00     0.029 C 
ENDBRANCH   9  16
BRANCH  12  18
ATOM     18  C   UNL A   1      33.516  18.226  24.692  1.00  0.00     0.021 A 
ATOM     19  C   UNL A   1      32.512  17.638  25.463  1.00  0.00     0.013 A 
ATOM     20  C   UNL A   1      34.506  17.392  24.184  1.00  0.00     0.121 A 
ATOM     21  C   UNL A   1      32.527  16.261  25.688  1.00  0.00     0.021 A 
ATOM     22  N   UNL A   1      34.547  16.049  24.384  1.00  0.00    -0.264 NA
ATOM     23  C   UNL A   1      33.557  15.518  25.135  1.00  0.00     0.111 A 
ENDBRANCH  12  18
ENDBRANCH   6   8
ENDBRANCH   5   6
ENDBRANCH   4   5
ENDBRANCH   3   4
ENDBRANCH   2   3
ENDBRANCH   1   2
BRANCH   1  24
ATOM     24  C   UNL A   1      43.659  18.541  25.508  1.00  0.00     0.261 C 
BRANCH  24  25
ATOM     25  O   UNL A   1      43.691  19.346  24.337  1.00  0.00    -0.460 OA
BRANCH  25  26
ATOM     26  C   UNL A   1      44.922  19.807  24.022  1.00  0.00     0.338 C 
ATOM     27  O   UNL A   1      45.865  19.166  23.592  1.00  0.00    -0.246 OA
BRANCH  26  28
ATOM     28  C   UNL A   1      45.019  21.198  24.474  1.00  0.00     0.060 A 
ATOM     29  C   UNL A   1      45.829  21.445  25.583  1.00  0.00     0.016 A 
ATOM     30  C   UNL A   1      44.129  22.166  23.977  1.00  0.00     0.016 A 
ATOM     31  C   UNL A   1      45.617  22.600  26.304  1.00  0.00     0.010 A 
ATOM     32  C   UNL A   1      43.913  23.313  24.703  1.00  0.00     0.010 A 
ATOM     33  C   UNL A   1      44.607  23.482  25.897  1.00  0.00    -0.014 A 
BRANCH  33  34
ATOM     34  C   UNL A   1      44.410  24.693  26.666  1.00  0.00     0.031 A 
ATOM     35  C   UNL A   1      45.561  25.612  26.529  1.00  0.00     0.074 A 
ATOM     36  C   UNL A   1      43.275  24.966  27.341  1.00  0.00     0.049 A 
ATOM     37  N   UNL A   1      46.439  25.895  27.430  1.00  0.00    -0.248 NA
ATOM     38  C   UNL A   1      45.902  26.103  25.183  1.00  0.00     0.031 C 
ATOM     39  C   UNL A   1      42.012  24.223  27.319  1.00  0.00     0.029 A 
ATOM     40  N   UNL A   1      42.992  26.028  28.146  1.00  0.00    -0.354 N 
ATOM     41  C   UNL A   1      47.313  26.791  26.826  1.00  0.00     0.074 A 
ATOM     42  C   UNL A   1      47.062  26.722  25.414  1.00  0.00     0.031 C 
ATOM     43  C   UNL A   1      41.040  24.969  27.899  1.00  0.00     0.029 A 
ATOM     44  C   UNL A   1      41.641  26.168  28.458  1.00  0.00     0.049 A 
ATOM     45  H   UNL A   1      43.682  26.644  28.480  1.00  0.00     0.167 HD
ATOM     46  C   UNL A   1      47.944  27.734  27.575  1.00  0.00     0.037 A 
ATOM     47  C   UNL A   1      41.070  27.212  29.109  1.00  0.00     0.037 A 
ATOM     48  C   UNL A   1      47.900  27.382  28.973  1.00  0.00     0.049 A 
ATOM     49  C   UNL A   1      42.146  27.904  29.853  1.00  0.00     0.074 A 
ATOM     50  C   UNL A   1      48.468  26.411  29.770  1.00  0.00     0.029 A 
ATOM     51  N   UNL A   1      46.810  27.872  29.643  1.00  0.00    -0.354 N 
ATOM     52  N   UNL A   1      42.752  27.386  30.883  1.00  0.00    -0.248 NA
ATOM     53  C   UNL A   1      42.830  29.023  29.223  1.00  0.00     0.031 C 
ATOM     54  C   UNL A   1      47.517  26.153  30.802  1.00  0.00     0.029 A 
ATOM     55  C   UNL A   1      46.431  27.013  30.638  1.00  0.00     0.049 A 
ATOM     56  H   UNL A   1      46.362  28.724  29.438  1.00  0.00     0.167 HD
ATOM     57  C   UNL A   1      44.065  27.800  30.754  1.00  0.00     0.074 A 
ATOM     58  C   UNL A   1      44.016  28.930  29.831  1.00  0.00     0.031 C 
ATOM     59  C   UNL A   1      45.083  26.990  31.164  1.00  0.00     0.037 A 
BRANCH  46  60
ATOM     60  C   UNL A   1      48.116  29.171  27.130  1.00  0.00     0.057 A 
ATOM     61  C   UNL A   1      49.393  29.755  27.198  1.00  0.00     0.134 A 
ATOM     62  C   UNL A   1      47.053  30.083  26.945  1.00  0.00     0.134 A 
ATOM     63  F   UNL A   1      50.483  29.001  27.400  1.00  0.00    -0.206 F 
ATOM     64  C   UNL A   1      49.588  31.142  27.151  1.00  0.00     0.040 A 
ATOM     65  C   UNL A   1      47.244  31.464  26.846  1.00  0.00     0.040 A 
ATOM     66  F   UNL A   1      45.769  29.712  26.957  1.00  0.00    -0.206 F 
ATOM     67  C   UNL A   1      48.511  32.001  26.979  1.00  0.00     0.006 A 
ENDBRANCH  46  60
BRANCH  47  68
ATOM     68  C   UNL A   1      39.726  27.814  28.967  1.00  0.00     0.057 A 
ATOM     69  C   UNL A   1      38.849  27.919  30.059  1.00  0.00     0.134 A 
ATOM     70  C   UNL A   1      39.396  28.578  27.836  1.00  0.00     0.134 A 
ATOM     71  F   UNL A   1      39.100  27.260  31.199  1.00  0.00    -0.206 F 
ATOM     72  C   UNL A   1      37.729  28.762  30.040  1.00  0.00     0.040 A 
ATOM     73  C   UNL A   1      38.281  29.423  27.803  1.00  0.00     0.040 A 
ATOM     74  F   UNL A   1      40.202  28.602  26.764  1.00  0.00    -0.206 F 
ATOM     75  C   UNL A   1      37.451  29.530  28.914  1.00  0.00     0.006 A 
ENDBRANCH  47  68
BRANCH  59  76
ATOM     76  C   UNL A   1      44.727  25.882  32.116  1.00  0.00     0.057 A 
ATOM     77  C   UNL A   1      44.478  24.555  31.740  1.00  0.00     0.134 A 
ATOM     78  C   UNL A   1      44.718  26.167  33.484  1.00  0.00     0.134 A 
ATOM     79  F   UNL A   1      44.544  24.170  30.459  1.00  0.00    -0.206 F 
ATOM     80  C   UNL A   1      44.188  23.565  32.687  1.00  0.00     0.040 A 
ATOM     81  C   UNL A   1      44.466  25.183  34.441  1.00  0.00     0.040 A 
ATOM     82  F   UNL A   1      44.992  27.408  33.918  1.00  0.00    -0.206 F 
ATOM     83  C   UNL A   1      44.187  23.880  34.043  1.00  0.00     0.006 A 
ENDBRANCH  59  76
ENDBRANCH  33  34
ENDBRANCH  26  28
ENDBRANCH  25  26
ENDBRANCH  24  25
ENDBRANCH   1  24
TORSDOF 16
ENDMDL
MODEL 2
REMARK VINA RESULT:     -11.8      0.922      2.483
REMARK SMILES CCn1nc(-c2cccnc2)c2cc(C(=O)OCCOCCOC(=O)c3ccc(-c4c5nc(c(-c6c(F)cccc6F)c6ccc([nH]6)c(-c6c(F)cccc6F)c6nc(c(-c7c(F)cccc7F)c7ccc4[nH]7)C=C6)C=C5)cc3)sc21
REMARK SMILES IDX 21 1 20 2 19 3 18 4 17 5 15 6 16 7 14 8 3 9 4 10 81 11 5 12
REMARK SMILES IDX 12 13 80 14 13 15 2 16 1 17 6 18 7 19 11 20 8 21 10 22 9 23
REMARK SMILES IDX 22 24 23 25 24 26 25 27 26 28 27 29 79 30 28 31 78 32 29 33
REMARK SMILES IDX 30 34 31 35 72 36 32 37 77 38 71 39 73 40 33 41 76 42 70 43
REMARK SMILES IDX 69 44 34 46 60 47 43 48 59 49 44 50 47 51 58 52 74 53 45 54
REMARK SMILES IDX 46 55 57 57 75 58 48 59 35 60 36 61 41 62 37 63 38 64 40 65
REMARK SMILES IDX 42 66 39 67 61 68 62 69 67 70 63 71 64 72 66 73 68 74 65 75
REMARK SMILES IDX 49 76 50 77 55 78 51 79 52 80 54 81 56 82 53 83
REMARK H PARENT 73 45 47 56
REMARK Flexibility Score: inf
ROOT
ATOM      1  C   UNL A   1      42.348  19.031  26.198  1.00  0.00     0.202 C 
ENDROOT
BRANCH   1   2
ATOM      2  O   UNL A   1      42.247  20.367  26.679  1.00  0.00    -0.374 OA
BRANCH   2   3
ATOM      3  C   UNL A   1      41.351  21.269  26.030  1.00  0.00     0.202 C 
BRANCH   3   4
ATOM      4  C   UNL A   1      39.974  21.444  26.673  1.00  0.00     0.261 C 
BRANCH   4   5
ATOM      5  O   UNL A   1      38.935  21.535  25.688  1.00  0.00    -0.459 OA
BRANCH   5   6
ATOM      6  C   UNL A   1      38.045  22.563  25.836  1.00  0.00     0.348 C 
ATOM      7  O   UNL A   1      38.345  23.714  26.102  1.00  0.00    -0.245 OA
BRANCH   6   8
ATOM      8  C   UNL A   1      36.704  22.119  25.493  1.00  0.00     0.115 A 
ATOM      9  N   UNL A   1      33.650  20.087  24.762  1.00  0.00    -0.254 N 
ATOM     10  N   UNL A   1      32.555  20.897  24.854  1.00  0.00    -0.171 NA
ATOM     11  C   UNL A   1      34.793  20.783  24.939  1.00  0.00     0.122 A 
ATOM     12  C   UNL A   1      33.057  22.136  25.105  1.00  0.00     0.103 A 
ATOM     13  C   UNL A   1      34.450  22.048  25.182  1.00  0.00     0.040 A 
ATOM     14  S   UNL A   1      36.413  20.462  25.022  1.00  0.00    -0.109 S 
ATOM     15  C   UNL A   1      35.523  22.878  25.501  1.00  0.00     0.040 A 
BRANCH   9  16
ATOM     16  C   UNL A   1      33.568  18.646  24.654  1.00  0.00     0.142 C 
ATOM     17  C   UNL A   1      32.661  17.940  25.643  1.00  0.00     0.029 C 
ENDBRANCH   9  16
BRANCH  12  18
ATOM     18  C   UNL A   1      32.181  23.276  25.310  1.00  0.00     0.021 A 
ATOM     19  C   UNL A   1      31.440  23.809  24.253  1.00  0.00     0.013 A 
ATOM     20  C   UNL A   1      32.062  23.892  26.550  1.00  0.00     0.121 A 
ATOM     21  C   UNL A   1      30.617  24.913  24.471  1.00  0.00     0.021 A 
ATOM     22  N   UNL A   1      31.269  24.967  26.794  1.00  0.00    -0.264 NA
ATOM     23  C   UNL A   1      30.568  25.454  25.745  1.00  0.00     0.111 A 
ENDBRANCH  12  18
ENDBRANCH   6   8
ENDBRANCH   5   6
ENDBRANCH   4   5
ENDBRANCH   3   4
ENDBRANCH   2   3
ENDBRANCH   1   2
BRANCH   1  24
ATOM     24  C   UNL A   1      43.569  18.669  25.370  1.00  0.00     0.261 C 
BRANCH  24  25
ATOM     25  O   UNL A   1      43.731  19.525  24.247  1.00  0.00    -0.460 OA
BRANCH  25  26
ATOM     26  C   UNL A   1      45.003  19.938  24.051  1.00  0.00     0.338 C 
ATOM     27  O   UNL A   1      45.955  19.261  23.704  1.00  0.00    -0.246 OA
BRANCH  26  28
ATOM     28  C   UNL A   1      45.114  21.321  24.522  1.00  0.00     0.060 A 
ATOM     29  C   UNL A   1      45.834  21.531  25.698  1.00  0.00     0.016 A 
ATOM     30  C   UNL A   1      44.309  22.326  23.957  1.00  0.00     0.016 A 
ATOM     31  C   UNL A   1      45.605  22.690  26.408  1.00  0.00     0.010 A 
ATOM     32  C   UNL A   1      44.074  23.477  24.672  1.00  0.00     0.010 A 
ATOM     33  C   UNL A   1      44.668  23.612  25.922  1.00  0.00    -0.014 A 
BRANCH  33  34
ATOM     34  C   UNL A   1      44.452  24.826  26.682  1.00  0.00     0.031 A 
ATOM     35  C   UNL A   1      45.597  25.754  26.554  1.00  0.00     0.074 A 
ATOM     36  C   UNL A   1      43.307  25.093  27.341  1.00  0.00     0.049 A 
ATOM     37  N   UNL A   1      46.462  26.049  27.464  1.00  0.00    -0.248 NA
ATOM     38  C   UNL A   1      45.951  26.240  25.209  1.00  0.00     0.031 C 
ATOM     39  C   UNL A   1      42.050  24.340  27.309  1.00  0.00     0.029 A 
ATOM     40  N   UNL A   1      43.005  26.158  28.137  1.00  0.00    -0.354 N 
ATOM     41  C   UNL A   1      47.336  26.949  26.865  1.00  0.00     0.074 A 
ATOM     42  C   UNL A   1      47.103  26.869  25.451  1.00  0.00     0.031 C 
ATOM     43  C   UNL A   1      41.065  25.082  27.871  1.00  0.00     0.029 A 
ATOM     44  C   UNL A   1      41.649  26.288  28.431  1.00  0.00     0.049 A 
ATOM     45  H   UNL A   1      43.687  26.782  28.476  1.00  0.00     0.167 HD
ATOM     46  C   UNL A   1      47.949  27.901  27.617  1.00  0.00     0.037 A 
ATOM     47  C   UNL A   1      41.062  27.332  29.069  1.00  0.00     0.037 A 
ATOM     48  C   UNL A   1      47.891  27.557  29.016  1.00  0.00     0.049 A 
ATOM     49  C   UNL A   1      42.123  28.036  29.822  1.00  0.00     0.074 A 
ATOM     50  C   UNL A   1      48.457  26.595  29.825  1.00  0.00     0.029 A 
ATOM     51  N   UNL A   1      46.790  28.042  29.670  1.00  0.00    -0.354 N 
ATOM     52  N   UNL A   1      42.720  27.529  30.862  1.00  0.00    -0.248 NA
ATOM     53  C   UNL A   1      42.806  29.158  29.194  1.00  0.00     0.031 C 
ATOM     54  C   UNL A   1      47.496  26.335  30.848  1.00  0.00     0.029 A 
ATOM     55  C   UNL A   1      46.405  27.185  30.664  1.00  0.00     0.049 A 
ATOM     56  H   UNL A   1      46.337  28.889  29.454  1.00  0.00     0.167 HD
ATOM     57  C   UNL A   1      44.032  27.954  30.747  1.00  0.00     0.074 A 
ATOM     58  C   UNL A   1      43.985  29.078  29.817  1.00  0.00     0.031 C 
ATOM     59  C   UNL A   1      45.051  27.154  31.174  1.00  0.00     0.037 A 
BRANCH  46  60
ATOM     60  C   UNL A   1      48.115  29.336  27.165  1.00  0.00     0.057 A 
ATOM     61  C   UNL A   1      49.389  29.929  27.237  1.00  0.00     0.134 A 
ATOM     62  C   UNL A   1      47.049  30.242  26.970  1.00  0.00     0.134 A 
ATOM     63  F   UNL A   1      50.483  29.181  27.448  1.00  0.00    -0.206 F 
ATOM     64  C   UNL A   1      49.576  31.316  27.183  1.00  0.00     0.040 A 
ATOM     65  C   UNL A   1      47.231  31.623  26.865  1.00  0.00     0.040 A 
ATOM     66  F   UNL A   1      45.767  29.863  26.979  1.00  0.00    -0.206 F 
ATOM     67  C   UNL A   1      48.495  32.168  27.002  1.00  0.00     0.006 A 
ENDBRANCH  46  60
BRANCH  47  68
ATOM     68  C   UNL A   1      39.715  27.921  28.907  1.00  0.00     0.057 A 
ATOM     69  C   UNL A   1      38.797  27.959  29.969  1.00  0.00     0.134 A 
ATOM     70  C   UNL A   1      39.415  28.737  27.804  1.00  0.00     0.134 A 
ATOM     71  F   UNL A   1      39.016  27.247  31.084  1.00  0.00    -0.206 F 
ATOM     72  C   UNL A   1      37.666  28.787  29.950  1.00  0.00     0.040 A 
ATOM     73  C   UNL A   1      38.289  29.568  27.772  1.00  0.00     0.040 A 
ATOM     74  F   UNL A   1      40.260  28.826  26.765  1.00  0.00    -0.206 F 
ATOM     75  C   UNL A   1      37.417  29.607  28.854  1.00  0.00     0.006 A 
ENDBRANCH  47  68
BRANCH  59  76
ATOM     76  C   UNL A   1      44.693  26.049  32.128  1.00  0.00     0.057 A 
ATOM     77  C   UNL A   1      44.453  24.719  31.757  1.00  0.00     0.134 A 
ATOM     78  C   UNL A   1      44.670  26.340  33.495  1.00  0.00     0.134 A 
ATOM     79  F   UNL A   1      44.532  24.328  30.478  1.00  0.00    -0.206 F 
ATOM     80  C   UNL A   1      44.160  23.732  32.706  1.00  0.00     0.040 A 
ATOM     81  C   UNL A   1      44.414  25.360  34.454  1.00  0.00     0.040 A 
ATOM     82  F   UNL A   1      44.934  27.585  33.925  1.00  0.00    -0.206 F 
ATOM     83  C   UNL A   1      44.146  24.053  34.060  1.00  0.00     0.006 A 
ENDBRANCH  59  76
ENDBRANCH  33  34
ENDBRANCH  26  28
ENDBRANCH  25  26
ENDBRANCH  24  25
ENDBRANCH   1  24
TORSDOF 16
ENDMDL
MODEL 3
REMARK VINA RESULT:     -11.3      6.199     11.558
REMARK SMILES CCn1nc(-c2cccnc2)c2cc(C(=O)OCCOCCOC(=O)c3ccc(-c4c5nc(c(-c6c(F)cccc6F)c6ccc([nH]6)c(-c6c(F)cccc6F)c6nc(c(-c7c(F)cccc7F)c7ccc4[nH]7)C=C6)C=C5)cc3)sc21
REMARK SMILES IDX 21 1 20 2 19 3 18 4 17 5 15 6 16 7 14 8 3 9 4 10 81 11 5 12
REMARK SMILES IDX 12 13 80 14 13 15 2 16 1 17 6 18 7 19 11 20 8 21 10 22 9 23
REMARK SMILES IDX 22 24 23 25 24 26 25 27 26 28 27 29 79 30 28 31 78 32 29 33
REMARK SMILES IDX 30 34 31 35 72 36 32 37 77 38 71 39 73 40 33 41 76 42 70 43
REMARK SMILES IDX 69 44 34 46 60 47 43 48 59 49 44 50 47 51 58 52 74 53 45 54
REMARK SMILES IDX 46 55 57 57 75 58 48 59 35 60 36 61 41 62 37 63 38 64 40 65
REMARK SMILES IDX 42 66 39 67 61 68 62 69 67 70 63 71 64 72 66 73 68 74 65 75
REMARK SMILES IDX 49 76 50 77 55 78 51 79 52 80 54 81 56 82 53 83
REMARK H PARENT 73 45 47 56
REMARK Flexibility Score: inf
ROOT
ATOM      1  C   UNL A   1      33.279  35.870  29.272  1.00  0.00     0.202 C 
ENDROOT
BRANCH   1   2
ATOM      2  O   UNL A   1      32.914  34.561  28.851  1.00  0.00    -0.374 OA
BRANCH   2   3
ATOM      3  C   UNL A   1      33.823  33.819  28.038  1.00  0.00     0.202 C 
BRANCH   3   4
ATOM      4  C   UNL A   1      34.039  32.353  28.418  1.00  0.00     0.261 C 
BRANCH   4   5
ATOM      5  O   UNL A   1      33.281  31.469  27.580  1.00  0.00    -0.459 OA
BRANCH   5   6
ATOM      6  C   UNL A   1      33.846  30.253  27.310  1.00  0.00     0.348 C 
ATOM      7  O   UNL A   1      34.762  29.754  27.940  1.00  0.00    -0.245 OA
BRANCH   6   8
ATOM      8  C   UNL A   1      33.108  29.580  26.254  1.00  0.00     0.115 A 
ATOM      9  N   UNL A   1      31.492  27.045  24.029  1.00  0.00    -0.254 N 
ATOM     10  N   UNL A   1      30.534  27.667  23.282  1.00  0.00    -0.171 NA
ATOM     11  C   UNL A   1      32.166  27.926  24.798  1.00  0.00     0.122 A 
ATOM     12  C   UNL A   1      30.627  28.981  23.620  1.00  0.00     0.103 A 
ATOM     13  C   UNL A   1      31.629  29.127  24.583  1.00  0.00     0.040 A 
ATOM     14  S   UNL A   1      33.357  27.879  25.945  1.00  0.00    -0.109 S 
ATOM     15  C   UNL A   1      32.145  30.135  25.396  1.00  0.00     0.040 A 
BRANCH   9  16
ATOM     16  C   UNL A   1      31.639  25.607  24.097  1.00  0.00     0.142 C 
ATOM     17  C   UNL A   1      30.421  24.818  24.537  1.00  0.00     0.029 C 
ENDBRANCH   9  16
BRANCH  12  18
ATOM     18  C   UNL A   1      29.727  29.970  23.052  1.00  0.00     0.021 A 
ATOM     19  C   UNL A   1      29.006  30.837  23.875  1.00  0.00     0.013 A 
ATOM     20  C   UNL A   1      29.531  30.076  21.680  1.00  0.00     0.121 A 
ATOM     21  C   UNL A   1      28.136  31.768  23.307  1.00  0.00     0.021 A 
ATOM     22  N   UNL A   1      28.693  30.973  21.097  1.00  0.00    -0.264 NA
ATOM     23  C   UNL A   1      28.012  31.794  21.927  1.00  0.00     0.111 A 
ENDBRANCH  12  18
ENDBRANCH   6   8
ENDBRANCH   5   6
ENDBRANCH   4   5
ENDBRANCH   3   4
ENDBRANCH   2   3
ENDBRANCH   1   2
BRANCH   1  24
ATOM     24  C   UNL A   1      32.530  36.466  30.452  1.00  0.00     0.261 C 
BRANCH  24  25
ATOM     25  O   UNL A   1      33.255  36.345  31.668  1.00  0.00    -0.460 OA
BRANCH  25  26
ATOM     26  C   UNL A   1      32.952  35.236  32.380  1.00  0.00     0.338 C 
ATOM     27  O   UNL A   1      31.878  34.947  32.877  1.00  0.00    -0.246 OA
BRANCH  26  28
ATOM     28  C   UNL A   1      34.196  34.505  32.640  1.00  0.00     0.060 A 
ATOM     29  C   UNL A   1      35.378  35.246  32.622  1.00  0.00     0.016 A 
ATOM     30  C   UNL A   1      34.203  33.100  32.636  1.00  0.00     0.016 A 
ATOM     31  C   UNL A   1      36.566  34.579  32.419  1.00  0.00     0.010 A 
ATOM     32  C   UNL A   1      35.388  32.436  32.423  1.00  0.00     0.010 A 
ATOM     33  C   UNL A   1      36.544  33.188  32.244  1.00  0.00    -0.014 A 
BRANCH  33  34
ATOM     34  C   UNL A   1      37.807  32.509  32.039  1.00  0.00     0.031 A 
ATOM     35  C   UNL A   1      38.610  32.478  33.281  1.00  0.00     0.074 A 
ATOM     36  C   UNL A   1      38.147  31.910  30.881  1.00  0.00     0.049 A 
ATOM     37  N   UNL A   1      39.689  33.141  33.523  1.00  0.00    -0.248 NA
ATOM     38  C   UNL A   1      38.039  31.809  34.463  1.00  0.00     0.031 C 
ATOM     39  C   UNL A   1      37.308  31.687  29.699  1.00  0.00     0.029 A 
ATOM     40  N   UNL A   1      39.318  31.299  30.543  1.00  0.00    -0.354 N 
ATOM     41  C   UNL A   1      40.061  32.784  34.815  1.00  0.00     0.074 A 
ATOM     42  C   UNL A   1      38.923  32.139  35.406  1.00  0.00     0.031 C 
ATOM     43  C   UNL A   1      37.922  30.810  28.869  1.00  0.00     0.029 A 
ATOM     44  C   UNL A   1      39.249  30.527  29.385  1.00  0.00     0.049 A 
ATOM     45  H   UNL A   1      40.142  31.396  31.072  1.00  0.00     0.167 HD
ATOM     46  C   UNL A   1      41.375  32.773  35.164  1.00  0.00     0.037 A 
ATOM     47  C   UNL A   1      40.216  29.701  28.912  1.00  0.00     0.037 A 
ATOM     48  C   UNL A   1      42.155  33.538  34.223  1.00  0.00     0.049 A 
ATOM     49  C   UNL A   1      41.494  30.129  29.523  1.00  0.00     0.074 A 
ATOM     50  C   UNL A   1      42.284  34.870  33.893  1.00  0.00     0.029 A 
ATOM     51  N   UNL A   1      42.641  32.810  33.170  1.00  0.00    -0.354 N 
ATOM     52  N   UNL A   1      42.087  31.251  29.232  1.00  0.00    -0.248 NA
ATOM     53  C   UNL A   1      41.934  29.491  30.755  1.00  0.00     0.031 C 
ATOM     54  C   UNL A   1      42.601  34.895  32.501  1.00  0.00     0.029 A 
ATOM     55  C   UNL A   1      42.715  33.582  32.044  1.00  0.00     0.049 A 
ATOM     56  H   UNL A   1      42.900  31.861  33.217  1.00  0.00     0.167 HD
ATOM     57  C   UNL A   1      42.625  31.678  30.433  1.00  0.00     0.074 A 
ATOM     58  C   UNL A   1      42.651  30.489  31.279  1.00  0.00     0.031 C 
ATOM     59  C   UNL A   1      42.701  33.010  30.714  1.00  0.00     0.037 A 
BRANCH  46  60
ATOM     60  C   UNL A   1      42.002  31.681  36.003  1.00  0.00     0.057 A 
ATOM     61  C   UNL A   1      42.857  32.041  37.060  1.00  0.00     0.134 A 
ATOM     62  C   UNL A   1      42.059  30.319  35.630  1.00  0.00     0.134 A 
ATOM     63  F   UNL A   1      42.919  33.310  37.491  1.00  0.00    -0.206 F 
ATOM     64  C   UNL A   1      43.744  31.133  37.653  1.00  0.00     0.040 A 
ATOM     65  C   UNL A   1      42.904  29.395  36.250  1.00  0.00     0.040 A 
ATOM     66  F   UNL A   1      41.390  29.827  34.583  1.00  0.00    -0.206 F 
ATOM     67  C   UNL A   1      43.772  29.806  37.245  1.00  0.00     0.006 A 
ENDBRANCH  46  60
BRANCH  47  68
ATOM     68  C   UNL A   1      40.111  28.429  28.164  1.00  0.00     0.057 A 
ATOM     69  C   UNL A   1      40.767  28.243  26.936  1.00  0.00     0.134 A 
ATOM     70  C   UNL A   1      39.625  27.268  28.786  1.00  0.00     0.134 A 
ATOM     71  F   UNL A   1      41.301  29.285  26.285  1.00  0.00    -0.206 F 
ATOM     72  C   UNL A   1      40.958  26.971  26.376  1.00  0.00     0.040 A 
ATOM     73  C   UNL A   1      39.809  25.992  28.237  1.00  0.00     0.040 A 
ATOM     74  F   UNL A   1      39.043  27.326  29.993  1.00  0.00    -0.206 F 
ATOM     75  C   UNL A   1      40.492  25.839  27.036  1.00  0.00     0.006 A 
ENDBRANCH  47  68
BRANCH  59  76
ATOM     76  C   UNL A   1      42.596  33.957  29.552  1.00  0.00     0.057 A 
ATOM     77  C   UNL A   1      41.435  34.658  29.195  1.00  0.00     0.134 A 
ATOM     78  C   UNL A   1      43.752  34.225  28.813  1.00  0.00     0.134 A 
ATOM     79  F   UNL A   1      40.300  34.527  29.894  1.00  0.00    -0.206 F 
ATOM     80  C   UNL A   1      41.420  35.554  28.119  1.00  0.00     0.040 A 
ATOM     81  C   UNL A   1      43.759  35.142  27.762  1.00  0.00     0.040 A 
ATOM     82  F   UNL A   1      44.909  33.623  29.129  1.00  0.00    -0.206 F 
ATOM     83  C   UNL A   1      42.587  35.801  27.403  1.00  0.00     0.006 A 
ENDBRANCH  59  76
ENDBRANCH  33  34
ENDBRANCH  26  28
ENDBRANCH  25  26
ENDBRANCH  24  25
ENDBRANCH   1  24
TORSDOF 16
ENDMDL
