MODEL 1
REMARK VINA RESULT:     -11.0      0.000      0.000
REMARK SMILES CCNC(=O)N1CC[C@H](Cc2cccc(C(=O)OCCOCCOC(=O)c3ccc(-c4c5nc(c(-c6c(F)cccc6F)c6ccc([nH]6)c(-c6c(F)cccc6F)c6nc(c(-c7c(F)cccc7F)c7ccc4[nH]7)C=C6)C=C5)cc3)c2)C1
REMARK SMILES IDX 20 1 19 2 18 3 16 4 17 5 15 6 11 7 12 8 81 9 13 10 14 11
REMARK SMILES IDX 10 12 9 13 6 14 7 15 82 16 8 17 4 18 3 19 5 21 2 22 1 23
REMARK SMILES IDX 21 24 22 25 23 26 24 27 25 28 26 29 27 30 28 31 80 32 29 33
REMARK SMILES IDX 79 34 30 35 31 36 32 37 73 38 33 39 78 40 72 41 74 42 34 43
REMARK SMILES IDX 77 44 71 45 70 46 35 48 61 49 44 50 60 51 45 52 48 53 59 54
REMARK SMILES IDX 75 55 46 56 47 57 58 59 76 60 49 61 36 62 37 63 42 64 38 65
REMARK SMILES IDX 39 66 41 67 43 68 40 69 62 70 63 71 68 72 64 73 65 74 67 75
REMARK SMILES IDX 69 76 66 77 50 78 51 79 56 80 52 81 53 82 55 83 57 84 54 85
REMARK H PARENT 3 20 74 47 48 58
REMARK Flexibility Score: inf
ROOT
ATOM      1  C   UNL A   1      40.495  20.524  26.509  1.00  0.00     0.202 C 
ENDROOT
BRANCH   1   2
ATOM      2  C   UNL A   1      39.808  21.869  26.768  1.00  0.00     0.261 C 
BRANCH   2   3
ATOM      3  O   UNL A   1      38.706  22.072  25.871  1.00  0.00    -0.460 OA
BRANCH   3   4
ATOM      4  C   UNL A   1      38.065  23.259  26.009  1.00  0.00     0.338 C 
ATOM      5  O   UNL A   1      38.515  24.284  26.499  1.00  0.00    -0.246 OA
BRANCH   4   6
ATOM      6  C   UNL A   1      36.754  23.199  25.322  1.00  0.00     0.060 A 
ATOM      7  C   UNL A   1      34.324  23.201  25.337  1.00  0.00    -0.047 A 
ATOM      8  C   UNL A   1      34.335  23.107  23.938  1.00  0.00     0.004 A 
ATOM      9  C   UNL A   1      35.547  23.190  26.028  1.00  0.00     0.019 A 
ATOM     10  C   UNL A   1      35.540  23.065  23.236  1.00  0.00     0.001 A 
ATOM     11  C   UNL A   1      36.748  23.132  23.924  1.00  0.00     0.016 A 
BRANCH   7  12
ATOM     12  C   UNL A   1      33.013  23.366  26.074  1.00  0.00     0.041 C 
BRANCH  12  13
ATOM     13  C   UNL A   1      32.139  24.491  25.499  1.00  0.00     0.015 C 
ATOM     14  N   UNL A   1      31.473  26.601  26.337  1.00  0.00    -0.325 N 
ATOM     15  C   UNL A   1      30.274  25.919  25.893  1.00  0.00     0.121 C 
ATOM     16  C   UNL A   1      32.650  25.896  25.864  1.00  0.00     0.125 C 
ATOM     17  C   UNL A   1      30.688  24.472  26.029  1.00  0.00     0.027 C 
BRANCH  14  18
ATOM     18  C   UNL A   1      31.575  27.797  26.971  1.00  0.00     0.317 C 
ATOM     19  N   UNL A   1      31.901  28.896  26.248  1.00  0.00    -0.338 N 
ATOM     20  H   UNL A   1      32.422  29.585  26.721  1.00  0.00     0.165 HD
ATOM     21  O   UNL A   1      31.334  27.930  28.169  1.00  0.00    -0.249 OA
BRANCH  19  22
ATOM     22  C   UNL A   1      31.576  29.186  24.860  1.00  0.00     0.114 C 
ATOM     23  C   UNL A   1      32.810  29.106  23.978  1.00  0.00     0.027 C 
ENDBRANCH  19  22
ENDBRANCH  14  18
ENDBRANCH  12  13
ENDBRANCH   7  12
ENDBRANCH   4   6
ENDBRANCH   3   4
ENDBRANCH   2   3
ENDBRANCH   1   2
BRANCH   1  24
ATOM     24  O   UNL A   1      41.878  20.421  26.847  1.00  0.00    -0.374 OA
BRANCH  24  25
ATOM     25  C   UNL A   1      42.818  20.361  25.774  1.00  0.00     0.202 C 
BRANCH  25  26
ATOM     26  C   UNL A   1      43.695  21.594  25.525  1.00  0.00     0.261 C 
BRANCH  26  27
ATOM     27  O   UNL A   1      42.926  22.790  25.304  1.00  0.00    -0.460 OA
BRANCH  27  28
ATOM     28  C   UNL A   1      43.649  23.934  25.269  1.00  0.00     0.338 C 
ATOM     29  O   UNL A   1      44.521  24.241  24.470  1.00  0.00    -0.246 OA
BRANCH  28  30
ATOM     30  C   UNL A   1      43.107  24.887  26.252  1.00  0.00     0.060 A 
ATOM     31  C   UNL A   1      43.657  26.174  26.288  1.00  0.00     0.016 A 
ATOM     32  C   UNL A   1      42.111  24.511  27.155  1.00  0.00     0.016 A 
ATOM     33  C   UNL A   1      43.218  27.094  27.240  1.00  0.00     0.010 A 
ATOM     34  C   UNL A   1      41.683  25.430  28.118  1.00  0.00     0.010 A 
ATOM     35  C   UNL A   1      42.245  26.719  28.174  1.00  0.00    -0.014 A 
BRANCH  35  36
ATOM     36  C   UNL A   1      41.852  27.651  29.257  1.00  0.00     0.031 A 
ATOM     37  C   UNL A   1      42.576  27.614  30.569  1.00  0.00     0.074 A 
ATOM     38  C   UNL A   1      40.832  28.508  29.071  1.00  0.00     0.049 A 
ATOM     39  N   UNL A   1      42.324  28.267  31.674  1.00  0.00    -0.248 NA
ATOM     40  C   UNL A   1      43.736  26.714  30.649  1.00  0.00     0.031 C 
ATOM     41  C   UNL A   1      40.071  28.655  27.831  1.00  0.00     0.029 A 
ATOM     42  N   UNL A   1      40.245  29.396  29.936  1.00  0.00    -0.354 N 
ATOM     43  C   UNL A   1      43.281  27.846  32.588  1.00  0.00     0.074 A 
ATOM     44  C   UNL A   1      44.106  26.866  31.912  1.00  0.00     0.031 C 
ATOM     45  C   UNL A   1      39.097  29.559  28.024  1.00  0.00     0.029 A 
ATOM     46  C   UNL A   1      39.141  30.020  29.410  1.00  0.00     0.049 A 
ATOM     47  H   UNL A   1      40.583  29.569  30.844  1.00  0.00     0.167 HD
ATOM     48  C   UNL A   1      43.452  28.241  33.872  1.00  0.00     0.037 A 
ATOM     49  C   UNL A   1      38.241  30.835  29.993  1.00  0.00     0.037 A 
ATOM     50  C   UNL A   1      42.624  29.216  34.535  1.00  0.00     0.049 A 
ATOM     51  C   UNL A   1      38.406  31.205  31.440  1.00  0.00     0.074 A 
ATOM     52  C   UNL A   1      42.752  29.728  35.815  1.00  0.00     0.029 A 
ATOM     53  N   UNL A   1      41.499  29.807  33.980  1.00  0.00    -0.354 N 
ATOM     54  N   UNL A   1      39.344  30.846  32.283  1.00  0.00    -0.248 NA
ATOM     55  C   UNL A   1      37.387  32.090  32.021  1.00  0.00     0.031 C 
ATOM     56  C   UNL A   1      41.665  30.574  36.057  1.00  0.00     0.029 A 
ATOM     57  C   UNL A   1      40.893  30.639  34.908  1.00  0.00     0.049 A 
ATOM     58  H   UNL A   1      41.178  29.658  33.061  1.00  0.00     0.167 HD
ATOM     59  C   UNL A   1      39.035  31.464  33.488  1.00  0.00     0.074 A 
ATOM     60  C   UNL A   1      37.834  32.243  33.260  1.00  0.00     0.031 C 
ATOM     61  C   UNL A   1      39.686  31.393  34.675  1.00  0.00     0.037 A 
BRANCH  48  62
ATOM     62  C   UNL A   1      44.550  27.583  34.658  1.00  0.00     0.057 A 
ATOM     63  C   UNL A   1      45.845  28.112  34.721  1.00  0.00     0.134 A 
ATOM     64  C   UNL A   1      44.297  26.411  35.383  1.00  0.00     0.134 A 
ATOM     65  F   UNL A   1      46.160  29.226  34.043  1.00  0.00    -0.206 F 
ATOM     66  C   UNL A   1      46.857  27.481  35.449  1.00  0.00     0.040 A 
ATOM     67  C   UNL A   1      45.291  25.787  36.138  1.00  0.00     0.040 A 
ATOM     68  F   UNL A   1      43.076  25.854  35.373  1.00  0.00    -0.206 F 
ATOM     69  C   UNL A   1      46.579  26.317  36.165  1.00  0.00     0.006 A 
ENDBRANCH  48  62
BRANCH  49  70
ATOM     70  C   UNL A   1      37.080  31.320  29.206  1.00  0.00     0.057 A 
ATOM     71  C   UNL A   1      35.956  30.515  28.994  1.00  0.00     0.134 A 
ATOM     72  C   UNL A   1      37.060  32.613  28.664  1.00  0.00     0.134 A 
ATOM     73  F   UNL A   1      35.925  29.262  29.468  1.00  0.00    -0.206 F 
ATOM     74  C   UNL A   1      34.856  30.975  28.267  1.00  0.00     0.040 A 
ATOM     75  C   UNL A   1      35.958  33.094  27.959  1.00  0.00     0.040 A 
ATOM     76  F   UNL A   1      38.107  33.434  28.835  1.00  0.00    -0.206 F 
ATOM     77  C   UNL A   1      34.852  32.271  27.755  1.00  0.00     0.006 A 
ENDBRANCH  49  70
BRANCH  61  78
ATOM     78  C   UNL A   1      39.114  32.175  35.824  1.00  0.00     0.057 A 
ATOM     79  C   UNL A   1      38.234  31.592  36.745  1.00  0.00     0.134 A 
ATOM     80  C   UNL A   1      39.482  33.509  36.039  1.00  0.00     0.134 A 
ATOM     81  F   UNL A   1      37.829  30.322  36.589  1.00  0.00    -0.206 F 
ATOM     82  C   UNL A   1      37.727  32.312  37.829  1.00  0.00     0.040 A 
ATOM     83  C   UNL A   1      39.005  34.231  37.135  1.00  0.00     0.040 A 
ATOM     84  F   UNL A   1      40.327  34.127  35.202  1.00  0.00    -0.206 F 
ATOM     85  C   UNL A   1      38.120  33.634  38.031  1.00  0.00     0.006 A 
ENDBRANCH  61  78
ENDBRANCH  35  36
ENDBRANCH  28  30
ENDBRANCH  27  28
ENDBRANCH  26  27
ENDBRANCH  25  26
ENDBRANCH  24  25
ENDBRANCH   1  24
TORSDOF 18
ENDMDL
MODEL 2
REMARK VINA RESULT:     -10.7      5.136     11.823
REMARK SMILES CCNC(=O)N1CC[C@H](Cc2cccc(C(=O)OCCOCCOC(=O)c3ccc(-c4c5nc(c(-c6c(F)cccc6F)c6ccc([nH]6)c(-c6c(F)cccc6F)c6nc(c(-c7c(F)cccc7F)c7ccc4[nH]7)C=C6)C=C5)cc3)c2)C1
REMARK SMILES IDX 20 1 19 2 18 3 16 4 17 5 15 6 11 7 12 8 81 9 13 10 14 11
REMARK SMILES IDX 10 12 9 13 6 14 7 15 82 16 8 17 4 18 3 19 5 21 2 22 1 23
REMARK SMILES IDX 21 24 22 25 23 26 24 27 25 28 26 29 27 30 28 31 80 32 29 33
REMARK SMILES IDX 79 34 30 35 31 36 32 37 73 38 33 39 78 40 72 41 74 42 34 43
REMARK SMILES IDX 77 44 71 45 70 46 35 48 61 49 44 50 60 51 45 52 48 53 59 54
REMARK SMILES IDX 75 55 46 56 47 57 58 59 76 60 49 61 36 62 37 63 42 64 38 65
REMARK SMILES IDX 39 66 41 67 43 68 40 69 62 70 63 71 68 72 64 73 65 74 67 75
REMARK SMILES IDX 69 76 66 77 50 78 51 79 56 80 52 81 53 82 55 83 57 84 54 85
REMARK H PARENT 3 20 74 47 48 58
REMARK Flexibility Score: inf
ROOT
ATOM      1  C   UNL A   1      33.223  36.716  32.780  1.00  0.00     0.202 C 
ENDROOT
BRANCH   1   2
ATOM      2  C   UNL A   1      34.538  35.947  32.621  1.00  0.00     0.261 C 
BRANCH   2   3
ATOM      3  O   UNL A   1      34.963  35.378  33.867  1.00  0.00    -0.460 OA
BRANCH   3   4
ATOM      4  C   UNL A   1      34.892  34.026  33.935  1.00  0.00     0.338 C 
ATOM      5  O   UNL A   1      33.986  33.317  33.523  1.00  0.00    -0.246 OA
BRANCH   4   6
ATOM      6  C   UNL A   1      36.172  33.484  34.450  1.00  0.00     0.060 A 
ATOM      7  C   UNL A   1      38.094  33.575  35.933  1.00  0.00    -0.047 A 
ATOM      8  C   UNL A   1      38.557  32.375  35.373  1.00  0.00     0.004 A 
ATOM      9  C   UNL A   1      36.921  34.154  35.423  1.00  0.00     0.019 A 
ATOM     10  C   UNL A   1      37.835  31.732  34.367  1.00  0.00     0.001 A 
ATOM     11  C   UNL A   1      36.633  32.275  33.920  1.00  0.00     0.016 A 
BRANCH   7  12
ATOM     12  C   UNL A   1      38.825  34.195  37.104  1.00  0.00     0.041 C 
BRANCH  12  13
ATOM     13  C   UNL A   1      38.889  33.270  38.330  1.00  0.00     0.015 C 
ATOM     14  N   UNL A   1      38.003  33.433  40.518  1.00  0.00    -0.325 N 
ATOM     15  C   UNL A   1      39.412  33.124  40.648  1.00  0.00     0.121 C 
ATOM     16  C   UNL A   1      37.581  33.255  39.140  1.00  0.00     0.125 C 
ATOM     17  C   UNL A   1      39.961  33.690  39.360  1.00  0.00     0.027 C 
BRANCH  14  18
ATOM     18  C   UNL A   1      37.108  33.707  41.500  1.00  0.00     0.317 C 
ATOM     19  N   UNL A   1      36.261  32.730  41.907  1.00  0.00    -0.338 N 
ATOM     20  H   UNL A   1      35.373  33.028  42.213  1.00  0.00     0.165 HD
ATOM     21  O   UNL A   1      37.068  34.797  42.069  1.00  0.00    -0.249 OA
BRANCH  19  22
ATOM     22  C   UNL A   1      36.501  31.297  41.951  1.00  0.00     0.114 C 
ATOM     23  C   UNL A   1      37.450  30.932  43.079  1.00  0.00     0.027 C 
ENDBRANCH  19  22
ENDBRANCH  14  18
ENDBRANCH  12  13
ENDBRANCH   7  12
ENDBRANCH   4   6
ENDBRANCH   3   4
ENDBRANCH   2   3
ENDBRANCH   1   2
BRANCH   1  24
ATOM     24  O   UNL A   1      32.508  37.041  31.589  1.00  0.00    -0.374 OA
BRANCH  24  25
ATOM     25  C   UNL A   1      33.256  37.154  30.378  1.00  0.00     0.202 C 
BRANCH  25  26
ATOM     26  C   UNL A   1      32.858  36.247  29.207  1.00  0.00     0.261 C 
BRANCH  26  27
ATOM     27  O   UNL A   1      32.716  34.869  29.592  1.00  0.00    -0.460 OA
BRANCH  27  28
ATOM     28  C   UNL A   1      33.246  33.977  28.722  1.00  0.00     0.338 C 
ATOM     29  O   UNL A   1      32.811  33.654  27.628  1.00  0.00    -0.246 OA
BRANCH  28  30
ATOM     30  C   UNL A   1      34.573  33.554  29.201  1.00  0.00     0.060 A 
ATOM     31  C   UNL A   1      35.699  34.016  28.507  1.00  0.00     0.016 A 
ATOM     32  C   UNL A   1      34.711  32.683  30.282  1.00  0.00     0.016 A 
ATOM     33  C   UNL A   1      36.973  33.597  28.885  1.00  0.00     0.010 A 
ATOM     34  C   UNL A   1      35.989  32.252  30.651  1.00  0.00     0.010 A 
ATOM     35  C   UNL A   1      37.123  32.696  29.945  1.00  0.00    -0.014 A 
BRANCH  35  36
ATOM     36  C   UNL A   1      38.463  32.160  30.285  1.00  0.00     0.031 A 
ATOM     37  C   UNL A   1      38.905  30.847  29.711  1.00  0.00     0.074 A 
ATOM     38  C   UNL A   1      39.265  32.836  31.125  1.00  0.00     0.049 A 
ATOM     39  N   UNL A   1      39.988  30.156  29.960  1.00  0.00    -0.248 NA
ATOM     40  C   UNL A   1      38.003  30.226  28.729  1.00  0.00     0.031 C 
ATOM     41  C   UNL A   1      38.956  34.133  31.724  1.00  0.00     0.029 A 
ATOM     42  N   UNL A   1      40.494  32.509  31.640  1.00  0.00    -0.354 N 
ATOM     43  C   UNL A   1      39.891  29.010  29.181  1.00  0.00     0.074 A 
ATOM     44  C   UNL A   1      38.634  29.091  28.466  1.00  0.00     0.031 C 
ATOM     45  C   UNL A   1      39.957  34.480  32.550  1.00  0.00     0.029 A 
ATOM     46  C   UNL A   1      40.953  33.411  32.568  1.00  0.00     0.049 A 
ATOM     47  H   UNL A   1      40.997  31.707  31.371  1.00  0.00     0.167 HD
ATOM     48  C   UNL A   1      40.771  27.986  29.076  1.00  0.00     0.037 A 
ATOM     49  C   UNL A   1      42.031  33.359  33.374  1.00  0.00     0.037 A 
ATOM     50  C   UNL A   1      42.018  27.915  29.794  1.00  0.00     0.049 A 
ATOM     51  C   UNL A   1      42.958  32.178  33.295  1.00  0.00     0.074 A 
ATOM     52  C   UNL A   1      43.006  26.948  29.711  1.00  0.00     0.029 A 
ATOM     53  N   UNL A   1      42.438  28.833  30.745  1.00  0.00    -0.354 N 
ATOM     54  N   UNL A   1      42.889  31.125  32.518  1.00  0.00    -0.248 NA
ATOM     55  C   UNL A   1      44.111  32.175  34.207  1.00  0.00     0.031 C 
ATOM     56  C   UNL A   1      43.988  27.245  30.661  1.00  0.00     0.029 A 
ATOM     57  C   UNL A   1      43.645  28.429  31.293  1.00  0.00     0.049 A 
ATOM     58  H   UNL A   1      41.950  29.652  30.992  1.00  0.00     0.167 HD
ATOM     59  C   UNL A   1      43.989  30.338  32.839  1.00  0.00     0.074 A 
ATOM     60  C   UNL A   1      44.723  31.050  33.866  1.00  0.00     0.031 C 
ATOM     61  C   UNL A   1      44.356  29.136  32.330  1.00  0.00     0.037 A 
BRANCH  48  62
ATOM     62  C   UNL A   1      40.392  26.837  28.186  1.00  0.00     0.057 A 
ATOM     63  C   UNL A   1      39.496  25.840  28.591  1.00  0.00     0.134 A 
ATOM     64  C   UNL A   1      40.919  26.742  26.891  1.00  0.00     0.134 A 
ATOM     65  F   UNL A   1      38.961  25.864  29.821  1.00  0.00    -0.206 F 
ATOM     66  C   UNL A   1      39.164  24.773  27.753  1.00  0.00     0.040 A 
ATOM     67  C   UNL A   1      40.572  25.696  26.034  1.00  0.00     0.040 A 
ATOM     68  F   UNL A   1      41.778  27.666  26.435  1.00  0.00    -0.206 F 
ATOM     69  C   UNL A   1      39.698  24.702  26.468  1.00  0.00     0.006 A 
ENDBRANCH  48  62
BRANCH  49  70
ATOM     70  C   UNL A   1      42.261  34.448  34.356  1.00  0.00     0.057 A 
ATOM     71  C   UNL A   1      42.049  34.253  35.724  1.00  0.00     0.134 A 
ATOM     72  C   UNL A   1      42.719  35.708  33.946  1.00  0.00     0.134 A 
ATOM     73  F   UNL A   1      41.589  33.078  36.175  1.00  0.00    -0.206 F 
ATOM     74  C   UNL A   1      42.279  35.273  36.650  1.00  0.00     0.040 A 
ATOM     75  C   UNL A   1      42.979  36.727  34.863  1.00  0.00     0.040 A 
ATOM     76  F   UNL A   1      42.944  35.957  32.647  1.00  0.00    -0.206 F 
ATOM     77  C   UNL A   1      42.754  36.510  36.220  1.00  0.00     0.006 A 
ENDBRANCH  49  70
BRANCH  61  78
ATOM     78  C   UNL A   1      45.607  28.509  32.877  1.00  0.00     0.057 A 
ATOM     79  C   UNL A   1      46.870  28.798  32.343  1.00  0.00     0.134 A 
ATOM     80  C   UNL A   1      45.555  27.644  33.978  1.00  0.00     0.134 A 
ATOM     81  F   UNL A   1      46.990  29.607  31.279  1.00  0.00    -0.206 F 
ATOM     82  C   UNL A   1      48.033  28.237  32.873  1.00  0.00     0.040 A 
ATOM     83  C   UNL A   1      46.713  27.099  34.534  1.00  0.00     0.040 A 
ATOM     84  F   UNL A   1      44.380  27.331  34.544  1.00  0.00    -0.206 F 
ATOM     85  C   UNL A   1      47.957  27.391  33.978  1.00  0.00     0.006 A 
ENDBRANCH  61  78
ENDBRANCH  35  36
ENDBRANCH  28  30
ENDBRANCH  27  28
ENDBRANCH  26  27
ENDBRANCH  25  26
ENDBRANCH  24  25
ENDBRANCH   1  24
TORSDOF 18
ENDMDL
MODEL 3
REMARK VINA RESULT:     -10.6      1.159      2.326
REMARK SMILES CCNC(=O)N1CC[C@H](Cc2cccc(C(=O)OCCOCCOC(=O)c3ccc(-c4c5nc(c(-c6c(F)cccc6F)c6ccc([nH]6)c(-c6c(F)cccc6F)c6nc(c(-c7c(F)cccc7F)c7ccc4[nH]7)C=C6)C=C5)cc3)c2)C1
REMARK SMILES IDX 20 1 19 2 18 3 16 4 17 5 15 6 11 7 12 8 81 9 13 10 14 11
REMARK SMILES IDX 10 12 9 13 6 14 7 15 82 16 8 17 4 18 3 19 5 21 2 22 1 23
REMARK SMILES IDX 21 24 22 25 23 26 24 27 25 28 26 29 27 30 28 31 80 32 29 33
REMARK SMILES IDX 79 34 30 35 31 36 32 37 73 38 33 39 78 40 72 41 74 42 34 43
REMARK SMILES IDX 77 44 71 45 70 46 35 48 61 49 44 50 60 51 45 52 48 53 59 54
REMARK SMILES IDX 75 55 46 56 47 57 58 59 76 60 49 61 36 62 37 63 42 64 38 65
REMARK SMILES IDX 39 66 41 67 43 68 40 69 62 70 63 71 68 72 64 73 65 74 67 75
REMARK SMILES IDX 69 76 66 77 50 78 51 79 56 80 52 81 53 82 55 83 57 84 54 85
REMARK H PARENT 3 20 74 47 48 58
REMARK Flexibility Score: inf
ROOT
ATOM      1  C   UNL A   1      39.439  22.468  26.720  1.00  0.00     0.202 C 
ENDROOT
BRANCH   1   2
ATOM      2  C   UNL A   1      38.380  23.414  26.144  1.00  0.00     0.261 C 
BRANCH   2   3
ATOM      3  O   UNL A   1      37.098  22.777  26.065  1.00  0.00    -0.460 OA
BRANCH   3   4
ATOM      4  C   UNL A   1      36.706  22.425  24.816  1.00  0.00     0.338 C 
ATOM      5  O   UNL A   1      37.094  21.466  24.168  1.00  0.00    -0.246 OA
BRANCH   4   6
ATOM      6  C   UNL A   1      35.588  23.295  24.381  1.00  0.00     0.060 A 
ATOM      7  C   UNL A   1      34.088  25.179  24.705  1.00  0.00    -0.047 A 
ATOM      8  C   UNL A   1      33.493  24.893  23.467  1.00  0.00     0.004 A 
ATOM      9  C   UNL A   1      35.104  24.335  25.181  1.00  0.00     0.019 A 
ATOM     10  C   UNL A   1      33.942  23.824  22.691  1.00  0.00     0.001 A 
ATOM     11  C   UNL A   1      35.002  23.038  23.137  1.00  0.00     0.016 A 
BRANCH   7  12
ATOM     12  C   UNL A   1      33.671  26.411  25.477  1.00  0.00     0.041 C 
BRANCH  12  13
ATOM     13  C   UNL A   1      32.259  26.298  26.073  1.00  0.00     0.015 C 
ATOM     14  N   UNL A   1      30.776  24.478  26.366  1.00  0.00    -0.325 N 
ATOM     15  C   UNL A   1      30.034  25.533  25.707  1.00  0.00     0.121 C 
ATOM     16  C   UNL A   1      32.041  24.992  26.858  1.00  0.00     0.125 C 
ATOM     17  C   UNL A   1      31.142  26.282  25.006  1.00  0.00     0.027 C 
BRANCH  14  18
ATOM     18  C   UNL A   1      30.368  23.216  26.655  1.00  0.00     0.317 C 
ATOM     19  N   UNL A   1      30.801  22.192  25.878  1.00  0.00    -0.338 N 
ATOM     20  H   UNL A   1      30.178  21.437  25.773  1.00  0.00     0.165 HD
ATOM     21  O   UNL A   1      29.659  22.959  27.627  1.00  0.00    -0.249 OA
BRANCH  19  22
ATOM     22  C   UNL A   1      32.072  22.070  25.182  1.00  0.00     0.114 C 
ATOM     23  C   UNL A   1      32.902  20.931  25.748  1.00  0.00     0.027 C 
ENDBRANCH  19  22
ENDBRANCH  14  18
ENDBRANCH  12  13
ENDBRANCH   7  12
ENDBRANCH   4   6
ENDBRANCH   3   4
ENDBRANCH   2   3
ENDBRANCH   1   2
BRANCH   1  24
ATOM     24  O   UNL A   1      40.085  21.578  25.810  1.00  0.00    -0.374 OA
BRANCH  24  25
ATOM     25  C   UNL A   1      41.304  20.968  26.234  1.00  0.00     0.202 C 
BRANCH  25  26
ATOM     26  C   UNL A   1      42.619  21.592  25.750  1.00  0.00     0.261 C 
BRANCH  26  27
ATOM     27  O   UNL A   1      42.433  22.884  25.145  1.00  0.00    -0.460 OA
BRANCH  27  28
ATOM     28  C   UNL A   1      43.398  23.790  25.431  1.00  0.00     0.338 C 
ATOM     29  O   UNL A   1      44.485  23.918  24.888  1.00  0.00    -0.246 OA
BRANCH  28  30
ATOM     30  C   UNL A   1      42.881  24.765  26.406  1.00  0.00     0.060 A 
ATOM     31  C   UNL A   1      43.425  26.056  26.393  1.00  0.00     0.016 A 
ATOM     32  C   UNL A   1      41.915  24.408  27.347  1.00  0.00     0.016 A 
ATOM     33  C   UNL A   1      43.012  26.997  27.334  1.00  0.00     0.010 A 
ATOM     34  C   UNL A   1      41.512  25.350  28.299  1.00  0.00     0.010 A 
ATOM     35  C   UNL A   1      42.069  26.642  28.306  1.00  0.00    -0.014 A 
BRANCH  35  36
ATOM     36  C   UNL A   1      41.704  27.600  29.376  1.00  0.00     0.031 A 
ATOM     37  C   UNL A   1      42.431  27.562  30.687  1.00  0.00     0.074 A 
ATOM     38  C   UNL A   1      40.707  28.481  29.181  1.00  0.00     0.049 A 
ATOM     39  N   UNL A   1      42.200  28.237  31.783  1.00  0.00    -0.248 NA
ATOM     40  C   UNL A   1      43.567  26.632  30.777  1.00  0.00     0.031 C 
ATOM     41  C   UNL A   1      39.947  28.630  27.941  1.00  0.00     0.029 A 
ATOM     42  N   UNL A   1      40.146  29.396  30.034  1.00  0.00    -0.354 N 
ATOM     43  C   UNL A   1      43.148  27.803  32.700  1.00  0.00     0.074 A 
ATOM     44  C   UNL A   1      43.945  26.792  32.037  1.00  0.00     0.031 C 
ATOM     45  C   UNL A   1      38.997  29.563  28.123  1.00  0.00     0.029 A 
ATOM     46  C   UNL A   1      39.058  30.042  29.503  1.00  0.00     0.049 A 
ATOM     47  H   UNL A   1      40.492  29.573  30.940  1.00  0.00     0.167 HD
ATOM     48  C   UNL A   1      43.333  28.212  33.978  1.00  0.00     0.037 A 
ATOM     49  C   UNL A   1      38.182  30.889  30.076  1.00  0.00     0.037 A 
ATOM     50  C   UNL A   1      42.533  29.218  34.630  1.00  0.00     0.049 A 
ATOM     51  C   UNL A   1      38.361  31.276  31.518  1.00  0.00     0.074 A 
ATOM     52  C   UNL A   1      42.679  29.744  35.902  1.00  0.00     0.029 A 
ATOM     53  N   UNL A   1      41.423  29.831  34.069  1.00  0.00    -0.354 N 
ATOM     54  N   UNL A   1      39.292  30.903  32.363  1.00  0.00    -0.248 NA
ATOM     55  C   UNL A   1      37.367  32.196  32.089  1.00  0.00     0.031 C 
ATOM     56  C   UNL A   1      41.616  30.623  36.135  1.00  0.00     0.029 A 
ATOM     57  C   UNL A   1      40.843  30.693  34.987  1.00  0.00     0.049 A 
ATOM     58  H   UNL A   1      41.096  29.678  33.153  1.00  0.00     0.167 HD
ATOM     59  C   UNL A   1      39.003  31.547  33.560  1.00  0.00     0.074 A 
ATOM     60  C   UNL A   1      37.823  32.354  33.324  1.00  0.00     0.031 C 
ATOM     61  C   UNL A   1      39.655  31.475  34.747  1.00  0.00     0.037 A 
BRANCH  48  62
ATOM     62  C   UNL A   1      44.415  27.537  34.771  1.00  0.00     0.057 A 
ATOM     63  C   UNL A   1      44.182  26.375  35.519  1.00  0.00     0.134 A 
ATOM     64  C   UNL A   1      45.720  28.047  34.766  1.00  0.00     0.134 A 
ATOM     65  F   UNL A   1      42.954  25.838  35.576  1.00  0.00    -0.206 F 
ATOM     66  C   UNL A   1      45.198  25.767  36.259  1.00  0.00     0.040 A 
ATOM     67  C   UNL A   1      46.751  27.432  35.477  1.00  0.00     0.040 A 
ATOM     68  F   UNL A   1      46.016  29.153  34.066  1.00  0.00    -0.206 F 
ATOM     69  C   UNL A   1      46.489  26.292  36.235  1.00  0.00     0.006 A 
ENDBRANCH  48  62
BRANCH  49  70
ATOM     70  C   UNL A   1      37.031  31.394  29.286  1.00  0.00     0.057 A 
ATOM     71  C   UNL A   1      37.023  32.688  28.757  1.00  0.00     0.134 A 
ATOM     72  C   UNL A   1      35.919  30.581  29.024  1.00  0.00     0.134 A 
ATOM     73  F   UNL A   1      38.047  33.520  28.992  1.00  0.00    -0.206 F 
ATOM     74  C   UNL A   1      35.948  33.160  28.001  1.00  0.00     0.040 A 
ATOM     75  C   UNL A   1      34.851  31.030  28.248  1.00  0.00     0.040 A 
ATOM     76  F   UNL A   1      35.869  29.329  29.501  1.00  0.00    -0.206 F 
ATOM     77  C   UNL A   1      34.862  32.326  27.737  1.00  0.00     0.006 A 
ENDBRANCH  49  70
BRANCH  61  78
ATOM     78  C   UNL A   1      39.107  32.288  35.885  1.00  0.00     0.057 A 
ATOM     79  C   UNL A   1      38.216  31.742  36.818  1.00  0.00     0.134 A 
ATOM     80  C   UNL A   1      39.511  33.615  36.080  1.00  0.00     0.134 A 
ATOM     81  F   UNL A   1      37.779  30.480  36.683  1.00  0.00    -0.206 F 
ATOM     82  C   UNL A   1      37.733  32.490  37.893  1.00  0.00     0.040 A 
ATOM     83  C   UNL A   1      39.056  34.366  37.166  1.00  0.00     0.040 A 
ATOM     84  F   UNL A   1      40.368  34.199  35.230  1.00  0.00    -0.206 F 
ATOM     85  C   UNL A   1      38.160  33.804  38.074  1.00  0.00     0.006 A 
ENDBRANCH  61  78
ENDBRANCH  35  36
ENDBRANCH  28  30
ENDBRANCH  27  28
ENDBRANCH  26  27
ENDBRANCH  25  26
ENDBRANCH  24  25
ENDBRANCH   1  24
TORSDOF 18
ENDMDL
