MODEL 1
REMARK VINA RESULT:     -12.4      0.000      0.000
REMARK SMILES Cc1cnn(C2(C(=O)OCCOCCOC(=O)c3ccc(-c4c5nc(c(-c6c(F)cccc6F)c6ccc([nH]6)c(-c6c(F)cccc6F)c6nc(c(-c7c(F)cccc7F)c7ccc4[nH]7)C=C6)C=C5)cc3)CCN(C(=O)c3cc4ccccc4[nH]3)CC2)c1
REMARK SMILES IDX 13 1 12 2 11 3 10 4 9 5 7 6 8 7 6 8 72 9 87 10 73 11 86 12
REMARK SMILES IDX 74 13 75 14 76 15 5 16 1 17 2 18 3 19 88 20 4 21 77 22 78 23
REMARK SMILES IDX 85 24 79 25 84 26 80 28 83 29 81 30 82 31 14 32 15 33 16 34
REMARK SMILES IDX 17 35 18 36 19 37 71 38 20 39 70 40 21 41 22 42 23 43 64 44
REMARK SMILES IDX 24 45 69 46 63 47 65 48 25 49 68 50 62 51 61 52 26 54 52 55
REMARK SMILES IDX 35 56 51 57 36 58 39 59 50 60 66 61 37 62 38 63 49 65 67 66
REMARK SMILES IDX 40 67 27 68 28 69 33 70 29 71 30 72 32 73 34 74 31 75 53 76
REMARK SMILES IDX 54 77 59 78 55 79 56 80 58 81 60 82 57 83 41 84 42 85 47 86
REMARK SMILES IDX 43 87 44 88 46 89 48 90 45 91
REMARK H PARENT 85 27 65 53 39 64
REMARK Flexibility Score: inf
ROOT
ATOM      1  C   UNL A   1      40.631  19.699  26.181  1.00  0.00     0.202 C 
ENDROOT
BRANCH   1   2
ATOM      2  O   UNL A   1      40.070  20.841  26.824  1.00  0.00    -0.374 OA
BRANCH   2   3
ATOM      3  C   UNL A   1      39.462  21.835  25.990  1.00  0.00     0.202 C 
BRANCH   3   4
ATOM      4  C   UNL A   1      38.151  21.423  25.307  1.00  0.00     0.261 C 
BRANCH   4   5
ATOM      5  O   UNL A   1      37.306  22.586  25.193  1.00  0.00    -0.461 OA
BRANCH   5   6
ATOM      6  C   UNL A   1      36.511  22.742  24.093  1.00  0.00     0.334 C 
ATOM      7  O   UNL A   1      36.912  22.614  22.942  1.00  0.00    -0.249 OA
BRANCH   6   8
ATOM      8  C   UNL A   1      35.059  23.144  24.492  1.00  0.00     0.163 C 
ATOM      9  C   UNL A   1      35.043  23.613  25.986  1.00  0.00     0.064 C 
ATOM     10  C   UNL A   1      34.705  24.352  23.604  1.00  0.00     0.064 C 
ATOM     11  C   UNL A   1      33.902  24.519  26.423  1.00  0.00     0.123 C 
ATOM     12  C   UNL A   1      33.437  25.053  24.067  1.00  0.00     0.123 C 
ATOM     13  N   UNL A   1      33.558  25.519  25.429  1.00  0.00    -0.337 N 
ATOM     14  C   UNL A   1      32.988  26.725  25.840  1.00  0.00     0.270 C 
ATOM     15  O   UNL A   1      33.303  27.288  26.882  1.00  0.00    -0.267 OA
BRANCH   8  16
ATOM     16  N   UNL A   1      34.160  22.001  24.199  1.00  0.00    -0.255 N 
ATOM     17  C   UNL A   1      32.446  18.835  24.873  1.00  0.00     0.048 C 
ATOM     18  C   UNL A   1      32.939  20.145  24.391  1.00  0.00    -0.013 A 
ATOM     19  C   UNL A   1      32.426  21.025  23.425  1.00  0.00     0.138 A 
ATOM     20  C   UNL A   1      34.033  20.814  24.878  1.00  0.00     0.113 A 
ATOM     21  N   UNL A   1      33.206  22.097  23.242  1.00  0.00    -0.180 NA
ENDBRANCH   8  16
BRANCH  14  22
ATOM     22  C   UNL A   1      31.949  27.219  24.964  1.00  0.00     0.105 A 
ATOM     23  C   UNL A   1      31.961  28.382  24.212  1.00  0.00     0.042 A 
ATOM     24  N   UNL A   1      30.717  26.639  24.788  1.00  0.00    -0.351 N 
ATOM     25  C   UNL A   1      30.692  28.532  23.604  1.00  0.00     0.000 A 
ATOM     26  C   UNL A   1      29.916  27.445  24.007  1.00  0.00     0.046 A 
ATOM     27  H   UNL A   1      30.445  25.771  25.165  1.00  0.00     0.167 HD
ATOM     28  C   UNL A   1      30.127  29.502  22.757  1.00  0.00     0.010 A 
ATOM     29  C   UNL A   1      28.579  27.296  23.620  1.00  0.00     0.026 A 
ATOM     30  C   UNL A   1      28.804  29.348  22.331  1.00  0.00     0.001 A 
ATOM     31  C   UNL A   1      28.043  28.264  22.764  1.00  0.00     0.002 A 
ENDBRANCH  14  22
ENDBRANCH   6   8
ENDBRANCH   5   6
ENDBRANCH   4   5
ENDBRANCH   3   4
ENDBRANCH   2   3
ENDBRANCH   1   2
BRANCH   1  32
ATOM     32  C   UNL A   1      42.141  19.539  26.272  1.00  0.00     0.261 C 
BRANCH  32  33
ATOM     33  O   UNL A   1      42.759  19.871  25.035  1.00  0.00    -0.460 OA
BRANCH  33  34
ATOM     34  C   UNL A   1      44.103  19.978  25.076  1.00  0.00     0.338 C 
ATOM     35  O   UNL A   1      44.921  19.080  25.234  1.00  0.00    -0.246 OA
BRANCH  34  36
ATOM     36  C   UNL A   1      44.435  21.406  25.093  1.00  0.00     0.060 A 
ATOM     37  C   UNL A   1      45.450  21.777  25.974  1.00  0.00     0.016 A 
ATOM     38  C   UNL A   1      43.525  22.336  24.566  1.00  0.00     0.016 A 
ATOM     39  C   UNL A   1      45.356  23.010  26.571  1.00  0.00     0.010 A 
ATOM     40  C   UNL A   1      43.421  23.559  25.176  1.00  0.00     0.010 A 
ATOM     41  C   UNL A   1      44.266  23.824  26.248  1.00  0.00    -0.014 A 
BRANCH  41  42
ATOM     42  C   UNL A   1      44.069  25.029  27.017  1.00  0.00     0.031 A 
ATOM     43  C   UNL A   1      45.186  25.977  26.837  1.00  0.00     0.074 A 
ATOM     44  C   UNL A   1      42.947  25.257  27.723  1.00  0.00     0.049 A 
ATOM     45  N   UNL A   1      46.108  26.273  27.689  1.00  0.00    -0.248 NA
ATOM     46  C   UNL A   1      45.439  26.471  25.473  1.00  0.00     0.031 C 
ATOM     47  C   UNL A   1      41.700  24.488  27.742  1.00  0.00     0.029 A 
ATOM     48  N   UNL A   1      42.664  26.312  28.533  1.00  0.00    -0.354 N 
ATOM     49  C   UNL A   1      46.929  27.178  27.030  1.00  0.00     0.074 A 
ATOM     50  C   UNL A   1      46.619  27.069  25.631  1.00  0.00     0.031 C 
ATOM     51  C   UNL A   1      40.728  25.223  28.335  1.00  0.00     0.029 A 
ATOM     52  C   UNL A   1      41.316  26.444  28.855  1.00  0.00     0.049 A 
ATOM     53  H   UNL A   1      43.354  26.931  28.863  1.00  0.00     0.167 HD
ATOM     54  C   UNL A   1      47.571  28.159  27.718  1.00  0.00     0.037 A 
ATOM     55  C   UNL A   1      40.755  27.539  29.431  1.00  0.00     0.037 A 
ATOM     56  C   UNL A   1      47.641  27.846  29.123  1.00  0.00     0.049 A 
ATOM     57  C   UNL A   1      41.859  28.317  30.060  1.00  0.00     0.074 A 
ATOM     58  C   UNL A   1      48.206  26.824  29.862  1.00  0.00     0.029 A 
ATOM     59  N   UNL A   1      46.724  28.445  29.951  1.00  0.00    -0.354 N 
ATOM     60  N   UNL A   1      42.534  27.897  31.094  1.00  0.00    -0.248 NA
ATOM     61  C   UNL A   1      42.536  29.305  29.231  1.00  0.00     0.031 C 
ATOM     62  C   UNL A   1      47.274  26.564  30.908  1.00  0.00     0.029 A 
ATOM     63  C   UNL A   1      46.232  27.485  30.797  1.00  0.00     0.049 A 
ATOM     64  H   UNL A   1      46.466  29.395  29.941  1.00  0.00     0.167 HD
ATOM     65  C   UNL A   1      43.854  28.226  30.815  1.00  0.00     0.074 A 
ATOM     66  C   UNL A   1      43.785  29.143  29.677  1.00  0.00     0.031 C 
ATOM     67  C   UNL A   1      44.888  27.498  31.329  1.00  0.00     0.037 A 
BRANCH  54  68
ATOM     68  C   UNL A   1      47.742  29.560  27.186  1.00  0.00     0.057 A 
ATOM     69  C   UNL A   1      49.010  30.160  27.261  1.00  0.00     0.134 A 
ATOM     70  C   UNL A   1      46.682  30.441  26.880  1.00  0.00     0.134 A 
ATOM     71  F   UNL A   1      50.099  29.433  27.557  1.00  0.00    -0.206 F 
ATOM     72  C   UNL A   1      49.194  31.541  27.122  1.00  0.00     0.040 A 
ATOM     73  C   UNL A   1      46.863  31.811  26.685  1.00  0.00     0.040 A 
ATOM     74  F   UNL A   1      45.401  30.059  26.853  1.00  0.00    -0.206 F 
ATOM     75  C   UNL A   1      48.119  32.372  26.841  1.00  0.00     0.006 A 
ENDBRANCH  54  68
BRANCH  55  76
ATOM     76  C   UNL A   1      39.427  28.139  29.165  1.00  0.00     0.057 A 
ATOM     77  C   UNL A   1      38.470  28.280  30.180  1.00  0.00     0.134 A 
ATOM     78  C   UNL A   1      39.172  28.847  27.976  1.00  0.00     0.134 A 
ATOM     79  F   UNL A   1      38.647  27.685  31.369  1.00  0.00    -0.206 F 
ATOM     80  C   UNL A   1      37.333  29.087  30.027  1.00  0.00     0.040 A 
ATOM     81  C   UNL A   1      38.041  29.654  27.811  1.00  0.00     0.040 A 
ATOM     82  F   UNL A   1      40.059  28.851  26.972  1.00  0.00    -0.206 F 
ATOM     83  C   UNL A   1      37.121  29.786  28.843  1.00  0.00     0.006 A 
ENDBRANCH  55  76
BRANCH  67  84
ATOM     84  C   UNL A   1      44.567  26.468  32.379  1.00  0.00     0.057 A 
ATOM     85  C   UNL A   1      44.344  25.108  32.107  1.00  0.00     0.134 A 
ATOM     86  C   UNL A   1      44.644  26.838  33.725  1.00  0.00     0.134 A 
ATOM     87  F   UNL A   1      44.350  24.642  30.853  1.00  0.00    -0.206 F 
ATOM     88  C   UNL A   1      44.169  24.170  33.130  1.00  0.00     0.040 A 
ATOM     89  C   UNL A   1      44.505  25.906  34.755  1.00  0.00     0.040 A 
ATOM     90  F   UNL A   1      44.912  28.110  34.061  1.00  0.00    -0.206 F 
ATOM     91  C   UNL A   1      44.257  24.567  34.461  1.00  0.00     0.006 A 
ENDBRANCH  67  84
ENDBRANCH  41  42
ENDBRANCH  34  36
ENDBRANCH  33  34
ENDBRANCH  32  33
ENDBRANCH   1  32
TORSDOF 16
ENDMDL
MODEL 2
REMARK VINA RESULT:     -12.2      2.885      8.421
REMARK SMILES Cc1cnn(C2(C(=O)OCCOCCOC(=O)c3ccc(-c4c5nc(c(-c6c(F)cccc6F)c6ccc([nH]6)c(-c6c(F)cccc6F)c6nc(c(-c7c(F)cccc7F)c7ccc4[nH]7)C=C6)C=C5)cc3)CCN(C(=O)c3cc4ccccc4[nH]3)CC2)c1
REMARK SMILES IDX 13 1 12 2 11 3 10 4 9 5 7 6 8 7 6 8 72 9 87 10 73 11 86 12
REMARK SMILES IDX 74 13 75 14 76 15 5 16 1 17 2 18 3 19 88 20 4 21 77 22 78 23
REMARK SMILES IDX 85 24 79 25 84 26 80 28 83 29 81 30 82 31 14 32 15 33 16 34
REMARK SMILES IDX 17 35 18 36 19 37 71 38 20 39 70 40 21 41 22 42 23 43 64 44
REMARK SMILES IDX 24 45 69 46 63 47 65 48 25 49 68 50 62 51 61 52 26 54 52 55
REMARK SMILES IDX 35 56 51 57 36 58 39 59 50 60 66 61 37 62 38 63 49 65 67 66
REMARK SMILES IDX 40 67 27 68 28 69 33 70 29 71 30 72 32 73 34 74 31 75 53 76
REMARK SMILES IDX 54 77 59 78 55 79 56 80 58 81 60 82 57 83 41 84 42 85 47 86
REMARK SMILES IDX 43 87 44 88 46 89 48 90 45 91
REMARK H PARENT 85 27 65 53 39 64
REMARK Flexibility Score: inf
ROOT
ATOM      1  C   UNL A   1      32.846  29.456  27.204  1.00  0.00     0.202 C 
ENDROOT
BRANCH   1   2
ATOM      2  O   UNL A   1      32.875  28.902  25.891  1.00  0.00    -0.374 OA
BRANCH   2   3
ATOM      3  C   UNL A   1      31.914  29.389  24.947  1.00  0.00     0.202 C 
BRANCH   3   4
ATOM      4  C   UNL A   1      30.875  28.368  24.464  1.00  0.00     0.261 C 
BRANCH   4   5
ATOM      5  O   UNL A   1      30.904  27.229  25.348  1.00  0.00    -0.461 OA
BRANCH   5   6
ATOM      6  C   UNL A   1      30.534  25.999  24.882  1.00  0.00     0.334 C 
ATOM      7  O   UNL A   1      29.372  25.675  24.671  1.00  0.00    -0.249 OA
BRANCH   6   8
ATOM      8  C   UNL A   1      31.767  25.063  24.703  1.00  0.00     0.163 C 
ATOM      9  C   UNL A   1      32.754  25.269  25.902  1.00  0.00     0.064 C 
ATOM     10  C   UNL A   1      31.212  23.628  24.779  1.00  0.00     0.064 C 
ATOM     11  C   UNL A   1      33.721  24.138  26.216  1.00  0.00     0.123 C 
ATOM     12  C   UNL A   1      32.316  22.591  24.917  1.00  0.00     0.123 C 
ATOM     13  N   UNL A   1      33.115  22.824  26.098  1.00  0.00    -0.337 N 
ATOM     14  C   UNL A   1      33.620  21.767  26.856  1.00  0.00     0.270 C 
ATOM     15  O   UNL A   1      34.045  21.911  27.996  1.00  0.00    -0.267 OA
BRANCH   8  16
ATOM     16  N   UNL A   1      32.361  25.321  23.368  1.00  0.00    -0.255 N 
ATOM     17  C   UNL A   1      32.433  25.456  19.709  1.00  0.00     0.048 C 
ATOM     18  C   UNL A   1      32.635  25.577  21.170  1.00  0.00    -0.013 A 
ATOM     19  C   UNL A   1      33.530  26.361  21.915  1.00  0.00     0.138 A 
ATOM     20  C   UNL A   1      31.890  24.946  22.134  1.00  0.00     0.113 A 
ATOM     21  N   UNL A   1      33.430  26.141  23.232  1.00  0.00    -0.180 NA
ENDBRANCH   8  16
BRANCH  14  22
ATOM     22  C   UNL A   1      33.659  20.501  26.158  1.00  0.00     0.105 A 
ATOM     23  C   UNL A   1      34.352  20.196  24.999  1.00  0.00     0.042 A 
ATOM     24  N   UNL A   1      32.934  19.385  26.499  1.00  0.00    -0.351 N 
ATOM     25  C   UNL A   1      34.004  18.882  24.605  1.00  0.00     0.000 A 
ATOM     26  C   UNL A   1      33.086  18.405  25.541  1.00  0.00     0.046 A 
ATOM     27  H   UNL A   1      32.385  19.298  27.312  1.00  0.00     0.167 HD
ATOM     28  C   UNL A   1      34.376  18.059  23.527  1.00  0.00     0.010 A 
ATOM     29  C   UNL A   1      32.498  17.140  25.434  1.00  0.00     0.026 A 
ATOM     30  C   UNL A   1      33.825  16.778  23.427  1.00  0.00     0.001 A 
ATOM     31  C   UNL A   1      32.895  16.331  24.363  1.00  0.00     0.002 A 
ENDBRANCH  14  22
ENDBRANCH   6   8
ENDBRANCH   5   6
ENDBRANCH   4   5
ENDBRANCH   3   4
ENDBRANCH   2   3
ENDBRANCH   1   2
BRANCH   1  32
ATOM     32  C   UNL A   1      33.500  30.817  27.384  1.00  0.00     0.261 C 
BRANCH  32  33
ATOM     33  O   UNL A   1      34.918  30.705  27.349  1.00  0.00    -0.460 OA
BRANCH  33  34
ATOM     34  C   UNL A   1      35.587  31.695  27.974  1.00  0.00     0.338 C 
ATOM     35  O   UNL A   1      35.578  32.890  27.704  1.00  0.00    -0.246 OA
BRANCH  34  36
ATOM     36  C   UNL A   1      36.502  31.076  28.936  1.00  0.00     0.060 A 
ATOM     37  C   UNL A   1      37.637  31.822  29.253  1.00  0.00     0.016 A 
ATOM     38  C   UNL A   1      36.423  29.695  29.180  1.00  0.00     0.016 A 
ATOM     39  C   UNL A   1      38.798  31.136  29.514  1.00  0.00     0.010 A 
ATOM     40  C   UNL A   1      37.585  29.012  29.423  1.00  0.00     0.010 A 
ATOM     41  C   UNL A   1      38.769  29.739  29.467  1.00  0.00    -0.014 A 
BRANCH  41  42
ATOM     42  C   UNL A   1      40.025  29.033  29.552  1.00  0.00     0.031 A 
ATOM     43  C   UNL A   1      40.508  28.946  30.943  1.00  0.00     0.074 A 
ATOM     44  C   UNL A   1      40.603  28.460  28.479  1.00  0.00     0.049 A 
ATOM     45  N   UNL A   1      41.494  29.588  31.472  1.00  0.00    -0.248 NA
ATOM     46  C   UNL A   1      39.649  28.247  31.914  1.00  0.00     0.031 C 
ATOM     47  C   UNL A   1      40.061  28.282  27.129  1.00  0.00     0.029 A 
ATOM     48  N   UNL A   1      41.803  27.826  28.410  1.00  0.00    -0.354 N 
ATOM     49  C   UNL A   1      41.515  29.183  32.801  1.00  0.00     0.074 A 
ATOM     50  C   UNL A   1      40.241  28.572  33.063  1.00  0.00     0.031 C 
ATOM     51  C   UNL A   1      40.828  27.393  26.452  1.00  0.00     0.029 A 
ATOM     52  C   UNL A   1      41.978  27.050  27.268  1.00  0.00     0.049 A 
ATOM     53  H   UNL A   1      42.491  27.909  29.110  1.00  0.00     0.167 HD
ATOM     54  C   UNL A   1      42.688  29.105  33.483  1.00  0.00     0.037 A 
ATOM     55  C   UNL A   1      42.969  26.138  27.089  1.00  0.00     0.037 A 
ATOM     56  C   UNL A   1      43.716  29.882  32.837  1.00  0.00     0.049 A 
ATOM     57  C   UNL A   1      44.042  26.459  28.071  1.00  0.00     0.074 A 
ATOM     58  C   UNL A   1      43.871  31.220  32.528  1.00  0.00     0.029 A 
ATOM     59  N   UNL A   1      44.616  29.207  32.048  1.00  0.00    -0.354 N 
ATOM     60  N   UNL A   1      44.777  27.535  28.005  1.00  0.00    -0.248 NA
ATOM     61  C   UNL A   1      43.945  25.848  29.390  1.00  0.00     0.031 C 
ATOM     62  C   UNL A   1      44.502  31.234  31.249  1.00  0.00     0.029 A 
ATOM     63  C   UNL A   1      44.764  29.914  30.882  1.00  0.00     0.049 A 
ATOM     64  H   UNL A   1      45.073  28.367  32.278  1.00  0.00     0.167 HD
ATOM     65  C   UNL A   1      44.876  27.978  29.318  1.00  0.00     0.074 A 
ATOM     66  C   UNL A   1      44.390  26.866  30.133  1.00  0.00     0.031 C 
ATOM     67  C   UNL A   1      45.054  29.301  29.606  1.00  0.00     0.037 A 
BRANCH  54  68
ATOM     68  C   UNL A   1      42.996  28.006  34.469  1.00  0.00     0.057 A 
ATOM     69  C   UNL A   1      43.224  26.708  33.982  1.00  0.00     0.134 A 
ATOM     70  C   UNL A   1      42.794  28.094  35.863  1.00  0.00     0.134 A 
ATOM     71  F   UNL A   1      43.419  26.488  32.673  1.00  0.00    -0.206 F 
ATOM     72  C   UNL A   1      43.174  25.580  34.809  1.00  0.00     0.040 A 
ATOM     73  C   UNL A   1      42.797  26.981  36.705  1.00  0.00     0.040 A 
ATOM     74  F   UNL A   1      42.479  29.237  36.483  1.00  0.00    -0.206 F 
ATOM     75  C   UNL A   1      42.952  25.713  36.173  1.00  0.00     0.006 A 
ENDBRANCH  54  68
BRANCH  55  76
ATOM     76  C   UNL A   1      42.897  24.823  26.410  1.00  0.00     0.057 A 
ATOM     77  C   UNL A   1      43.743  24.505  25.338  1.00  0.00     0.134 A 
ATOM     78  C   UNL A   1      42.193  23.747  26.979  1.00  0.00     0.134 A 
ATOM     79  F   UNL A   1      44.495  25.453  24.760  1.00  0.00    -0.206 F 
ATOM     80  C   UNL A   1      43.891  23.190  24.869  1.00  0.00     0.040 A 
ATOM     81  C   UNL A   1      42.330  22.433  26.519  1.00  0.00     0.040 A 
ATOM     82  F   UNL A   1      41.419  23.922  28.060  1.00  0.00    -0.206 F 
ATOM     83  C   UNL A   1      43.190  22.148  25.467  1.00  0.00     0.006 A 
ENDBRANCH  55  76
BRANCH  67  84
ATOM     84  C   UNL A   1      45.359  30.233  28.463  1.00  0.00     0.057 A 
ATOM     85  C   UNL A   1      44.381  30.886  27.696  1.00  0.00     0.134 A 
ATOM     86  C   UNL A   1      46.688  30.603  28.237  1.00  0.00     0.134 A 
ATOM     87  F   UNL A   1      43.077  30.670  27.906  1.00  0.00    -0.206 F 
ATOM     88  C   UNL A   1      44.716  31.835  26.724  1.00  0.00     0.040 A 
ATOM     89  C   UNL A   1      47.034  31.573  27.295  1.00  0.00     0.040 A 
ATOM     90  F   UNL A   1      47.673  30.062  28.973  1.00  0.00    -0.206 F 
ATOM     91  C   UNL A   1      46.048  32.187  26.527  1.00  0.00     0.006 A 
ENDBRANCH  67  84
ENDBRANCH  41  42
ENDBRANCH  34  36
ENDBRANCH  33  34
ENDBRANCH  32  33
ENDBRANCH   1  32
TORSDOF 16
ENDMDL
MODEL 3
REMARK VINA RESULT:     -11.9      2.394      7.714
REMARK SMILES Cc1cnn(C2(C(=O)OCCOCCOC(=O)c3ccc(-c4c5nc(c(-c6c(F)cccc6F)c6ccc([nH]6)c(-c6c(F)cccc6F)c6nc(c(-c7c(F)cccc7F)c7ccc4[nH]7)C=C6)C=C5)cc3)CCN(C(=O)c3cc4ccccc4[nH]3)CC2)c1
REMARK SMILES IDX 13 1 12 2 11 3 10 4 9 5 7 6 8 7 6 8 72 9 87 10 73 11 86 12
REMARK SMILES IDX 74 13 75 14 76 15 5 16 1 17 2 18 3 19 88 20 4 21 77 22 78 23
REMARK SMILES IDX 85 24 79 25 84 26 80 28 83 29 81 30 82 31 14 32 15 33 16 34
REMARK SMILES IDX 17 35 18 36 19 37 71 38 20 39 70 40 21 41 22 42 23 43 64 44
REMARK SMILES IDX 24 45 69 46 63 47 65 48 25 49 68 50 62 51 61 52 26 54 52 55
REMARK SMILES IDX 35 56 51 57 36 58 39 59 50 60 66 61 37 62 38 63 49 65 67 66
REMARK SMILES IDX 40 67 27 68 28 69 33 70 29 71 30 72 32 73 34 74 31 75 53 76
REMARK SMILES IDX 54 77 59 78 55 79 56 80 58 81 60 82 57 83 41 84 42 85 47 86
REMARK SMILES IDX 43 87 44 88 46 89 48 90 45 91
REMARK H PARENT 85 27 65 53 39 64
REMARK Flexibility Score: inf
ROOT
ATOM      1  C   UNL A   1      34.657  32.186  28.952  1.00  0.00     0.202 C 
ENDROOT
BRANCH   1   2
ATOM      2  O   UNL A   1      34.055  31.083  28.279  1.00  0.00    -0.374 OA
BRANCH   2   3
ATOM      3  C   UNL A   1      33.194  31.377  27.172  1.00  0.00     0.202 C 
BRANCH   3   4
ATOM      4  C   UNL A   1      32.146  30.306  26.839  1.00  0.00     0.261 C 
BRANCH   4   5
ATOM      5  O   UNL A   1      32.693  29.011  27.160  1.00  0.00    -0.461 OA
BRANCH   5   6
ATOM      6  C   UNL A   1      31.880  27.913  27.163  1.00  0.00     0.334 C 
ATOM      7  O   UNL A   1      30.966  27.746  27.961  1.00  0.00    -0.249 OA
BRANCH   6   8
ATOM      8  C   UNL A   1      32.297  26.894  26.060  1.00  0.00     0.163 C 
ATOM      9  C   UNL A   1      33.851  26.941  25.870  1.00  0.00     0.064 C 
ATOM     10  C   UNL A   1      31.921  25.506  26.615  1.00  0.00     0.064 C 
ATOM     11  C   UNL A   1      34.519  25.717  25.263  1.00  0.00     0.123 C 
ATOM     12  C   UNL A   1      32.525  24.377  25.794  1.00  0.00     0.123 C 
ATOM     13  N   UNL A   1      33.966  24.467  25.752  1.00  0.00    -0.337 N 
ATOM     14  C   UNL A   1      34.768  23.325  25.771  1.00  0.00     0.270 C 
ATOM     15  O   UNL A   1      35.967  23.358  26.024  1.00  0.00    -0.267 OA
BRANCH   8  16
ATOM     16  N   UNL A   1      31.520  27.191  24.831  1.00  0.00    -0.255 N 
ATOM     17  C   UNL A   1      28.584  28.218  22.897  1.00  0.00     0.048 C 
ATOM     18  C   UNL A   1      29.915  27.853  23.431  1.00  0.00    -0.013 A 
ATOM     19  C   UNL A   1      31.192  27.926  22.853  1.00  0.00     0.138 A 
ATOM     20  C   UNL A   1      30.169  27.401  24.702  1.00  0.00     0.113 A 
ATOM     21  N   UNL A   1      32.148  27.442  23.658  1.00  0.00    -0.180 NA
ENDBRANCH   8  16
BRANCH  14  22
ATOM     22  C   UNL A   1      34.078  22.108  25.404  1.00  0.00     0.105 A 
ATOM     23  C   UNL A   1      33.928  20.960  26.163  1.00  0.00     0.042 A 
ATOM     24  N   UNL A   1      33.508  21.858  24.179  1.00  0.00    -0.351 N 
ATOM     25  C   UNL A   1      33.293  19.978  25.365  1.00  0.00     0.000 A 
ATOM     26  C   UNL A   1      33.071  20.552  24.113  1.00  0.00     0.046 A 
ATOM     27  H   UNL A   1      33.423  22.518  23.453  1.00  0.00     0.167 HD
ATOM     28  C   UNL A   1      32.900  18.647  25.590  1.00  0.00     0.010 A 
ATOM     29  C   UNL A   1      32.491  19.840  23.057  1.00  0.00     0.026 A 
ATOM     30  C   UNL A   1      32.285  17.935  24.556  1.00  0.00     0.001 A 
ATOM     31  C   UNL A   1      32.092  18.523  23.308  1.00  0.00     0.002 A 
ENDBRANCH  14  22
ENDBRANCH   6   8
ENDBRANCH   5   6
ENDBRANCH   4   5
ENDBRANCH   3   4
ENDBRANCH   2   3
ENDBRANCH   1   2
BRANCH   1  32
ATOM     32  C   UNL A   1      35.789  31.860  29.914  1.00  0.00     0.261 C 
BRANCH  32  33
ATOM     33  O   UNL A   1      36.688  30.920  29.338  1.00  0.00    -0.460 OA
BRANCH  33  34
ATOM     34  C   UNL A   1      36.794  29.749  29.998  1.00  0.00     0.338 C 
ATOM     35  O   UNL A   1      36.332  29.464  31.097  1.00  0.00    -0.246 OA
BRANCH  34  36
ATOM     36  C   UNL A   1      37.738  28.906  29.259  1.00  0.00     0.060 A 
ATOM     37  C   UNL A   1      38.268  27.830  29.970  1.00  0.00     0.016 A 
ATOM     38  C   UNL A   1      38.340  29.398  28.090  1.00  0.00     0.016 A 
ATOM     39  C   UNL A   1      39.561  27.457  29.694  1.00  0.00     0.010 A 
ATOM     40  C   UNL A   1      39.635  29.038  27.826  1.00  0.00     0.010 A 
ATOM     41  C   UNL A   1      40.258  28.161  28.707  1.00  0.00    -0.014 A 
BRANCH  41  42
ATOM     42  C   UNL A   1      41.668  27.894  28.554  1.00  0.00     0.031 A 
ATOM     43  C   UNL A   1      41.908  26.617  27.857  1.00  0.00     0.074 A 
ATOM     44  C   UNL A   1      42.612  28.775  28.935  1.00  0.00     0.049 A 
ATOM     45  N   UNL A   1      42.344  25.515  28.366  1.00  0.00    -0.248 NA
ATOM     46  C   UNL A   1      41.379  26.486  26.489  1.00  0.00     0.031 C 
ATOM     47  C   UNL A   1      42.449  30.158  29.392  1.00  0.00     0.029 A 
ATOM     48  N   UNL A   1      43.963  28.624  28.905  1.00  0.00    -0.354 N 
ATOM     49  C   UNL A   1      42.360  24.612  27.311  1.00  0.00     0.074 A 
ATOM     50  C   UNL A   1      41.542  25.181  26.274  1.00  0.00     0.031 C 
ATOM     51  C   UNL A   1      43.652  30.782  29.373  1.00  0.00     0.029 A 
ATOM     52  C   UNL A   1      44.677  29.811  29.038  1.00  0.00     0.049 A 
ATOM     53  H   UNL A   1      44.399  27.748  28.799  1.00  0.00     0.167 HD
ATOM     54  C   UNL A   1      43.292  23.625  27.257  1.00  0.00     0.037 A 
ATOM     55  C   UNL A   1      46.007  29.953  28.793  1.00  0.00     0.037 A 
ATOM     56  C   UNL A   1      43.877  23.394  28.555  1.00  0.00     0.049 A 
ATOM     57  C   UNL A   1      46.607  28.590  28.833  1.00  0.00     0.074 A 
ATOM     58  C   UNL A   1      43.385  22.999  29.784  1.00  0.00     0.029 A 
ATOM     59  N   UNL A   1      45.102  23.961  28.805  1.00  0.00    -0.354 N 
ATOM     60  N   UNL A   1      46.702  27.880  29.923  1.00  0.00    -0.248 NA
ATOM     61  C   UNL A   1      46.628  27.833  27.589  1.00  0.00     0.031 C 
ATOM     62  C   UNL A   1      44.112  23.768  30.739  1.00  0.00     0.029 A 
ATOM     63  C   UNL A   1      45.053  24.533  30.051  1.00  0.00     0.049 A 
ATOM     64  H   UNL A   1      45.879  23.957  28.200  1.00  0.00     0.167 HD
ATOM     65  C   UNL A   1      46.361  26.590  29.537  1.00  0.00     0.074 A 
ATOM     66  C   UNL A   1      46.381  26.612  28.075  1.00  0.00     0.031 C 
ATOM     67  C   UNL A   1      45.805  25.711  30.421  1.00  0.00     0.037 A 
BRANCH  54  68
ATOM     68  C   UNL A   1      43.954  23.185  25.976  1.00  0.00     0.057 A 
ATOM     69  C   UNL A   1      43.964  21.818  25.656  1.00  0.00     0.134 A 
ATOM     70  C   UNL A   1      44.822  23.986  25.202  1.00  0.00     0.134 A 
ATOM     71  F   UNL A   1      43.193  20.948  26.326  1.00  0.00    -0.206 F 
ATOM     72  C   UNL A   1      44.830  21.281  24.696  1.00  0.00     0.040 A 
ATOM     73  C   UNL A   1      45.649  23.469  24.205  1.00  0.00     0.040 A 
ATOM     74  F   UNL A   1      45.003  25.292  25.427  1.00  0.00    -0.206 F 
ATOM     75  C   UNL A   1      45.681  22.105  23.972  1.00  0.00     0.006 A 
ENDBRANCH  54  68
BRANCH  55  76
ATOM     76  C   UNL A   1      46.709  31.101  28.175  1.00  0.00     0.057 A 
ATOM     77  C   UNL A   1      46.296  31.637  26.946  1.00  0.00     0.134 A 
ATOM     78  C   UNL A   1      47.623  31.878  28.909  1.00  0.00     0.134 A 
ATOM     79  F   UNL A   1      45.388  30.996  26.195  1.00  0.00    -0.206 F 
ATOM     80  C   UNL A   1      46.754  32.880  26.482  1.00  0.00     0.040 A 
ATOM     81  C   UNL A   1      48.089  33.118  28.456  1.00  0.00     0.040 A 
ATOM     82  F   UNL A   1      48.022  31.503  30.132  1.00  0.00    -0.206 F 
ATOM     83  C   UNL A   1      47.646  33.629  27.243  1.00  0.00     0.006 A 
ENDBRANCH  55  76
BRANCH  67  84
ATOM     84  C   UNL A   1      45.773  26.103  31.874  1.00  0.00     0.057 A 
ATOM     85  C   UNL A   1      46.853  25.943  32.758  1.00  0.00     0.134 A 
ATOM     86  C   UNL A   1      44.667  26.813  32.351  1.00  0.00     0.134 A 
ATOM     87  F   UNL A   1      47.992  25.363  32.362  1.00  0.00    -0.206 F 
ATOM     88  C   UNL A   1      46.814  26.435  34.067  1.00  0.00     0.040 A 
ATOM     89  C   UNL A   1      44.630  27.338  33.645  1.00  0.00     0.040 A 
ATOM     90  F   UNL A   1      43.622  27.055  31.545  1.00  0.00    -0.206 F 
ATOM     91  C   UNL A   1      45.701  27.143  34.512  1.00  0.00     0.006 A 
ENDBRANCH  67  84
ENDBRANCH  41  42
ENDBRANCH  34  36
ENDBRANCH  33  34
ENDBRANCH  32  33
ENDBRANCH   1  32
TORSDOF 16
ENDMDL
