MODEL 1
REMARK VINA RESULT:     -11.8      0.000      0.000
REMARK SMILES Cc1cc(OC(F)(F)F)cc2c1O[C@H](C(F)(F)F)C(C(=O)OCCOCCOC(=O)c1ccc(-c3c4nc(c(-c5c(F)cccc5F)c5ccc([nH]5)c(-c5c(F)cccc5F)c5nc(c(-c6c(F)cccc6F)c6ccc3[nH]6)C=C5)C=C4)cc1)=C2
REMARK SMILES IDX 25 1 24 2 23 3 22 4 20 5 21 6 19 7 1 8 2 9 3 10 12 11 4 12
REMARK SMILES IDX 11 13 13 14 10 15 85 16 14 17 5 18 6 19 7 20 8 21 9 22 15 23
REMARK SMILES IDX 16 24 17 25 18 26 26 27 27 28 28 29 29 30 30 31 31 32 32 33
REMARK SMILES IDX 84 34 33 35 83 36 34 37 35 38 36 39 77 40 37 41 82 42 76 43
REMARK SMILES IDX 78 44 38 45 81 46 75 47 74 48 39 50 65 51 48 52 64 53 49 54
REMARK SMILES IDX 52 55 63 56 79 57 50 58 51 59 62 61 80 62 53 63 40 64 41 65
REMARK SMILES IDX 46 66 42 67 43 68 45 69 47 70 44 71 66 72 67 73 72 74 68 75
REMARK SMILES IDX 69 76 71 77 73 78 70 79 54 80 55 81 60 82 56 83 57 84 59 85
REMARK SMILES IDX 61 86 58 87
REMARK H PARENT 78 49 52 60
REMARK Flexibility Score: inf
ROOT
ATOM      1  O   UNL A   1      34.426  21.489  24.330  1.00  0.00    -0.374 OA
ENDROOT
BRANCH   1   2
ATOM      2  C   UNL A   1      33.069  21.062  24.245  1.00  0.00     0.202 C 
BRANCH   2   3
ATOM      3  C   UNL A   1      32.167  21.433  25.425  1.00  0.00     0.261 C 
BRANCH   3   4
ATOM      4  O   UNL A   1      31.339  22.567  25.117  1.00  0.00    -0.460 OA
BRANCH   4   5
ATOM      5  C   UNL A   1      31.072  23.370  26.174  1.00  0.00     0.338 C 
ATOM      6  O   UNL A   1      30.797  23.017  27.310  1.00  0.00    -0.246 OA
BRANCH   5   7
ATOM      7  C   UNL A   1      31.268  24.780  25.796  1.00  0.00     0.087 C 
ATOM      8  C   UNL A   1      33.154  29.387  24.601  1.00  0.00     0.048 C 
ATOM      9  C   UNL A   1      31.911  28.610  24.265  1.00  0.00    -0.005 A 
ATOM     10  C   UNL A   1      30.985  29.139  23.344  1.00  0.00     0.054 A 
ATOM     11  C   UNL A   1      31.659  27.363  24.857  1.00  0.00     0.131 A 
ATOM     12  C   UNL A   1      29.830  28.432  23.009  1.00  0.00     0.130 A 
ATOM     13  C   UNL A   1      30.519  26.643  24.501  1.00  0.00     0.021 A 
ATOM     14  O   UNL A   1      32.564  26.913  25.778  1.00  0.00    -0.475 OA
ATOM     15  C   UNL A   1      29.601  27.188  23.599  1.00  0.00     0.058 A 
ATOM     16  C   UNL A   1      30.316  25.301  25.011  1.00  0.00     0.027 C 
ATOM     17  C   UNL A   1      32.482  25.538  26.250  1.00  0.00     0.316 C 
BRANCH  12  18
ATOM     18  O   UNL A   1      28.857  28.823  22.136  1.00  0.00    -0.406 OA
BRANCH  18  19
ATOM     19  C   UNL A   1      27.831  29.670  22.623  1.00  0.00     0.573 C 
ATOM     20  F   UNL A   1      28.234  30.334  23.726  1.00  0.00    -0.132 F 
ATOM     21  F   UNL A   1      27.440  30.555  21.680  1.00  0.00    -0.132 F 
ATOM     22  F   UNL A   1      26.765  28.911  22.954  1.00  0.00    -0.132 F 
ENDBRANCH  18  19
ENDBRANCH  12  18
BRANCH  17  23
ATOM     23  C   UNL A   1      33.796  24.829  25.887  1.00  0.00     0.430 C 
ATOM     24  F   UNL A   1      33.754  24.339  24.624  1.00  0.00    -0.167 F 
ATOM     25  F   UNL A   1      34.854  25.673  25.936  1.00  0.00    -0.167 F 
ATOM     26  F   UNL A   1      34.062  23.795  26.716  1.00  0.00    -0.167 F 
ENDBRANCH  17  23
ENDBRANCH   5   7
ENDBRANCH   4   5
ENDBRANCH   3   4
ENDBRANCH   2   3
ENDBRANCH   1   2
BRANCH   1  27
ATOM     27  C   UNL A   1      35.224  20.952  25.388  1.00  0.00     0.202 C 
BRANCH  27  28
ATOM     28  C   UNL A   1      36.596  20.391  24.995  1.00  0.00     0.261 C 
BRANCH  28  29
ATOM     29  O   UNL A   1      37.623  21.401  25.057  1.00  0.00    -0.460 OA
BRANCH  29  30
ATOM     30  C   UNL A   1      38.725  21.055  25.759  1.00  0.00     0.338 C 
ATOM     31  O   UNL A   1      39.310  19.981  25.751  1.00  0.00    -0.246 OA
BRANCH  30  32
ATOM     32  C   UNL A   1      39.266  22.235  26.450  1.00  0.00     0.060 A 
ATOM     33  C   UNL A   1      38.710  23.485  26.150  1.00  0.00     0.016 A 
ATOM     34  C   UNL A   1      40.382  22.130  27.281  1.00  0.00     0.016 A 
ATOM     35  C   UNL A   1      39.297  24.646  26.647  1.00  0.00     0.010 A 
ATOM     36  C   UNL A   1      40.983  23.297  27.764  1.00  0.00     0.010 A 
ATOM     37  C   UNL A   1      40.464  24.558  27.416  1.00  0.00    -0.014 A 
BRANCH  37  38
ATOM     38  C   UNL A   1      41.246  25.785  27.690  1.00  0.00     0.031 A 
ATOM     39  C   UNL A   1      40.601  26.887  28.483  1.00  0.00     0.074 A 
ATOM     40  C   UNL A   1      42.515  25.907  27.265  1.00  0.00     0.049 A 
ATOM     41  N   UNL A   1      41.084  28.052  28.834  1.00  0.00    -0.248 NA
ATOM     42  C   UNL A   1      39.227  26.638  28.948  1.00  0.00     0.031 C 
ATOM     43  C   UNL A   1      43.263  24.889  26.530  1.00  0.00     0.029 A 
ATOM     44  N   UNL A   1      43.396  26.950  27.394  1.00  0.00    -0.354 N 
ATOM     45  C   UNL A   1      40.079  28.669  29.568  1.00  0.00     0.074 A 
ATOM     46  C   UNL A   1      38.948  27.768  29.581  1.00  0.00     0.031 C 
ATOM     47  C   UNL A   1      44.491  25.364  26.260  1.00  0.00     0.029 A 
ATOM     48  C   UNL A   1      44.603  26.726  26.782  1.00  0.00     0.049 A 
ATOM     49  H   UNL A   1      43.182  27.780  27.878  1.00  0.00     0.167 HD
ATOM     50  C   UNL A   1      40.100  29.875  30.185  1.00  0.00     0.037 A 
ATOM     51  C   UNL A   1      45.667  27.539  26.644  1.00  0.00     0.037 A 
ATOM     52  C   UNL A   1      41.214  30.785  30.146  1.00  0.00     0.049 A 
ATOM     53  C   UNL A   1      45.622  28.922  27.240  1.00  0.00     0.074 A 
ATOM     54  C   UNL A   1      41.337  32.029  30.738  1.00  0.00     0.029 A 
ATOM     55  N   UNL A   1      42.396  30.549  29.461  1.00  0.00    -0.354 N 
ATOM     56  N   UNL A   1      44.679  29.487  27.953  1.00  0.00    -0.248 NA
ATOM     57  C   UNL A   1      46.792  29.780  27.004  1.00  0.00     0.031 C 
ATOM     58  C   UNL A   1      42.576  32.566  30.372  1.00  0.00     0.029 A 
ATOM     59  C   UNL A   1      43.242  31.638  29.589  1.00  0.00     0.049 A 
ATOM     60  H   UNL A   1      42.603  29.729  28.958  1.00  0.00     0.167 HD
ATOM     61  C   UNL A   1      45.152  30.754  28.274  1.00  0.00     0.074 A 
ATOM     62  C   UNL A   1      46.471  30.869  27.686  1.00  0.00     0.031 C 
ATOM     63  C   UNL A   1      44.550  31.735  28.992  1.00  0.00     0.037 A 
BRANCH  50  64
ATOM     64  C   UNL A   1      38.861  30.281  30.925  1.00  0.00     0.057 A 
ATOM     65  C   UNL A   1      38.691  29.949  32.274  1.00  0.00     0.134 A 
ATOM     66  C   UNL A   1      37.837  31.010  30.304  1.00  0.00     0.134 A 
ATOM     67  F   UNL A   1      39.633  29.254  32.928  1.00  0.00    -0.206 F 
ATOM     68  C   UNL A   1      37.550  30.331  32.982  1.00  0.00     0.040 A 
ATOM     69  C   UNL A   1      36.702  31.418  31.006  1.00  0.00     0.040 A 
ATOM     70  F   UNL A   1      37.947  31.375  29.017  1.00  0.00    -0.206 F 
ATOM     71  C   UNL A   1      36.555  31.075  32.350  1.00  0.00     0.006 A 
ENDBRANCH  50  64
BRANCH  51  72
ATOM     72  C   UNL A   1      46.866  27.082  25.901  1.00  0.00     0.057 A 
ATOM     73  C   UNL A   1      47.029  27.359  24.539  1.00  0.00     0.134 A 
ATOM     74  C   UNL A   1      47.896  26.389  26.547  1.00  0.00     0.134 A 
ATOM     75  F   UNL A   1      46.079  28.023  23.864  1.00  0.00    -0.206 F 
ATOM     76  C   UNL A   1      48.171  26.960  23.843  1.00  0.00     0.040 A 
ATOM     77  C   UNL A   1      49.053  26.002  25.870  1.00  0.00     0.040 A 
ATOM     78  F   UNL A   1      47.808  26.117  27.857  1.00  0.00    -0.206 F 
ATOM     79  C   UNL A   1      49.191  26.285  24.512  1.00  0.00     0.006 A 
ENDBRANCH  51  72
BRANCH  63  80
ATOM     80  C   UNL A   1      45.327  33.002  29.198  1.00  0.00     0.057 A 
ATOM     81  C   UNL A   1      45.209  34.068  28.295  1.00  0.00     0.134 A 
ATOM     82  C   UNL A   1      46.205  33.163  30.277  1.00  0.00     0.134 A 
ATOM     83  F   UNL A   1      44.391  33.976  27.236  1.00  0.00    -0.206 F 
ATOM     84  C   UNL A   1      45.936  35.247  28.459  1.00  0.00     0.040 A 
ATOM     85  C   UNL A   1      46.918  34.348  30.466  1.00  0.00     0.040 A 
ATOM     86  F   UNL A   1      46.352  32.186  31.185  1.00  0.00    -0.206 F 
ATOM     87  C   UNL A   1      46.789  35.392  29.552  1.00  0.00     0.006 A 
ENDBRANCH  63  80
ENDBRANCH  37  38
ENDBRANCH  30  32
ENDBRANCH  29  30
ENDBRANCH  28  29
ENDBRANCH  27  28
ENDBRANCH   1  27
TORSDOF 17
ENDMDL
MODEL 2
REMARK VINA RESULT:     -11.8      6.172     11.421
REMARK SMILES Cc1cc(OC(F)(F)F)cc2c1O[C@H](C(F)(F)F)C(C(=O)OCCOCCOC(=O)c1ccc(-c3c4nc(c(-c5c(F)cccc5F)c5ccc([nH]5)c(-c5c(F)cccc5F)c5nc(c(-c6c(F)cccc6F)c6ccc3[nH]6)C=C5)C=C4)cc1)=C2
REMARK SMILES IDX 25 1 24 2 23 3 22 4 20 5 21 6 19 7 1 8 2 9 3 10 12 11 4 12
REMARK SMILES IDX 11 13 13 14 10 15 85 16 14 17 5 18 6 19 7 20 8 21 9 22 15 23
REMARK SMILES IDX 16 24 17 25 18 26 26 27 27 28 28 29 29 30 30 31 31 32 32 33
REMARK SMILES IDX 84 34 33 35 83 36 34 37 35 38 36 39 77 40 37 41 82 42 76 43
REMARK SMILES IDX 78 44 38 45 81 46 75 47 74 48 39 50 65 51 48 52 64 53 49 54
REMARK SMILES IDX 52 55 63 56 79 57 50 58 51 59 62 61 80 62 53 63 40 64 41 65
REMARK SMILES IDX 46 66 42 67 43 68 45 69 47 70 44 71 66 72 67 73 72 74 68 75
REMARK SMILES IDX 69 76 71 77 73 78 70 79 54 80 55 81 60 82 56 83 57 84 59 85
REMARK SMILES IDX 61 86 58 87
REMARK H PARENT 78 49 52 60
REMARK Flexibility Score: inf
ROOT
ATOM      1  O   UNL A   1      33.099  37.000  33.177  1.00  0.00    -0.374 OA
ENDROOT
BRANCH   1   2
ATOM      2  C   UNL A   1      34.426  36.483  33.136  1.00  0.00     0.202 C 
BRANCH   2   3
ATOM      3  C   UNL A   1      34.733  35.328  34.092  1.00  0.00     0.261 C 
BRANCH   3   4
ATOM      4  O   UNL A   1      36.078  34.850  33.925  1.00  0.00    -0.460 OA
BRANCH   4   5
ATOM      5  C   UNL A   1      36.220  33.512  34.071  1.00  0.00     0.338 C 
ATOM      6  O   UNL A   1      35.369  32.659  33.873  1.00  0.00    -0.246 OA
BRANCH   5   7
ATOM      7  C   UNL A   1      37.618  33.189  34.406  1.00  0.00     0.087 C 
ATOM      8  C   UNL A   1      42.081  32.265  36.739  1.00  0.00     0.048 C 
ATOM      9  C   UNL A   1      41.416  31.819  35.466  1.00  0.00    -0.005 A 
ATOM     10  C   UNL A   1      42.040  30.850  34.656  1.00  0.00     0.054 A 
ATOM     11  C   UNL A   1      40.181  32.355  35.072  1.00  0.00     0.131 A 
ATOM     12  C   UNL A   1      41.439  30.413  33.476  1.00  0.00     0.130 A 
ATOM     13  C   UNL A   1      39.565  31.898  33.907  1.00  0.00     0.021 A 
ATOM     14  O   UNL A   1      39.637  33.326  35.867  1.00  0.00    -0.475 OA
ATOM     15  C   UNL A   1      40.204  30.949  33.105  1.00  0.00     0.058 A 
ATOM     16  C   UNL A   1      38.233  32.354  33.560  1.00  0.00     0.027 C 
ATOM     17  C   UNL A   1      38.263  33.751  35.641  1.00  0.00     0.316 C 
BRANCH  12  18
ATOM     18  O   UNL A   1      41.928  29.484  32.604  1.00  0.00    -0.406 OA
BRANCH  18  19
ATOM     19  C   UNL A   1      41.437  28.159  32.703  1.00  0.00     0.573 C 
ATOM     20  F   UNL A   1      41.027  27.888  33.960  1.00  0.00    -0.132 F 
ATOM     21  F   UNL A   1      40.419  27.949  31.841  1.00  0.00    -0.132 F 
ATOM     22  F   UNL A   1      42.435  27.304  32.392  1.00  0.00    -0.132 F 
ENDBRANCH  18  19
ENDBRANCH  12  18
BRANCH  17  23
ATOM     23  C   UNL A   1      37.458  33.463  36.917  1.00  0.00     0.430 C 
ATOM     24  F   UNL A   1      36.149  33.776  36.751  1.00  0.00    -0.167 F 
ATOM     25  F   UNL A   1      37.498  32.152  37.253  1.00  0.00    -0.167 F 
ATOM     26  F   UNL A   1      37.913  34.168  37.976  1.00  0.00    -0.167 F 
ENDBRANCH  17  23
ENDBRANCH   5   7
ENDBRANCH   4   5
ENDBRANCH   3   4
ENDBRANCH   2   3
ENDBRANCH   1   2
BRANCH   1  27
ATOM     27  C   UNL A   1      32.196  36.589  32.148  1.00  0.00     0.202 C 
BRANCH  27  28
ATOM     28  C   UNL A   1      32.810  36.291  30.775  1.00  0.00     0.261 C 
BRANCH  28  29
ATOM     29  O   UNL A   1      32.945  34.874  30.547  1.00  0.00    -0.460 OA
BRANCH  29  30
ATOM     30  C   UNL A   1      33.231  34.524  29.273  1.00  0.00     0.338 C 
ATOM     31  O   UNL A   1      32.666  34.892  28.253  1.00  0.00    -0.246 OA
BRANCH  30  32
ATOM     32  C   UNL A   1      34.470  33.733  29.239  1.00  0.00     0.060 A 
ATOM     33  C   UNL A   1      34.829  33.024  30.393  1.00  0.00     0.016 A 
ATOM     34  C   UNL A   1      35.326  33.789  28.138  1.00  0.00     0.016 A 
ATOM     35  C   UNL A   1      36.073  32.401  30.467  1.00  0.00     0.010 A 
ATOM     36  C   UNL A   1      36.582  33.179  28.222  1.00  0.00     0.010 A 
ATOM     37  C   UNL A   1      36.972  32.518  29.401  1.00  0.00    -0.014 A 
BRANCH  37  38
ATOM     38  C   UNL A   1      38.384  32.117  29.596  1.00  0.00     0.031 A 
ATOM     39  C   UNL A   1      38.806  30.738  29.170  1.00  0.00     0.074 A 
ATOM     40  C   UNL A   1      39.281  32.971  30.116  1.00  0.00     0.049 A 
ATOM     41  N   UNL A   1      39.979  30.164  29.254  1.00  0.00    -0.248 NA
ATOM     42  C   UNL A   1      37.762  29.895  28.564  1.00  0.00     0.031 C 
ATOM     43  C   UNL A   1      39.003  34.347  30.520  1.00  0.00     0.029 A 
ATOM     44  N   UNL A   1      40.612  32.797  30.394  1.00  0.00    -0.354 N 
ATOM     45  C   UNL A   1      39.818  28.899  28.702  1.00  0.00     0.074 A 
ATOM     46  C   UNL A   1      38.428  28.775  28.322  1.00  0.00     0.031 C 
ATOM     47  C   UNL A   1      40.132  34.892  31.009  1.00  0.00     0.029 A 
ATOM     48  C   UNL A   1      41.199  33.894  30.973  1.00  0.00     0.049 A 
ATOM     49  H   UNL A   1      41.100  31.965  30.197  1.00  0.00     0.167 HD
ATOM     50  C   UNL A   1      40.748  27.931  28.519  1.00  0.00     0.037 A 
ATOM     51  C   UNL A   1      42.452  34.060  31.437  1.00  0.00     0.037 A 
ATOM     52  C   UNL A   1      42.124  28.043  28.925  1.00  0.00     0.049 A 
ATOM     53  C   UNL A   1      43.437  32.926  31.328  1.00  0.00     0.074 A 
ATOM     54  C   UNL A   1      43.145  27.121  28.784  1.00  0.00     0.029 A 
ATOM     55  N   UNL A   1      42.665  29.145  29.567  1.00  0.00    -0.354 N 
ATOM     56  N   UNL A   1      43.285  31.745  30.782  1.00  0.00    -0.248 NA
ATOM     57  C   UNL A   1      44.770  33.152  31.906  1.00  0.00     0.031 C 
ATOM     58  C   UNL A   1      44.294  27.648  29.384  1.00  0.00     0.029 A 
ATOM     59  C   UNL A   1      43.999  28.916  29.859  1.00  0.00     0.049 A 
ATOM     60  H   UNL A   1      42.174  29.971  29.784  1.00  0.00     0.167 HD
ATOM     61  C   UNL A   1      44.505  31.097  30.927  1.00  0.00     0.074 A 
ATOM     62  C   UNL A   1      45.392  32.023  31.601  1.00  0.00     0.031 C 
ATOM     63  C   UNL A   1      44.864  29.849  30.536  1.00  0.00     0.037 A 
BRANCH  50  64
ATOM     64  C   UNL A   1      40.285  26.658  27.877  1.00  0.00     0.057 A 
ATOM     65  C   UNL A   1      40.655  26.341  26.565  1.00  0.00     0.134 A 
ATOM     66  C   UNL A   1      39.478  25.738  28.562  1.00  0.00     0.134 A 
ATOM     67  F   UNL A   1      41.427  27.177  25.855  1.00  0.00    -0.206 F 
ATOM     68  C   UNL A   1      40.244  25.153  25.957  1.00  0.00     0.040 A 
ATOM     69  C   UNL A   1      39.079  24.537  27.973  1.00  0.00     0.040 A 
ATOM     70  F   UNL A   1      39.103  25.974  29.829  1.00  0.00    -0.206 F 
ATOM     71  C   UNL A   1      39.461  24.244  26.664  1.00  0.00     0.006 A 
ENDBRANCH  50  64
BRANCH  51  72
ATOM     72  C   UNL A   1      42.853  35.344  32.062  1.00  0.00     0.057 A 
ATOM     73  C   UNL A   1      43.446  36.366  31.312  1.00  0.00     0.134 A 
ATOM     74  C   UNL A   1      42.615  35.593  33.418  1.00  0.00     0.134 A 
ATOM     75  F   UNL A   1      43.696  36.189  30.005  1.00  0.00    -0.206 F 
ATOM     76  C   UNL A   1      43.794  37.588  31.888  1.00  0.00     0.040 A 
ATOM     77  C   UNL A   1      42.938  36.818  34.003  1.00  0.00     0.040 A 
ATOM     78  F   UNL A   1      42.026  34.662  34.182  1.00  0.00    -0.206 F 
ATOM     79  C   UNL A   1      43.532  37.819  33.237  1.00  0.00     0.006 A 
ENDBRANCH  51  72
BRANCH  63  80
ATOM     80  C   UNL A   1      46.279  29.430  30.807  1.00  0.00     0.057 A 
ATOM     81  C   UNL A   1      47.269  29.578  29.827  1.00  0.00     0.134 A 
ATOM     82  C   UNL A   1      46.659  28.863  32.030  1.00  0.00     0.134 A 
ATOM     83  F   UNL A   1      46.970  30.107  28.632  1.00  0.00    -0.206 F 
ATOM     84  C   UNL A   1      48.586  29.178  30.054  1.00  0.00     0.040 A 
ATOM     85  C   UNL A   1      47.979  28.482  32.278  1.00  0.00     0.040 A 
ATOM     86  F   UNL A   1      45.761  28.707  33.016  1.00  0.00    -0.206 F 
ATOM     87  C   UNL A   1      48.946  28.634  31.285  1.00  0.00     0.006 A 
ENDBRANCH  63  80
ENDBRANCH  37  38
ENDBRANCH  30  32
ENDBRANCH  29  30
ENDBRANCH  28  29
ENDBRANCH  27  28
ENDBRANCH   1  27
TORSDOF 17
ENDMDL
MODEL 3
REMARK VINA RESULT:     -11.7      3.877      9.538
REMARK SMILES Cc1cc(OC(F)(F)F)cc2c1O[C@H](C(F)(F)F)C(C(=O)OCCOCCOC(=O)c1ccc(-c3c4nc(c(-c5c(F)cccc5F)c5ccc([nH]5)c(-c5c(F)cccc5F)c5nc(c(-c6c(F)cccc6F)c6ccc3[nH]6)C=C5)C=C4)cc1)=C2
REMARK SMILES IDX 25 1 24 2 23 3 22 4 20 5 21 6 19 7 1 8 2 9 3 10 12 11 4 12
REMARK SMILES IDX 11 13 13 14 10 15 85 16 14 17 5 18 6 19 7 20 8 21 9 22 15 23
REMARK SMILES IDX 16 24 17 25 18 26 26 27 27 28 28 29 29 30 30 31 31 32 32 33
REMARK SMILES IDX 84 34 33 35 83 36 34 37 35 38 36 39 77 40 37 41 82 42 76 43
REMARK SMILES IDX 78 44 38 45 81 46 75 47 74 48 39 50 65 51 48 52 64 53 49 54
REMARK SMILES IDX 52 55 63 56 79 57 50 58 51 59 62 61 80 62 53 63 40 64 41 65
REMARK SMILES IDX 46 66 42 67 43 68 45 69 47 70 44 71 66 72 67 73 72 74 68 75
REMARK SMILES IDX 69 76 71 77 73 78 70 79 54 80 55 81 60 82 56 83 57 84 59 85
REMARK SMILES IDX 61 86 58 87
REMARK H PARENT 78 49 52 60
REMARK Flexibility Score: inf
ROOT
ATOM      1  O   UNL A   1      31.078  30.599  25.359  1.00  0.00    -0.374 OA
ENDROOT
BRANCH   1   2
ATOM      2  C   UNL A   1      31.585  29.427  24.728  1.00  0.00     0.202 C 
BRANCH   2   3
ATOM      3  C   UNL A   1      32.448  28.509  25.597  1.00  0.00     0.261 C 
BRANCH   3   4
ATOM      4  O   UNL A   1      32.362  27.141  25.164  1.00  0.00    -0.460 OA
BRANCH   4   5
ATOM      5  C   UNL A   1      31.675  26.330  26.001  1.00  0.00     0.338 C 
ATOM      6  O   UNL A   1      30.825  26.665  26.812  1.00  0.00    -0.246 OA
BRANCH   5   7
ATOM      7  C   UNL A   1      32.015  24.923  25.728  1.00  0.00     0.087 C 
ATOM      8  C   UNL A   1      32.407  20.187  23.822  1.00  0.00     0.048 C 
ATOM      9  C   UNL A   1      33.294  21.109  24.613  1.00  0.00    -0.005 A 
ATOM     10  C   UNL A   1      34.616  20.722  24.908  1.00  0.00     0.054 A 
ATOM     11  C   UNL A   1      32.823  22.352  25.063  1.00  0.00     0.131 A 
ATOM     12  C   UNL A   1      35.460  21.563  25.632  1.00  0.00     0.130 A 
ATOM     13  C   UNL A   1      33.675  23.206  25.762  1.00  0.00     0.021 A 
ATOM     14  O   UNL A   1      31.519  22.663  24.791  1.00  0.00    -0.475 OA
ATOM     15  C   UNL A   1      34.979  22.801  26.062  1.00  0.00     0.058 A 
ATOM     16  C   UNL A   1      33.237  24.541  26.119  1.00  0.00     0.027 C 
ATOM     17  C   UNL A   1      31.043  24.019  25.025  1.00  0.00     0.316 C 
BRANCH  12  18
ATOM     18  O   UNL A   1      36.756  21.317  25.983  1.00  0.00    -0.406 OA
BRANCH  18  19
ATOM     19  C   UNL A   1      37.714  21.203  24.945  1.00  0.00     0.573 C 
ATOM     20  F   UNL A   1      37.356  21.940  23.873  1.00  0.00    -0.132 F 
ATOM     21  F   UNL A   1      38.939  21.583  25.367  1.00  0.00    -0.132 F 
ATOM     22  F   UNL A   1      37.783  19.909  24.562  1.00  0.00    -0.132 F 
ENDBRANCH  18  19
ENDBRANCH  12  18
BRANCH  17  23
ATOM     23  C   UNL A   1      30.559  24.593  23.684  1.00  0.00     0.430 C 
ATOM     24  F   UNL A   1      29.999  23.629  22.913  1.00  0.00    -0.167 F 
ATOM     25  F   UNL A   1      29.613  25.545  23.855  1.00  0.00    -0.167 F 
ATOM     26  F   UNL A   1      31.568  25.145  22.974  1.00  0.00    -0.167 F 
ENDBRANCH  17  23
ENDBRANCH   5   7
ENDBRANCH   4   5
ENDBRANCH   3   4
ENDBRANCH   2   3
ENDBRANCH   1   2
BRANCH   1  27
ATOM     27  C   UNL A   1      31.766  31.080  26.516  1.00  0.00     0.202 C 
BRANCH  27  28
ATOM     28  C   UNL A   1      31.505  32.538  26.914  1.00  0.00     0.261 C 
BRANCH  28  29
ATOM     29  O   UNL A   1      32.694  33.345  26.790  1.00  0.00    -0.460 OA
BRANCH  29  30
ATOM     30  C   UNL A   1      33.184  33.823  27.956  1.00  0.00     0.338 C 
ATOM     31  O   UNL A   1      32.652  34.614  28.722  1.00  0.00    -0.246 OA
BRANCH  30  32
ATOM     32  C   UNL A   1      34.431  33.122  28.298  1.00  0.00     0.060 A 
ATOM     33  C   UNL A   1      34.338  31.797  28.745  1.00  0.00     0.016 A 
ATOM     34  C   UNL A   1      35.654  33.793  28.298  1.00  0.00     0.016 A 
ATOM     35  C   UNL A   1      35.468  31.150  29.239  1.00  0.00     0.010 A 
ATOM     36  C   UNL A   1      36.783  33.148  28.813  1.00  0.00     0.010 A 
ATOM     37  C   UNL A   1      36.683  31.840  29.320  1.00  0.00    -0.014 A 
BRANCH  37  38
ATOM     38  C   UNL A   1      37.794  31.262  30.109  1.00  0.00     0.031 A 
ATOM     39  C   UNL A   1      38.699  30.258  29.450  1.00  0.00     0.074 A 
ATOM     40  C   UNL A   1      38.012  31.641  31.379  1.00  0.00     0.049 A 
ATOM     41  N   UNL A   1      39.724  29.612  29.944  1.00  0.00    -0.248 NA
ATOM     42  C   UNL A   1      38.410  29.946  28.041  1.00  0.00     0.031 C 
ATOM     43  C   UNL A   1      37.235  32.639  32.110  1.00  0.00     0.029 A 
ATOM     44  N   UNL A   1      38.959  31.223  32.279  1.00  0.00    -0.354 N 
ATOM     45  C   UNL A   1      40.209  28.826  28.906  1.00  0.00     0.074 A 
ATOM     46  C   UNL A   1      39.344  29.048  27.767  1.00  0.00     0.031 C 
ATOM     47  C   UNL A   1      37.729  32.748  33.355  1.00  0.00     0.029 A 
ATOM     48  C   UNL A   1      38.839  31.810  33.513  1.00  0.00     0.049 A 
ATOM     49  H   UNL A   1      39.657  30.564  32.060  1.00  0.00     0.167 HD
ATOM     50  C   UNL A   1      41.283  28.001  28.898  1.00  0.00     0.037 A 
ATOM     51  C   UNL A   1      39.537  31.595  34.644  1.00  0.00     0.037 A 
ATOM     52  C   UNL A   1      42.125  27.758  30.039  1.00  0.00     0.049 A 
ATOM     53  C   UNL A   1      40.655  30.586  34.643  1.00  0.00     0.074 A 
ATOM     54  C   UNL A   1      43.238  26.942  30.136  1.00  0.00     0.029 A 
ATOM     55  N   UNL A   1      41.932  28.322  31.291  1.00  0.00    -0.354 N 
ATOM     56  N   UNL A   1      41.122  29.868  33.651  1.00  0.00    -0.248 NA
ATOM     57  C   UNL A   1      41.338  30.357  35.924  1.00  0.00     0.031 C 
ATOM     58  C   UNL A   1      43.691  26.977  31.459  1.00  0.00     0.029 A 
ATOM     59  C   UNL A   1      42.887  27.849  32.176  1.00  0.00     0.049 A 
ATOM     60  H   UNL A   1      41.221  28.965  31.518  1.00  0.00     0.167 HD
ATOM     61  C   UNL A   1      42.169  29.123  34.180  1.00  0.00     0.074 A 
ATOM     62  C   UNL A   1      42.275  29.486  35.578  1.00  0.00     0.031 C 
ATOM     63  C   UNL A   1      42.973  28.219  33.565  1.00  0.00     0.037 A 
BRANCH  50  64
ATOM     64  C   UNL A   1      41.579  27.283  27.616  1.00  0.00     0.057 A 
ATOM     65  C   UNL A   1      42.420  27.853  26.653  1.00  0.00     0.134 A 
ATOM     66  C   UNL A   1      41.038  26.021  27.336  1.00  0.00     0.134 A 
ATOM     67  F   UNL A   1      42.972  29.059  26.859  1.00  0.00    -0.206 F 
ATOM     68  C   UNL A   1      42.718  27.192  25.460  1.00  0.00     0.040 A 
ATOM     69  C   UNL A   1      41.345  25.340  26.157  1.00  0.00     0.040 A 
ATOM     70  F   UNL A   1      40.238  25.412  28.225  1.00  0.00    -0.206 F 
ATOM     71  C   UNL A   1      42.186  25.928  25.213  1.00  0.00     0.006 A 
ENDBRANCH  50  64
BRANCH  51  72
ATOM     72  C   UNL A   1      39.198  32.337  35.883  1.00  0.00     0.057 A 
ATOM     73  C   UNL A   1      38.328  31.800  36.839  1.00  0.00     0.134 A 
ATOM     74  C   UNL A   1      39.769  33.584  36.158  1.00  0.00     0.134 A 
ATOM     75  F   UNL A   1      37.751  30.606  36.635  1.00  0.00    -0.206 F 
ATOM     76  C   UNL A   1      38.032  32.479  38.021  1.00  0.00     0.040 A 
ATOM     77  C   UNL A   1      39.500  34.265  37.346  1.00  0.00     0.040 A 
ATOM     78  F   UNL A   1      40.631  34.137  35.292  1.00  0.00    -0.206 F 
ATOM     79  C   UNL A   1      38.626  33.713  38.280  1.00  0.00     0.006 A 
ENDBRANCH  51  72
BRANCH  63  80
ATOM     80  C   UNL A   1      44.048  27.586  34.399  1.00  0.00     0.057 A 
ATOM     81  C   UNL A   1      43.821  26.368  35.053  1.00  0.00     0.134 A 
ATOM     82  C   UNL A   1      45.301  28.189  34.570  1.00  0.00     0.134 A 
ATOM     83  F   UNL A   1      42.640  25.742  34.937  1.00  0.00    -0.206 F 
ATOM     84  C   UNL A   1      44.802  25.772  35.846  1.00  0.00     0.040 A 
ATOM     85  C   UNL A   1      46.299  27.589  35.341  1.00  0.00     0.040 A 
ATOM     86  F   UNL A   1      45.587  29.348  33.958  1.00  0.00    -0.206 F 
ATOM     87  C   UNL A   1      46.048  26.379  35.986  1.00  0.00     0.006 A 
ENDBRANCH  63  80
ENDBRANCH  37  38
ENDBRANCH  30  32
ENDBRANCH  29  30
ENDBRANCH  28  29
ENDBRANCH  27  28
ENDBRANCH   1  27
TORSDOF 17
ENDMDL
