MODEL 1
REMARK VINA RESULT:      -8.8      0.000      0.000
REMARK SMILES O=C(OCCOCCOC(=O)c1cc(-c2ccsc2)nc2ccccc12)c1ccc(-c2c3nc(c(-c4c(F)cccc4F)c4ccc([nH]4)c(-c4c(F)cccc4F)c4nc(c(-c5c(F)cccc5F)c5ccc2[nH]5)C=C4)C=C3)cc1
REMARK SMILES IDX 5 1 4 2 3 3 2 4 1 5 27 6 28 7 80 8 29 9 79 10 30 11 31 12
REMARK SMILES IDX 32 13 73 14 33 15 78 16 72 17 74 18 34 19 77 20 71 21 70 22
REMARK SMILES IDX 35 24 61 25 44 26 60 27 45 28 48 29 59 30 75 31 46 32 47 33
REMARK SMILES IDX 58 35 76 36 49 37 36 38 37 39 42 40 38 41 39 42 41 43 43 44
REMARK SMILES IDX 40 45 62 46 63 47 68 48 64 49 65 50 67 51 69 52 66 53 50 54
REMARK SMILES IDX 51 55 56 56 52 57 53 58 55 59 57 60 54 61 6 62 7 63 8 64
REMARK SMILES IDX 9 65 10 66 11 67 12 68 13 69 26 70 14 71 21 72 25 73 20 74
REMARK SMILES IDX 22 75 24 76 23 77 15 78 16 79 19 80 17 81 18 82
REMARK H PARENT 74 23 48 34
REMARK Flexibility Score: inf
ROOT
ATOM      1  C   UNL A   1      33.327  35.664  32.498  1.00  0.00     0.202 C 
ENDROOT
BRANCH   1   2
ATOM      2  C   UNL A   1      33.029  36.258  31.119  1.00  0.00     0.261 C 
BRANCH   2   3
ATOM      3  O   UNL A   1      32.523  35.245  30.235  1.00  0.00    -0.460 OA
BRANCH   3   4
ATOM      4  C   UNL A   1      33.183  34.529  29.296  1.00  0.00     0.338 C 
ATOM      5  O   UNL A   1      32.640  34.353  28.207  1.00  0.00    -0.246 OA
BRANCH   4   6
ATOM      6  C   UNL A   1      34.537  33.924  29.500  1.00  0.00     0.060 A 
ATOM      7  C   UNL A   1      34.822  32.858  30.355  1.00  0.00     0.016 A 
ATOM      8  C   UNL A   1      35.578  34.403  28.683  1.00  0.00     0.016 A 
ATOM      9  C   UNL A   1      36.087  32.297  30.427  1.00  0.00     0.010 A 
ATOM     10  C   UNL A   1      36.853  33.832  28.731  1.00  0.00     0.010 A 
ATOM     11  C   UNL A   1      37.104  32.778  29.612  1.00  0.00    -0.014 A 
BRANCH  11  12
ATOM     12  C   UNL A   1      38.444  32.202  29.797  1.00  0.00     0.031 A 
ATOM     13  C   UNL A   1      39.424  32.951  30.642  1.00  0.00     0.074 A 
ATOM     14  C   UNL A   1      38.694  30.960  29.345  1.00  0.00     0.049 A 
ATOM     15  N   UNL A   1      40.657  32.649  30.941  1.00  0.00    -0.248 NA
ATOM     16  C   UNL A   1      38.940  34.202  31.251  1.00  0.00     0.031 C 
ATOM     17  C   UNL A   1      37.732  30.114  28.634  1.00  0.00     0.029 A 
ATOM     18  N   UNL A   1      39.814  30.182  29.445  1.00  0.00    -0.354 N 
ATOM     19  C   UNL A   1      41.104  33.682  31.752  1.00  0.00     0.074 A 
ATOM     20  C   UNL A   1      40.013  34.617  31.906  1.00  0.00     0.031 C 
ATOM     21  C   UNL A   1      38.300  28.924  28.378  1.00  0.00     0.029 A 
ATOM     22  C   UNL A   1      39.681  28.952  28.848  1.00  0.00     0.049 A 
ATOM     23  H   UNL A   1      40.636  30.475  29.902  1.00  0.00     0.167 HD
ATOM     24  C   UNL A   1      42.328  33.831  32.307  1.00  0.00     0.037 A 
ATOM     25  C   UNL A   1      40.595  27.979  28.676  1.00  0.00     0.037 A 
ATOM     26  C   UNL A   1      43.392  32.881  32.125  1.00  0.00     0.049 A 
ATOM     27  C   UNL A   1      41.979  28.219  29.215  1.00  0.00     0.074 A 
ATOM     28  C   UNL A   1      44.700  32.951  32.560  1.00  0.00     0.029 A 
ATOM     29  N   UNL A   1      43.253  31.679  31.445  1.00  0.00    -0.354 N 
ATOM     30  N   UNL A   1      42.428  29.235  29.915  1.00  0.00    -0.248 NA
ATOM     31  C   UNL A   1      42.989  27.193  28.926  1.00  0.00     0.031 C 
ATOM     32  C   UNL A   1      45.365  31.806  32.108  1.00  0.00     0.029 A 
ATOM     33  C   UNL A   1      44.459  31.002  31.432  1.00  0.00     0.049 A 
ATOM     34  H   UNL A   1      42.419  31.355  31.032  1.00  0.00     0.167 HD
ATOM     35  C   UNL A   1      43.766  28.967  30.164  1.00  0.00     0.074 A 
ATOM     36  C   UNL A   1      44.049  27.680  29.557  1.00  0.00     0.031 C 
ATOM     37  C   UNL A   1      44.685  29.714  30.823  1.00  0.00     0.037 A 
BRANCH  24  38
ATOM     38  C   UNL A   1      42.580  35.092  33.073  1.00  0.00     0.057 A 
ATOM     39  C   UNL A   1      42.103  35.285  34.376  1.00  0.00     0.134 A 
ATOM     40  C   UNL A   1      43.279  36.150  32.478  1.00  0.00     0.134 A 
ATOM     41  F   UNL A   1      41.396  34.324  34.990  1.00  0.00    -0.206 F 
ATOM     42  C   UNL A   1      42.294  36.492  35.051  1.00  0.00     0.040 A 
ATOM     43  C   UNL A   1      43.494  37.355  33.151  1.00  0.00     0.040 A 
ATOM     44  F   UNL A   1      43.751  36.037  31.228  1.00  0.00    -0.206 F 
ATOM     45  C   UNL A   1      42.995  37.530  34.440  1.00  0.00     0.006 A 
ENDBRANCH  24  38
BRANCH  25  46
ATOM     46  C   UNL A   1      40.258  26.746  27.919  1.00  0.00     0.057 A 
ATOM     47  C   UNL A   1      39.495  25.720  28.488  1.00  0.00     0.134 A 
ATOM     48  C   UNL A   1      40.717  26.549  26.608  1.00  0.00     0.134 A 
ATOM     49  F   UNL A   1      39.042  25.833  29.745  1.00  0.00    -0.206 F 
ATOM     50  C   UNL A   1      39.218  24.539  27.793  1.00  0.00     0.040 A 
ATOM     51  C   UNL A   1      40.423  25.388  25.891  1.00  0.00     0.040 A 
ATOM     52  F   UNL A   1      41.454  27.490  26.000  1.00  0.00    -0.206 F 
ATOM     53  C   UNL A   1      39.678  24.373  26.488  1.00  0.00     0.006 A 
ENDBRANCH  25  46
BRANCH  37  54
ATOM     54  C   UNL A   1      46.061  29.137  30.943  1.00  0.00     0.057 A 
ATOM     55  C   UNL A   1      47.030  29.335  29.952  1.00  0.00     0.134 A 
ATOM     56  C   UNL A   1      46.431  28.420  32.086  1.00  0.00     0.134 A 
ATOM     57  F   UNL A   1      46.727  30.002  28.829  1.00  0.00    -0.206 F 
ATOM     58  C   UNL A   1      48.320  28.823  30.088  1.00  0.00     0.040 A 
ATOM     59  C   UNL A   1      47.724  27.925  32.245  1.00  0.00     0.040 A 
ATOM     60  F   UNL A   1      45.547  28.206  33.073  1.00  0.00    -0.206 F 
ATOM     61  C   UNL A   1      48.671  28.123  31.241  1.00  0.00     0.006 A 
ENDBRANCH  37  54
ENDBRANCH  11  12
ENDBRANCH   4   6
ENDBRANCH   3   4
ENDBRANCH   2   3
ENDBRANCH   1   2
BRANCH   1  62
ATOM     62  O   UNL A   1      34.717  35.521  32.785  1.00  0.00    -0.374 OA
BRANCH  62  63
ATOM     63  C   UNL A   1      35.105  34.274  33.375  1.00  0.00     0.202 C 
BRANCH  63  64
ATOM     64  C   UNL A   1      36.485  34.436  34.008  1.00  0.00     0.261 C 
BRANCH  64  65
ATOM     65  O   UNL A   1      37.231  33.243  33.728  1.00  0.00    -0.460 OA
BRANCH  65  66
ATOM     66  C   UNL A   1      37.592  32.501  34.806  1.00  0.00     0.338 C 
ATOM     67  O   UNL A   1      37.032  32.437  35.887  1.00  0.00    -0.246 OA
BRANCH  66  68
ATOM     68  C   UNL A   1      38.661  31.577  34.377  1.00  0.00     0.071 A 
ATOM     69  C   UNL A   1      39.920  31.812  34.931  1.00  0.00     0.045 A 
ATOM     70  C   UNL A   1      38.429  30.466  33.537  1.00  0.00     0.015 A 
ATOM     71  C   UNL A   1      40.911  30.889  34.679  1.00  0.00     0.073 A 
ATOM     72  C   UNL A   1      39.525  29.606  33.333  1.00  0.00     0.072 A 
ATOM     73  C   UNL A   1      37.197  30.169  32.898  1.00  0.00     0.011 A 
ATOM     74  N   UNL A   1      40.731  29.807  33.892  1.00  0.00    -0.248 NA
ATOM     75  C   UNL A   1      39.355  28.488  32.527  1.00  0.00     0.029 A 
ATOM     76  C   UNL A   1      37.050  29.037  32.103  1.00  0.00     0.001 A 
ATOM     77  C   UNL A   1      38.134  28.194  31.916  1.00  0.00     0.002 A 
BRANCH  71  78
ATOM     78  C   UNL A   1      42.221  31.011  35.292  1.00  0.00     0.011 A 
ATOM     79  C   UNL A   1      43.424  30.356  34.884  1.00  0.00     0.022 A 
ATOM     80  C   UNL A   1      42.422  31.777  36.423  1.00  0.00     0.075 A 
ATOM     81  C   UNL A   1      44.493  30.673  35.694  1.00  0.00     0.065 A 
ATOM     82  S   UNL A   1      44.050  31.740  36.955  1.00  0.00    -0.152 S 
ENDBRANCH  71  78
ENDBRANCH  66  68
ENDBRANCH  65  66
ENDBRANCH  64  65
ENDBRANCH  63  64
ENDBRANCH  62  63
ENDBRANCH   1  62
TORSDOF 15
ENDMDL
MODEL 2
REMARK VINA RESULT:      -8.8      5.240      8.185
REMARK SMILES O=C(OCCOCCOC(=O)c1cc(-c2ccsc2)nc2ccccc12)c1ccc(-c2c3nc(c(-c4c(F)cccc4F)c4ccc([nH]4)c(-c4c(F)cccc4F)c4nc(c(-c5c(F)cccc5F)c5ccc2[nH]5)C=C4)C=C3)cc1
REMARK SMILES IDX 5 1 4 2 3 3 2 4 1 5 27 6 28 7 80 8 29 9 79 10 30 11 31 12
REMARK SMILES IDX 32 13 73 14 33 15 78 16 72 17 74 18 34 19 77 20 71 21 70 22
REMARK SMILES IDX 35 24 61 25 44 26 60 27 45 28 48 29 59 30 75 31 46 32 47 33
REMARK SMILES IDX 58 35 76 36 49 37 36 38 37 39 42 40 38 41 39 42 41 43 43 44
REMARK SMILES IDX 40 45 62 46 63 47 68 48 64 49 65 50 67 51 69 52 66 53 50 54
REMARK SMILES IDX 51 55 56 56 52 57 53 58 55 59 57 60 54 61 6 62 7 63 8 64
REMARK SMILES IDX 9 65 10 66 11 67 12 68 13 69 26 70 14 71 21 72 25 73 20 74
REMARK SMILES IDX 22 75 24 76 23 77 15 78 16 79 19 80 17 81 18 82
REMARK H PARENT 74 23 48 34
REMARK Flexibility Score: inf
ROOT
ATOM      1  C   UNL A   1      31.927  31.067  26.198  1.00  0.00     0.202 C 
ENDROOT
BRANCH   1   2
ATOM      2  C   UNL A   1      31.395  32.322  26.894  1.00  0.00     0.261 C 
BRANCH   2   3
ATOM      3  O   UNL A   1      32.400  33.349  26.913  1.00  0.00    -0.460 OA
BRANCH   3   4
ATOM      4  C   UNL A   1      33.085  33.847  27.967  1.00  0.00     0.338 C 
ATOM      5  O   UNL A   1      32.730  34.927  28.436  1.00  0.00    -0.246 OA
BRANCH   4   6
ATOM      6  C   UNL A   1      34.262  33.173  28.598  1.00  0.00     0.060 A 
ATOM      7  C   UNL A   1      34.289  31.850  29.044  1.00  0.00     0.016 A 
ATOM      8  C   UNL A   1      35.464  33.903  28.647  1.00  0.00     0.016 A 
ATOM      9  C   UNL A   1      35.444  31.271  29.543  1.00  0.00     0.010 A 
ATOM     10  C   UNL A   1      36.642  33.323  29.128  1.00  0.00     0.010 A 
ATOM     11  C   UNL A   1      36.625  32.002  29.581  1.00  0.00    -0.014 A 
BRANCH  11  12
ATOM     12  C   UNL A   1      37.793  31.362  30.202  1.00  0.00     0.031 A 
ATOM     13  C   UNL A   1      38.033  31.592  31.660  1.00  0.00     0.074 A 
ATOM     14  C   UNL A   1      38.510  30.473  29.492  1.00  0.00     0.049 A 
ATOM     15  N   UNL A   1      38.993  31.143  32.419  1.00  0.00    -0.248 NA
ATOM     16  C   UNL A   1      37.040  32.423  32.362  1.00  0.00     0.031 C 
ATOM     17  C   UNL A   1      38.242  30.094  28.102  1.00  0.00     0.029 A 
ATOM     18  N   UNL A   1      39.582  29.702  29.848  1.00  0.00    -0.354 N 
ATOM     19  C   UNL A   1      38.735  31.656  33.683  1.00  0.00     0.074 A 
ATOM     20  C   UNL A   1      37.527  32.444  33.593  1.00  0.00     0.031 C 
ATOM     21  C   UNL A   1      39.119  29.147  27.729  1.00  0.00     0.029 A 
ATOM     22  C   UNL A   1      40.044  28.904  28.830  1.00  0.00     0.049 A 
ATOM     23  H   UNL A   1      39.983  29.717  30.747  1.00  0.00     0.167 HD
ATOM     24  C   UNL A   1      39.460  31.484  34.811  1.00  0.00     0.037 A 
ATOM     25  C   UNL A   1      41.121  28.097  28.795  1.00  0.00     0.037 A 
ATOM     26  C   UNL A   1      40.662  30.698  34.859  1.00  0.00     0.049 A 
ATOM     27  C   UNL A   1      41.967  28.007  30.036  1.00  0.00     0.074 A 
ATOM     28  C   UNL A   1      41.534  30.510  35.913  1.00  0.00     0.029 A 
ATOM     29  N   UNL A   1      41.154  29.963  33.788  1.00  0.00    -0.354 N 
ATOM     30  N   UNL A   1      41.769  28.558  31.212  1.00  0.00    -0.248 NA
ATOM     31  C   UNL A   1      43.194  27.206  29.945  1.00  0.00     0.031 C 
ATOM     32  C   UNL A   1      42.577  29.692  35.467  1.00  0.00     0.029 A 
ATOM     33  C   UNL A   1      42.330  29.332  34.150  1.00  0.00     0.049 A 
ATOM     34  H   UNL A   1      40.729  29.900  32.902  1.00  0.00     0.167 HD
ATOM     35  C   UNL A   1      42.834  28.159  32.005  1.00  0.00     0.074 A 
ATOM     36  C   UNL A   1      43.665  27.302  31.181  1.00  0.00     0.031 C 
ATOM     37  C   UNL A   1      43.114  28.476  33.293  1.00  0.00     0.037 A 
BRANCH  24  38
ATOM     38  C   UNL A   1      39.007  32.227  36.030  1.00  0.00     0.057 A 
ATOM     39  C   UNL A   1      38.170  31.647  36.992  1.00  0.00     0.134 A 
ATOM     40  C   UNL A   1      39.385  33.561  36.223  1.00  0.00     0.134 A 
ATOM     41  F   UNL A   1      37.744  30.383  36.848  1.00  0.00    -0.206 F 
ATOM     42  C   UNL A   1      37.709  32.375  38.091  1.00  0.00     0.040 A 
ATOM     43  C   UNL A   1      38.946  34.294  37.328  1.00  0.00     0.040 A 
ATOM     44  F   UNL A   1      40.175  34.181  35.333  1.00  0.00    -0.206 F 
ATOM     45  C   UNL A   1      38.100  33.701  38.262  1.00  0.00     0.006 A 
ENDBRANCH  24  38
BRANCH  25  46
ATOM     46  C   UNL A   1      41.491  27.378  27.548  1.00  0.00     0.057 A 
ATOM     47  C   UNL A   1      41.145  26.038  27.343  1.00  0.00     0.134 A 
ATOM     48  C   UNL A   1      42.229  28.009  26.536  1.00  0.00     0.134 A 
ATOM     49  F   UNL A   1      40.458  25.367  28.279  1.00  0.00    -0.206 F 
ATOM     50  C   UNL A   1      41.534  25.347  26.191  1.00  0.00     0.040 A 
ATOM     51  C   UNL A   1      42.598  27.341  25.368  1.00  0.00     0.040 A 
ATOM     52  F   UNL A   1      42.596  29.293  26.666  1.00  0.00    -0.206 F 
ATOM     53  C   UNL A   1      42.259  26.001  25.197  1.00  0.00     0.006 A 
ENDBRANCH  25  46
BRANCH  37  54
ATOM     54  C   UNL A   1      44.345  27.865  33.885  1.00  0.00     0.057 A 
ATOM     55  C   UNL A   1      45.576  28.532  33.872  1.00  0.00     0.134 A 
ATOM     56  C   UNL A   1      44.284  26.618  34.518  1.00  0.00     0.134 A 
ATOM     57  F   UNL A   1      45.698  29.723  33.268  1.00  0.00    -0.206 F 
ATOM     58  C   UNL A   1      46.710  27.970  34.456  1.00  0.00     0.040 A 
ATOM     59  C   UNL A   1      45.404  26.058  35.127  1.00  0.00     0.040 A 
ATOM     60  F   UNL A   1      43.129  25.936  34.568  1.00  0.00    -0.206 F 
ATOM     61  C   UNL A   1      46.623  26.733  35.093  1.00  0.00     0.006 A 
ENDBRANCH  37  54
ENDBRANCH  11  12
ENDBRANCH   4   6
ENDBRANCH   3   4
ENDBRANCH   2   3
ENDBRANCH   1   2
BRANCH   1  62
ATOM     62  O   UNL A   1      32.003  29.918  27.041  1.00  0.00    -0.374 OA
BRANCH  62  63
ATOM     63  C   UNL A   1      33.175  29.108  26.883  1.00  0.00     0.202 C 
BRANCH  63  64
ATOM     64  C   UNL A   1      32.760  27.639  26.866  1.00  0.00     0.261 C 
BRANCH  64  65
ATOM     65  O   UNL A   1      31.329  27.595  26.775  1.00  0.00    -0.460 OA
BRANCH  65  66
ATOM     66  C   UNL A   1      30.808  26.552  26.082  1.00  0.00     0.338 C 
ATOM     67  O   UNL A   1      30.299  25.539  26.533  1.00  0.00    -0.246 OA
BRANCH  66  68
ATOM     68  C   UNL A   1      30.733  26.948  24.661  1.00  0.00     0.071 A 
ATOM     69  C   UNL A   1      30.009  28.111  24.398  1.00  0.00     0.045 A 
ATOM     70  C   UNL A   1      31.419  26.265  23.633  1.00  0.00     0.015 A 
ATOM     71  C   UNL A   1      30.037  28.602  23.110  1.00  0.00     0.073 A 
ATOM     72  C   UNL A   1      31.354  26.849  22.354  1.00  0.00     0.072 A 
ATOM     73  C   UNL A   1      32.146  25.057  23.799  1.00  0.00     0.011 A 
ATOM     74  N   UNL A   1      30.687  27.989  22.099  1.00  0.00    -0.248 NA
ATOM     75  C   UNL A   1      32.019  26.231  21.304  1.00  0.00     0.029 A 
ATOM     76  C   UNL A   1      32.811  24.462  22.732  1.00  0.00     0.001 A 
ATOM     77  C   UNL A   1      32.747  25.052  21.479  1.00  0.00     0.002 A 
BRANCH  71  78
ATOM     78  C   UNL A   1      29.387  29.855  22.773  1.00  0.00     0.011 A 
ATOM     79  C   UNL A   1      29.198  30.983  23.630  1.00  0.00     0.022 A 
ATOM     80  C   UNL A   1      28.813  30.061  21.533  1.00  0.00     0.075 A 
ATOM     81  C   UNL A   1      28.523  32.009  23.004  1.00  0.00     0.065 A 
ATOM     82  S   UNL A   1      28.098  31.612  21.396  1.00  0.00    -0.152 S 
ENDBRANCH  71  78
ENDBRANCH  66  68
ENDBRANCH  65  66
ENDBRANCH  64  65
ENDBRANCH  63  64
ENDBRANCH  62  63
ENDBRANCH   1  62
TORSDOF 15
ENDMDL
MODEL 3
REMARK VINA RESULT:      -8.7      1.493      6.600
REMARK SMILES O=C(OCCOCCOC(=O)c1cc(-c2ccsc2)nc2ccccc12)c1ccc(-c2c3nc(c(-c4c(F)cccc4F)c4ccc([nH]4)c(-c4c(F)cccc4F)c4nc(c(-c5c(F)cccc5F)c5ccc2[nH]5)C=C4)C=C3)cc1
REMARK SMILES IDX 5 1 4 2 3 3 2 4 1 5 27 6 28 7 80 8 29 9 79 10 30 11 31 12
REMARK SMILES IDX 32 13 73 14 33 15 78 16 72 17 74 18 34 19 77 20 71 21 70 22
REMARK SMILES IDX 35 24 61 25 44 26 60 27 45 28 48 29 59 30 75 31 46 32 47 33
REMARK SMILES IDX 58 35 76 36 49 37 36 38 37 39 42 40 38 41 39 42 41 43 43 44
REMARK SMILES IDX 40 45 62 46 63 47 68 48 64 49 65 50 67 51 69 52 66 53 50 54
REMARK SMILES IDX 51 55 56 56 52 57 53 58 55 59 57 60 54 61 6 62 7 63 8 64
REMARK SMILES IDX 9 65 10 66 11 67 12 68 13 69 26 70 14 71 21 72 25 73 20 74
REMARK SMILES IDX 22 75 24 76 23 77 15 78 16 79 19 80 17 81 18 82
REMARK H PARENT 74 23 48 34
REMARK Flexibility Score: inf
ROOT
ATOM      1  C   UNL A   1      32.191  36.353  31.649  1.00  0.00     0.202 C 
ENDROOT
BRANCH   1   2
ATOM      2  C   UNL A   1      32.994  36.233  30.352  1.00  0.00     0.261 C 
BRANCH   2   3
ATOM      3  O   UNL A   1      32.520  35.124  29.570  1.00  0.00    -0.460 OA
BRANCH   3   4
ATOM      4  C   UNL A   1      33.231  34.233  28.842  1.00  0.00     0.338 C 
ATOM      5  O   UNL A   1      32.767  33.854  27.767  1.00  0.00    -0.246 OA
BRANCH   4   6
ATOM      6  C   UNL A   1      34.549  33.664  29.264  1.00  0.00     0.060 A 
ATOM      7  C   UNL A   1      34.738  32.764  30.315  1.00  0.00     0.016 A 
ATOM      8  C   UNL A   1      35.664  33.985  28.469  1.00  0.00     0.016 A 
ATOM      9  C   UNL A   1      35.980  32.217  30.593  1.00  0.00     0.010 A 
ATOM     10  C   UNL A   1      36.919  33.422  28.727  1.00  0.00     0.010 A 
ATOM     11  C   UNL A   1      37.072  32.539  29.798  1.00  0.00    -0.014 A 
BRANCH  11  12
ATOM     12  C   UNL A   1      38.379  31.996  30.196  1.00  0.00     0.031 A 
ATOM     13  C   UNL A   1      38.811  30.691  29.606  1.00  0.00     0.074 A 
ATOM     14  C   UNL A   1      39.205  32.751  30.941  1.00  0.00     0.049 A 
ATOM     15  N   UNL A   1      39.907  30.016  29.810  1.00  0.00    -0.248 NA
ATOM     16  C   UNL A   1      37.889  30.075  28.636  1.00  0.00     0.031 C 
ATOM     17  C   UNL A   1      38.900  34.097  31.432  1.00  0.00     0.029 A 
ATOM     18  N   UNL A   1      40.477  32.514  31.382  1.00  0.00    -0.354 N 
ATOM     19  C   UNL A   1      39.799  28.885  29.013  1.00  0.00     0.074 A 
ATOM     20  C   UNL A   1      38.535  28.964  28.317  1.00  0.00     0.031 C 
ATOM     21  C   UNL A   1      39.967  34.574  32.095  1.00  0.00     0.029 A 
ATOM     22  C   UNL A   1      40.999  33.543  32.127  1.00  0.00     0.049 A 
ATOM     23  H   UNL A   1      40.972  31.686  31.185  1.00  0.00     0.167 HD
ATOM     24  C   UNL A   1      40.682  27.869  28.891  1.00  0.00     0.037 A 
ATOM     25  C   UNL A   1      42.169  33.617  32.787  1.00  0.00     0.037 A 
ATOM     26  C   UNL A   1      41.928  27.822  29.606  1.00  0.00     0.049 A 
ATOM     27  C   UNL A   1      43.087  32.426  32.715  1.00  0.00     0.074 A 
ATOM     28  C   UNL A   1      42.873  26.816  29.637  1.00  0.00     0.029 A 
ATOM     29  N   UNL A   1      42.396  28.845  30.420  1.00  0.00    -0.354 N 
ATOM     30  N   UNL A   1      42.949  31.318  32.025  1.00  0.00    -0.248 NA
ATOM     31  C   UNL A   1      44.310  32.482  33.526  1.00  0.00     0.031 C 
ATOM     32  C   UNL A   1      43.896  27.214  30.504  1.00  0.00     0.029 A 
ATOM     33  C   UNL A   1      43.611  28.488  30.974  1.00  0.00     0.049 A 
ATOM     34  H   UNL A   1      41.932  29.700  30.580  1.00  0.00     0.167 HD
ATOM     35  C   UNL A   1      44.070  30.551  32.304  1.00  0.00     0.074 A 
ATOM     36  C   UNL A   1      44.889  31.332  33.211  1.00  0.00     0.031 C 
ATOM     37  C   UNL A   1      44.395  29.310  31.864  1.00  0.00     0.037 A 
BRANCH  24  38
ATOM     38  C   UNL A   1      40.278  26.717  28.025  1.00  0.00     0.057 A 
ATOM     39  C   UNL A   1      39.420  25.705  28.477  1.00  0.00     0.134 A 
ATOM     40  C   UNL A   1      40.789  26.597  26.726  1.00  0.00     0.134 A 
ATOM     41  F   UNL A   1      38.924  25.743  29.723  1.00  0.00    -0.206 F 
ATOM     42  C   UNL A   1      39.103  24.606  27.676  1.00  0.00     0.040 A 
ATOM     43  C   UNL A   1      40.464  25.513  25.909  1.00  0.00     0.040 A 
ATOM     44  F   UNL A   1      41.625  27.524  26.236  1.00  0.00    -0.206 F 
ATOM     45  C   UNL A   1      39.623  24.510  26.387  1.00  0.00     0.006 A 
ENDBRANCH  24  38
BRANCH  25  46
ATOM     46  C   UNL A   1      42.504  34.808  33.610  1.00  0.00     0.057 A 
ATOM     47  C   UNL A   1      42.399  34.789  35.006  1.00  0.00     0.134 A 
ATOM     48  C   UNL A   1      42.914  36.010  33.017  1.00  0.00     0.134 A 
ATOM     49  F   UNL A   1      41.992  33.679  35.638  1.00  0.00    -0.206 F 
ATOM     50  C   UNL A   1      42.669  35.923  35.778  1.00  0.00     0.040 A 
ATOM     51  C   UNL A   1      43.216  37.142  33.776  1.00  0.00     0.040 A 
ATOM     52  F   UNL A   1      43.037  36.100  31.684  1.00  0.00    -0.206 F 
ATOM     53  C   UNL A   1      43.084  37.103  35.163  1.00  0.00     0.006 A 
ENDBRANCH  25  46
BRANCH  37  54
ATOM     54  C   UNL A   1      45.700  28.750  32.335  1.00  0.00     0.057 A 
ATOM     55  C   UNL A   1      45.792  27.981  33.502  1.00  0.00     0.134 A 
ATOM     56  C   UNL A   1      46.866  28.941  31.584  1.00  0.00     0.134 A 
ATOM     57  F   UNL A   1      44.711  27.777  34.269  1.00  0.00    -0.206 F 
ATOM     58  C   UNL A   1      47.007  27.434  33.915  1.00  0.00     0.040 A 
ATOM     59  C   UNL A   1      48.080  28.378  31.973  1.00  0.00     0.040 A 
ATOM     60  F   UNL A   1      46.837  29.661  30.453  1.00  0.00    -0.206 F 
ATOM     61  C   UNL A   1      48.152  27.626  33.144  1.00  0.00     0.006 A 
ENDBRANCH  37  54
ENDBRANCH  11  12
ENDBRANCH   4   6
ENDBRANCH   3   4
ENDBRANCH   2   3
ENDBRANCH   1   2
BRANCH   1  62
ATOM     62  O   UNL A   1      32.863  37.064  32.689  1.00  0.00    -0.374 OA
BRANCH  62  63
ATOM     63  C   UNL A   1      34.248  36.742  32.867  1.00  0.00     0.202 C 
BRANCH  63  64
ATOM     64  C   UNL A   1      34.386  35.801  34.060  1.00  0.00     0.261 C 
BRANCH  64  65
ATOM     65  O   UNL A   1      35.629  35.101  33.917  1.00  0.00    -0.460 OA
BRANCH  65  66
ATOM     66  C   UNL A   1      35.607  33.779  34.223  1.00  0.00     0.338 C 
ATOM     67  O   UNL A   1      34.731  32.970  33.966  1.00  0.00    -0.246 OA
BRANCH  66  68
ATOM     68  C   UNL A   1      36.949  33.410  34.718  1.00  0.00     0.071 A 
ATOM     69  C   UNL A   1      37.509  34.284  35.650  1.00  0.00     0.045 A 
ATOM     70  C   UNL A   1      37.600  32.210  34.357  1.00  0.00     0.015 A 
ATOM     71  C   UNL A   1      38.690  33.905  36.251  1.00  0.00     0.073 A 
ATOM     72  C   UNL A   1      38.813  31.942  35.021  1.00  0.00     0.072 A 
ATOM     73  C   UNL A   1      37.128  31.282  33.393  1.00  0.00     0.011 A 
ATOM     74  N   UNL A   1      39.341  32.763  35.947  1.00  0.00    -0.248 NA
ATOM     75  C   UNL A   1      39.494  30.771  34.719  1.00  0.00     0.029 A 
ATOM     76  C   UNL A   1      37.825  30.111  33.115  1.00  0.00     0.001 A 
ATOM     77  C   UNL A   1      39.013  29.855  33.781  1.00  0.00     0.002 A 
BRANCH  71  78
ATOM     78  C   UNL A   1      39.290  34.712  37.297  1.00  0.00     0.011 A 
ATOM     79  C   UNL A   1      39.562  36.114  37.250  1.00  0.00     0.022 A 
ATOM     80  C   UNL A   1      39.724  34.153  38.483  1.00  0.00     0.075 A 
ATOM     81  C   UNL A   1      40.158  36.571  38.406  1.00  0.00     0.065 A 
ATOM     82  S   UNL A   1      40.408  35.315  39.539  1.00  0.00    -0.152 S 
ENDBRANCH  71  78
ENDBRANCH  66  68
ENDBRANCH  65  66
ENDBRANCH  64  65
ENDBRANCH  63  64
ENDBRANCH  62  63
ENDBRANCH   1  62
TORSDOF 15
ENDMDL
