MODEL 1
REMARK VINA RESULT:      -9.0      0.000      0.000
REMARK SMILES NC(=O)c1ccc(C(=O)OCCOCCOC(=O)c2ccc(-c3c4nc(c(-c5c(F)cccc5F)c5ccc([nH]5)c(-c5c(F)cccc5F)c5nc(c(-c6c(F)cccc6F)c6ccc3[nH]6)C=C5)C=C4)cc2)c(F)c1
REMARK SMILES IDX 14 1 13 2 12 3 11 4 10 5 8 6 9 7 7 8 4 9 5 10 75 11 6 12
REMARK SMILES IDX 73 13 74 14 2 15 1 16 3 19 15 20 16 21 17 22 18 23 19 24
REMARK SMILES IDX 20 25 72 26 21 27 71 28 22 29 23 30 24 31 65 32 25 33 70 34
REMARK SMILES IDX 64 35 66 36 26 37 69 38 63 39 62 40 27 42 53 43 36 44 52 45
REMARK SMILES IDX 37 46 40 47 51 48 67 49 38 50 39 51 50 53 68 54 41 55 28 56
REMARK SMILES IDX 29 57 34 58 30 59 31 60 33 61 35 62 32 63 54 64 55 65 60 66
REMARK SMILES IDX 56 67 57 68 59 69 61 70 58 71 42 72 43 73 48 74 44 75 45 76
REMARK SMILES IDX 47 77 49 78 46 79
REMARK H PARENT 1 17 1 18 66 41 40 52
REMARK Flexibility Score: inf
ROOT
ATOM      1  C   UNL A   1      44.627  18.881  24.844  1.00  0.00     0.202 C 
ENDROOT
BRANCH   1   2
ATOM      2  O   UNL A   1      44.812  20.140  24.195  1.00  0.00    -0.374 OA
BRANCH   2   3
ATOM      3  C   UNL A   1      45.732  21.050  24.798  1.00  0.00     0.202 C 
BRANCH   3   4
ATOM      4  C   UNL A   1      45.710  22.475  24.243  1.00  0.00     0.261 C 
BRANCH   4   5
ATOM      5  O   UNL A   1      46.258  23.401  25.196  1.00  0.00    -0.460 OA
BRANCH   5   6
ATOM      6  C   UNL A   1      46.759  24.544  24.676  1.00  0.00     0.341 C 
ATOM      7  O   UNL A   1      47.507  24.646  23.715  1.00  0.00    -0.246 OA
BRANCH   6   8
ATOM      8  C   UNL A   1      46.131  25.720  25.302  1.00  0.00     0.095 A 
ATOM      9  C   UNL A   1      44.830  27.956  26.372  1.00  0.00     0.042 A 
ATOM     10  C   UNL A   1      44.098  27.003  25.654  1.00  0.00     0.015 A 
ATOM     11  C   UNL A   1      46.207  27.782  26.562  1.00  0.00     0.054 A 
ATOM     12  C   UNL A   1      44.750  25.889  25.118  1.00  0.00     0.019 A 
ATOM     13  C   UNL A   1      46.849  26.662  26.034  1.00  0.00     0.138 A 
ATOM     14  F   UNL A   1      48.169  26.534  26.223  1.00  0.00    -0.206 F 
BRANCH   9  15
ATOM     15  C   UNL A   1      44.195  29.196  26.887  1.00  0.00     0.248 C 
ATOM     16  N   UNL A   1      43.013  29.583  26.324  1.00  0.00    -0.366 N 
ATOM     17  H   UNL A   1      42.562  30.400  26.639  1.00  0.00     0.159 HD
ATOM     18  H   UNL A   1      42.613  29.045  25.603  1.00  0.00     0.159 HD
ATOM     19  O   UNL A   1      44.707  29.838  27.795  1.00  0.00    -0.270 OA
ENDBRANCH   9  15
ENDBRANCH   6   8
ENDBRANCH   5   6
ENDBRANCH   4   5
ENDBRANCH   3   4
ENDBRANCH   2   3
ENDBRANCH   1   2
BRANCH   1  20
ATOM     20  C   UNL A   1      43.402  18.774  25.760  1.00  0.00     0.261 C 
BRANCH  20  21
ATOM     21  O   UNL A   1      42.217  19.299  25.133  1.00  0.00    -0.460 OA
BRANCH  21  22
ATOM     22  C   UNL A   1      41.312  19.838  25.981  1.00  0.00     0.338 C 
ATOM     23  O   UNL A   1      40.268  19.334  26.371  1.00  0.00    -0.246 OA
BRANCH  22  24
ATOM     24  C   UNL A   1      41.833  21.101  26.537  1.00  0.00     0.060 A 
ATOM     25  C   UNL A   1      41.786  21.267  27.927  1.00  0.00     0.016 A 
ATOM     26  C   UNL A   1      42.297  22.129  25.714  1.00  0.00     0.016 A 
ATOM     27  C   UNL A   1      42.164  22.480  28.498  1.00  0.00     0.010 A 
ATOM     28  C   UNL A   1      42.666  23.350  26.289  1.00  0.00     0.010 A 
ATOM     29  C   UNL A   1      42.572  23.540  27.679  1.00  0.00    -0.014 A 
BRANCH  29  30
ATOM     30  C   UNL A   1      42.779  24.888  28.261  1.00  0.00     0.031 A 
ATOM     31  C   UNL A   1      44.137  25.255  28.790  1.00  0.00     0.074 A 
ATOM     32  C   UNL A   1      41.773  25.779  28.307  1.00  0.00     0.049 A 
ATOM     33  N   UNL A   1      44.519  26.344  29.407  1.00  0.00    -0.248 NA
ATOM     34  C   UNL A   1      45.209  24.263  28.599  1.00  0.00     0.031 C 
ATOM     35  C   UNL A   1      40.424  25.556  27.786  1.00  0.00     0.029 A 
ATOM     36  N   UNL A   1      41.729  27.047  28.829  1.00  0.00    -0.354 N 
ATOM     37  C   UNL A   1      45.867  26.166  29.685  1.00  0.00     0.074 A 
ATOM     38  C   UNL A   1      46.236  24.857  29.191  1.00  0.00     0.031 C 
ATOM     39  C   UNL A   1      39.680  26.649  28.028  1.00  0.00     0.029 A 
ATOM     40  C   UNL A   1      40.487  27.630  28.752  1.00  0.00     0.049 A 
ATOM     41  H   UNL A   1      42.511  27.497  29.221  1.00  0.00     0.167 HD
ATOM     42  C   UNL A   1      46.721  27.021  30.294  1.00  0.00     0.037 A 
ATOM     43  C   UNL A   1      40.046  28.809  29.233  1.00  0.00     0.037 A 
ATOM     44  C   UNL A   1      46.357  28.326  30.774  1.00  0.00     0.049 A 
ATOM     45  C   UNL A   1      40.999  29.712  29.970  1.00  0.00     0.074 A 
ATOM     46  C   UNL A   1      47.162  29.273  31.383  1.00  0.00     0.029 A 
ATOM     47  N   UNL A   1      45.082  28.866  30.705  1.00  0.00    -0.354 N 
ATOM     48  N   UNL A   1      42.275  29.540  30.218  1.00  0.00    -0.248 NA
ATOM     49  C   UNL A   1      40.452  30.973  30.496  1.00  0.00     0.031 C 
ATOM     50  C   UNL A   1      46.365  30.369  31.724  1.00  0.00     0.029 A 
ATOM     51  C   UNL A   1      45.074  30.125  31.283  1.00  0.00     0.049 A 
ATOM     52  H   UNL A   1      44.301  28.422  30.304  1.00  0.00     0.167 HD
ATOM     53  C   UNL A   1      42.688  30.674  30.907  1.00  0.00     0.074 A 
ATOM     54  C   UNL A   1      41.528  31.534  31.031  1.00  0.00     0.031 C 
ATOM     55  C   UNL A   1      43.916  30.974  31.391  1.00  0.00     0.037 A 
BRANCH  42  56
ATOM     56  C   UNL A   1      48.139  26.575  30.490  1.00  0.00     0.057 A 
ATOM     57  C   UNL A   1      49.136  26.948  29.579  1.00  0.00     0.134 A 
ATOM     58  C   UNL A   1      48.502  25.713  31.533  1.00  0.00     0.134 A 
ATOM     59  F   UNL A   1      48.850  27.767  28.556  1.00  0.00    -0.206 F 
ATOM     60  C   UNL A   1      50.440  26.463  29.686  1.00  0.00     0.040 A 
ATOM     61  C   UNL A   1      49.809  25.239  31.663  1.00  0.00     0.040 A 
ATOM     62  F   UNL A   1      47.596  25.329  32.444  1.00  0.00    -0.206 F 
ATOM     63  C   UNL A   1      50.779  25.606  30.731  1.00  0.00     0.006 A 
ENDBRANCH  42  56
BRANCH  43  64
ATOM     64  C   UNL A   1      38.625  29.194  29.048  1.00  0.00     0.057 A 
ATOM     65  C   UNL A   1      37.709  29.126  30.105  1.00  0.00     0.134 A 
ATOM     66  C   UNL A   1      38.149  29.633  27.809  1.00  0.00     0.134 A 
ATOM     67  F   UNL A   1      38.104  28.715  31.319  1.00  0.00    -0.206 F 
ATOM     68  C   UNL A   1      36.367  29.465  29.932  1.00  0.00     0.040 A 
ATOM     69  C   UNL A   1      36.813  29.998  27.627  1.00  0.00     0.040 A 
ATOM     70  F   UNL A   1      38.983  29.742  26.765  1.00  0.00    -0.206 F 
ATOM     71  C   UNL A   1      35.916  29.906  28.690  1.00  0.00     0.006 A 
ENDBRANCH  43  64
BRANCH  55  72
ATOM     72  C   UNL A   1      44.096  32.295  32.078  1.00  0.00     0.057 A 
ATOM     73  C   UNL A   1      43.834  32.426  33.449  1.00  0.00     0.134 A 
ATOM     74  C   UNL A   1      44.431  33.454  31.368  1.00  0.00     0.134 A 
ATOM     75  F   UNL A   1      43.496  31.356  34.183  1.00  0.00    -0.206 F 
ATOM     76  C   UNL A   1      43.879  33.667  34.084  1.00  0.00     0.040 A 
ATOM     77  C   UNL A   1      44.502  34.698  31.998  1.00  0.00     0.040 A 
ATOM     78  F   UNL A   1      44.701  33.392  30.057  1.00  0.00    -0.206 F 
ATOM     79  C   UNL A   1      44.214  34.808  33.358  1.00  0.00     0.006 A 
ENDBRANCH  55  72
ENDBRANCH  29  30
ENDBRANCH  22  24
ENDBRANCH  21  22
ENDBRANCH  20  21
ENDBRANCH   1  20
TORSDOF 15
ENDMDL
MODEL 2
REMARK VINA RESULT:      -8.6      0.615      6.429
REMARK SMILES NC(=O)c1ccc(C(=O)OCCOCCOC(=O)c2ccc(-c3c4nc(c(-c5c(F)cccc5F)c5ccc([nH]5)c(-c5c(F)cccc5F)c5nc(c(-c6c(F)cccc6F)c6ccc3[nH]6)C=C5)C=C4)cc2)c(F)c1
REMARK SMILES IDX 14 1 13 2 12 3 11 4 10 5 8 6 9 7 7 8 4 9 5 10 75 11 6 12
REMARK SMILES IDX 73 13 74 14 2 15 1 16 3 19 15 20 16 21 17 22 18 23 19 24
REMARK SMILES IDX 20 25 72 26 21 27 71 28 22 29 23 30 24 31 65 32 25 33 70 34
REMARK SMILES IDX 64 35 66 36 26 37 69 38 63 39 62 40 27 42 53 43 36 44 52 45
REMARK SMILES IDX 37 46 40 47 51 48 67 49 38 50 39 51 50 53 68 54 41 55 28 56
REMARK SMILES IDX 29 57 34 58 30 59 31 60 33 61 35 62 32 63 54 64 55 65 60 66
REMARK SMILES IDX 56 67 57 68 59 69 61 70 58 71 42 72 43 73 48 74 44 75 45 76
REMARK SMILES IDX 47 77 49 78 46 79
REMARK H PARENT 1 17 1 18 66 41 40 52
REMARK Flexibility Score: inf
ROOT
ATOM      1  C   UNL A   1      44.466  18.831  24.701  1.00  0.00     0.202 C 
ENDROOT
BRANCH   1   2
ATOM      2  O   UNL A   1      44.957  20.023  24.084  1.00  0.00    -0.374 OA
BRANCH   2   3
ATOM      3  C   UNL A   1      45.377  21.075  24.953  1.00  0.00     0.202 C 
BRANCH   3   4
ATOM      4  C   UNL A   1      45.838  22.358  24.259  1.00  0.00     0.261 C 
BRANCH   4   5
ATOM      5  O   UNL A   1      46.131  23.382  25.224  1.00  0.00    -0.460 OA
BRANCH   5   6
ATOM      6  C   UNL A   1      46.693  24.506  24.729  1.00  0.00     0.341 C 
ATOM      7  O   UNL A   1      47.513  24.580  23.825  1.00  0.00    -0.246 OA
BRANCH   6   8
ATOM      8  C   UNL A   1      46.044  25.704  25.289  1.00  0.00     0.095 A 
ATOM      9  C   UNL A   1      44.705  27.973  26.237  1.00  0.00     0.042 A 
ATOM     10  C   UNL A   1      43.991  26.971  25.568  1.00  0.00     0.015 A 
ATOM     11  C   UNL A   1      46.084  27.831  26.439  1.00  0.00     0.054 A 
ATOM     12  C   UNL A   1      44.661  25.841  25.094  1.00  0.00     0.019 A 
ATOM     13  C   UNL A   1      46.745  26.695  25.972  1.00  0.00     0.138 A 
ATOM     14  F   UNL A   1      48.066  26.598  26.171  1.00  0.00    -0.206 F 
BRANCH   9  15
ATOM     15  C   UNL A   1      44.049  29.228  26.684  1.00  0.00     0.248 C 
ATOM     16  N   UNL A   1      44.774  30.074  27.473  1.00  0.00    -0.366 N 
ATOM     17  H   UNL A   1      44.373  30.916  27.789  1.00  0.00     0.159 HD
ATOM     18  H   UNL A   1      45.697  29.842  27.725  1.00  0.00     0.159 HD
ATOM     19  O   UNL A   1      42.905  29.500  26.345  1.00  0.00    -0.270 OA
ENDBRANCH   9  15
ENDBRANCH   6   8
ENDBRANCH   5   6
ENDBRANCH   4   5
ENDBRANCH   3   4
ENDBRANCH   2   3
ENDBRANCH   1   2
BRANCH   1  20
ATOM     20  C   UNL A   1      43.363  19.026  25.749  1.00  0.00     0.261 C 
BRANCH  20  21
ATOM     21  O   UNL A   1      42.147  19.521  25.160  1.00  0.00    -0.460 OA
BRANCH  21  22
ATOM     22  C   UNL A   1      41.281  20.092  26.028  1.00  0.00     0.338 C 
ATOM     23  O   UNL A   1      40.217  19.635  26.424  1.00  0.00    -0.246 OA
BRANCH  22  24
ATOM     24  C   UNL A   1      41.873  21.316  26.598  1.00  0.00     0.060 A 
ATOM     25  C   UNL A   1      41.955  21.410  27.993  1.00  0.00     0.016 A 
ATOM     26  C   UNL A   1      42.279  22.380  25.790  1.00  0.00     0.016 A 
ATOM     27  C   UNL A   1      42.405  22.586  28.588  1.00  0.00     0.010 A 
ATOM     28  C   UNL A   1      42.720  23.564  26.390  1.00  0.00     0.010 A 
ATOM     29  C   UNL A   1      42.756  23.683  27.790  1.00  0.00    -0.014 A 
BRANCH  29  30
ATOM     30  C   UNL A   1      43.039  24.995  28.418  1.00  0.00     0.031 A 
ATOM     31  C   UNL A   1      41.920  25.986  28.576  1.00  0.00     0.074 A 
ATOM     32  C   UNL A   1      44.275  25.297  28.855  1.00  0.00     0.049 A 
ATOM     33  N   UNL A   1      41.958  27.214  29.024  1.00  0.00    -0.248 NA
ATOM     34  C   UNL A   1      40.577  25.533  28.174  1.00  0.00     0.031 C 
ATOM     35  C   UNL A   1      45.431  24.403  28.799  1.00  0.00     0.029 A 
ATOM     36  N   UNL A   1      44.763  26.448  29.420  1.00  0.00    -0.354 N 
ATOM     37  C   UNL A   1      40.653  27.683  28.950  1.00  0.00     0.074 A 
ATOM     38  C   UNL A   1      39.848  26.618  28.395  1.00  0.00     0.031 C 
ATOM     39  C   UNL A   1      46.500  25.046  29.299  1.00  0.00     0.029 A 
ATOM     40  C   UNL A   1      46.113  26.405  29.673  1.00  0.00     0.049 A 
ATOM     41  H   UNL A   1      44.201  27.230  29.626  1.00  0.00     0.167 HD
ATOM     42  C   UNL A   1      40.171  28.893  29.319  1.00  0.00     0.037 A 
ATOM     43  C   UNL A   1      46.945  27.362  30.130  1.00  0.00     0.037 A 
ATOM     44  C   UNL A   1      40.971  29.947  29.882  1.00  0.00     0.049 A 
ATOM     45  C   UNL A   1      46.396  28.723  30.466  1.00  0.00     0.074 A 
ATOM     46  C   UNL A   1      40.564  31.199  30.308  1.00  0.00     0.029 A 
ATOM     47  N   UNL A   1      42.339  29.875  30.092  1.00  0.00    -0.354 N 
ATOM     48  N   UNL A   1      45.159  29.153  30.403  1.00  0.00    -0.248 NA
ATOM     49  C   UNL A   1      47.358  29.734  30.933  1.00  0.00     0.031 C 
ATOM     50  C   UNL A   1      41.693  31.903  30.735  1.00  0.00     0.029 A 
ATOM     51  C   UNL A   1      42.796  31.071  30.620  1.00  0.00     0.049 A 
ATOM     52  H   UNL A   1      42.901  29.091  29.897  1.00  0.00     0.167 HD
ATOM     53  C   UNL A   1      45.189  30.471  30.843  1.00  0.00     0.074 A 
ATOM     54  C   UNL A   1      46.567  30.770  31.177  1.00  0.00     0.031 C 
ATOM     55  C   UNL A   1      44.167  31.352  30.958  1.00  0.00     0.037 A 
BRANCH  42  56
ATOM     56  C   UNL A   1      38.709  29.157  29.118  1.00  0.00     0.057 A 
ATOM     57  C   UNL A   1      38.221  29.539  27.862  1.00  0.00     0.134 A 
ATOM     58  C   UNL A   1      37.800  29.111  30.182  1.00  0.00     0.134 A 
ATOM     59  F   UNL A   1      39.043  29.607  26.804  1.00  0.00    -0.206 F 
ATOM     60  C   UNL A   1      36.883  29.887  27.675  1.00  0.00     0.040 A 
ATOM     61  C   UNL A   1      36.453  29.436  30.002  1.00  0.00     0.040 A 
ATOM     62  F   UNL A   1      38.204  28.741  31.406  1.00  0.00    -0.206 F 
ATOM     63  C   UNL A   1      35.995  29.835  28.748  1.00  0.00     0.006 A 
ENDBRANCH  42  56
BRANCH  43  64
ATOM     64  C   UNL A   1      48.392  27.069  30.279  1.00  0.00     0.057 A 
ATOM     65  C   UNL A   1      48.883  26.366  31.386  1.00  0.00     0.134 A 
ATOM     66  C   UNL A   1      49.319  27.490  29.319  1.00  0.00     0.134 A 
ATOM     67  F   UNL A   1      48.045  25.934  32.340  1.00  0.00    -0.206 F 
ATOM     68  C   UNL A   1      50.245  26.107  31.542  1.00  0.00     0.040 A 
ATOM     69  C   UNL A   1      50.682  27.218  29.451  1.00  0.00     0.040 A 
ATOM     70  F   UNL A   1      48.907  28.146  28.225  1.00  0.00    -0.206 F 
ATOM     71  C   UNL A   1      51.149  26.531  30.571  1.00  0.00     0.006 A 
ENDBRANCH  43  64
BRANCH  55  72
ATOM     72  C   UNL A   1      44.476  32.719  31.491  1.00  0.00     0.057 A 
ATOM     73  C   UNL A   1      44.858  33.752  30.625  1.00  0.00     0.134 A 
ATOM     74  C   UNL A   1      44.493  32.986  32.866  1.00  0.00     0.134 A 
ATOM     75  F   UNL A   1      44.875  33.557  29.298  1.00  0.00    -0.206 F 
ATOM     76  C   UNL A   1      45.264  34.996  31.108  1.00  0.00     0.040 A 
ATOM     77  C   UNL A   1      44.875  34.234  33.360  1.00  0.00     0.040 A 
ATOM     78  F   UNL A   1      44.130  32.041  33.745  1.00  0.00    -0.206 F 
ATOM     79  C   UNL A   1      45.273  35.240  32.481  1.00  0.00     0.006 A 
ENDBRANCH  55  72
ENDBRANCH  29  30
ENDBRANCH  22  24
ENDBRANCH  21  22
ENDBRANCH  20  21
ENDBRANCH   1  20
TORSDOF 15
ENDMDL
MODEL 3
REMARK VINA RESULT:      -8.5      4.578      7.112
REMARK SMILES NC(=O)c1ccc(C(=O)OCCOCCOC(=O)c2ccc(-c3c4nc(c(-c5c(F)cccc5F)c5ccc([nH]5)c(-c5c(F)cccc5F)c5nc(c(-c6c(F)cccc6F)c6ccc3[nH]6)C=C5)C=C4)cc2)c(F)c1
REMARK SMILES IDX 14 1 13 2 12 3 11 4 10 5 8 6 9 7 7 8 4 9 5 10 75 11 6 12
REMARK SMILES IDX 73 13 74 14 2 15 1 16 3 19 15 20 16 21 17 22 18 23 19 24
REMARK SMILES IDX 20 25 72 26 21 27 71 28 22 29 23 30 24 31 65 32 25 33 70 34
REMARK SMILES IDX 64 35 66 36 26 37 69 38 63 39 62 40 27 42 53 43 36 44 52 45
REMARK SMILES IDX 37 46 40 47 51 48 67 49 38 50 39 51 50 53 68 54 41 55 28 56
REMARK SMILES IDX 29 57 34 58 30 59 31 60 33 61 35 62 32 63 54 64 55 65 60 66
REMARK SMILES IDX 56 67 57 68 59 69 61 70 58 71 42 72 43 73 48 74 44 75 45 76
REMARK SMILES IDX 47 77 49 78 46 79
REMARK H PARENT 1 17 1 18 66 41 40 52
REMARK Flexibility Score: inf
ROOT
ATOM      1  C   UNL A   1      42.165  20.612  26.069  1.00  0.00     0.202 C 
ENDROOT
BRANCH   1   2
ATOM      2  O   UNL A   1      41.043  21.198  26.732  1.00  0.00    -0.374 OA
BRANCH   2   3
ATOM      3  C   UNL A   1      39.766  21.024  26.118  1.00  0.00     0.202 C 
BRANCH   3   4
ATOM      4  C   UNL A   1      38.909  22.287  26.010  1.00  0.00     0.261 C 
BRANCH   4   5
ATOM      5  O   UNL A   1      37.511  21.957  26.051  1.00  0.00    -0.460 OA
BRANCH   5   6
ATOM      6  C   UNL A   1      36.844  22.097  24.884  1.00  0.00     0.341 C 
ATOM      7  O   UNL A   1      37.129  22.848  23.962  1.00  0.00    -0.246 OA
BRANCH   6   8
ATOM      8  C   UNL A   1      35.798  21.068  24.754  1.00  0.00     0.095 A 
ATOM      9  C   UNL A   1      33.708  19.213  24.577  1.00  0.00     0.042 A 
ATOM     10  C   UNL A   1      33.429  20.584  24.521  1.00  0.00     0.015 A 
ATOM     11  C   UNL A   1      35.033  18.775  24.710  1.00  0.00     0.054 A 
ATOM     12  C   UNL A   1      34.473  21.508  24.612  1.00  0.00     0.019 A 
ATOM     13  C   UNL A   1      36.071  19.703  24.789  1.00  0.00     0.138 A 
ATOM     14  F   UNL A   1      37.324  19.249  24.929  1.00  0.00    -0.206 F 
BRANCH   9  15
ATOM     15  C   UNL A   1      32.625  18.198  24.567  1.00  0.00     0.248 C 
ATOM     16  N   UNL A   1      32.199  17.738  23.355  1.00  0.00    -0.366 N 
ATOM     17  H   UNL A   1      31.482  17.064  23.308  1.00  0.00     0.159 HD
ATOM     18  H   UNL A   1      32.610  18.079  22.527  1.00  0.00     0.159 HD
ATOM     19  O   UNL A   1      32.141  17.779  25.611  1.00  0.00    -0.270 OA
ENDBRANCH   9  15
ENDBRANCH   6   8
ENDBRANCH   5   6
ENDBRANCH   4   5
ENDBRANCH   3   4
ENDBRANCH   2   3
ENDBRANCH   1   2
BRANCH   1  20
ATOM     20  C   UNL A   1      43.251  21.589  25.601  1.00  0.00     0.261 C 
BRANCH  20  21
ATOM     21  O   UNL A   1      42.687  22.755  24.974  1.00  0.00    -0.460 OA
BRANCH  21  22
ATOM     22  C   UNL A   1      43.449  23.870  25.049  1.00  0.00     0.338 C 
ATOM     23  O   UNL A   1      44.435  24.142  24.377  1.00  0.00    -0.246 OA
BRANCH  22  24
ATOM     24  C   UNL A   1      42.831  24.843  25.969  1.00  0.00     0.060 A 
ATOM     25  C   UNL A   1      43.432  26.103  26.083  1.00  0.00     0.016 A 
ATOM     26  C   UNL A   1      41.724  24.512  26.753  1.00  0.00     0.016 A 
ATOM     27  C   UNL A   1      42.956  27.022  27.014  1.00  0.00     0.010 A 
ATOM     28  C   UNL A   1      41.254  25.433  27.694  1.00  0.00     0.010 A 
ATOM     29  C   UNL A   1      41.886  26.679  27.850  1.00  0.00    -0.014 A 
BRANCH  29  30
ATOM     30  C   UNL A   1      41.508  27.569  28.973  1.00  0.00     0.031 A 
ATOM     31  C   UNL A   1      42.278  27.486  30.262  1.00  0.00     0.074 A 
ATOM     32  C   UNL A   1      40.501  28.450  28.844  1.00  0.00     0.049 A 
ATOM     33  N   UNL A   1      42.071  28.112  31.392  1.00  0.00    -0.248 NA
ATOM     34  C   UNL A   1      43.436  26.576  30.281  1.00  0.00     0.031 C 
ATOM     35  C   UNL A   1      39.710  28.655  27.632  1.00  0.00     0.029 A 
ATOM     36  N   UNL A   1      39.963  29.328  29.751  1.00  0.00    -0.354 N 
ATOM     37  C   UNL A   1      43.062  27.667  32.256  1.00  0.00     0.074 A 
ATOM     38  C   UNL A   1      43.860  26.703  31.530  1.00  0.00     0.031 C 
ATOM     39  C   UNL A   1      38.777  29.591  27.875  1.00  0.00     0.029 A 
ATOM     40  C   UNL A   1      38.881  30.022  29.268  1.00  0.00     0.049 A 
ATOM     41  H   UNL A   1      40.318  29.449  30.662  1.00  0.00     0.167 HD
ATOM     42  C   UNL A   1      43.290  28.035  33.538  1.00  0.00     0.037 A 
ATOM     43  C   UNL A   1      38.053  30.888  29.887  1.00  0.00     0.037 A 
ATOM     44  C   UNL A   1      42.503  29.003  34.255  1.00  0.00     0.049 A 
ATOM     45  C   UNL A   1      38.284  31.228  31.335  1.00  0.00     0.074 A 
ATOM     46  C   UNL A   1      42.674  29.458  35.551  1.00  0.00     0.029 A 
ATOM     47  N   UNL A   1      41.397  29.661  33.740  1.00  0.00    -0.354 N 
ATOM     48  N   UNL A   1      39.231  30.810  32.141  1.00  0.00    -0.248 NA
ATOM     49  C   UNL A   1      37.331  32.156  31.963  1.00  0.00     0.031 C 
ATOM     50  C   UNL A   1      41.644  30.358  35.836  1.00  0.00     0.029 A 
ATOM     51  C   UNL A   1      40.860  30.500  34.701  1.00  0.00     0.049 A 
ATOM     52  H   UNL A   1      41.047  29.549  32.827  1.00  0.00     0.167 HD
ATOM     53  C   UNL A   1      39.003  31.439  33.358  1.00  0.00     0.074 A 
ATOM     54  C   UNL A   1      37.832  32.274  33.186  1.00  0.00     0.031 C 
ATOM     55  C   UNL A   1      39.701  31.334  34.514  1.00  0.00     0.037 A 
BRANCH  42  56
ATOM     56  C   UNL A   1      44.428  27.385  34.264  1.00  0.00     0.057 A 
ATOM     57  C   UNL A   1      44.226  26.211  35.000  1.00  0.00     0.134 A 
ATOM     58  C   UNL A   1      45.703  27.963  34.302  1.00  0.00     0.134 A 
ATOM     59  F   UNL A   1      43.026  25.611  35.008  1.00  0.00    -0.206 F 
ATOM     60  C   UNL A   1      45.246  25.644  35.765  1.00  0.00     0.040 A 
ATOM     61  C   UNL A   1      46.739  27.393  35.046  1.00  0.00     0.040 A 
ATOM     62  F   UNL A   1      45.964  29.082  33.609  1.00  0.00    -0.206 F 
ATOM     63  C   UNL A   1      46.507  26.237  35.788  1.00  0.00     0.006 A 
ENDBRANCH  42  56
BRANCH  43  64
ATOM     64  C   UNL A   1      36.916  31.480  29.141  1.00  0.00     0.057 A 
ATOM     65  C   UNL A   1      35.751  30.746  28.886  1.00  0.00     0.134 A 
ATOM     66  C   UNL A   1      36.969  32.792  28.660  1.00  0.00     0.134 A 
ATOM     67  F   UNL A   1      35.638  29.483  29.322  1.00  0.00    -0.206 F 
ATOM     68  C   UNL A   1      34.687  31.289  28.165  1.00  0.00     0.040 A 
ATOM     69  C   UNL A   1      35.903  33.357  27.957  1.00  0.00     0.040 A 
ATOM     70  F   UNL A   1      38.048  33.553  28.893  1.00  0.00    -0.206 F 
ATOM     71  C   UNL A   1      34.760  32.601  27.701  1.00  0.00     0.006 A 
ENDBRANCH  43  64
BRANCH  55  72
ATOM     72  C   UNL A   1      39.250  32.154  35.685  1.00  0.00     0.057 A 
ATOM     73  C   UNL A   1      38.356  31.623  36.625  1.00  0.00     0.134 A 
ATOM     74  C   UNL A   1      39.618  33.497  35.828  1.00  0.00     0.134 A 
ATOM     75  F   UNL A   1      37.954  30.347  36.537  1.00  0.00    -0.206 F 
ATOM     76  C   UNL A   1      37.831  32.405  37.654  1.00  0.00     0.040 A 
ATOM     77  C   UNL A   1      39.117  34.283  36.867  1.00  0.00     0.040 A 
ATOM     78  F   UNL A   1      40.476  34.061  34.965  1.00  0.00    -0.206 F 
ATOM     79  C   UNL A   1      38.212  33.740  37.777  1.00  0.00     0.006 A 
ENDBRANCH  55  72
ENDBRANCH  29  30
ENDBRANCH  22  24
ENDBRANCH  21  22
ENDBRANCH  20  21
ENDBRANCH   1  20
TORSDOF 15
ENDMDL
