MODEL 1
REMARK VINA RESULT:     -11.7      0.000      0.000
REMARK SMILES C[C@@H](C(=O)OCCOCCOC(=O)c1ccc(-c2c3nc(c(-c4c(F)cccc4F)c4ccc([nH]4)c(-c4c(F)cccc4F)c4nc(c(-c5c(F)cccc5F)c5ccc2[nH]5)C=C4)C=C3)cc1)c1ccc(C[C@H]2CCC[C@H]2O)cc1-c1ccc(O)cc1
REMARK SMILES IDX 7 1 6 2 5 3 3 4 4 5 2 6 1 7 68 8 69 9 80 10 70 11 79 12
REMARK SMILES IDX 71 13 81 14 82 15 87 16 83 17 86 18 84 19 85 20 72 22 73 23
REMARK SMILES IDX 74 24 77 25 75 26 76 27 78 28 8 30 9 31 10 32 11 33 12 34
REMARK SMILES IDX 13 35 14 36 15 37 67 38 16 39 66 40 17 41 18 42 19 43 60 44
REMARK SMILES IDX 20 45 65 46 59 47 61 48 21 49 64 50 58 51 57 52 22 54 48 55
REMARK SMILES IDX 31 56 47 57 32 58 35 59 46 60 62 61 33 62 34 63 45 65 63 66
REMARK SMILES IDX 36 67 23 68 24 69 29 70 25 71 26 72 28 73 30 74 27 75 49 76
REMARK SMILES IDX 50 77 55 78 51 79 52 80 54 81 56 82 53 83 37 84 38 85 43 86
REMARK SMILES IDX 39 87 40 88 42 89 44 90 41 91
REMARK H PARENT 85 21 78 29 61 53 35 64
REMARK Flexibility Score: inf
ROOT
ATOM      1  C   UNL A   1      33.646  28.306  24.888  1.00  0.00     0.202 C 
ENDROOT
BRANCH   1   2
ATOM      2  C   UNL A   1      32.922  26.996  25.236  1.00  0.00     0.261 C 
BRANCH   2   3
ATOM      3  O   UNL A   1      33.687  26.173  26.126  1.00  0.00    -0.463 OA
BRANCH   3   4
ATOM      4  C   UNL A   1      33.117  24.966  26.410  1.00  0.00     0.313 C 
ATOM      5  O   UNL A   1      31.972  24.834  26.824  1.00  0.00    -0.252 OA
BRANCH   4   6
ATOM      6  C   UNL A   1      34.119  23.827  26.282  1.00  0.00     0.127 C 
ATOM      7  C   UNL A   1      35.537  24.104  25.760  1.00  0.00     0.025 C 
BRANCH   6   8
ATOM      8  C   UNL A   1      33.533  22.577  25.627  1.00  0.00    -0.026 A 
ATOM      9  C   UNL A   1      33.668  21.415  26.413  1.00  0.00     0.005 A 
ATOM     10  C   UNL A   1      32.910  22.473  24.351  1.00  0.00    -0.014 A 
ATOM     11  C   UNL A   1      33.252  20.177  25.957  1.00  0.00     0.004 A 
ATOM     12  C   UNL A   1      32.572  21.183  23.890  1.00  0.00     0.012 A 
ATOM     13  C   UNL A   1      32.778  20.037  24.660  1.00  0.00    -0.047 A 
BRANCH  10  14
ATOM     14  C   UNL A   1      32.495  23.571  23.451  1.00  0.00    -0.018 A 
ATOM     15  C   UNL A   1      33.451  24.240  22.663  1.00  0.00     0.012 A 
ATOM     16  C   UNL A   1      31.199  24.117  23.496  1.00  0.00     0.012 A 
ATOM     17  C   UNL A   1      33.103  25.324  21.849  1.00  0.00     0.047 A 
ATOM     18  C   UNL A   1      30.857  25.230  22.714  1.00  0.00     0.047 A 
ATOM     19  C   UNL A   1      31.794  25.773  21.846  1.00  0.00     0.115 A 
BRANCH  19  20
ATOM     20  O   UNL A   1      31.403  26.702  20.931  1.00  0.00    -0.508 OA
ATOM     21  H   UNL A   1      32.038  27.108  20.373  1.00  0.00     0.293 HD
ENDBRANCH  19  20
ENDBRANCH  10  14
BRANCH  13  22
ATOM     22  C   UNL A   1      32.544  18.670  24.085  1.00  0.00     0.041 C 
BRANCH  22  23
ATOM     23  C   UNL A   1      33.247  17.511  24.809  1.00  0.00     0.022 C 
ATOM     24  C   UNL A   1      32.334  16.397  25.352  1.00  0.00     0.007 C 
ATOM     25  C   UNL A   1      34.368  16.754  24.075  1.00  0.00     0.117 C 
ATOM     26  C   UNL A   1      33.200  15.135  25.405  1.00  0.00     0.003 C 
ATOM     27  C   UNL A   1      34.608  15.569  25.001  1.00  0.00     0.032 C 
BRANCH  25  28
ATOM     28  O   UNL A   1      34.030  16.237  22.799  1.00  0.00    -0.393 OA
ATOM     29  H   UNL A   1      34.827  16.191  22.247  1.00  0.00     0.210 HD
ENDBRANCH  25  28
ENDBRANCH  22  23
ENDBRANCH  13  22
ENDBRANCH   6   8
ENDBRANCH   4   6
ENDBRANCH   3   4
ENDBRANCH   2   3
ENDBRANCH   1   2
BRANCH   1  30
ATOM     30  O   UNL A   1      32.859  29.423  24.469  1.00  0.00    -0.374 OA
BRANCH  30  31
ATOM     31  C   UNL A   1      31.689  29.647  25.252  1.00  0.00     0.202 C 
BRANCH  31  32
ATOM     32  C   UNL A   1      31.698  30.919  26.097  1.00  0.00     0.261 C 
BRANCH  32  33
ATOM     33  O   UNL A   1      32.631  30.771  27.153  1.00  0.00    -0.460 OA
BRANCH  33  34
ATOM     34  C   UNL A   1      33.291  31.925  27.419  1.00  0.00     0.338 C 
ATOM     35  O   UNL A   1      32.852  33.056  27.411  1.00  0.00    -0.246 OA
BRANCH  34  36
ATOM     36  C   UNL A   1      34.583  31.495  27.980  1.00  0.00     0.060 A 
ATOM     37  C   UNL A   1      34.774  30.134  28.235  1.00  0.00     0.016 A 
ATOM     38  C   UNL A   1      35.622  32.421  28.156  1.00  0.00     0.016 A 
ATOM     39  C   UNL A   1      35.991  29.704  28.743  1.00  0.00     0.010 A 
ATOM     40  C   UNL A   1      36.842  31.991  28.635  1.00  0.00     0.010 A 
ATOM     41  C   UNL A   1      37.000  30.644  28.984  1.00  0.00    -0.014 A 
BRANCH  41  42
ATOM     42  C   UNL A   1      38.154  30.292  29.819  1.00  0.00     0.031 A 
ATOM     43  C   UNL A   1      39.158  29.344  29.237  1.00  0.00     0.074 A 
ATOM     44  C   UNL A   1      38.245  30.773  31.067  1.00  0.00     0.049 A 
ATOM     45  N   UNL A   1      40.205  28.803  29.795  1.00  0.00    -0.248 NA
ATOM     46  C   UNL A   1      38.933  28.924  27.840  1.00  0.00     0.031 C 
ATOM     47  C   UNL A   1      37.294  31.691  31.692  1.00  0.00     0.029 A 
ATOM     48  N   UNL A   1      39.179  30.535  32.034  1.00  0.00    -0.354 N 
ATOM     49  C   UNL A   1      40.753  27.973  28.825  1.00  0.00     0.074 A 
ATOM     50  C   UNL A   1      39.899  28.038  27.664  1.00  0.00     0.031 C 
ATOM     51  C   UNL A   1      37.696  31.941  32.950  1.00  0.00     0.029 A 
ATOM     52  C   UNL A   1      38.909  31.173  33.218  1.00  0.00     0.049 A 
ATOM     53  H   UNL A   1      39.967  29.962  31.897  1.00  0.00     0.167 HD
ATOM     54  C   UNL A   1      41.882  27.236  28.903  1.00  0.00     0.037 A 
ATOM     55  C   UNL A   1      39.573  31.117  34.385  1.00  0.00     0.037 A 
ATOM     56  C   UNL A   1      42.709  27.198  30.078  1.00  0.00     0.049 A 
ATOM     57  C   UNL A   1      40.811  30.263  34.455  1.00  0.00     0.074 A 
ATOM     58  C   UNL A   1      43.897  26.524  30.277  1.00  0.00     0.029 A 
ATOM     59  N   UNL A   1      42.415  27.865  31.261  1.00  0.00    -0.354 N 
ATOM     60  N   UNL A   1      41.361  29.522  33.520  1.00  0.00    -0.248 NA
ATOM     61  C   UNL A   1      41.524  30.242  35.737  1.00  0.00     0.031 C 
ATOM     62  C   UNL A   1      44.294  26.737  31.601  1.00  0.00     0.029 A 
ATOM     63  C   UNL A   1      43.387  27.596  32.206  1.00  0.00     0.049 A 
ATOM     64  H   UNL A   1      41.631  28.442  31.404  1.00  0.00     0.167 HD
ATOM     65  C   UNL A   1      42.502  28.972  34.089  1.00  0.00     0.074 A 
ATOM     66  C   UNL A   1      42.567  29.478  35.447  1.00  0.00     0.031 C 
ATOM     67  C   UNL A   1      43.415  28.128  33.547  1.00  0.00     0.037 A 
BRANCH  54  68
ATOM     68  C   UNL A   1      42.259  26.412  27.707  1.00  0.00     0.057 A 
ATOM     69  C   UNL A   1      43.021  26.933  26.652  1.00  0.00     0.134 A 
ATOM     70  C   UNL A   1      41.856  25.075  27.608  1.00  0.00     0.134 A 
ATOM     71  F   UNL A   1      43.420  28.214  26.669  1.00  0.00    -0.206 F 
ATOM     72  C   UNL A   1      43.345  26.163  25.532  1.00  0.00     0.040 A 
ATOM     73  C   UNL A   1      42.200  24.286  26.509  1.00  0.00     0.040 A 
ATOM     74  F   UNL A   1      41.119  24.511  28.577  1.00  0.00    -0.206 F 
ATOM     75  C   UNL A   1      42.941  24.833  25.463  1.00  0.00     0.006 A 
ENDBRANCH  54  68
BRANCH  55  76
ATOM     76  C   UNL A   1      39.098  31.899  35.551  1.00  0.00     0.057 A 
ATOM     77  C   UNL A   1      39.488  33.231  35.732  1.00  0.00     0.134 A 
ATOM     78  C   UNL A   1      38.237  31.345  36.507  1.00  0.00     0.134 A 
ATOM     79  F   UNL A   1      40.317  33.816  34.855  1.00  0.00    -0.206 F 
ATOM     80  C   UNL A   1      39.057  33.977  36.831  1.00  0.00     0.040 A 
ATOM     81  C   UNL A   1      37.779  32.086  37.597  1.00  0.00     0.040 A 
ATOM     82  F   UNL A   1      37.814  30.078  36.384  1.00  0.00    -0.206 F 
ATOM     83  C   UNL A   1      38.196  33.405  37.766  1.00  0.00     0.006 A 
ENDBRANCH  55  76
BRANCH  67  84
ATOM     84  C   UNL A   1      44.577  27.741  34.412  1.00  0.00     0.057 A 
ATOM     85  C   UNL A   1      45.771  28.471  34.420  1.00  0.00     0.134 A 
ATOM     86  C   UNL A   1      44.478  26.647  35.282  1.00  0.00     0.134 A 
ATOM     87  F   UNL A   1      45.931  29.522  33.602  1.00  0.00    -0.206 F 
ATOM     88  C   UNL A   1      46.837  28.109  35.243  1.00  0.00     0.040 A 
ATOM     89  C   UNL A   1      45.523  26.297  36.134  1.00  0.00     0.040 A 
ATOM     90  F   UNL A   1      43.354  25.916  35.332  1.00  0.00    -0.206 F 
ATOM     91  C   UNL A   1      46.712  27.024  36.109  1.00  0.00     0.006 A 
ENDBRANCH  67  84
ENDBRANCH  41  42
ENDBRANCH  34  36
ENDBRANCH  33  34
ENDBRANCH  32  33
ENDBRANCH  31  32
ENDBRANCH  30  31
ENDBRANCH   1  30
TORSDOF 20
ENDMDL
MODEL 2
REMARK VINA RESULT:     -11.7      3.533      8.095
REMARK SMILES C[C@@H](C(=O)OCCOCCOC(=O)c1ccc(-c2c3nc(c(-c4c(F)cccc4F)c4ccc([nH]4)c(-c4c(F)cccc4F)c4nc(c(-c5c(F)cccc5F)c5ccc2[nH]5)C=C4)C=C3)cc1)c1ccc(C[C@H]2CCC[C@H]2O)cc1-c1ccc(O)cc1
REMARK SMILES IDX 7 1 6 2 5 3 3 4 4 5 2 6 1 7 68 8 69 9 80 10 70 11 79 12
REMARK SMILES IDX 71 13 81 14 82 15 87 16 83 17 86 18 84 19 85 20 72 22 73 23
REMARK SMILES IDX 74 24 77 25 75 26 76 27 78 28 8 30 9 31 10 32 11 33 12 34
REMARK SMILES IDX 13 35 14 36 15 37 67 38 16 39 66 40 17 41 18 42 19 43 60 44
REMARK SMILES IDX 20 45 65 46 59 47 61 48 21 49 64 50 58 51 57 52 22 54 48 55
REMARK SMILES IDX 31 56 47 57 32 58 35 59 46 60 62 61 33 62 34 63 45 65 63 66
REMARK SMILES IDX 36 67 23 68 24 69 29 70 25 71 26 72 28 73 30 74 27 75 49 76
REMARK SMILES IDX 50 77 55 78 51 79 52 80 54 81 56 82 53 83 37 84 38 85 43 86
REMARK SMILES IDX 39 87 40 88 42 89 44 90 41 91
REMARK H PARENT 85 21 78 29 61 53 35 64
REMARK Flexibility Score: inf
ROOT
ATOM      1  C   UNL A   1      35.146  20.205  24.961  1.00  0.00     0.202 C 
ENDROOT
BRANCH   1   2
ATOM      2  C   UNL A   1      33.721  19.727  25.283  1.00  0.00     0.261 C 
BRANCH   2   3
ATOM      3  O   UNL A   1      32.759  20.212  24.338  1.00  0.00    -0.463 OA
BRANCH   3   4
ATOM      4  C   UNL A   1      32.178  21.397  24.680  1.00  0.00     0.313 C 
ATOM      5  O   UNL A   1      31.887  21.707  25.829  1.00  0.00    -0.252 OA
BRANCH   4   6
ATOM      6  C   UNL A   1      31.811  22.219  23.452  1.00  0.00     0.127 C 
ATOM      7  C   UNL A   1      32.411  21.866  22.083  1.00  0.00     0.025 C 
BRANCH   6   8
ATOM      8  C   UNL A   1      31.864  23.727  23.697  1.00  0.00    -0.026 A 
ATOM      9  C   UNL A   1      30.604  24.353  23.615  1.00  0.00     0.005 A 
ATOM     10  C   UNL A   1      33.010  24.526  23.967  1.00  0.00    -0.014 A 
ATOM     11  C   UNL A   1      30.463  25.723  23.747  1.00  0.00     0.004 A 
ATOM     12  C   UNL A   1      32.837  25.925  24.015  1.00  0.00     0.012 A 
ATOM     13  C   UNL A   1      31.586  26.529  23.864  1.00  0.00    -0.047 A 
BRANCH  10  14
ATOM     14  C   UNL A   1      34.382  24.070  24.281  1.00  0.00    -0.018 A 
ATOM     15  C   UNL A   1      34.929  24.296  25.557  1.00  0.00     0.012 A 
ATOM     16  C   UNL A   1      35.248  23.589  23.281  1.00  0.00     0.012 A 
ATOM     17  C   UNL A   1      36.245  23.934  25.867  1.00  0.00     0.047 A 
ATOM     18  C   UNL A   1      36.581  23.266  23.577  1.00  0.00     0.047 A 
ATOM     19  C   UNL A   1      37.040  23.374  24.883  1.00  0.00     0.115 A 
BRANCH  19  20
ATOM     20  O   UNL A   1      38.254  22.854  25.213  1.00  0.00    -0.508 OA
ATOM     21  H   UNL A   1      38.919  22.761  24.559  1.00  0.00     0.293 HD
ENDBRANCH  19  20
ENDBRANCH  10  14
BRANCH  13  22
ATOM     22  C   UNL A   1      31.458  28.022  23.775  1.00  0.00     0.041 C 
BRANCH  22  23
ATOM     23  C   UNL A   1      31.538  28.779  25.111  1.00  0.00     0.022 C 
ATOM     24  C   UNL A   1      31.498  27.915  26.384  1.00  0.00     0.007 C 
ATOM     25  C   UNL A   1      32.718  29.740  25.346  1.00  0.00     0.117 C 
ATOM     26  C   UNL A   1      32.225  28.725  27.462  1.00  0.00     0.003 C 
ATOM     27  C   UNL A   1      32.569  30.070  26.824  1.00  0.00     0.032 C 
BRANCH  25  28
ATOM     28  O   UNL A   1      34.011  29.185  25.161  1.00  0.00    -0.393 OA
ATOM     29  H   UNL A   1      34.403  28.984  26.024  1.00  0.00     0.210 HD
ENDBRANCH  25  28
ENDBRANCH  22  23
ENDBRANCH  13  22
ENDBRANCH   6   8
ENDBRANCH   4   6
ENDBRANCH   3   4
ENDBRANCH   2   3
ENDBRANCH   1   2
BRANCH   1  30
ATOM     30  O   UNL A   1      36.200  19.239  24.965  1.00  0.00    -0.374 OA
BRANCH  30  31
ATOM     31  C   UNL A   1      37.474  19.755  24.585  1.00  0.00     0.202 C 
BRANCH  31  32
ATOM     32  C   UNL A   1      38.669  19.169  25.333  1.00  0.00     0.261 C 
BRANCH  32  33
ATOM     33  O   UNL A   1      39.338  20.206  26.029  1.00  0.00    -0.460 OA
BRANCH  33  34
ATOM     34  C   UNL A   1      40.668  19.971  26.146  1.00  0.00     0.338 C 
ATOM     35  O   UNL A   1      41.300  19.027  25.721  1.00  0.00    -0.246 OA
BRANCH  34  36
ATOM     36  C   UNL A   1      41.226  21.233  26.663  1.00  0.00     0.060 A 
ATOM     37  C   UNL A   1      41.307  21.402  28.048  1.00  0.00     0.016 A 
ATOM     38  C   UNL A   1      41.748  22.189  25.780  1.00  0.00     0.016 A 
ATOM     39  C   UNL A   1      41.850  22.573  28.556  1.00  0.00     0.010 A 
ATOM     40  C   UNL A   1      42.313  23.343  26.284  1.00  0.00     0.010 A 
ATOM     41  C   UNL A   1      42.305  23.556  27.668  1.00  0.00    -0.014 A 
BRANCH  41  42
ATOM     42  C   UNL A   1      42.565  24.919  28.144  1.00  0.00     0.031 A 
ATOM     43  C   UNL A   1      43.966  25.242  28.567  1.00  0.00     0.074 A 
ATOM     44  C   UNL A   1      41.557  25.796  28.237  1.00  0.00     0.049 A 
ATOM     45  N   UNL A   1      44.437  26.330  29.109  1.00  0.00    -0.248 NA
ATOM     46  C   UNL A   1      44.971  24.178  28.378  1.00  0.00     0.031 C 
ATOM     47  C   UNL A   1      40.170  25.537  27.850  1.00  0.00     0.029 A 
ATOM     48  N   UNL A   1      41.548  27.079  28.706  1.00  0.00    -0.354 N 
ATOM     49  C   UNL A   1      45.783  26.076  29.338  1.00  0.00     0.074 A 
ATOM     50  C   UNL A   1      46.046  24.719  28.926  1.00  0.00     0.031 C 
ATOM     51  C   UNL A   1      39.438  26.636  28.100  1.00  0.00     0.029 A 
ATOM     52  C   UNL A   1      40.302  27.654  28.692  1.00  0.00     0.049 A 
ATOM     53  H   UNL A   1      42.355  27.545  29.023  1.00  0.00     0.167 HD
ATOM     54  C   UNL A   1      46.715  26.919  29.835  1.00  0.00     0.037 A 
ATOM     55  C   UNL A   1      39.921  28.866  29.131  1.00  0.00     0.037 A 
ATOM     56  C   UNL A   1      46.414  28.266  30.234  1.00  0.00     0.049 A 
ATOM     57  C   UNL A   1      40.972  29.773  29.711  1.00  0.00     0.074 A 
ATOM     58  C   UNL A   1      47.269  29.237  30.717  1.00  0.00     0.029 A 
ATOM     59  N   UNL A   1      45.142  28.826  30.199  1.00  0.00    -0.354 N 
ATOM     60  N   UNL A   1      42.257  29.554  29.875  1.00  0.00    -0.248 NA
ATOM     61  C   UNL A   1      40.525  31.096  30.158  1.00  0.00     0.031 C 
ATOM     62  C   UNL A   1      46.505  30.365  31.029  1.00  0.00     0.029 A 
ATOM     63  C   UNL A   1      45.185  30.121  30.679  1.00  0.00     0.049 A 
ATOM     64  H   UNL A   1      44.332  28.367  29.880  1.00  0.00     0.167 HD
ATOM     65  C   UNL A   1      42.778  30.722  30.414  1.00  0.00     0.074 A 
ATOM     66  C   UNL A   1      41.669  31.649  30.536  1.00  0.00     0.031 C 
ATOM     67  C   UNL A   1      44.053  31.011  30.777  1.00  0.00     0.037 A 
BRANCH  54  68
ATOM     68  C   UNL A   1      48.113  26.397  29.990  1.00  0.00     0.057 A 
ATOM     69  C   UNL A   1      49.059  26.481  28.960  1.00  0.00     0.134 A 
ATOM     70  C   UNL A   1      48.521  25.801  31.190  1.00  0.00     0.134 A 
ATOM     71  F   UNL A   1      48.729  27.017  27.774  1.00  0.00    -0.206 F 
ATOM     72  C   UNL A   1      50.351  25.969  29.107  1.00  0.00     0.040 A 
ATOM     73  C   UNL A   1      49.818  25.314  31.361  1.00  0.00     0.040 A 
ATOM     74  F   UNL A   1      47.667  25.680  32.217  1.00  0.00    -0.206 F 
ATOM     75  C   UNL A   1      50.735  25.391  30.314  1.00  0.00     0.006 A 
ENDBRANCH  54  68
BRANCH  55  76
ATOM     76  C   UNL A   1      38.503  29.286  29.017  1.00  0.00     0.057 A 
ATOM     77  C   UNL A   1      37.650  29.253  30.125  1.00  0.00     0.134 A 
ATOM     78  C   UNL A   1      37.968  29.742  27.805  1.00  0.00     0.134 A 
ATOM     79  F   UNL A   1      38.102  28.818  31.311  1.00  0.00    -0.206 F 
ATOM     80  C   UNL A   1      36.310  29.635  30.030  1.00  0.00     0.040 A 
ATOM     81  C   UNL A   1      36.637  30.152  27.702  1.00  0.00     0.040 A 
ATOM     82  F   UNL A   1      38.736  29.814  26.708  1.00  0.00    -0.206 F 
ATOM     83  C   UNL A   1      35.802  30.091  28.815  1.00  0.00     0.006 A 
ENDBRANCH  55  76
BRANCH  67  84
ATOM     84  C   UNL A   1      44.314  32.394  31.296  1.00  0.00     0.057 A 
ATOM     85  C   UNL A   1      44.252  32.696  32.662  1.00  0.00     0.134 A 
ATOM     86  C   UNL A   1      44.676  33.423  30.417  1.00  0.00     0.134 A 
ATOM     87  F   UNL A   1      43.901  31.756  33.552  1.00  0.00    -0.206 F 
ATOM     88  C   UNL A   1      44.515  33.983  33.132  1.00  0.00     0.040 A 
ATOM     89  C   UNL A   1      44.974  34.703  30.878  1.00  0.00     0.040 A 
ATOM     90  F   UNL A   1      44.767  33.193  29.098  1.00  0.00    -0.206 F 
ATOM     91  C   UNL A   1      44.885  34.988  32.240  1.00  0.00     0.006 A 
ENDBRANCH  67  84
ENDBRANCH  41  42
ENDBRANCH  34  36
ENDBRANCH  33  34
ENDBRANCH  32  33
ENDBRANCH  31  32
ENDBRANCH  30  31
ENDBRANCH   1  30
TORSDOF 20
ENDMDL
MODEL 3
REMARK VINA RESULT:     -11.7      4.158      9.753
REMARK SMILES C[C@@H](C(=O)OCCOCCOC(=O)c1ccc(-c2c3nc(c(-c4c(F)cccc4F)c4ccc([nH]4)c(-c4c(F)cccc4F)c4nc(c(-c5c(F)cccc5F)c5ccc2[nH]5)C=C4)C=C3)cc1)c1ccc(C[C@H]2CCC[C@H]2O)cc1-c1ccc(O)cc1
REMARK SMILES IDX 7 1 6 2 5 3 3 4 4 5 2 6 1 7 68 8 69 9 80 10 70 11 79 12
REMARK SMILES IDX 71 13 81 14 82 15 87 16 83 17 86 18 84 19 85 20 72 22 73 23
REMARK SMILES IDX 74 24 77 25 75 26 76 27 78 28 8 30 9 31 10 32 11 33 12 34
REMARK SMILES IDX 13 35 14 36 15 37 67 38 16 39 66 40 17 41 18 42 19 43 60 44
REMARK SMILES IDX 20 45 65 46 59 47 61 48 21 49 64 50 58 51 57 52 22 54 48 55
REMARK SMILES IDX 31 56 47 57 32 58 35 59 46 60 62 61 33 62 34 63 45 65 63 66
REMARK SMILES IDX 36 67 23 68 24 69 29 70 25 71 26 72 28 73 30 74 27 75 49 76
REMARK SMILES IDX 50 77 55 78 51 79 52 80 54 81 56 82 53 83 37 84 38 85 43 86
REMARK SMILES IDX 39 87 40 88 42 89 44 90 41 91
REMARK H PARENT 85 21 78 29 61 53 35 64
REMARK Flexibility Score: inf
ROOT
ATOM      1  C   UNL A   1      34.872  20.373  24.972  1.00  0.00     0.202 C 
ENDROOT
BRANCH   1   2
ATOM      2  C   UNL A   1      33.528  20.018  25.626  1.00  0.00     0.261 C 
BRANCH   2   3
ATOM      3  O   UNL A   1      32.411  20.472  24.851  1.00  0.00    -0.463 OA
BRANCH   3   4
ATOM      4  C   UNL A   1      32.076  21.779  25.055  1.00  0.00     0.313 C 
ATOM      5  O   UNL A   1      31.932  22.281  26.163  1.00  0.00    -0.252 OA
BRANCH   4   6
ATOM      6  C   UNL A   1      31.771  22.492  23.745  1.00  0.00     0.127 C 
ATOM      7  C   UNL A   1      32.346  21.957  22.425  1.00  0.00     0.025 C 
BRANCH   6   8
ATOM      8  C   UNL A   1      31.931  24.010  23.831  1.00  0.00    -0.026 A 
ATOM      9  C   UNL A   1      30.716  24.711  23.695  1.00  0.00     0.005 A 
ATOM     10  C   UNL A   1      33.134  24.750  24.008  1.00  0.00    -0.014 A 
ATOM     11  C   UNL A   1      30.672  26.094  23.685  1.00  0.00     0.004 A 
ATOM     12  C   UNL A   1      33.058  26.156  23.913  1.00  0.00     0.012 A 
ATOM     13  C   UNL A   1      31.849  26.827  23.709  1.00  0.00    -0.047 A 
BRANCH  10  14
ATOM     14  C   UNL A   1      34.475  24.234  24.356  1.00  0.00    -0.018 A 
ATOM     15  C   UNL A   1      35.006  24.450  25.642  1.00  0.00     0.012 A 
ATOM     16  C   UNL A   1      35.339  23.701  23.381  1.00  0.00     0.012 A 
ATOM     17  C   UNL A   1      36.297  24.031  25.984  1.00  0.00     0.047 A 
ATOM     18  C   UNL A   1      36.648  23.318  23.709  1.00  0.00     0.047 A 
ATOM     19  C   UNL A   1      37.085  23.421  25.023  1.00  0.00     0.115 A 
BRANCH  19  20
ATOM     20  O   UNL A   1      38.266  22.848  25.385  1.00  0.00    -0.508 OA
ATOM     21  H   UNL A   1      38.836  22.494  24.731  1.00  0.00     0.293 HD
ENDBRANCH  19  20
ENDBRANCH  10  14
BRANCH  13  22
ATOM     22  C   UNL A   1      31.823  28.308  23.468  1.00  0.00     0.041 C 
BRANCH  22  23
ATOM     23  C   UNL A   1      30.430  28.958  23.457  1.00  0.00     0.022 C 
ATOM     24  C   UNL A   1      30.270  30.234  24.303  1.00  0.00     0.007 C 
ATOM     25  C   UNL A   1      29.796  29.323  22.102  1.00  0.00     0.117 C 
ATOM     26  C   UNL A   1      29.128  31.024  23.655  1.00  0.00     0.003 C 
ATOM     27  C   UNL A   1      28.587  30.144  22.529  1.00  0.00     0.032 C 
BRANCH  25  28
ATOM     28  O   UNL A   1      30.586  30.136  21.251  1.00  0.00    -0.393 OA
ATOM     29  H   UNL A   1      30.184  31.016  21.180  1.00  0.00     0.210 HD
ENDBRANCH  25  28
ENDBRANCH  22  23
ENDBRANCH  13  22
ENDBRANCH   6   8
ENDBRANCH   4   6
ENDBRANCH   3   4
ENDBRANCH   2   3
ENDBRANCH   1   2
BRANCH   1  30
ATOM     30  O   UNL A   1      35.916  19.396  24.998  1.00  0.00    -0.374 OA
BRANCH  30  31
ATOM     31  C   UNL A   1      37.202  19.897  24.644  1.00  0.00     0.202 C 
BRANCH  31  32
ATOM     32  C   UNL A   1      38.380  19.258  25.376  1.00  0.00     0.261 C 
BRANCH  32  33
ATOM     33  O   UNL A   1      39.298  20.268  25.755  1.00  0.00    -0.460 OA
BRANCH  33  34
ATOM     34  C   UNL A   1      40.532  19.769  26.012  1.00  0.00     0.338 C 
ATOM     35  O   UNL A   1      40.949  18.653  25.785  1.00  0.00    -0.246 OA
BRANCH  34  36
ATOM     36  C   UNL A   1      41.341  20.945  26.377  1.00  0.00     0.060 A 
ATOM     37  C   UNL A   1      41.675  21.126  27.722  1.00  0.00     0.016 A 
ATOM     38  C   UNL A   1      41.838  21.798  25.381  1.00  0.00     0.016 A 
ATOM     39  C   UNL A   1      42.454  22.215  28.085  1.00  0.00     0.010 A 
ATOM     40  C   UNL A   1      42.637  22.866  25.738  1.00  0.00     0.010 A 
ATOM     41  C   UNL A   1      42.889  23.104  27.095  1.00  0.00    -0.014 A 
BRANCH  41  42
ATOM     42  C   UNL A   1      43.415  24.423  27.464  1.00  0.00     0.031 A 
ATOM     43  C   UNL A   1      42.422  25.459  27.896  1.00  0.00     0.074 A 
ATOM     44  C   UNL A   1      44.726  24.673  27.353  1.00  0.00     0.049 A 
ATOM     45  N   UNL A   1      42.610  26.718  28.180  1.00  0.00    -0.248 NA
ATOM     46  C   UNL A   1      41.016  25.023  27.995  1.00  0.00     0.031 C 
ATOM     47  C   UNL A   1      45.740  23.708  26.928  1.00  0.00     0.029 A 
ATOM     48  N   UNL A   1      45.422  25.827  27.573  1.00  0.00    -0.354 N 
ATOM     49  C   UNL A   1      41.350  27.223  28.475  1.00  0.00     0.074 A 
ATOM     50  C   UNL A   1      40.399  26.154  28.288  1.00  0.00     0.031 C 
ATOM     51  C   UNL A   1      46.938  24.316  26.917  1.00  0.00     0.029 A 
ATOM     52  C   UNL A   1      46.762  25.713  27.302  1.00  0.00     0.049 A 
ATOM     53  H   UNL A   1      45.005  26.659  27.893  1.00  0.00     0.167 HD
ATOM     54  C   UNL A   1      41.029  28.470  28.883  1.00  0.00     0.037 A 
ATOM     55  C   UNL A   1      47.722  26.653  27.350  1.00  0.00     0.037 A 
ATOM     56  C   UNL A   1      42.007  29.508  29.060  1.00  0.00     0.049 A 
ATOM     57  C   UNL A   1      47.333  28.043  27.777  1.00  0.00     0.074 A 
ATOM     58  C   UNL A   1      41.823  30.803  29.504  1.00  0.00     0.029 A 
ATOM     59  N   UNL A   1      43.361  29.360  28.787  1.00  0.00    -0.354 N 
ATOM     60  N   UNL A   1      46.150  28.507  28.111  1.00  0.00    -0.248 NA
ATOM     61  C   UNL A   1      48.409  29.038  27.840  1.00  0.00     0.031 C 
ATOM     62  C   UNL A   1      43.058  31.456  29.445  1.00  0.00     0.029 A 
ATOM     63  C   UNL A   1      44.022  30.550  29.027  1.00  0.00     0.049 A 
ATOM     64  H   UNL A   1      43.787  28.531  28.470  1.00  0.00     0.167 HD
ATOM     65  C   UNL A   1      46.344  29.837  28.456  1.00  0.00     0.074 A 
ATOM     66  C   UNL A   1      47.762  30.098  28.300  1.00  0.00     0.031 C 
ATOM     67  C   UNL A   1      45.440  30.763  28.864  1.00  0.00     0.037 A 
BRANCH  54  68
ATOM     68  C   UNL A   1      39.580  28.768  29.135  1.00  0.00     0.057 A 
ATOM     69  C   UNL A   1      39.001  28.635  30.404  1.00  0.00     0.134 A 
ATOM     70  C   UNL A   1      38.750  29.197  28.093  1.00  0.00     0.134 A 
ATOM     71  F   UNL A   1      39.732  28.204  31.445  1.00  0.00    -0.206 F 
ATOM     72  C   UNL A   1      37.645  28.892  30.622  1.00  0.00     0.040 A 
ATOM     73  C   UNL A   1      37.401  29.488  28.303  1.00  0.00     0.040 A 
ATOM     74  F   UNL A   1      39.235  29.341  26.849  1.00  0.00    -0.206 F 
ATOM     75  C   UNL A   1      36.844  29.328  29.570  1.00  0.00     0.006 A 
ENDBRANCH  54  68
BRANCH  55  76
ATOM     76  C   UNL A   1      49.123  26.304  27.012  1.00  0.00     0.057 A 
ATOM     77  C   UNL A   1      50.024  25.899  28.003  1.00  0.00     0.134 A 
ATOM     78  C   UNL A   1      49.596  26.355  25.695  1.00  0.00     0.134 A 
ATOM     79  F   UNL A   1      49.634  25.838  29.286  1.00  0.00    -0.206 F 
ATOM     80  C   UNL A   1      51.349  25.579  27.702  1.00  0.00     0.040 A 
ATOM     81  C   UNL A   1      50.911  26.012  25.375  1.00  0.00     0.040 A 
ATOM     82  F   UNL A   1      48.779  26.720  24.695  1.00  0.00    -0.206 F 
ATOM     83  C   UNL A   1      51.794  25.631  26.383  1.00  0.00     0.006 A 
ENDBRANCH  55  76
BRANCH  67  84
ATOM     84  C   UNL A   1      45.971  32.123  29.209  1.00  0.00     0.057 A 
ATOM     85  C   UNL A   1      46.404  32.443  30.501  1.00  0.00     0.134 A 
ATOM     86  C   UNL A   1      46.092  33.107  28.219  1.00  0.00     0.134 A 
ATOM     87  F   UNL A   1      46.304  31.547  31.494  1.00  0.00    -0.206 F 
ATOM     88  C   UNL A   1      46.913  33.706  30.803  1.00  0.00     0.040 A 
ATOM     89  C   UNL A   1      46.631  34.360  28.501  1.00  0.00     0.040 A 
ATOM     90  F   UNL A   1      45.709  32.856  26.958  1.00  0.00    -0.206 F 
ATOM     91  C   UNL A   1      47.034  34.666  29.799  1.00  0.00     0.006 A 
ENDBRANCH  67  84
ENDBRANCH  41  42
ENDBRANCH  34  36
ENDBRANCH  33  34
ENDBRANCH  32  33
ENDBRANCH  31  32
ENDBRANCH  30  31
ENDBRANCH   1  30
TORSDOF 20
ENDMDL
