MODEL 1
REMARK VINA RESULT:     -11.2      0.000      0.000
REMARK SMILES NC(=O)c1ccc(N[C@H]2C=C[C@@H](C(=O)OCCOCCOC(=O)c3ccc(-c4c5nc(c(-c6c(F)cccc6F)c6ccc([nH]6)c(-c6c(F)cccc6F)c6nc(c(-c7c(F)cccc7F)c7ccc4[nH]7)C=C6)C=C5)cc3)C2)cc1Cl
REMARK SMILES IDX 17 1 16 2 15 3 13 4 14 5 12 6 9 7 10 8 78 9 11 10 8 11 7 13
REMARK SMILES IDX 4 14 5 15 80 16 6 17 79 18 81 19 2 20 1 21 3 24 18 25 19 26
REMARK SMILES IDX 20 27 21 28 22 29 23 30 24 31 25 32 77 33 26 34 76 35 27 36
REMARK SMILES IDX 28 37 29 38 70 39 30 40 75 41 69 42 71 43 31 44 74 45 68 46
REMARK SMILES IDX 67 47 32 49 58 50 41 51 57 52 42 53 45 54 56 55 72 56 43 57
REMARK SMILES IDX 44 58 55 60 73 61 46 62 33 63 34 64 39 65 35 66 36 67 38 68
REMARK SMILES IDX 40 69 37 70 59 71 60 72 65 73 61 74 62 75 64 76 66 77 63 78
REMARK SMILES IDX 47 79 48 80 53 81 49 82 50 83 52 84 54 85 51 86
REMARK H PARENT 8 12 1 22 1 23 71 48 45 59
REMARK Flexibility Score: inf
ROOT
ATOM      1  C   UNL A   1      38.616  21.387  25.669  1.00  0.00     0.202 C 
ENDROOT
BRANCH   1   2
ATOM      2  C   UNL A   1      37.497  21.080  24.670  1.00  0.00     0.261 C 
BRANCH   2   3
ATOM      3  O   UNL A   1      36.304  20.696  25.372  1.00  0.00    -0.463 OA
BRANCH   3   4
ATOM      4  C   UNL A   1      35.152  21.286  24.966  1.00  0.00     0.312 C 
ATOM      5  O   UNL A   1      34.061  20.727  24.928  1.00  0.00    -0.252 OA
BRANCH   4   6
ATOM      6  C   UNL A   1      35.339  22.741  24.543  1.00  0.00     0.124 C 
ATOM      7  C   UNL A   1      34.033  24.809  24.402  1.00  0.00     0.103 C 
ATOM      8  C   UNL A   1      34.779  24.721  25.688  1.00  0.00    -0.006 C 
ATOM      9  C   UNL A   1      34.200  23.428  23.763  1.00  0.00     0.048 C 
ATOM     10  C   UNL A   1      35.508  23.602  25.761  1.00  0.00    -0.014 C 
BRANCH   7  11
ATOM     11  N   UNL A   1      32.657  25.222  24.593  1.00  0.00    -0.379 N 
ATOM     12  H   UNL A   1      32.125  24.641  25.183  1.00  0.00     0.161 HD
BRANCH  11  13
ATOM     13  C   UNL A   1      31.978  26.304  24.075  1.00  0.00     0.036 A 
ATOM     14  C   UNL A   1      30.592  28.606  23.155  1.00  0.00     0.058 A 
ATOM     15  C   UNL A   1      30.588  27.419  22.415  1.00  0.00     0.017 A 
ATOM     16  C   UNL A   1      31.312  28.654  24.348  1.00  0.00     0.055 A 
ATOM     17  C   UNL A   1      31.272  26.291  22.875  1.00  0.00     0.026 A 
ATOM     18  C   UNL A   1      31.999  27.512  24.790  1.00  0.00     0.047 A 
ATOM     19  Cl  UNL A   1      31.382  30.042  25.377  1.00  0.00    -0.083 Cl
BRANCH  14  20
ATOM     20  C   UNL A   1      29.765  29.704  22.610  1.00  0.00     0.250 C 
ATOM     21  N   UNL A   1      30.278  30.455  21.596  1.00  0.00    -0.366 N 
ATOM     22  H   UNL A   1      29.751  31.192  21.214  1.00  0.00     0.159 HD
ATOM     23  H   UNL A   1      31.178  30.260  21.246  1.00  0.00     0.159 HD
ATOM     24  O   UNL A   1      28.632  29.889  23.041  1.00  0.00    -0.269 OA
ENDBRANCH  14  20
ENDBRANCH  11  13
ENDBRANCH   7  11
ENDBRANCH   4   6
ENDBRANCH   3   4
ENDBRANCH   2   3
ENDBRANCH   1   2
BRANCH   1  25
ATOM     25  O   UNL A   1      39.646  20.402  25.759  1.00  0.00    -0.374 OA
BRANCH  25  26
ATOM     26  C   UNL A   1      40.694  20.637  26.700  1.00  0.00     0.202 C 
BRANCH  26  27
ATOM     27  C   UNL A   1      42.112  20.746  26.127  1.00  0.00     0.261 C 
BRANCH  27  28
ATOM     28  O   UNL A   1      42.825  21.894  26.619  1.00  0.00    -0.460 OA
BRANCH  28  29
ATOM     29  C   UNL A   1      42.838  22.955  25.776  1.00  0.00     0.338 C 
ATOM     30  O   UNL A   1      43.088  22.944  24.578  1.00  0.00    -0.246 OA
BRANCH  29  31
ATOM     31  C   UNL A   1      42.362  24.171  26.460  1.00  0.00     0.060 A 
ATOM     32  C   UNL A   1      43.170  25.315  26.393  1.00  0.00     0.016 A 
ATOM     33  C   UNL A   1      41.207  24.167  27.243  1.00  0.00     0.016 A 
ATOM     34  C   UNL A   1      42.860  26.443  27.155  1.00  0.00     0.010 A 
ATOM     35  C   UNL A   1      40.903  25.296  28.011  1.00  0.00     0.010 A 
ATOM     36  C   UNL A   1      41.747  26.425  28.002  1.00  0.00    -0.014 A 
BRANCH  36  37
ATOM     37  C   UNL A   1      41.523  27.504  28.998  1.00  0.00     0.031 A 
ATOM     38  C   UNL A   1      42.248  27.435  30.314  1.00  0.00     0.074 A 
ATOM     39  C   UNL A   1      40.653  28.504  28.775  1.00  0.00     0.049 A 
ATOM     40  N   UNL A   1      42.031  28.103  31.417  1.00  0.00    -0.248 NA
ATOM     41  C   UNL A   1      43.371  26.488  30.388  1.00  0.00     0.031 C 
ATOM     42  C   UNL A   1      39.934  28.744  27.530  1.00  0.00     0.029 A 
ATOM     43  N   UNL A   1      40.151  29.446  29.644  1.00  0.00    -0.354 N 
ATOM     44  C   UNL A   1      43.012  27.684  32.306  1.00  0.00     0.074 A 
ATOM     45  C   UNL A   1      43.777  26.651  31.639  1.00  0.00     0.031 C 
ATOM     46  C   UNL A   1      38.994  29.680  27.745  1.00  0.00     0.029 A 
ATOM     47  C   UNL A   1      39.034  30.078  29.148  1.00  0.00     0.049 A 
ATOM     48  H   UNL A   1      40.546  29.647  30.523  1.00  0.00     0.167 HD
ATOM     49  C   UNL A   1      43.278  28.149  33.549  1.00  0.00     0.037 A 
ATOM     50  C   UNL A   1      38.095  30.809  29.779  1.00  0.00     0.037 A 
ATOM     51  C   UNL A   1      42.516  29.172  34.214  1.00  0.00     0.049 A 
ATOM     52  C   UNL A   1      38.254  31.142  31.231  1.00  0.00     0.074 A 
ATOM     53  C   UNL A   1      42.739  29.753  35.450  1.00  0.00     0.029 A 
ATOM     54  N   UNL A   1      41.371  29.756  33.699  1.00  0.00    -0.354 N 
ATOM     55  N   UNL A   1      39.194  30.769  32.063  1.00  0.00    -0.248 NA
ATOM     56  C   UNL A   1      37.238  32.022  31.826  1.00  0.00     0.031 C 
ATOM     57  C   UNL A   1      41.702  30.659  35.701  1.00  0.00     0.029 A 
ATOM     58  C   UNL A   1      40.859  30.672  34.603  1.00  0.00     0.049 A 
ATOM     59  H   UNL A   1      40.979  29.552  32.819  1.00  0.00     0.167 HD
ATOM     60  C   UNL A   1      38.930  31.435  33.254  1.00  0.00     0.074 A 
ATOM     61  C   UNL A   1      37.713  32.190  33.052  1.00  0.00     0.031 C 
ATOM     62  C   UNL A   1      39.664  31.445  34.393  1.00  0.00     0.037 A 
BRANCH  49  63
ATOM     63  C   UNL A   1      44.460  27.564  34.263  1.00  0.00     0.057 A 
ATOM     64  C   UNL A   1      45.749  28.086  34.089  1.00  0.00     0.134 A 
ATOM     65  C   UNL A   1      44.308  26.499  35.157  1.00  0.00     0.134 A 
ATOM     66  F   UNL A   1      45.963  29.101  33.238  1.00  0.00    -0.206 F 
ATOM     67  C   UNL A   1      46.849  27.553  34.761  1.00  0.00     0.040 A 
ATOM     68  C   UNL A   1      45.396  25.972  35.854  1.00  0.00     0.040 A 
ATOM     69  F   UNL A   1      43.100  25.958  35.373  1.00  0.00    -0.206 F 
ATOM     70  C   UNL A   1      46.673  26.496  35.652  1.00  0.00     0.006 A 
ENDBRANCH  49  63
BRANCH  50  71
ATOM     71  C   UNL A   1      36.865  31.203  29.054  1.00  0.00     0.057 A 
ATOM     72  C   UNL A   1      35.861  30.279  28.753  1.00  0.00     0.134 A 
ATOM     73  C   UNL A   1      36.691  32.522  28.618  1.00  0.00     0.134 A 
ATOM     74  F   UNL A   1      35.998  28.995  29.111  1.00  0.00    -0.206 F 
ATOM     75  C   UNL A   1      34.723  30.653  28.037  1.00  0.00     0.040 A 
ATOM     76  C   UNL A   1      35.548  32.914  27.923  1.00  0.00     0.040 A 
ATOM     77  F   UNL A   1      37.648  33.435  28.840  1.00  0.00    -0.206 F 
ATOM     78  C   UNL A   1      34.562  31.976  27.626  1.00  0.00     0.006 A 
ENDBRANCH  50  71
BRANCH  62  79
ATOM     79  C   UNL A   1      39.238  32.390  35.476  1.00  0.00     0.057 A 
ATOM     80  C   UNL A   1      38.392  32.005  36.520  1.00  0.00     0.134 A 
ATOM     81  C   UNL A   1      39.722  33.707  35.482  1.00  0.00     0.134 A 
ATOM     82  F   UNL A   1      37.881  30.767  36.560  1.00  0.00    -0.206 F 
ATOM     83  C   UNL A   1      38.030  32.901  37.529  1.00  0.00     0.040 A 
ATOM     84  C   UNL A   1      39.386  34.603  36.496  1.00  0.00     0.040 A 
ATOM     85  F   UNL A   1      40.539  34.137  34.508  1.00  0.00    -0.206 F 
ATOM     86  C   UNL A   1      38.535  34.202  37.522  1.00  0.00     0.006 A 
ENDBRANCH  62  79
ENDBRANCH  36  37
ENDBRANCH  29  31
ENDBRANCH  28  29
ENDBRANCH  27  28
ENDBRANCH  26  27
ENDBRANCH  25  26
ENDBRANCH   1  25
TORSDOF 17
ENDMDL
MODEL 2
REMARK VINA RESULT:     -11.1      1.231      1.954
REMARK SMILES NC(=O)c1ccc(N[C@H]2C=C[C@@H](C(=O)OCCOCCOC(=O)c3ccc(-c4c5nc(c(-c6c(F)cccc6F)c6ccc([nH]6)c(-c6c(F)cccc6F)c6nc(c(-c7c(F)cccc7F)c7ccc4[nH]7)C=C6)C=C5)cc3)C2)cc1Cl
REMARK SMILES IDX 17 1 16 2 15 3 13 4 14 5 12 6 9 7 10 8 78 9 11 10 8 11 7 13
REMARK SMILES IDX 4 14 5 15 80 16 6 17 79 18 81 19 2 20 1 21 3 24 18 25 19 26
REMARK SMILES IDX 20 27 21 28 22 29 23 30 24 31 25 32 77 33 26 34 76 35 27 36
REMARK SMILES IDX 28 37 29 38 70 39 30 40 75 41 69 42 71 43 31 44 74 45 68 46
REMARK SMILES IDX 67 47 32 49 58 50 41 51 57 52 42 53 45 54 56 55 72 56 43 57
REMARK SMILES IDX 44 58 55 60 73 61 46 62 33 63 34 64 39 65 35 66 36 67 38 68
REMARK SMILES IDX 40 69 37 70 59 71 60 72 65 73 61 74 62 75 64 76 66 77 63 78
REMARK SMILES IDX 47 79 48 80 53 81 49 82 50 83 52 84 54 85 51 86
REMARK H PARENT 8 12 1 22 1 23 71 48 45 59
REMARK Flexibility Score: inf
ROOT
ATOM      1  C   UNL A   1      38.751  21.861  25.964  1.00  0.00     0.202 C 
ENDROOT
BRANCH   1   2
ATOM      2  C   UNL A   1      37.476  21.874  25.118  1.00  0.00     0.261 C 
BRANCH   2   3
ATOM      3  O   UNL A   1      36.501  22.747  25.712  1.00  0.00    -0.463 OA
BRANCH   3   4
ATOM      4  C   UNL A   1      35.333  22.889  25.037  1.00  0.00     0.312 C 
ATOM      5  O   UNL A   1      35.230  23.398  23.926  1.00  0.00    -0.252 OA
BRANCH   4   6
ATOM      6  C   UNL A   1      34.126  22.352  25.804  1.00  0.00     0.124 C 
ATOM      7  C   UNL A   1      31.683  22.505  25.750  1.00  0.00     0.103 C 
ATOM      8  C   UNL A   1      32.172  21.319  24.994  1.00  0.00    -0.006 C 
ATOM      9  C   UNL A   1      32.947  23.306  26.072  1.00  0.00     0.048 C 
ATOM     10  C   UNL A   1      33.505  21.221  25.037  1.00  0.00    -0.014 C 
BRANCH   7  11
ATOM     11  N   UNL A   1      30.671  23.243  25.020  1.00  0.00    -0.379 N 
ATOM     12  H   UNL A   1      29.813  22.773  24.907  1.00  0.00     0.161 HD
BRANCH  11  13
ATOM     13  C   UNL A   1      30.725  24.501  24.460  1.00  0.00     0.036 A 
ATOM     14  C   UNL A   1      30.945  27.036  23.197  1.00  0.00     0.058 A 
ATOM     15  C   UNL A   1      30.357  26.908  24.460  1.00  0.00     0.017 A 
ATOM     16  C   UNL A   1      31.403  25.889  22.549  1.00  0.00     0.055 A 
ATOM     17  C   UNL A   1      30.254  25.659  25.075  1.00  0.00     0.026 A 
ATOM     18  C   UNL A   1      31.283  24.641  23.180  1.00  0.00     0.047 A 
ATOM     19  Cl  UNL A   1      32.174  25.900  21.001  1.00  0.00    -0.083 Cl
BRANCH  14  20
ATOM     20  C   UNL A   1      31.073  28.417  22.686  1.00  0.00     0.250 C 
ATOM     21  N   UNL A   1      32.174  29.136  23.040  1.00  0.00    -0.366 N 
ATOM     22  H   UNL A   1      32.286  30.058  22.716  1.00  0.00     0.159 HD
ATOM     23  H   UNL A   1      32.859  28.733  23.622  1.00  0.00     0.159 HD
ATOM     24  O   UNL A   1      30.223  28.870  21.927  1.00  0.00    -0.269 OA
ENDBRANCH  14  20
ENDBRANCH  11  13
ENDBRANCH   7  11
ENDBRANCH   4   6
ENDBRANCH   3   4
ENDBRANCH   2   3
ENDBRANCH   1   2
BRANCH   1  25
ATOM     25  O   UNL A   1      39.600  20.726  25.779  1.00  0.00    -0.374 OA
BRANCH  25  26
ATOM     26  C   UNL A   1      40.677  20.560  26.700  1.00  0.00     0.202 C 
BRANCH  26  27
ATOM     27  C   UNL A   1      42.092  20.703  26.126  1.00  0.00     0.261 C 
BRANCH  27  28
ATOM     28  O   UNL A   1      42.784  21.858  26.632  1.00  0.00    -0.460 OA
BRANCH  28  29
ATOM     29  C   UNL A   1      42.792  22.924  25.795  1.00  0.00     0.338 C 
ATOM     30  O   UNL A   1      43.027  22.918  24.595  1.00  0.00    -0.246 OA
BRANCH  29  31
ATOM     31  C   UNL A   1      42.332  24.139  26.492  1.00  0.00     0.060 A 
ATOM     32  C   UNL A   1      43.099  25.304  26.348  1.00  0.00     0.016 A 
ATOM     33  C   UNL A   1      41.238  24.116  27.358  1.00  0.00     0.016 A 
ATOM     34  C   UNL A   1      42.812  26.436  27.112  1.00  0.00     0.010 A 
ATOM     35  C   UNL A   1      40.957  25.250  28.128  1.00  0.00     0.010 A 
ATOM     36  C   UNL A   1      41.765  26.403  28.038  1.00  0.00    -0.014 A 
BRANCH  36  37
ATOM     37  C   UNL A   1      41.582  27.493  29.031  1.00  0.00     0.031 A 
ATOM     38  C   UNL A   1      42.322  27.413  30.337  1.00  0.00     0.074 A 
ATOM     39  C   UNL A   1      40.735  28.514  28.813  1.00  0.00     0.049 A 
ATOM     40  N   UNL A   1      42.138  28.093  31.439  1.00  0.00    -0.248 NA
ATOM     41  C   UNL A   1      43.422  26.437  30.402  1.00  0.00     0.031 C 
ATOM     42  C   UNL A   1      40.006  28.765  27.576  1.00  0.00     0.029 A 
ATOM     43  N   UNL A   1      40.269  29.474  29.683  1.00  0.00    -0.354 N 
ATOM     44  C   UNL A   1      43.120  27.654  32.317  1.00  0.00     0.074 A 
ATOM     45  C   UNL A   1      43.848  26.598  31.647  1.00  0.00     0.031 C 
ATOM     46  C   UNL A   1      39.093  29.726  27.798  1.00  0.00     0.029 A 
ATOM     47  C   UNL A   1      39.163  30.132  29.198  1.00  0.00     0.049 A 
ATOM     48  H   UNL A   1      40.682  29.670  30.555  1.00  0.00     0.167 HD
ATOM     49  C   UNL A   1      43.415  28.119  33.554  1.00  0.00     0.037 A 
ATOM     50  C   UNL A   1      38.252  30.891  29.836  1.00  0.00     0.037 A 
ATOM     51  C   UNL A   1      42.688  29.166  34.222  1.00  0.00     0.049 A 
ATOM     52  C   UNL A   1      38.439  31.228  31.284  1.00  0.00     0.074 A 
ATOM     53  C   UNL A   1      42.943  29.748  35.451  1.00  0.00     0.029 A 
ATOM     54  N   UNL A   1      41.552  29.777  33.718  1.00  0.00    -0.354 N 
ATOM     55  N   UNL A   1      39.380  30.836  32.105  1.00  0.00    -0.248 NA
ATOM     56  C   UNL A   1      37.454  32.138  31.887  1.00  0.00     0.031 C 
ATOM     57  C   UNL A   1      41.933  30.683  35.710  1.00  0.00     0.029 A 
ATOM     58  C   UNL A   1      41.076  30.710  34.624  1.00  0.00     0.049 A 
ATOM     59  H   UNL A   1      41.143  29.577  32.846  1.00  0.00     0.167 HD
ATOM     60  C   UNL A   1      39.149  31.515  33.295  1.00  0.00     0.074 A 
ATOM     61  C   UNL A   1      37.950  32.301  33.106  1.00  0.00     0.031 C 
ATOM     62  C   UNL A   1      39.898  31.514  34.425  1.00  0.00     0.037 A 
BRANCH  49  63
ATOM     63  C   UNL A   1      44.590  27.508  34.255  1.00  0.00     0.057 A 
ATOM     64  C   UNL A   1      44.443  26.389  35.086  1.00  0.00     0.134 A 
ATOM     65  C   UNL A   1      45.882  28.014  34.074  1.00  0.00     0.134 A 
ATOM     66  F   UNL A   1      43.229  25.863  35.309  1.00  0.00    -0.206 F 
ATOM     67  C   UNL A   1      45.537  25.810  35.731  1.00  0.00     0.040 A 
ATOM     68  C   UNL A   1      46.987  27.430  34.694  1.00  0.00     0.040 A 
ATOM     69  F   UNL A   1      46.092  29.080  33.286  1.00  0.00    -0.206 F 
ATOM     70  C   UNL A   1      46.815  26.328  35.530  1.00  0.00     0.006 A 
ENDBRANCH  49  63
BRANCH  50  71
ATOM     71  C   UNL A   1      37.022  31.312  29.125  1.00  0.00     0.057 A 
ATOM     72  C   UNL A   1      35.968  30.426  28.891  1.00  0.00     0.134 A 
ATOM     73  C   UNL A   1      36.899  32.617  28.636  1.00  0.00     0.134 A 
ATOM     74  F   UNL A   1      36.054  29.153  29.302  1.00  0.00    -0.206 F 
ATOM     75  C   UNL A   1      34.830  30.823  28.187  1.00  0.00     0.040 A 
ATOM     76  C   UNL A   1      35.758  33.034  27.952  1.00  0.00     0.040 A 
ATOM     77  F   UNL A   1      37.904  33.492  28.793  1.00  0.00    -0.206 F 
ATOM     78  C   UNL A   1      34.721  32.133  27.722  1.00  0.00     0.006 A 
ENDBRANCH  50  71
BRANCH  62  79
ATOM     79  C   UNL A   1      39.512  32.476  35.507  1.00  0.00     0.057 A 
ATOM     80  C   UNL A   1      39.990  33.789  35.552  1.00  0.00     0.134 A 
ATOM     81  C   UNL A   1      38.609  32.077  36.505  1.00  0.00     0.134 A 
ATOM     82  F   UNL A   1      40.870  34.223  34.639  1.00  0.00    -0.206 F 
ATOM     83  C   UNL A   1      39.595  34.671  36.560  1.00  0.00     0.040 A 
ATOM     84  C   UNL A   1      38.189  32.957  37.502  1.00  0.00     0.040 A 
ATOM     85  F   UNL A   1      38.112  30.831  36.515  1.00  0.00    -0.206 F 
ATOM     86  C   UNL A   1      38.685  34.258  37.533  1.00  0.00     0.006 A 
ENDBRANCH  62  79
ENDBRANCH  36  37
ENDBRANCH  29  31
ENDBRANCH  28  29
ENDBRANCH  27  28
ENDBRANCH  26  27
ENDBRANCH  25  26
ENDBRANCH   1  25
TORSDOF 17
ENDMDL
MODEL 3
REMARK VINA RESULT:     -10.7      4.809      7.047
REMARK SMILES NC(=O)c1ccc(N[C@H]2C=C[C@@H](C(=O)OCCOCCOC(=O)c3ccc(-c4c5nc(c(-c6c(F)cccc6F)c6ccc([nH]6)c(-c6c(F)cccc6F)c6nc(c(-c7c(F)cccc7F)c7ccc4[nH]7)C=C6)C=C5)cc3)C2)cc1Cl
REMARK SMILES IDX 17 1 16 2 15 3 13 4 14 5 12 6 9 7 10 8 78 9 11 10 8 11 7 13
REMARK SMILES IDX 4 14 5 15 80 16 6 17 79 18 81 19 2 20 1 21 3 24 18 25 19 26
REMARK SMILES IDX 20 27 21 28 22 29 23 30 24 31 25 32 77 33 26 34 76 35 27 36
REMARK SMILES IDX 28 37 29 38 70 39 30 40 75 41 69 42 71 43 31 44 74 45 68 46
REMARK SMILES IDX 67 47 32 49 58 50 41 51 57 52 42 53 45 54 56 55 72 56 43 57
REMARK SMILES IDX 44 58 55 60 73 61 46 62 33 63 34 64 39 65 35 66 36 67 38 68
REMARK SMILES IDX 40 69 37 70 59 71 60 72 65 73 61 74 62 75 64 76 66 77 63 78
REMARK SMILES IDX 47 79 48 80 53 81 49 82 50 83 52 84 54 85 51 86
REMARK H PARENT 8 12 1 22 1 23 71 48 45 59
REMARK Flexibility Score: inf
ROOT
ATOM      1  C   UNL A   1      41.212  21.348  26.178  1.00  0.00     0.202 C 
ENDROOT
BRANCH   1   2
ATOM      2  C   UNL A   1      39.822  21.847  26.577  1.00  0.00     0.261 C 
BRANCH   2   3
ATOM      3  O   UNL A   1      38.898  21.645  25.495  1.00  0.00    -0.463 OA
BRANCH   3   4
ATOM      4  C   UNL A   1      37.778  22.410  25.512  1.00  0.00     0.312 C 
ATOM      5  O   UNL A   1      37.636  23.420  26.193  1.00  0.00    -0.252 OA
BRANCH   4   6
ATOM      6  C   UNL A   1      36.679  21.886  24.590  1.00  0.00     0.124 C 
ATOM      7  C   UNL A   1      34.313  22.301  24.112  1.00  0.00     0.103 C 
ATOM      8  C   UNL A   1      35.198  23.072  23.195  1.00  0.00    -0.006 C 
ATOM      9  C   UNL A   1      35.259  21.721  25.167  1.00  0.00     0.048 C 
ATOM     10  C   UNL A   1      36.491  22.833  23.441  1.00  0.00    -0.014 C 
BRANCH   7  11
ATOM     11  N   UNL A   1      33.237  23.112  24.648  1.00  0.00    -0.379 N 
ATOM     12  H   UNL A   1      32.426  22.614  24.899  1.00  0.00     0.161 HD
BRANCH  11  13
ATOM     13  C   UNL A   1      33.176  24.472  24.859  1.00  0.00     0.036 A 
ATOM     14  C   UNL A   1      32.929  27.283  25.185  1.00  0.00     0.058 A 
ATOM     15  C   UNL A   1      34.048  26.597  25.669  1.00  0.00     0.017 A 
ATOM     16  C   UNL A   1      31.915  26.559  24.558  1.00  0.00     0.055 A 
ATOM     17  C   UNL A   1      34.163  25.215  25.504  1.00  0.00     0.026 A 
ATOM     18  C   UNL A   1      32.045  25.170  24.408  1.00  0.00     0.047 A 
ATOM     19  Cl  UNL A   1      30.492  27.278  23.889  1.00  0.00    -0.083 Cl
BRANCH  14  20
ATOM     20  C   UNL A   1      32.959  28.753  25.345  1.00  0.00     0.250 C 
ATOM     21  N   UNL A   1      33.337  29.509  24.278  1.00  0.00    -0.366 N 
ATOM     22  H   UNL A   1      33.367  30.490  24.355  1.00  0.00     0.159 HD
ATOM     23  H   UNL A   1      33.581  29.074  23.428  1.00  0.00     0.159 HD
ATOM     24  O   UNL A   1      32.606  29.261  26.404  1.00  0.00    -0.269 OA
ENDBRANCH  14  20
ENDBRANCH  11  13
ENDBRANCH   7  11
ENDBRANCH   4   6
ENDBRANCH   3   4
ENDBRANCH   2   3
ENDBRANCH   1   2
BRANCH   1  25
ATOM     25  O   UNL A   1      41.599  20.092  26.740  1.00  0.00    -0.374 OA
BRANCH  25  26
ATOM     26  C   UNL A   1      41.828  19.014  25.832  1.00  0.00     0.202 C 
BRANCH  26  27
ATOM     27  C   UNL A   1      43.258  18.463  25.777  1.00  0.00     0.261 C 
BRANCH  27  28
ATOM     28  O   UNL A   1      43.851  18.581  24.472  1.00  0.00    -0.460 OA
BRANCH  28  29
ATOM     29  C   UNL A   1      45.007  19.287  24.438  1.00  0.00     0.338 C 
ATOM     30  O   UNL A   1      46.102  18.894  24.060  1.00  0.00    -0.246 OA
BRANCH  29  31
ATOM     31  C   UNL A   1      44.768  20.697  24.796  1.00  0.00     0.060 A 
ATOM     32  C   UNL A   1      44.537  21.605  23.753  1.00  0.00     0.016 A 
ATOM     33  C   UNL A   1      44.877  21.147  26.112  1.00  0.00     0.016 A 
ATOM     34  C   UNL A   1      44.472  22.975  24.011  1.00  0.00     0.010 A 
ATOM     35  C   UNL A   1      44.818  22.522  26.367  1.00  0.00     0.010 A 
ATOM     36  C   UNL A   1      44.654  23.446  25.315  1.00  0.00    -0.014 A 
BRANCH  36  37
ATOM     37  C   UNL A   1      44.830  24.895  25.591  1.00  0.00     0.031 A 
ATOM     38  C   UNL A   1      46.223  25.461  25.625  1.00  0.00     0.074 A 
ATOM     39  C   UNL A   1      43.785  25.695  25.864  1.00  0.00     0.049 A 
ATOM     40  N   UNL A   1      46.640  26.612  26.083  1.00  0.00    -0.248 NA
ATOM     41  C   UNL A   1      47.282  24.612  25.058  1.00  0.00     0.031 C 
ATOM     42  C   UNL A   1      42.380  25.311  25.800  1.00  0.00     0.029 A 
ATOM     43  N   UNL A   1      43.764  26.981  26.356  1.00  0.00    -0.354 N 
ATOM     44  C   UNL A   1      48.005  26.643  25.828  1.00  0.00     0.074 A 
ATOM     45  C   UNL A   1      48.357  25.365  25.245  1.00  0.00     0.031 C 
ATOM     46  C   UNL A   1      41.639  26.286  26.354  1.00  0.00     0.029 A 
ATOM     47  C   UNL A   1      42.525  27.343  26.831  1.00  0.00     0.049 A 
ATOM     48  H   UNL A   1      44.548  27.576  26.367  1.00  0.00     0.167 HD
ATOM     49  C   UNL A   1      48.877  27.659  26.024  1.00  0.00     0.037 A 
ATOM     50  C   UNL A   1      42.165  28.355  27.643  1.00  0.00     0.037 A 
ATOM     51  C   UNL A   1      48.528  28.927  26.608  1.00  0.00     0.049 A 
ATOM     52  C   UNL A   1      43.179  29.373  28.067  1.00  0.00     0.074 A 
ATOM     53  C   UNL A   1      49.326  30.042  26.796  1.00  0.00     0.029 A 
ATOM     54  N   UNL A   1      47.277  29.241  27.113  1.00  0.00    -0.354 N 
ATOM     55  N   UNL A   1      44.461  29.416  27.805  1.00  0.00    -0.248 NA
ATOM     56  C   UNL A   1      42.692  30.499  28.877  1.00  0.00     0.031 C 
ATOM     57  C   UNL A   1      48.567  31.017  27.455  1.00  0.00     0.029 A 
ATOM     58  C   UNL A   1      47.287  30.522  27.638  1.00  0.00     0.049 A 
ATOM     59  H   UNL A   1      46.497  28.641  27.100  1.00  0.00     0.167 HD
ATOM     60  C   UNL A   1      44.917  30.614  28.343  1.00  0.00     0.074 A 
ATOM     61  C   UNL A   1      43.786  31.239  28.993  1.00  0.00     0.031 C 
ATOM     62  C   UNL A   1      46.156  31.157  28.261  1.00  0.00     0.037 A 
BRANCH  49  63
ATOM     63  C   UNL A   1      50.293  27.445  25.580  1.00  0.00     0.057 A 
ATOM     64  C   UNL A   1      51.297  27.090  26.491  1.00  0.00     0.134 A 
ATOM     65  C   UNL A   1      50.652  27.555  24.233  1.00  0.00     0.134 A 
ATOM     66  F   UNL A   1      51.020  26.979  27.799  1.00  0.00    -0.206 F 
ATOM     67  C   UNL A   1      52.614  26.878  26.081  1.00  0.00     0.040 A 
ATOM     68  C   UNL A   1      51.959  27.321  23.805  1.00  0.00     0.040 A 
ATOM     69  F   UNL A   1      49.736  27.885  23.309  1.00  0.00    -0.206 F 
ATOM     70  C   UNL A   1      52.946  26.987  24.732  1.00  0.00     0.006 A 
ENDBRANCH  49  63
BRANCH  50  71
ATOM     71  C   UNL A   1      40.788  28.404  28.186  1.00  0.00     0.057 A 
ATOM     72  C   UNL A   1      39.727  28.944  27.455  1.00  0.00     0.134 A 
ATOM     73  C   UNL A   1      40.519  27.933  29.477  1.00  0.00     0.134 A 
ATOM     74  F   UNL A   1      39.940  29.447  26.231  1.00  0.00    -0.206 F 
ATOM     75  C   UNL A   1      38.441  29.019  27.992  1.00  0.00     0.040 A 
ATOM     76  C   UNL A   1      39.234  27.979  30.016  1.00  0.00     0.040 A 
ATOM     77  F   UNL A   1      41.512  27.449  30.237  1.00  0.00    -0.206 F 
ATOM     78  C   UNL A   1      38.191  28.529  29.273  1.00  0.00     0.006 A 
ENDBRANCH  50  71
BRANCH  62  79
ATOM     79  C   UNL A   1      46.332  32.549  28.787  1.00  0.00     0.057 A 
ATOM     80  C   UNL A   1      46.069  33.684  28.014  1.00  0.00     0.134 A 
ATOM     81  C   UNL A   1      46.741  32.746  30.114  1.00  0.00     0.134 A 
ATOM     82  F   UNL A   1      45.694  33.563  26.733  1.00  0.00    -0.206 F 
ATOM     83  C   UNL A   1      46.220  34.970  28.539  1.00  0.00     0.040 A 
ATOM     84  C   UNL A   1      46.872  34.025  30.656  1.00  0.00     0.040 A 
ATOM     85  F   UNL A   1      47.006  31.697  30.908  1.00  0.00    -0.206 F 
ATOM     86  C   UNL A   1      46.614  35.142  29.866  1.00  0.00     0.006 A 
ENDBRANCH  62  79
ENDBRANCH  36  37
ENDBRANCH  29  31
ENDBRANCH  28  29
ENDBRANCH  27  28
ENDBRANCH  26  27
ENDBRANCH  25  26
ENDBRANCH   1  25
TORSDOF 17
ENDMDL
