MODEL 1
REMARK VINA RESULT:     -10.1      0.000      0.000
REMARK SMILES COc1ccc(CCNC(=O)c2cccnc2C(=O)OCCOCCOC(=O)c2ccc(-c3c4nc(c(-c5c(F)cccc5F)c5ccc([nH]5)c(-c5c(F)cccc5F)c5nc(c(-c6c(F)cccc6F)c6ccc3[nH]6)C=C5)C=C4)cc2)cc1OC
REMARK SMILES IDX 21 1 20 2 18 3 19 4 17 5 12 6 13 7 14 8 16 9 15 10 10 11
REMARK SMILES IDX 9 12 11 14 8 15 7 16 6 17 3 18 4 19 84 20 5 21 83 22 2 23
REMARK SMILES IDX 1 24 85 25 86 26 22 27 23 28 24 29 25 30 26 31 27 32 28 33
REMARK SMILES IDX 29 34 30 35 82 36 31 37 81 38 32 39 33 40 34 41 75 42 35 43
REMARK SMILES IDX 80 44 74 45 76 46 36 47 79 48 73 49 72 50 37 52 63 53 46 54
REMARK SMILES IDX 62 55 47 56 50 57 61 58 77 59 48 60 49 61 60 63 78 64 51 65
REMARK SMILES IDX 38 66 39 67 44 68 40 69 41 70 43 71 45 72 42 73 64 74 65 75
REMARK SMILES IDX 70 76 66 77 67 78 69 79 71 80 68 81 52 82 53 83 58 84 54 85
REMARK SMILES IDX 55 86 57 87 59 88 56 89
REMARK H PARENT 9 13 76 51 50 62
REMARK Flexibility Score: inf
ROOT
ATOM      1  C   UNL A   1      37.555  24.041  25.389  1.00  0.00     0.261 C 
ENDROOT
BRANCH   1   2
ATOM      2  O   UNL A   1      36.203  23.685  25.055  1.00  0.00    -0.458 OA
BRANCH   2   3
ATOM      3  C   UNL A   1      36.053  23.160  23.812  1.00  0.00     0.357 C 
ATOM      4  O   UNL A   1      36.952  22.809  23.062  1.00  0.00    -0.244 OA
BRANCH   3   5
ATOM      5  C   UNL A   1      34.618  22.869  23.550  1.00  0.00     0.161 A 
ATOM      6  C   UNL A   1      33.906  21.849  24.172  1.00  0.00     0.073 A 
ATOM      7  C   UNL A   1      32.518  21.828  23.977  1.00  0.00     0.018 A 
ATOM      8  C   UNL A   1      31.915  22.725  23.097  1.00  0.00     0.021 A 
ATOM      9  N   UNL A   1      34.043  23.746  22.666  1.00  0.00    -0.248 NA
ATOM     10  C   UNL A   1      32.717  23.647  22.453  1.00  0.00     0.112 A 
BRANCH   6  11
ATOM     11  C   UNL A   1      34.543  20.900  25.103  1.00  0.00     0.253 C 
ATOM     12  N   UNL A   1      34.771  21.233  26.417  1.00  0.00    -0.352 N 
ATOM     13  H   UNL A   1      35.278  20.555  26.919  1.00  0.00     0.163 HD
ATOM     14  O   UNL A   1      34.904  19.803  24.689  1.00  0.00    -0.269 OA
BRANCH  12  15
ATOM     15  C   UNL A   1      34.401  22.406  27.208  1.00  0.00     0.121 C 
BRANCH  15  16
ATOM     16  C   UNL A   1      32.892  22.555  27.430  1.00  0.00     0.057 C 
BRANCH  16  17
ATOM     17  C   UNL A   1      32.268  23.763  26.773  1.00  0.00    -0.042 A 
ATOM     18  C   UNL A   1      31.140  25.959  25.414  1.00  0.00     0.160 A 
ATOM     19  C   UNL A   1      30.326  24.947  25.935  1.00  0.00     0.051 A 
ATOM     20  C   UNL A   1      32.524  25.913  25.616  1.00  0.00     0.160 A 
ATOM     21  C   UNL A   1      30.886  23.850  26.593  1.00  0.00     0.008 A 
ATOM     22  C   UNL A   1      33.071  24.814  26.300  1.00  0.00     0.054 A 
BRANCH  18  23
ATOM     23  O   UNL A   1      30.549  27.021  24.782  1.00  0.00    -0.493 OA
ATOM     24  C   UNL A   1      29.996  26.659  23.513  1.00  0.00     0.278 C 
ENDBRANCH  18  23
BRANCH  20  25
ATOM     25  O   UNL A   1      33.470  26.821  25.223  1.00  0.00    -0.493 OA
ATOM     26  C   UNL A   1      33.572  27.125  23.837  1.00  0.00     0.278 C 
ENDBRANCH  20  25
ENDBRANCH  16  17
ENDBRANCH  15  16
ENDBRANCH  12  15
ENDBRANCH   6  11
ENDBRANCH   3   5
ENDBRANCH   2   3
ENDBRANCH   1   2
BRANCH   1  27
ATOM     27  C   UNL A   1      38.132  23.049  26.399  1.00  0.00     0.202 C 
BRANCH  27  28
ATOM     28  O   UNL A   1      39.001  22.049  25.867  1.00  0.00    -0.374 OA
BRANCH  28  29
ATOM     29  C   UNL A   1      38.413  20.799  25.506  1.00  0.00     0.202 C 
BRANCH  29  30
ATOM     30  C   UNL A   1      39.391  19.639  25.273  1.00  0.00     0.261 C 
BRANCH  30  31
ATOM     31  O   UNL A   1      40.225  19.371  26.417  1.00  0.00    -0.460 OA
BRANCH  31  32
ATOM     32  C   UNL A   1      41.557  19.350  26.167  1.00  0.00     0.338 C 
ATOM     33  O   UNL A   1      42.200  18.475  25.602  1.00  0.00    -0.246 OA
BRANCH  32  34
ATOM     34  C   UNL A   1      42.151  20.638  26.559  1.00  0.00     0.060 A 
ATOM     35  C   UNL A   1      42.164  20.991  27.915  1.00  0.00     0.016 A 
ATOM     36  C   UNL A   1      42.629  21.520  25.594  1.00  0.00     0.016 A 
ATOM     37  C   UNL A   1      42.679  22.226  28.313  1.00  0.00     0.010 A 
ATOM     38  C   UNL A   1      43.120  22.765  25.995  1.00  0.00     0.010 A 
ATOM     39  C   UNL A   1      43.158  23.127  27.354  1.00  0.00    -0.014 A 
BRANCH  39  40
ATOM     40  C   UNL A   1      43.627  24.483  27.740  1.00  0.00     0.031 A 
ATOM     41  C   UNL A   1      42.616  25.534  28.100  1.00  0.00     0.074 A 
ATOM     42  C   UNL A   1      44.937  24.793  27.728  1.00  0.00     0.049 A 
ATOM     43  N   UNL A   1      42.789  26.814  28.312  1.00  0.00    -0.248 NA
ATOM     44  C   UNL A   1      41.221  25.084  28.219  1.00  0.00     0.031 C 
ATOM     45  C   UNL A   1      46.025  23.868  27.413  1.00  0.00     0.029 A 
ATOM     46  N   UNL A   1      45.571  25.989  27.958  1.00  0.00    -0.354 N 
ATOM     47  C   UNL A   1      41.527  27.321  28.595  1.00  0.00     0.074 A 
ATOM     48  C   UNL A   1      40.593  26.222  28.475  1.00  0.00     0.031 C 
ATOM     49  C   UNL A   1      47.190  24.537  27.446  1.00  0.00     0.029 A 
ATOM     50  C   UNL A   1      46.929  25.942  27.753  1.00  0.00     0.049 A 
ATOM     51  H   UNL A   1      45.098  26.805  28.244  1.00  0.00     0.167 HD
ATOM     52  C   UNL A   1      41.178  28.582  28.943  1.00  0.00     0.037 A 
ATOM     53  C   UNL A   1      47.852  26.924  27.779  1.00  0.00     0.037 A 
ATOM     54  C   UNL A   1      42.104  29.675  29.083  1.00  0.00     0.049 A 
ATOM     55  C   UNL A   1      47.430  28.335  28.092  1.00  0.00     0.074 A 
ATOM     56  C   UNL A   1      41.843  30.983  29.451  1.00  0.00     0.029 A 
ATOM     57  N   UNL A   1      43.469  29.586  28.863  1.00  0.00    -0.354 N 
ATOM     58  N   UNL A   1      46.236  28.800  28.368  1.00  0.00    -0.248 NA
ATOM     59  C   UNL A   1      48.487  29.360  28.094  1.00  0.00     0.031 C 
ATOM     60  C   UNL A   1      43.045  31.698  29.412  1.00  0.00     0.029 A 
ATOM     61  C   UNL A   1      44.060  30.823  29.061  1.00  0.00     0.049 A 
ATOM     62  H   UNL A   1      43.948  28.765  28.607  1.00  0.00     0.167 HD
ATOM     63  C   UNL A   1      46.400  30.161  28.597  1.00  0.00     0.074 A 
ATOM     64  C   UNL A   1      47.811  30.445  28.443  1.00  0.00     0.031 C 
ATOM     65  C   UNL A   1      45.466  31.094  28.907  1.00  0.00     0.037 A 
BRANCH  52  66
ATOM     66  C   UNL A   1      39.723  28.849  29.189  1.00  0.00     0.057 A 
ATOM     67  C   UNL A   1      38.862  29.248  28.159  1.00  0.00     0.134 A 
ATOM     68  C   UNL A   1      39.172  28.675  30.464  1.00  0.00     0.134 A 
ATOM     69  F   UNL A   1      39.333  29.446  26.918  1.00  0.00    -0.206 F 
ATOM     70  C   UNL A   1      37.508  29.487  28.393  1.00  0.00     0.040 A 
ATOM     71  C   UNL A   1      37.814  28.887  30.706  1.00  0.00     0.040 A 
ATOM     72  F   UNL A   1      39.943  28.292  31.493  1.00  0.00    -0.206 F 
ATOM     73  C   UNL A   1      36.979  29.300  29.669  1.00  0.00     0.006 A 
ENDBRANCH  52  66
BRANCH  53  74
ATOM     74  C   UNL A   1      49.273  26.620  27.469  1.00  0.00     0.057 A 
ATOM     75  C   UNL A   1      50.194  26.336  28.483  1.00  0.00     0.134 A 
ATOM     76  C   UNL A   1      49.750  26.645  26.153  1.00  0.00     0.134 A 
ATOM     77  F   UNL A   1      49.803  26.327  29.766  1.00  0.00    -0.206 F 
ATOM     78  C   UNL A   1      51.543  26.106  28.203  1.00  0.00     0.040 A 
ATOM     79  C   UNL A   1      51.090  26.393  25.856  1.00  0.00     0.040 A 
ATOM     80  F   UNL A   1      48.917  26.914  25.137  1.00  0.00    -0.206 F 
ATOM     81  C   UNL A   1      51.992  26.130  26.885  1.00  0.00     0.006 A 
ENDBRANCH  53  74
BRANCH  65  82
ATOM     82  C   UNL A   1      45.938  32.502  29.120  1.00  0.00     0.057 A 
ATOM     83  C   UNL A   1      46.370  32.952  30.373  1.00  0.00     0.134 A 
ATOM     84  C   UNL A   1      46.002  33.405  28.051  1.00  0.00     0.134 A 
ATOM     85  F   UNL A   1      46.322  32.139  31.441  1.00  0.00    -0.206 F 
ATOM     86  C   UNL A   1      46.835  34.255  30.560  1.00  0.00     0.040 A 
ATOM     87  C   UNL A   1      46.488  34.702  28.220  1.00  0.00     0.040 A 
ATOM     88  F   UNL A   1      45.612  33.034  26.822  1.00  0.00    -0.206 F 
ATOM     89  C   UNL A   1      46.901  35.132  29.479  1.00  0.00     0.006 A 
ENDBRANCH  65  82
ENDBRANCH  39  40
ENDBRANCH  32  34
ENDBRANCH  31  32
ENDBRANCH  30  31
ENDBRANCH  29  30
ENDBRANCH  28  29
ENDBRANCH  27  28
ENDBRANCH   1  27
TORSDOF 20
ENDMDL
MODEL 2
REMARK VINA RESULT:     -10.0      1.621      2.771
REMARK SMILES COc1ccc(CCNC(=O)c2cccnc2C(=O)OCCOCCOC(=O)c2ccc(-c3c4nc(c(-c5c(F)cccc5F)c5ccc([nH]5)c(-c5c(F)cccc5F)c5nc(c(-c6c(F)cccc6F)c6ccc3[nH]6)C=C5)C=C4)cc2)cc1OC
REMARK SMILES IDX 21 1 20 2 18 3 19 4 17 5 12 6 13 7 14 8 16 9 15 10 10 11
REMARK SMILES IDX 9 12 11 14 8 15 7 16 6 17 3 18 4 19 84 20 5 21 83 22 2 23
REMARK SMILES IDX 1 24 85 25 86 26 22 27 23 28 24 29 25 30 26 31 27 32 28 33
REMARK SMILES IDX 29 34 30 35 82 36 31 37 81 38 32 39 33 40 34 41 75 42 35 43
REMARK SMILES IDX 80 44 74 45 76 46 36 47 79 48 73 49 72 50 37 52 63 53 46 54
REMARK SMILES IDX 62 55 47 56 50 57 61 58 77 59 48 60 49 61 60 63 78 64 51 65
REMARK SMILES IDX 38 66 39 67 44 68 40 69 41 70 43 71 45 72 42 73 64 74 65 75
REMARK SMILES IDX 70 76 66 77 67 78 69 79 71 80 68 81 52 82 53 83 58 84 54 85
REMARK SMILES IDX 55 86 57 87 59 88 56 89
REMARK H PARENT 9 13 76 51 50 62
REMARK Flexibility Score: inf
ROOT
ATOM      1  C   UNL A   1      36.844  23.955  25.633  1.00  0.00     0.261 C 
ENDROOT
BRANCH   1   2
ATOM      2  O   UNL A   1      35.857  23.590  24.655  1.00  0.00    -0.458 OA
BRANCH   2   3
ATOM      3  C   UNL A   1      34.574  23.718  25.079  1.00  0.00     0.357 C 
ATOM      4  O   UNL A   1      34.042  24.745  25.474  1.00  0.00    -0.244 OA
BRANCH   3   5
ATOM      5  C   UNL A   1      33.817  22.467  24.805  1.00  0.00     0.161 A 
ATOM      6  C   UNL A   1      33.034  22.264  23.674  1.00  0.00     0.073 A 
ATOM      7  C   UNL A   1      32.551  20.967  23.454  1.00  0.00     0.018 A 
ATOM      8  C   UNL A   1      32.755  19.968  24.405  1.00  0.00     0.021 A 
ATOM      9  N   UNL A   1      34.011  21.500  25.759  1.00  0.00    -0.248 NA
ATOM     10  C   UNL A   1      33.469  20.286  25.544  1.00  0.00     0.112 A 
BRANCH   6  11
ATOM     11  C   UNL A   1      32.818  23.320  22.668  1.00  0.00     0.253 C 
ATOM     12  N   UNL A   1      31.702  24.122  22.703  1.00  0.00    -0.352 N 
ATOM     13  H   UNL A   1      31.623  24.732  21.935  1.00  0.00     0.163 HD
ATOM     14  O   UNL A   1      33.636  23.468  21.765  1.00  0.00    -0.269 OA
BRANCH  12  15
ATOM     15  C   UNL A   1      30.609  24.238  23.668  1.00  0.00     0.121 C 
BRANCH  15  16
ATOM     16  C   UNL A   1      30.042  25.655  23.797  1.00  0.00     0.057 C 
BRANCH  16  17
ATOM     17  C   UNL A   1      30.971  26.658  24.439  1.00  0.00    -0.042 A 
ATOM     18  C   UNL A   1      32.606  28.636  25.604  1.00  0.00     0.160 A 
ATOM     19  C   UNL A   1      31.823  27.795  26.403  1.00  0.00     0.051 A 
ATOM     20  C   UNL A   1      32.622  28.460  24.216  1.00  0.00     0.160 A 
ATOM     21  C   UNL A   1      30.999  26.826  25.824  1.00  0.00     0.008 A 
ATOM     22  C   UNL A   1      31.805  27.466  23.650  1.00  0.00     0.054 A 
BRANCH  18  23
ATOM     23  O   UNL A   1      33.404  29.568  26.211  1.00  0.00    -0.493 OA
ATOM     24  C   UNL A   1      32.677  30.394  27.125  1.00  0.00     0.278 C 
ENDBRANCH  18  23
BRANCH  20  25
ATOM     25  O   UNL A   1      33.348  29.149  23.281  1.00  0.00    -0.493 OA
ATOM     26  C   UNL A   1      34.029  28.403  22.280  1.00  0.00     0.278 C 
ENDBRANCH  20  25
ENDBRANCH  16  17
ENDBRANCH  15  16
ENDBRANCH  12  15
ENDBRANCH   6  11
ENDBRANCH   3   5
ENDBRANCH   2   3
ENDBRANCH   1   2
BRANCH   1  27
ATOM     27  C   UNL A   1      37.679  22.737  26.028  1.00  0.00     0.202 C 
BRANCH  27  28
ATOM     28  O   UNL A   1      38.113  21.902  24.955  1.00  0.00    -0.374 OA
BRANCH  28  29
ATOM     29  C   UNL A   1      37.644  20.553  24.947  1.00  0.00     0.202 C 
BRANCH  29  30
ATOM     30  C   UNL A   1      38.726  19.465  24.928  1.00  0.00     0.261 C 
BRANCH  30  31
ATOM     31  O   UNL A   1      39.457  19.380  26.167  1.00  0.00    -0.460 OA
BRANCH  31  32
ATOM     32  C   UNL A   1      40.792  19.582  26.062  1.00  0.00     0.338 C 
ATOM     33  O   UNL A   1      41.618  18.871  25.504  1.00  0.00    -0.246 OA
BRANCH  32  34
ATOM     34  C   UNL A   1      41.134  20.902  26.618  1.00  0.00     0.060 A 
ATOM     35  C   UNL A   1      41.624  21.891  25.755  1.00  0.00     0.016 A 
ATOM     36  C   UNL A   1      41.036  21.142  27.985  1.00  0.00     0.016 A 
ATOM     37  C   UNL A   1      42.000  23.138  26.259  1.00  0.00     0.010 A 
ATOM     38  C   UNL A   1      41.438  22.381  28.488  1.00  0.00     0.010 A 
ATOM     39  C   UNL A   1      41.914  23.392  27.633  1.00  0.00    -0.014 A 
BRANCH  39  40
ATOM     40  C   UNL A   1      42.392  24.676  28.208  1.00  0.00     0.031 A 
ATOM     41  C   UNL A   1      41.412  25.795  28.417  1.00  0.00     0.074 A 
ATOM     42  C   UNL A   1      43.692  24.864  28.502  1.00  0.00     0.049 A 
ATOM     43  N   UNL A   1      41.633  27.040  28.754  1.00  0.00    -0.248 NA
ATOM     44  C   UNL A   1      39.994  25.470  28.200  1.00  0.00     0.031 C 
ATOM     45  C   UNL A   1      44.747  23.860  28.362  1.00  0.00     0.029 A 
ATOM     46  N   UNL A   1      44.352  25.982  28.949  1.00  0.00    -0.354 N 
ATOM     47  C   UNL A   1      40.384  27.645  28.794  1.00  0.00     0.074 A 
ATOM     48  C   UNL A   1      39.416  26.646  28.396  1.00  0.00     0.031 C 
ATOM     49  C   UNL A   1      45.925  24.416  28.694  1.00  0.00     0.029 A 
ATOM     50  C   UNL A   1      45.713  25.821  29.039  1.00  0.00     0.049 A 
ATOM     51  H   UNL A   1      43.893  26.821  29.184  1.00  0.00     0.167 HD
ATOM     52  C   UNL A   1      40.066  28.913  29.149  1.00  0.00     0.037 A 
ATOM     53  C   UNL A   1      46.682  26.710  29.335  1.00  0.00     0.037 A 
ATOM     54  C   UNL A   1      41.021  29.907  29.564  1.00  0.00     0.049 A 
ATOM     55  C   UNL A   1      46.313  28.135  29.651  1.00  0.00     0.074 A 
ATOM     56  C   UNL A   1      40.789  31.211  29.962  1.00  0.00     0.029 A 
ATOM     57  N   UNL A   1      42.390  29.704  29.639  1.00  0.00    -0.354 N 
ATOM     58  N   UNL A   1      45.128  28.693  29.695  1.00  0.00    -0.248 NA
ATOM     59  C   UNL A   1      47.420  29.057  29.955  1.00  0.00     0.031 C 
ATOM     60  C   UNL A   1      42.022  31.813  30.235  1.00  0.00     0.029 A 
ATOM     61  C   UNL A   1      43.018  30.868  30.048  1.00  0.00     0.049 A 
ATOM     62  H   UNL A   1      42.848  28.857  29.433  1.00  0.00     0.167 HD
ATOM     63  C   UNL A   1      45.344  30.019  30.053  1.00  0.00     0.074 A 
ATOM     64  C   UNL A   1      46.771  30.180  30.228  1.00  0.00     0.031 C 
ATOM     65  C   UNL A   1      44.440  31.016  30.221  1.00  0.00     0.037 A 
BRANCH  52  66
ATOM     66  C   UNL A   1      38.619  29.300  29.095  1.00  0.00     0.057 A 
ATOM     67  C   UNL A   1      38.007  29.700  27.900  1.00  0.00     0.134 A 
ATOM     68  C   UNL A   1      37.822  29.242  30.244  1.00  0.00     0.134 A 
ATOM     69  F   UNL A   1      38.721  29.789  26.767  1.00  0.00    -0.206 F 
ATOM     70  C   UNL A   1      36.657  30.050  27.855  1.00  0.00     0.040 A 
ATOM     71  C   UNL A   1      36.465  29.567  30.206  1.00  0.00     0.040 A 
ATOM     72  F   UNL A   1      38.347  28.865  31.419  1.00  0.00    -0.206 F 
ATOM     73  C   UNL A   1      35.880  29.977  29.009  1.00  0.00     0.006 A 
ENDBRANCH  52  66
BRANCH  53  74
ATOM     74  C   UNL A   1      48.108  26.294  29.316  1.00  0.00     0.057 A 
ATOM     75  C   UNL A   1      48.871  26.366  28.146  1.00  0.00     0.134 A 
ATOM     76  C   UNL A   1      48.729  25.778  30.460  1.00  0.00     0.134 A 
ATOM     77  F   UNL A   1      48.323  26.824  27.010  1.00  0.00    -0.206 F 
ATOM     78  C   UNL A   1      50.195  25.924  28.106  1.00  0.00     0.040 A 
ATOM     79  C   UNL A   1      50.059  25.355  30.442  1.00  0.00     0.040 A 
ATOM     80  F   UNL A   1      48.050  25.680  31.612  1.00  0.00    -0.206 F 
ATOM     81  C   UNL A   1      50.793  25.420  29.260  1.00  0.00     0.006 A 
ENDBRANCH  53  74
BRANCH  65  82
ATOM     82  C   UNL A   1      44.962  32.361  30.633  1.00  0.00     0.057 A 
ATOM     83  C   UNL A   1      45.284  33.346  29.690  1.00  0.00     0.134 A 
ATOM     84  C   UNL A   1      45.102  32.691  31.987  1.00  0.00     0.134 A 
ATOM     85  F   UNL A   1      45.183  33.088  28.377  1.00  0.00    -0.206 F 
ATOM     86  C   UNL A   1      45.743  34.605  30.079  1.00  0.00     0.040 A 
ATOM     87  C   UNL A   1      45.537  33.955  32.389  1.00  0.00     0.040 A 
ATOM     88  F   UNL A   1      44.802  31.796  32.940  1.00  0.00    -0.206 F 
ATOM     89  C   UNL A   1      45.863  34.915  31.433  1.00  0.00     0.006 A 
ENDBRANCH  65  82
ENDBRANCH  39  40
ENDBRANCH  32  34
ENDBRANCH  31  32
ENDBRANCH  30  31
ENDBRANCH  29  30
ENDBRANCH  28  29
ENDBRANCH  27  28
ENDBRANCH   1  27
TORSDOF 20
ENDMDL
MODEL 3
REMARK VINA RESULT:      -9.9      1.811      6.382
REMARK SMILES COc1ccc(CCNC(=O)c2cccnc2C(=O)OCCOCCOC(=O)c2ccc(-c3c4nc(c(-c5c(F)cccc5F)c5ccc([nH]5)c(-c5c(F)cccc5F)c5nc(c(-c6c(F)cccc6F)c6ccc3[nH]6)C=C5)C=C4)cc2)cc1OC
REMARK SMILES IDX 21 1 20 2 18 3 19 4 17 5 12 6 13 7 14 8 16 9 15 10 10 11
REMARK SMILES IDX 9 12 11 14 8 15 7 16 6 17 3 18 4 19 84 20 5 21 83 22 2 23
REMARK SMILES IDX 1 24 85 25 86 26 22 27 23 28 24 29 25 30 26 31 27 32 28 33
REMARK SMILES IDX 29 34 30 35 82 36 31 37 81 38 32 39 33 40 34 41 75 42 35 43
REMARK SMILES IDX 80 44 74 45 76 46 36 47 79 48 73 49 72 50 37 52 63 53 46 54
REMARK SMILES IDX 62 55 47 56 50 57 61 58 77 59 48 60 49 61 60 63 78 64 51 65
REMARK SMILES IDX 38 66 39 67 44 68 40 69 41 70 43 71 45 72 42 73 64 74 65 75
REMARK SMILES IDX 70 76 66 77 67 78 69 79 71 80 68 81 52 82 53 83 58 84 54 85
REMARK SMILES IDX 55 86 57 87 59 88 56 89
REMARK H PARENT 9 13 76 51 50 62
REMARK Flexibility Score: inf
ROOT
ATOM      1  C   UNL A   1      37.022  22.246  24.178  1.00  0.00     0.261 C 
ENDROOT
BRANCH   1   2
ATOM      2  O   UNL A   1      35.820  23.008  24.379  1.00  0.00    -0.458 OA
BRANCH   2   3
ATOM      3  C   UNL A   1      35.784  23.699  25.547  1.00  0.00     0.357 C 
ATOM      4  O   UNL A   1      36.749  24.062  26.203  1.00  0.00    -0.244 OA
BRANCH   3   5
ATOM      5  C   UNL A   1      34.394  24.146  25.834  1.00  0.00     0.161 A 
ATOM      6  C   UNL A   1      33.405  23.322  26.358  1.00  0.00     0.073 A 
ATOM      7  C   UNL A   1      32.211  23.934  26.765  1.00  0.00     0.018 A 
ATOM      8  C   UNL A   1      32.000  25.292  26.531  1.00  0.00     0.021 A 
ATOM      9  N   UNL A   1      34.195  25.480  25.580  1.00  0.00    -0.248 NA
ATOM     10  C   UNL A   1      33.007  26.014  25.922  1.00  0.00     0.112 A 
BRANCH   6  11
ATOM     11  C   UNL A   1      33.628  21.885  26.605  1.00  0.00     0.253 C 
ATOM     12  N   UNL A   1      32.983  20.924  25.863  1.00  0.00    -0.352 N 
ATOM     13  H   UNL A   1      33.145  20.004  26.174  1.00  0.00     0.163 HD
ATOM     14  O   UNL A   1      34.383  21.541  27.509  1.00  0.00    -0.269 OA
BRANCH  12  15
ATOM     15  C   UNL A   1      32.102  21.014  24.700  1.00  0.00     0.121 C 
BRANCH  15  16
ATOM     16  C   UNL A   1      32.744  21.690  23.484  1.00  0.00     0.057 C 
BRANCH  16  17
ATOM     17  C   UNL A   1      32.222  23.073  23.175  1.00  0.00    -0.042 A 
ATOM     18  C   UNL A   1      31.225  25.610  22.458  1.00  0.00     0.160 A 
ATOM     19  C   UNL A   1      30.424  24.698  23.154  1.00  0.00     0.051 A 
ATOM     20  C   UNL A   1      32.553  25.284  22.161  1.00  0.00     0.160 A 
ATOM     21  C   UNL A   1      30.912  23.434  23.495  1.00  0.00     0.008 A 
ATOM     22  C   UNL A   1      33.037  24.017  22.530  1.00  0.00     0.054 A 
BRANCH  18  23
ATOM     23  O   UNL A   1      30.710  26.840  22.149  1.00  0.00    -0.493 OA
ATOM     24  C   UNL A   1      30.369  27.596  23.315  1.00  0.00     0.278 C 
ENDBRANCH  18  23
BRANCH  20  25
ATOM     25  O   UNL A   1      33.496  26.052  21.531  1.00  0.00    -0.493 OA
ATOM     26  C   UNL A   1      33.903  27.260  22.160  1.00  0.00     0.278 C 
ENDBRANCH  20  25
ENDBRANCH  16  17
ENDBRANCH  15  16
ENDBRANCH  12  15
ENDBRANCH   6  11
ENDBRANCH   3   5
ENDBRANCH   2   3
ENDBRANCH   1   2
BRANCH   1  27
ATOM     27  C   UNL A   1      37.023  21.008  25.073  1.00  0.00     0.202 C 
BRANCH  27  28
ATOM     28  O   UNL A   1      37.650  19.845  24.532  1.00  0.00    -0.374 OA
BRANCH  28  29
ATOM     29  C   UNL A   1      38.577  19.153  25.370  1.00  0.00     0.202 C 
BRANCH  29  30
ATOM     30  C   UNL A   1      39.892  19.886  25.666  1.00  0.00     0.261 C 
BRANCH  30  31
ATOM     31  O   UNL A   1      40.950  18.996  26.072  1.00  0.00    -0.460 OA
BRANCH  31  32
ATOM     32  C   UNL A   1      42.206  19.464  25.869  1.00  0.00     0.338 C 
ATOM     33  O   UNL A   1      43.119  18.920  25.262  1.00  0.00    -0.246 OA
BRANCH  32  34
ATOM     34  C   UNL A   1      42.306  20.841  26.379  1.00  0.00     0.060 A 
ATOM     35  C   UNL A   1      42.700  21.859  25.501  1.00  0.00     0.016 A 
ATOM     36  C   UNL A   1      42.081  21.116  27.725  1.00  0.00     0.016 A 
ATOM     37  C   UNL A   1      42.848  23.167  25.966  1.00  0.00     0.010 A 
ATOM     38  C   UNL A   1      42.256  22.421  28.191  1.00  0.00     0.010 A 
ATOM     39  C   UNL A   1      42.632  23.459  27.318  1.00  0.00    -0.014 A 
BRANCH  39  40
ATOM     40  C   UNL A   1      42.870  24.822  27.859  1.00  0.00     0.031 A 
ATOM     41  C   UNL A   1      44.248  25.193  28.328  1.00  0.00     0.074 A 
ATOM     42  C   UNL A   1      41.864  25.708  27.973  1.00  0.00     0.049 A 
ATOM     43  N   UNL A   1      44.644  26.260  28.974  1.00  0.00    -0.248 NA
ATOM     44  C   UNL A   1      45.317  24.224  28.048  1.00  0.00     0.031 C 
ATOM     45  C   UNL A   1      40.483  25.485  27.544  1.00  0.00     0.029 A 
ATOM     46  N   UNL A   1      41.844  26.969  28.519  1.00  0.00    -0.354 N 
ATOM     47  C   UNL A   1      46.009  26.093  29.172  1.00  0.00     0.074 A 
ATOM     48  C   UNL A   1      46.360  24.800  28.626  1.00  0.00     0.031 C 
ATOM     49  C   UNL A   1      39.746  26.562  27.865  1.00  0.00     0.029 A 
ATOM     50  C   UNL A   1      40.594  27.538  28.549  1.00  0.00     0.049 A 
ATOM     51  H   UNL A   1      42.651  27.422  28.857  1.00  0.00     0.167 HD
ATOM     52  C   UNL A   1      46.895  26.946  29.739  1.00  0.00     0.037 A 
ATOM     53  C   UNL A   1      40.174  28.698  29.093  1.00  0.00     0.037 A 
ATOM     54  C   UNL A   1      46.556  28.241  30.267  1.00  0.00     0.049 A 
ATOM     55  C   UNL A   1      41.162  29.596  29.788  1.00  0.00     0.074 A 
ATOM     56  C   UNL A   1      47.391  29.183  30.842  1.00  0.00     0.029 A 
ATOM     57  N   UNL A   1      45.278  28.779  30.281  1.00  0.00    -0.354 N 
ATOM     58  N   UNL A   1      42.452  29.431  29.960  1.00  0.00    -0.248 NA
ATOM     59  C   UNL A   1      40.636  30.841  30.368  1.00  0.00     0.031 C 
ATOM     60  C   UNL A   1      46.612  30.273  31.245  1.00  0.00     0.029 A 
ATOM     61  C   UNL A   1      45.299  30.027  30.880  1.00  0.00     0.049 A 
ATOM     62  H   UNL A   1      44.477  28.339  29.917  1.00  0.00     0.167 HD
ATOM     63  C   UNL A   1      42.892  30.558  30.645  1.00  0.00     0.074 A 
ATOM     64  C   UNL A   1      41.736  31.405  30.845  1.00  0.00     0.031 C 
ATOM     65  C   UNL A   1      44.142  30.863  31.072  1.00  0.00     0.037 A 
BRANCH  52  66
ATOM     66  C   UNL A   1      48.323  26.497  29.825  1.00  0.00     0.057 A 
ATOM     67  C   UNL A   1      49.256  26.815  28.831  1.00  0.00     0.134 A 
ATOM     68  C   UNL A   1      48.774  25.763  30.929  1.00  0.00     0.134 A 
ATOM     69  F   UNL A   1      48.882  27.503  27.741  1.00  0.00    -0.206 F 
ATOM     70  C   UNL A   1      50.586  26.400  28.921  1.00  0.00     0.040 A 
ATOM     71  C   UNL A   1      50.106  25.363  31.042  1.00  0.00     0.040 A 
ATOM     72  F   UNL A   1      47.930  25.428  31.915  1.00  0.00    -0.206 F 
ATOM     73  C   UNL A   1      51.015  25.678  30.033  1.00  0.00     0.006 A 
ENDBRANCH  52  66
BRANCH  53  74
ATOM     74  C   UNL A   1      38.737  29.071  29.035  1.00  0.00     0.057 A 
ATOM     75  C   UNL A   1      38.176  29.624  27.879  1.00  0.00     0.134 A 
ATOM     76  C   UNL A   1      37.902  28.918  30.148  1.00  0.00     0.134 A 
ATOM     77  F   UNL A   1      38.934  29.822  26.789  1.00  0.00    -0.206 F 
ATOM     78  C   UNL A   1      36.841  30.030  27.836  1.00  0.00     0.040 A 
ATOM     79  C   UNL A   1      36.559  29.297  30.112  1.00  0.00     0.040 A 
ATOM     80  F   UNL A   1      38.381  28.396  31.287  1.00  0.00    -0.206 F 
ATOM     81  C   UNL A   1      36.028  29.862  28.955  1.00  0.00     0.006 A 
ENDBRANCH  53  74
BRANCH  65  82
ATOM     82  C   UNL A   1      44.331  32.174  31.778  1.00  0.00     0.057 A 
ATOM     83  C   UNL A   1      44.243  32.278  33.171  1.00  0.00     0.134 A 
ATOM     84  C   UNL A   1      44.649  33.334  31.061  1.00  0.00     0.134 A 
ATOM     85  F   UNL A   1      43.929  31.206  33.915  1.00  0.00    -0.206 F 
ATOM     86  C   UNL A   1      44.447  33.494  33.826  1.00  0.00     0.040 A 
ATOM     87  C   UNL A   1      44.880  34.550  31.705  1.00  0.00     0.040 A 
ATOM     88  F   UNL A   1      44.758  33.300  29.724  1.00  0.00    -0.206 F 
ATOM     89  C   UNL A   1      44.774  34.633  33.092  1.00  0.00     0.006 A 
ENDBRANCH  65  82
ENDBRANCH  39  40
ENDBRANCH  32  34
ENDBRANCH  31  32
ENDBRANCH  30  31
ENDBRANCH  29  30
ENDBRANCH  28  29
ENDBRANCH  27  28
ENDBRANCH   1  27
TORSDOF 20
ENDMDL
