MODEL 1
REMARK VINA RESULT:     -10.0      0.000      0.000
REMARK SMILES CCNC(=O)NC(=O)[C@@H](C)[NH2+][C@](C)(CC)C(=O)OCCOCCOC(=O)c1ccc(-c2c3nc(c(-c4c(F)cccc4F)c4ccc([nH]4)c(-c4c(F)cccc4F)c4nc(c(-c5c(F)cccc5F)c5ccc2[nH]5)C=C4)C=C3)cc1
REMARK SMILES IDX 20 1 19 2 18 3 16 4 17 5 12 6 13 7 11 8 9 11 10 12 7 13 3 14
REMARK SMILES IDX 4 15 5 17 6 18 8 20 2 21 1 22 14 23 15 24 21 25 22 26 23 27
REMARK SMILES IDX 24 28 25 29 26 30 27 31 28 32 80 33 29 34 79 35 30 36 31 37
REMARK SMILES IDX 32 38 73 39 33 40 78 41 72 42 74 43 34 44 77 45 71 46 70 47
REMARK SMILES IDX 35 49 61 50 44 51 60 52 45 53 48 54 59 55 75 56 46 57 47 58
REMARK SMILES IDX 58 60 76 61 49 62 36 63 37 64 42 65 38 66 39 67 41 68 43 69
REMARK SMILES IDX 40 70 62 71 63 72 68 73 64 74 65 75 67 76 69 77 66 78 50 79
REMARK SMILES IDX 51 80 56 81 52 82 53 83 55 84 57 85 54 86
REMARK H PARENT 11 9 11 10 3 16 6 19 74 48 48 59
REMARK Flexibility Score: inf
ROOT
ATOM      1  C   UNL A   1      31.779  29.386  27.217  1.00  0.00     0.202 C 
ENDROOT
BRANCH   1   2
ATOM      2  C   UNL A   1      31.978  27.877  27.004  1.00  0.00     0.261 C 
BRANCH   2   3
ATOM      3  O   UNL A   1      31.547  27.293  25.765  1.00  0.00    -0.459 OA
BRANCH   3   4
ATOM      4  C   UNL A   1      31.182  25.981  25.856  1.00  0.00     0.367 C 
ATOM      5  O   UNL A   1      30.208  25.605  26.501  1.00  0.00    -0.245 OA
BRANCH   4   6
ATOM      6  C   UNL A   1      32.184  25.006  25.158  1.00  0.00     0.191 C 
ATOM      7  C   UNL A   1      31.382  23.802  24.628  1.00  0.00     0.092 C 
BRANCH   6   8
ATOM      8  N   UNL A   1      33.266  24.628  26.130  1.00  0.00    -0.322 N 
ATOM      9  H   UNL A   1      34.094  25.163  25.869  1.00  0.00     0.347 HD
ATOM     10  H   UNL A   1      32.840  24.824  27.036  1.00  0.00     0.347 HD
BRANCH   8  11
ATOM     11  C   UNL A   1      33.694  23.225  26.263  1.00  0.00     0.270 C 
ATOM     12  C   UNL A   1      33.750  22.519  27.617  1.00  0.00     0.086 C 
BRANCH  11  13
ATOM     13  C   UNL A   1      35.071  23.035  25.603  1.00  0.00     0.285 C 
ATOM     14  N   UNL A   1      34.426  19.724  25.067  1.00  0.00    -0.338 N 
ATOM     15  C   UNL A   1      35.528  20.467  25.086  1.00  0.00     0.321 C 
ATOM     16  H   UNL A   1      34.628  18.761  25.106  1.00  0.00     0.165 HD
ATOM     17  O   UNL A   1      36.602  19.856  25.001  1.00  0.00    -0.248 OA
ATOM     18  N   UNL A   1      35.608  21.828  25.170  1.00  0.00    -0.273 N 
ATOM     19  H   UNL A   1      36.439  22.069  24.699  1.00  0.00     0.175 HD
ATOM     20  O   UNL A   1      35.796  24.029  25.443  1.00  0.00    -0.268 OA
BRANCH  14  21
ATOM     21  C   UNL A   1      33.013  19.978  25.003  1.00  0.00     0.114 C 
ATOM     22  C   UNL A   1      32.525  20.324  23.611  1.00  0.00     0.027 C 
ENDBRANCH  14  21
ENDBRANCH  11  13
ENDBRANCH   8  11
ENDBRANCH   6   8
BRANCH   6  23
ATOM     23  C   UNL A   1      32.982  25.651  23.979  1.00  0.00     0.077 C 
ATOM     24  C   UNL A   1      33.260  24.807  22.744  1.00  0.00     0.011 C 
ENDBRANCH   6  23
ENDBRANCH   4   6
ENDBRANCH   3   4
ENDBRANCH   2   3
ENDBRANCH   1   2
BRANCH   1  25
ATOM     25  O   UNL A   1      32.045  30.280  26.152  1.00  0.00    -0.374 OA
BRANCH  25  26
ATOM     26  C   UNL A   1      31.088  31.301  25.887  1.00  0.00     0.202 C 
BRANCH  26  27
ATOM     27  C   UNL A   1      31.407  32.719  26.379  1.00  0.00     0.261 C 
BRANCH  27  28
ATOM     28  O   UNL A   1      31.965  32.725  27.712  1.00  0.00    -0.460 OA
BRANCH  28  29
ATOM     29  C   UNL A   1      32.891  33.694  27.925  1.00  0.00     0.338 C 
ATOM     30  O   UNL A   1      32.698  34.896  27.994  1.00  0.00    -0.246 OA
BRANCH  29  31
ATOM     31  C   UNL A   1      34.211  33.107  28.217  1.00  0.00     0.060 A 
ATOM     32  C   UNL A   1      34.287  31.718  28.383  1.00  0.00     0.016 A 
ATOM     33  C   UNL A   1      35.310  33.917  28.506  1.00  0.00     0.016 A 
ATOM     34  C   UNL A   1      35.450  31.139  28.895  1.00  0.00     0.010 A 
ATOM     35  C   UNL A   1      36.473  33.334  29.028  1.00  0.00     0.010 A 
ATOM     36  C   UNL A   1      36.532  31.947  29.268  1.00  0.00    -0.014 A 
BRANCH  36  37
ATOM     37  C   UNL A   1      37.645  31.367  30.063  1.00  0.00     0.031 A 
ATOM     38  C   UNL A   1      38.563  30.363  29.417  1.00  0.00     0.074 A 
ATOM     39  C   UNL A   1      37.863  31.743  31.335  1.00  0.00     0.049 A 
ATOM     40  N   UNL A   1      39.577  29.714  29.929  1.00  0.00    -0.248 NA
ATOM     41  C   UNL A   1      38.300  30.053  28.003  1.00  0.00     0.031 C 
ATOM     42  C   UNL A   1      37.076  32.728  32.073  1.00  0.00     0.029 A 
ATOM     43  N   UNL A   1      38.812  31.322  32.235  1.00  0.00    -0.354 N 
ATOM     44  C   UNL A   1      40.075  28.919  28.904  1.00  0.00     0.074 A 
ATOM     45  C   UNL A   1      39.232  29.145  27.747  1.00  0.00     0.031 C 
ATOM     46  C   UNL A   1      37.561  32.821  33.323  1.00  0.00     0.029 A 
ATOM     47  C   UNL A   1      38.674  31.885  33.480  1.00  0.00     0.049 A 
ATOM     48  H   UNL A   1      39.522  30.680  32.009  1.00  0.00     0.167 HD
ATOM     49  C   UNL A   1      41.141  28.083  28.916  1.00  0.00     0.037 A 
ATOM     50  C   UNL A   1      39.352  31.653  34.622  1.00  0.00     0.037 A 
ATOM     51  C   UNL A   1      41.981  27.847  30.060  1.00  0.00     0.049 A 
ATOM     52  C   UNL A   1      40.484  30.661  34.636  1.00  0.00     0.074 A 
ATOM     53  C   UNL A   1      43.099  27.035  30.157  1.00  0.00     0.029 A 
ATOM     54  N   UNL A   1      41.787  28.409  31.311  1.00  0.00    -0.354 N 
ATOM     55  N   UNL A   1      40.966  29.942  33.652  1.00  0.00    -0.248 NA
ATOM     56  C   UNL A   1      41.166  30.448  35.922  1.00  0.00     0.031 C 
ATOM     57  C   UNL A   1      43.553  27.072  31.480  1.00  0.00     0.029 A 
ATOM     58  C   UNL A   1      42.744  27.940  32.196  1.00  0.00     0.049 A 
ATOM     59  H   UNL A   1      41.072  29.049  31.539  1.00  0.00     0.167 HD
ATOM     60  C   UNL A   1      42.016  29.208  34.193  1.00  0.00     0.074 A 
ATOM     61  C   UNL A   1      42.109  29.578  35.590  1.00  0.00     0.031 C 
ATOM     62  C   UNL A   1      42.829  28.310  33.585  1.00  0.00     0.037 A 
BRANCH  49  63
ATOM     63  C   UNL A   1      41.445  27.341  27.648  1.00  0.00     0.057 A 
ATOM     64  C   UNL A   1      42.304  27.865  26.674  1.00  0.00     0.134 A 
ATOM     65  C   UNL A   1      40.888  26.079  27.410  1.00  0.00     0.134 A 
ATOM     66  F   UNL A   1      42.858  29.076  26.837  1.00  0.00    -0.206 F 
ATOM     67  C   UNL A   1      42.578  27.170  25.495  1.00  0.00     0.040 A 
ATOM     68  C   UNL A   1      41.173  25.364  26.246  1.00  0.00     0.040 A 
ATOM     69  F   UNL A   1      40.062  25.519  28.306  1.00  0.00    -0.206 F 
ATOM     70  C   UNL A   1      42.015  25.913  25.281  1.00  0.00     0.006 A 
ENDBRANCH  49  63
BRANCH  50  71
ATOM     71  C   UNL A   1      38.955  32.358  35.866  1.00  0.00     0.057 A 
ATOM     72  C   UNL A   1      39.354  33.674  36.118  1.00  0.00     0.134 A 
ATOM     73  C   UNL A   1      38.175  31.720  36.839  1.00  0.00     0.134 A 
ATOM     74  F   UNL A   1      40.123  34.327  35.234  1.00  0.00    -0.206 F 
ATOM     75  C   UNL A   1      39.001  34.330  37.298  1.00  0.00     0.040 A 
ATOM     76  C   UNL A   1      37.794  32.371  38.012  1.00  0.00     0.040 A 
ATOM     77  F   UNL A   1      37.765  30.456  36.656  1.00  0.00    -0.206 F 
ATOM     78  C   UNL A   1      38.213  33.679  38.246  1.00  0.00     0.006 A 
ENDBRANCH  50  71
BRANCH  62  79
ATOM     79  C   UNL A   1      43.903  27.673  34.417  1.00  0.00     0.057 A 
ATOM     80  C   UNL A   1      43.717  26.430  35.035  1.00  0.00     0.134 A 
ATOM     81  C   UNL A   1      45.153  28.287  34.564  1.00  0.00     0.134 A 
ATOM     82  F   UNL A   1      42.539  25.795  34.943  1.00  0.00    -0.206 F 
ATOM     83  C   UNL A   1      44.732  25.827  35.780  1.00  0.00     0.040 A 
ATOM     84  C   UNL A   1      46.183  27.684  35.289  1.00  0.00     0.040 A 
ATOM     85  F   UNL A   1      45.400  29.475  33.991  1.00  0.00    -0.206 F 
ATOM     86  C   UNL A   1      45.972  26.451  35.903  1.00  0.00     0.006 A 
ENDBRANCH  62  79
ENDBRANCH  36  37
ENDBRANCH  29  31
ENDBRANCH  28  29
ENDBRANCH  27  28
ENDBRANCH  26  27
ENDBRANCH  25  26
ENDBRANCH   1  25
TORSDOF 19
ENDMDL
MODEL 2
REMARK VINA RESULT:      -9.8      0.628      6.278
REMARK SMILES CCNC(=O)NC(=O)[C@@H](C)[NH2+][C@](C)(CC)C(=O)OCCOCCOC(=O)c1ccc(-c2c3nc(c(-c4c(F)cccc4F)c4ccc([nH]4)c(-c4c(F)cccc4F)c4nc(c(-c5c(F)cccc5F)c5ccc2[nH]5)C=C4)C=C3)cc1
REMARK SMILES IDX 20 1 19 2 18 3 16 4 17 5 12 6 13 7 11 8 9 11 10 12 7 13 3 14
REMARK SMILES IDX 4 15 5 17 6 18 8 20 2 21 1 22 14 23 15 24 21 25 22 26 23 27
REMARK SMILES IDX 24 28 25 29 26 30 27 31 28 32 80 33 29 34 79 35 30 36 31 37
REMARK SMILES IDX 32 38 73 39 33 40 78 41 72 42 74 43 34 44 77 45 71 46 70 47
REMARK SMILES IDX 35 49 61 50 44 51 60 52 45 53 48 54 59 55 75 56 46 57 47 58
REMARK SMILES IDX 58 60 76 61 49 62 36 63 37 64 42 65 38 66 39 67 41 68 43 69
REMARK SMILES IDX 40 70 62 71 63 72 68 73 64 74 65 75 67 76 69 77 66 78 50 79
REMARK SMILES IDX 51 80 56 81 52 82 53 83 55 84 57 85 54 86
REMARK H PARENT 11 9 11 10 3 16 6 19 74 48 48 59
REMARK Flexibility Score: inf
ROOT
ATOM      1  C   UNL A   1      31.761  29.285  27.288  1.00  0.00     0.202 C 
ENDROOT
BRANCH   1   2
ATOM      2  C   UNL A   1      31.909  27.779  27.024  1.00  0.00     0.261 C 
BRANCH   2   3
ATOM      3  O   UNL A   1      31.303  27.222  25.847  1.00  0.00    -0.459 OA
BRANCH   3   4
ATOM      4  C   UNL A   1      31.168  25.864  25.870  1.00  0.00     0.367 C 
ATOM      5  O   UNL A   1      30.311  25.293  26.537  1.00  0.00    -0.245 OA
BRANCH   4   6
ATOM      6  C   UNL A   1      32.274  25.114  25.061  1.00  0.00     0.191 C 
ATOM      7  C   UNL A   1      31.615  23.908  24.363  1.00  0.00     0.092 C 
BRANCH   6   8
ATOM      8  N   UNL A   1      33.395  24.735  25.987  1.00  0.00    -0.322 N 
ATOM      9  H   UNL A   1      34.224  25.234  25.664  1.00  0.00     0.347 HD
ATOM     10  H   UNL A   1      33.024  24.975  26.907  1.00  0.00     0.347 HD
BRANCH   8  11
ATOM     11  C   UNL A   1      33.788  23.324  26.147  1.00  0.00     0.270 C 
ATOM     12  C   UNL A   1      33.854  22.651  27.517  1.00  0.00     0.086 C 
BRANCH  11  13
ATOM     13  C   UNL A   1      35.143  23.079  25.463  1.00  0.00     0.285 C 
ATOM     14  N   UNL A   1      34.430  19.759  25.100  1.00  0.00    -0.338 N 
ATOM     15  C   UNL A   1      35.544  20.482  25.056  1.00  0.00     0.321 C 
ATOM     16  H   UNL A   1      34.617  18.795  25.179  1.00  0.00     0.165 HD
ATOM     17  O   UNL A   1      36.605  19.849  24.973  1.00  0.00    -0.248 OA
ATOM     18  N   UNL A   1      35.648  21.844  25.073  1.00  0.00    -0.273 N 
ATOM     19  H   UNL A   1      36.471  22.048  24.571  1.00  0.00     0.175 HD
ATOM     20  O   UNL A   1      35.880  24.052  25.238  1.00  0.00    -0.268 OA
BRANCH  14  21
ATOM     21  C   UNL A   1      33.021  20.035  25.059  1.00  0.00     0.114 C 
ATOM     22  C   UNL A   1      32.484  20.227  23.656  1.00  0.00     0.027 C 
ENDBRANCH  14  21
ENDBRANCH  11  13
ENDBRANCH   8  11
ENDBRANCH   6   8
BRANCH   6  23
ATOM     23  C   UNL A   1      32.989  26.000  23.989  1.00  0.00     0.077 C 
ATOM     24  C   UNL A   1      33.602  25.317  22.776  1.00  0.00     0.011 C 
ENDBRANCH   6  23
ENDBRANCH   4   6
ENDBRANCH   3   4
ENDBRANCH   2   3
ENDBRANCH   1   2
BRANCH   1  25
ATOM     25  O   UNL A   1      32.123  30.208  26.277  1.00  0.00    -0.374 OA
BRANCH  25  26
ATOM     26  C   UNL A   1      31.243  31.299  26.027  1.00  0.00     0.202 C 
BRANCH  26  27
ATOM     27  C   UNL A   1      31.665  32.683  26.539  1.00  0.00     0.261 C 
BRANCH  27  28
ATOM     28  O   UNL A   1      32.397  32.609  27.783  1.00  0.00    -0.460 OA
BRANCH  28  29
ATOM     29  C   UNL A   1      33.422  33.492  27.881  1.00  0.00     0.338 C 
ATOM     30  O   UNL A   1      33.346  34.709  27.917  1.00  0.00    -0.246 OA
BRANCH  29  31
ATOM     31  C   UNL A   1      34.703  32.793  28.090  1.00  0.00     0.060 A 
ATOM     32  C   UNL A   1      34.665  31.411  28.319  1.00  0.00     0.016 A 
ATOM     33  C   UNL A   1      35.894  33.504  28.242  1.00  0.00     0.016 A 
ATOM     34  C   UNL A   1      35.809  30.745  28.759  1.00  0.00     0.010 A 
ATOM     35  C   UNL A   1      37.040  32.833  28.692  1.00  0.00     0.010 A 
ATOM     36  C   UNL A   1      36.991  31.459  28.997  1.00  0.00    -0.014 A 
BRANCH  36  37
ATOM     37  C   UNL A   1      38.112  30.808  29.722  1.00  0.00     0.031 A 
ATOM     38  C   UNL A   1      38.352  31.154  31.168  1.00  0.00     0.074 A 
ATOM     39  C   UNL A   1      38.897  29.898  29.119  1.00  0.00     0.049 A 
ATOM     40  N   UNL A   1      39.284  30.729  31.982  1.00  0.00    -0.248 NA
ATOM     41  C   UNL A   1      37.411  32.109  31.775  1.00  0.00     0.031 C 
ATOM     42  C   UNL A   1      38.758  29.443  27.738  1.00  0.00     0.029 A 
ATOM     43  N   UNL A   1      39.980  29.202  29.599  1.00  0.00    -0.354 N 
ATOM     44  C   UNL A   1      39.044  31.360  33.196  1.00  0.00     0.074 A 
ATOM     45  C   UNL A   1      37.896  32.222  33.004  1.00  0.00     0.031 C 
ATOM     46  C   UNL A   1      39.734  28.558  27.473  1.00  0.00     0.029 A 
ATOM     47  C   UNL A   1      40.581  28.405  28.657  1.00  0.00     0.049 A 
ATOM     48  H   UNL A   1      40.295  29.269  30.529  1.00  0.00     0.167 HD
ATOM     49  C   UNL A   1      39.710  31.230  34.369  1.00  0.00     0.037 A 
ATOM     50  C   UNL A   1      41.700  27.657  28.731  1.00  0.00     0.037 A 
ATOM     51  C   UNL A   1      40.855  30.382  34.568  1.00  0.00     0.049 A 
ATOM     52  C   UNL A   1      42.472  27.588  30.022  1.00  0.00     0.074 A 
ATOM     53  C   UNL A   1      41.578  30.168  35.730  1.00  0.00     0.029 A 
ATOM     54  N   UNL A   1      41.453  29.618  33.580  1.00  0.00    -0.354 N 
ATOM     55  N   UNL A   1      42.215  28.162  31.172  1.00  0.00    -0.248 NA
ATOM     56  C   UNL A   1      43.691  26.764  30.023  1.00  0.00     0.031 C 
ATOM     57  C   UNL A   1      42.642  29.310  35.431  1.00  0.00     0.029 A 
ATOM     58  C   UNL A   1      42.556  28.956  34.095  1.00  0.00     0.049 A 
ATOM     59  H   UNL A   1      41.141  29.555  32.647  1.00  0.00     0.167 HD
ATOM     60  C   UNL A   1      43.227  27.757  32.036  1.00  0.00     0.074 A 
ATOM     61  C   UNL A   1      44.095  26.877  31.281  1.00  0.00     0.031 C 
ATOM     62  C   UNL A   1      43.417  28.084  33.337  1.00  0.00     0.037 A 
BRANCH  49  63
ATOM     63  C   UNL A   1      39.224  32.050  35.527  1.00  0.00     0.057 A 
ATOM     64  C   UNL A   1      39.626  33.379  35.710  1.00  0.00     0.134 A 
ATOM     65  C   UNL A   1      38.327  31.511  36.456  1.00  0.00     0.134 A 
ATOM     66  F   UNL A   1      40.494  33.949  34.861  1.00  0.00    -0.206 F 
ATOM     67  C   UNL A   1      39.172  34.135  36.793  1.00  0.00     0.040 A 
ATOM     68  C   UNL A   1      37.849  32.263  37.530  1.00  0.00     0.040 A 
ATOM     69  F   UNL A   1      37.899  30.245  36.335  1.00  0.00    -0.206 F 
ATOM     70  C   UNL A   1      38.277  33.578  37.704  1.00  0.00     0.006 A 
ENDBRANCH  49  63
BRANCH  50  71
ATOM     71  C   UNL A   1      42.178  26.931  27.530  1.00  0.00     0.057 A 
ATOM     72  C   UNL A   1      41.809  25.604  27.284  1.00  0.00     0.134 A 
ATOM     73  C   UNL A   1      43.029  27.548  26.604  1.00  0.00     0.134 A 
ATOM     74  F   UNL A   1      41.017  24.953  28.148  1.00  0.00    -0.206 F 
ATOM     75  C   UNL A   1      42.277  24.912  26.165  1.00  0.00     0.040 A 
ATOM     76  C   UNL A   1      43.485  26.877  25.470  1.00  0.00     0.040 A 
ATOM     77  F   UNL A   1      43.421  28.818  26.788  1.00  0.00    -0.206 F 
ATOM     78  C   UNL A   1      43.113  25.552  25.251  1.00  0.00     0.006 A 
ENDBRANCH  50  71
BRANCH  62  79
ATOM     79  C   UNL A   1      44.597  27.479  34.039  1.00  0.00     0.057 A 
ATOM     80  C   UNL A   1      45.824  28.150  34.129  1.00  0.00     0.134 A 
ATOM     81  C   UNL A   1      44.493  26.235  34.673  1.00  0.00     0.134 A 
ATOM     82  F   UNL A   1      45.993  29.340  33.533  1.00  0.00    -0.206 F 
ATOM     83  C   UNL A   1      46.909  27.597  34.812  1.00  0.00     0.040 A 
ATOM     84  C   UNL A   1      45.564  25.682  35.377  1.00  0.00     0.040 A 
ATOM     85  F   UNL A   1      43.344  25.544  34.632  1.00  0.00    -0.206 F 
ATOM     86  C   UNL A   1      46.778  26.362  35.445  1.00  0.00     0.006 A 
ENDBRANCH  62  79
ENDBRANCH  36  37
ENDBRANCH  29  31
ENDBRANCH  28  29
ENDBRANCH  27  28
ENDBRANCH  26  27
ENDBRANCH  25  26
ENDBRANCH   1  25
TORSDOF 19
ENDMDL
MODEL 3
REMARK VINA RESULT:      -9.8      1.669      6.768
REMARK SMILES CCNC(=O)NC(=O)[C@@H](C)[NH2+][C@](C)(CC)C(=O)OCCOCCOC(=O)c1ccc(-c2c3nc(c(-c4c(F)cccc4F)c4ccc([nH]4)c(-c4c(F)cccc4F)c4nc(c(-c5c(F)cccc5F)c5ccc2[nH]5)C=C4)C=C3)cc1
REMARK SMILES IDX 20 1 19 2 18 3 16 4 17 5 12 6 13 7 11 8 9 11 10 12 7 13 3 14
REMARK SMILES IDX 4 15 5 17 6 18 8 20 2 21 1 22 14 23 15 24 21 25 22 26 23 27
REMARK SMILES IDX 24 28 25 29 26 30 27 31 28 32 80 33 29 34 79 35 30 36 31 37
REMARK SMILES IDX 32 38 73 39 33 40 78 41 72 42 74 43 34 44 77 45 71 46 70 47
REMARK SMILES IDX 35 49 61 50 44 51 60 52 45 53 48 54 59 55 75 56 46 57 47 58
REMARK SMILES IDX 58 60 76 61 49 62 36 63 37 64 42 65 38 66 39 67 41 68 43 69
REMARK SMILES IDX 40 70 62 71 63 72 68 73 64 74 65 75 67 76 69 77 66 78 50 79
REMARK SMILES IDX 51 80 56 81 52 82 53 83 55 84 57 85 54 86
REMARK H PARENT 11 9 11 10 3 16 6 19 74 48 48 59
REMARK Flexibility Score: inf
ROOT
ATOM      1  C   UNL A   1      32.970  29.275  26.014  1.00  0.00     0.202 C 
ENDROOT
BRANCH   1   2
ATOM      2  C   UNL A   1      32.997  27.868  26.632  1.00  0.00     0.261 C 
BRANCH   2   3
ATOM      3  O   UNL A   1      33.184  26.739  25.765  1.00  0.00    -0.459 OA
BRANCH   3   4
ATOM      4  C   UNL A   1      32.590  25.589  26.200  1.00  0.00     0.367 C 
ATOM      5  O   UNL A   1      31.559  25.585  26.865  1.00  0.00    -0.245 OA
BRANCH   4   6
ATOM      6  C   UNL A   1      33.409  24.300  25.867  1.00  0.00     0.191 C 
ATOM      7  C   UNL A   1      34.790  24.739  25.342  1.00  0.00     0.092 C 
BRANCH   6   8
ATOM      8  N   UNL A   1      32.633  23.459  24.892  1.00  0.00    -0.322 N 
ATOM      9  H   UNL A   1      33.281  22.761  24.528  1.00  0.00     0.347 HD
ATOM     10  H   UNL A   1      31.845  23.130  25.449  1.00  0.00     0.347 HD
BRANCH   8  11
ATOM     11  C   UNL A   1      31.980  24.078  23.726  1.00  0.00     0.270 C 
ATOM     12  C   UNL A   1      30.468  24.016  23.516  1.00  0.00     0.086 C 
BRANCH  11  13
ATOM     13  C   UNL A   1      32.632  23.566  22.430  1.00  0.00     0.285 C 
ATOM     14  N   UNL A   1      32.745  26.736  21.163  1.00  0.00    -0.338 N 
ATOM     15  C   UNL A   1      32.835  25.518  20.636  1.00  0.00     0.321 C 
ATOM     16  H   UNL A   1      32.590  27.425  20.476  1.00  0.00     0.165 HD
ATOM     17  O   UNL A   1      32.860  25.457  19.400  1.00  0.00    -0.248 OA
ATOM     18  N   UNL A   1      32.922  24.331  21.306  1.00  0.00    -0.273 N 
ATOM     19  H   UNL A   1      33.431  23.734  20.711  1.00  0.00     0.175 HD
ATOM     20  O   UNL A   1      32.925  22.363  22.347  1.00  0.00    -0.268 OA
BRANCH  14  21
ATOM     21  C   UNL A   1      32.818  27.294  22.484  1.00  0.00     0.114 C 
ATOM     22  C   UNL A   1      33.958  28.275  22.662  1.00  0.00     0.027 C 
ENDBRANCH  14  21
ENDBRANCH  11  13
ENDBRANCH   8  11
ENDBRANCH   6   8
BRANCH   6  23
ATOM     23  C   UNL A   1      33.603  23.339  27.084  1.00  0.00     0.077 C 
ATOM     24  C   UNL A   1      33.634  21.840  26.825  1.00  0.00     0.011 C 
ENDBRANCH   6  23
ENDBRANCH   4   6
ENDBRANCH   3   4
ENDBRANCH   2   3
ENDBRANCH   1   2
BRANCH   1  25
ATOM     25  O   UNL A   1      32.744  30.397  26.848  1.00  0.00    -0.374 OA
BRANCH  25  26
ATOM     26  C   UNL A   1      31.628  31.231  26.551  1.00  0.00     0.202 C 
BRANCH  26  27
ATOM     27  C   UNL A   1      31.736  32.718  26.919  1.00  0.00     0.261 C 
BRANCH  27  28
ATOM     28  O   UNL A   1      33.100  33.125  27.167  1.00  0.00    -0.460 OA
BRANCH  28  29
ATOM     29  C   UNL A   1      33.240  34.024  28.173  1.00  0.00     0.338 C 
ATOM     30  O   UNL A   1      32.506  34.963  28.431  1.00  0.00    -0.246 OA
BRANCH  29  31
ATOM     31  C   UNL A   1      34.359  33.654  29.059  1.00  0.00     0.060 A 
ATOM     32  C   UNL A   1      35.653  34.017  28.665  1.00  0.00     0.016 A 
ATOM     33  C   UNL A   1      34.162  32.811  30.153  1.00  0.00     0.016 A 
ATOM     34  C   UNL A   1      36.760  33.489  29.332  1.00  0.00     0.010 A 
ATOM     35  C   UNL A   1      35.275  32.275  30.815  1.00  0.00     0.010 A 
ATOM     36  C   UNL A   1      36.579  32.576  30.378  1.00  0.00    -0.014 A 
BRANCH  36  37
ATOM     37  C   UNL A   1      37.742  31.809  30.896  1.00  0.00     0.031 A 
ATOM     38  C   UNL A   1      38.275  32.121  32.269  1.00  0.00     0.074 A 
ATOM     39  C   UNL A   1      38.307  30.826  30.173  1.00  0.00     0.049 A 
ATOM     40  N   UNL A   1      39.292  31.598  32.906  1.00  0.00    -0.248 NA
ATOM     41  C   UNL A   1      37.563  33.164  33.025  1.00  0.00     0.031 C 
ATOM     42  C   UNL A   1      37.872  30.395  28.847  1.00  0.00     0.029 A 
ATOM     43  N   UNL A   1      39.383  30.020  30.458  1.00  0.00    -0.354 N 
ATOM     44  C   UNL A   1      39.343  32.244  34.135  1.00  0.00     0.074 A 
ATOM     45  C   UNL A   1      38.273  33.220  34.143  1.00  0.00     0.031 C 
ATOM     46  C   UNL A   1      38.689  29.416  28.421  1.00  0.00     0.029 A 
ATOM     47  C   UNL A   1      39.717  29.171  29.432  1.00  0.00     0.049 A 
ATOM     48  H   UNL A   1      39.867  30.050  31.313  1.00  0.00     0.167 HD
ATOM     49  C   UNL A   1      40.195  32.041  35.168  1.00  0.00     0.037 A 
ATOM     50  C   UNL A   1      40.748  28.311  29.312  1.00  0.00     0.037 A 
ATOM     51  C   UNL A   1      41.265  31.078  35.168  1.00  0.00     0.049 A 
ATOM     52  C   UNL A   1      41.732  28.157  30.441  1.00  0.00     0.074 A 
ATOM     53  C   UNL A   1      42.163  30.785  36.181  1.00  0.00     0.029 A 
ATOM     54  N   UNL A   1      41.592  30.262  34.097  1.00  0.00    -0.354 N 
ATOM     55  N   UNL A   1      41.749  28.748  31.611  1.00  0.00    -0.248 NA
ATOM     56  C   UNL A   1      42.841  27.212  30.232  1.00  0.00     0.031 C 
ATOM     57  C   UNL A   1      43.061  29.824  35.705  1.00  0.00     0.029 A 
ATOM     58  C   UNL A   1      42.696  29.487  34.412  1.00  0.00     0.049 A 
ATOM     59  H   UNL A   1      41.110  30.236  33.238  1.00  0.00     0.167 HD
ATOM     60  C   UNL A   1      42.855  28.237  32.282  1.00  0.00     0.074 A 
ATOM     61  C   UNL A   1      43.477  27.277  31.394  1.00  0.00     0.031 C 
ATOM     62  C   UNL A   1      43.312  28.536  33.522  1.00  0.00     0.037 A 
BRANCH  49  63
ATOM     63  C   UNL A   1      40.015  32.900  36.385  1.00  0.00     0.057 A 
ATOM     64  C   UNL A   1      39.067  32.594  37.370  1.00  0.00     0.134 A 
ATOM     65  C   UNL A   1      40.813  34.033  36.582  1.00  0.00     0.134 A 
ATOM     66  F   UNL A   1      38.263  31.530  37.232  1.00  0.00    -0.206 F 
ATOM     67  C   UNL A   1      38.903  33.402  38.497  1.00  0.00     0.040 A 
ATOM     68  C   UNL A   1      40.674  34.835  37.716  1.00  0.00     0.040 A 
ATOM     69  F   UNL A   1      41.743  34.377  35.678  1.00  0.00    -0.206 F 
ATOM     70  C   UNL A   1      39.711  34.523  38.674  1.00  0.00     0.006 A 
ENDBRANCH  49  63
BRANCH  50  71
ATOM     71  C   UNL A   1      40.923  27.546  28.054  1.00  0.00     0.057 A 
ATOM     72  C   UNL A   1      41.657  28.062  26.981  1.00  0.00     0.134 A 
ATOM     73  C   UNL A   1      40.343  26.281  27.892  1.00  0.00     0.134 A 
ATOM     74  F   UNL A   1      42.213  29.279  27.068  1.00  0.00    -0.206 F 
ATOM     75  C   UNL A   1      41.803  27.352  25.788  1.00  0.00     0.040 A 
ATOM     76  C   UNL A   1      40.500  25.550  26.715  1.00  0.00     0.040 A 
ATOM     77  F   UNL A   1      39.624  25.735  28.884  1.00  0.00    -0.206 F 
ATOM     78  C   UNL A   1      41.228  26.089  25.656  1.00  0.00     0.006 A 
ENDBRANCH  50  71
BRANCH  62  79
ATOM     79  C   UNL A   1      44.532  27.810  34.006  1.00  0.00     0.057 A 
ATOM     80  C   UNL A   1      45.816  28.351  33.863  1.00  0.00     0.134 A 
ATOM     81  C   UNL A   1      44.420  26.579  34.663  1.00  0.00     0.134 A 
ATOM     82  F   UNL A   1      45.994  29.521  33.232  1.00  0.00    -0.206 F 
ATOM     83  C   UNL A   1      46.946  27.686  34.345  1.00  0.00     0.040 A 
ATOM     84  C   UNL A   1      45.539  25.915  35.169  1.00  0.00     0.040 A 
ATOM     85  F   UNL A   1      43.218  26.009  34.841  1.00  0.00    -0.206 F 
ATOM     86  C   UNL A   1      46.808  26.467  35.006  1.00  0.00     0.006 A 
ENDBRANCH  62  79
ENDBRANCH  36  37
ENDBRANCH  29  31
ENDBRANCH  28  29
ENDBRANCH  27  28
ENDBRANCH  26  27
ENDBRANCH  25  26
ENDBRANCH   1  25
TORSDOF 19
ENDMDL
