MODEL 1
REMARK VINA RESULT:     -11.7      0.000      0.000
REMARK SMILES O=C(CCCc1nc(-c2ccc(Cl)c(Cl)c2)c(-c2ccccc2)o1)OCCOCCOC(=O)c1ccc(-c2c3nc(c(-c4c(F)cccc4F)c4ccc([nH]4)c(-c4c(F)cccc4F)c4nc(c(-c5c(F)cccc5F)c5ccc2[nH]5)C=C4)C=C3)cc1
REMARK SMILES IDX 27 1 26 2 25 3 2 4 1 5 3 6 4 7 5 8 6 9 7 10 24 11 8 12 17 13
REMARK SMILES IDX 9 14 10 15 16 16 11 17 14 18 12 19 15 20 13 21 18 22 19 23
REMARK SMILES IDX 23 24 20 25 22 26 21 27 28 28 29 29 30 30 31 31 32 32 33 33
REMARK SMILES IDX 34 34 35 35 87 36 36 37 86 38 37 39 38 40 39 41 80 42 40 43
REMARK SMILES IDX 85 44 79 45 81 46 41 47 84 48 78 49 77 50 42 52 68 53 51 54
REMARK SMILES IDX 67 55 52 56 55 57 66 58 82 59 53 60 54 61 65 63 83 64 56 65
REMARK SMILES IDX 43 66 44 67 49 68 45 69 46 70 48 71 50 72 47 73 69 74 70 75
REMARK SMILES IDX 75 76 71 77 72 78 74 79 76 80 73 81 57 82 58 83 63 84 59 85
REMARK SMILES IDX 60 86 62 87 64 88 61 89
REMARK H PARENT 81 51 55 62
REMARK Flexibility Score: inf
ROOT
ATOM      1  C   UNL A   1      33.578  28.296  24.439  1.00  0.00     0.202 C 
ENDROOT
BRANCH   1   2
ATOM      2  C   UNL A   1      33.000  27.322  23.418  1.00  0.00     0.261 C 
BRANCH   2   3
ATOM      3  O   UNL A   1      32.126  27.853  22.411  1.00  0.00    -0.463 OA
BRANCH   3   4
ATOM      4  C   UNL A   1      30.814  27.552  22.480  1.00  0.00     0.305 C 
ATOM      5  O   UNL A   1      29.962  28.327  22.055  1.00  0.00    -0.252 OA
BRANCH   4   6
ATOM      6  C   UNL A   1      30.469  26.199  23.071  1.00  0.00     0.123 C 
BRANCH   6   7
ATOM      7  C   UNL A   1      29.731  26.155  24.406  1.00  0.00     0.021 C 
BRANCH   7   8
ATOM      8  C   UNL A   1      30.309  25.318  25.551  1.00  0.00     0.098 C 
BRANCH   8   9
ATOM      9  C   UNL A   1      31.260  24.215  25.209  1.00  0.00     0.195 A 
ATOM     10  N   UNL A   1      30.961  22.942  24.992  1.00  0.00    -0.213 NA
ATOM     11  O   UNL A   1      32.606  24.490  25.205  1.00  0.00    -0.440 OA
ATOM     12  C   UNL A   1      32.183  22.339  24.830  1.00  0.00     0.117 A 
ATOM     13  C   UNL A   1      33.187  23.276  24.936  1.00  0.00     0.162 A 
BRANCH  12  14
ATOM     14  C   UNL A   1      32.399  20.921  24.630  1.00  0.00     0.006 A 
ATOM     15  C   UNL A   1      32.656  20.095  25.726  1.00  0.00     0.012 A 
ATOM     16  C   UNL A   1      32.289  20.344  23.362  1.00  0.00     0.032 A 
ATOM     17  C   UNL A   1      32.884  18.728  25.566  1.00  0.00     0.023 A 
ATOM     18  C   UNL A   1      32.465  18.961  23.200  1.00  0.00     0.060 A 
ATOM     19  C   UNL A   1      32.787  18.155  24.300  1.00  0.00     0.059 A 
ATOM     20  Cl  UNL A   1      32.240  18.303  21.618  1.00  0.00    -0.083 Cl
ATOM     21  Cl  UNL A   1      33.061  16.455  24.168  1.00  0.00    -0.083 Cl
ENDBRANCH  12  14
BRANCH  13  22
ATOM     22  C   UNL A   1      34.631  23.190  24.894  1.00  0.00     0.020 A 
ATOM     23  C   UNL A   1      35.280  22.946  23.680  1.00  0.00     0.012 A 
ATOM     24  C   UNL A   1      35.389  23.520  26.026  1.00  0.00     0.012 A 
ATOM     25  C   UNL A   1      36.668  23.067  23.592  1.00  0.00     0.001 A 
ATOM     26  C   UNL A   1      36.776  23.643  25.936  1.00  0.00     0.001 A 
ATOM     27  C   UNL A   1      37.413  23.425  24.716  1.00  0.00     0.000 A 
ENDBRANCH  13  22
ENDBRANCH   8   9
ENDBRANCH   7   8
ENDBRANCH   6   7
ENDBRANCH   4   6
ENDBRANCH   3   4
ENDBRANCH   2   3
ENDBRANCH   1   2
BRANCH   1  28
ATOM     28  O   UNL A   1      32.923  29.562  24.469  1.00  0.00    -0.374 OA
BRANCH  28  29
ATOM     29  C   UNL A   1      31.730  29.550  25.265  1.00  0.00     0.202 C 
BRANCH  29  30
ATOM     30  C   UNL A   1      31.577  30.786  26.158  1.00  0.00     0.261 C 
BRANCH  30  31
ATOM     31  O   UNL A   1      32.502  30.748  27.262  1.00  0.00    -0.460 OA
BRANCH  31  32
ATOM     32  C   UNL A   1      33.246  31.864  27.415  1.00  0.00     0.338 C 
ATOM     33  O   UNL A   1      32.860  33.029  27.377  1.00  0.00    -0.246 OA
BRANCH  32  34
ATOM     34  C   UNL A   1      34.619  31.512  27.815  1.00  0.00     0.060 A 
ATOM     35  C   UNL A   1      34.895  30.170  28.109  1.00  0.00     0.016 A 
ATOM     36  C   UNL A   1      35.600  32.483  27.983  1.00  0.00     0.016 A 
ATOM     37  C   UNL A   1      36.111  29.797  28.664  1.00  0.00     0.010 A 
ATOM     38  C   UNL A   1      36.836  32.108  28.518  1.00  0.00     0.010 A 
ATOM     39  C   UNL A   1      37.079  30.773  28.903  1.00  0.00    -0.014 A 
BRANCH  39  40
ATOM     40  C   UNL A   1      38.274  30.432  29.704  1.00  0.00     0.031 A 
ATOM     41  C   UNL A   1      39.295  29.512  29.101  1.00  0.00     0.074 A 
ATOM     42  C   UNL A   1      38.471  30.964  30.922  1.00  0.00     0.049 A 
ATOM     43  N   UNL A   1      40.306  28.909  29.667  1.00  0.00    -0.248 NA
ATOM     44  C   UNL A   1      39.151  29.231  27.663  1.00  0.00     0.031 C 
ATOM     45  C   UNL A   1      37.612  31.957  31.565  1.00  0.00     0.029 A 
ATOM     46  N   UNL A   1      39.461  30.728  31.842  1.00  0.00    -0.354 N 
ATOM     47  C   UNL A   1      40.889  28.141  28.667  1.00  0.00     0.074 A 
ATOM     48  C   UNL A   1      40.121  28.353  27.460  1.00  0.00     0.031 C 
ATOM     49  C   UNL A   1      38.103  32.236  32.784  1.00  0.00     0.029 A 
ATOM     50  C   UNL A   1      39.269  31.392  33.029  1.00  0.00     0.049 A 
ATOM     51  H   UNL A   1      40.232  30.142  31.668  1.00  0.00     0.167 HD
ATOM     52  C   UNL A   1      41.967  27.327  28.756  1.00  0.00     0.037 A 
ATOM     53  C   UNL A   1      39.932  31.286  34.196  1.00  0.00     0.037 A 
ATOM     54  C   UNL A   1      42.742  27.157  29.956  1.00  0.00     0.049 A 
ATOM     55  C   UNL A   1      41.079  30.317  34.297  1.00  0.00     0.074 A 
ATOM     56  C   UNL A   1      43.846  26.350  30.164  1.00  0.00     0.029 A 
ATOM     57  N   UNL A   1      42.497  27.820  31.149  1.00  0.00    -0.354 N 
ATOM     58  N   UNL A   1      41.585  29.534  33.373  1.00  0.00    -0.248 NA
ATOM     59  C   UNL A   1      41.737  30.203  35.606  1.00  0.00     0.031 C 
ATOM     60  C   UNL A   1      44.247  26.498  31.496  1.00  0.00     0.029 A 
ATOM     61  C   UNL A   1      43.421  27.431  32.104  1.00  0.00     0.049 A 
ATOM     62  H   UNL A   1      41.774  28.471  31.296  1.00  0.00     0.167 HD
ATOM     63  C   UNL A   1      42.634  28.856  33.980  1.00  0.00     0.074 A 
ATOM     64  C   UNL A   1      42.698  29.326  35.349  1.00  0.00     0.031 C 
ATOM     65  C   UNL A   1      43.470  27.927  33.454  1.00  0.00     0.037 A 
BRANCH  52  66
ATOM     66  C   UNL A   1      42.332  26.528  27.542  1.00  0.00     0.057 A 
ATOM     67  C   UNL A   1      43.168  27.033  26.539  1.00  0.00     0.134 A 
ATOM     68  C   UNL A   1      41.846  25.224  27.384  1.00  0.00     0.134 A 
ATOM     69  F   UNL A   1      43.648  28.282  26.618  1.00  0.00    -0.206 F 
ATOM     70  C   UNL A   1      43.490  26.276  25.411  1.00  0.00     0.040 A 
ATOM     71  C   UNL A   1      42.181  24.448  26.274  1.00  0.00     0.040 A 
ATOM     72  F   UNL A   1      41.037  24.681  28.307  1.00  0.00    -0.206 F 
ATOM     73  C   UNL A   1      43.003  24.976  25.280  1.00  0.00     0.006 A 
ENDBRANCH  52  66
BRANCH  53  74
ATOM     74  C   UNL A   1      39.495  32.075  35.375  1.00  0.00     0.057 A 
ATOM     75  C   UNL A   1      38.581  31.555  36.297  1.00  0.00     0.134 A 
ATOM     76  C   UNL A   1      39.969  33.374  35.599  1.00  0.00     0.134 A 
ATOM     77  F   UNL A   1      38.071  30.327  36.125  1.00  0.00    -0.206 F 
ATOM     78  C   UNL A   1      38.144  32.303  37.393  1.00  0.00     0.040 A 
ATOM     79  C   UNL A   1      39.562  34.122  36.703  1.00  0.00     0.040 A 
ATOM     80  F   UNL A   1      40.847  33.931  34.750  1.00  0.00    -0.206 F 
ATOM     81  C   UNL A   1      38.641  33.589  37.602  1.00  0.00     0.006 A 
ENDBRANCH  53  74
BRANCH  65  82
ATOM     82  C   UNL A   1      44.551  27.396  34.349  1.00  0.00     0.057 A 
ATOM     83  C   UNL A   1      44.378  26.231  35.106  1.00  0.00     0.134 A 
ATOM     84  C   UNL A   1      45.795  28.037  34.415  1.00  0.00     0.134 A 
ATOM     85  F   UNL A   1      43.206  25.580  35.094  1.00  0.00    -0.206 F 
ATOM     86  C   UNL A   1      45.401  25.732  35.915  1.00  0.00     0.040 A 
ATOM     87  C   UNL A   1      46.832  27.535  35.200  1.00  0.00     0.040 A 
ATOM     88  F   UNL A   1      46.025  29.152  33.706  1.00  0.00    -0.206 F 
ATOM     89  C   UNL A   1      46.634  26.381  35.957  1.00  0.00     0.006 A 
ENDBRANCH  65  82
ENDBRANCH  39  40
ENDBRANCH  32  34
ENDBRANCH  31  32
ENDBRANCH  30  31
ENDBRANCH  29  30
ENDBRANCH  28  29
ENDBRANCH   1  28
TORSDOF 19
ENDMDL
MODEL 2
REMARK VINA RESULT:     -11.3      4.479      8.803
REMARK SMILES O=C(CCCc1nc(-c2ccc(Cl)c(Cl)c2)c(-c2ccccc2)o1)OCCOCCOC(=O)c1ccc(-c2c3nc(c(-c4c(F)cccc4F)c4ccc([nH]4)c(-c4c(F)cccc4F)c4nc(c(-c5c(F)cccc5F)c5ccc2[nH]5)C=C4)C=C3)cc1
REMARK SMILES IDX 27 1 26 2 25 3 2 4 1 5 3 6 4 7 5 8 6 9 7 10 24 11 8 12 17 13
REMARK SMILES IDX 9 14 10 15 16 16 11 17 14 18 12 19 15 20 13 21 18 22 19 23
REMARK SMILES IDX 23 24 20 25 22 26 21 27 28 28 29 29 30 30 31 31 32 32 33 33
REMARK SMILES IDX 34 34 35 35 87 36 36 37 86 38 37 39 38 40 39 41 80 42 40 43
REMARK SMILES IDX 85 44 79 45 81 46 41 47 84 48 78 49 77 50 42 52 68 53 51 54
REMARK SMILES IDX 67 55 52 56 55 57 66 58 82 59 53 60 54 61 65 63 83 64 56 65
REMARK SMILES IDX 43 66 44 67 49 68 45 69 46 70 48 71 50 72 47 73 69 74 70 75
REMARK SMILES IDX 75 76 71 77 72 78 74 79 76 80 73 81 57 82 58 83 63 84 59 85
REMARK SMILES IDX 60 86 62 87 64 88 61 89
REMARK H PARENT 81 51 55 62
REMARK Flexibility Score: inf
ROOT
ATOM      1  C   UNL A   1      34.623  35.700  32.401  1.00  0.00     0.202 C 
ENDROOT
BRANCH   1   2
ATOM      2  C   UNL A   1      33.282  35.902  31.704  1.00  0.00     0.261 C 
BRANCH   2   3
ATOM      3  O   UNL A   1      32.913  34.961  30.685  1.00  0.00    -0.463 OA
BRANCH   3   4
ATOM      4  C   UNL A   1      33.063  35.324  29.395  1.00  0.00     0.305 C 
ATOM      5  O   UNL A   1      32.335  36.170  28.885  1.00  0.00    -0.252 OA
BRANCH   4   6
ATOM      6  C   UNL A   1      34.198  34.657  28.641  1.00  0.00     0.123 C 
BRANCH   6   7
ATOM      7  C   UNL A   1      33.880  33.441  27.775  1.00  0.00     0.021 C 
BRANCH   7   8
ATOM      8  C   UNL A   1      32.457  32.876  27.775  1.00  0.00     0.098 C 
BRANCH   8   9
ATOM      9  C   UNL A   1      32.160  31.711  26.884  1.00  0.00     0.195 A 
ATOM     10  N   UNL A   1      32.884  30.611  26.740  1.00  0.00    -0.213 NA
ATOM     11  O   UNL A   1      31.082  31.795  26.036  1.00  0.00    -0.440 OA
ATOM     12  C   UNL A   1      32.244  29.923  25.741  1.00  0.00     0.117 A 
ATOM     13  C   UNL A   1      31.136  30.624  25.323  1.00  0.00     0.162 A 
BRANCH  12  14
ATOM     14  C   UNL A   1      32.690  28.669  25.168  1.00  0.00     0.006 A 
ATOM     15  C   UNL A   1      33.360  28.663  23.943  1.00  0.00     0.012 A 
ATOM     16  C   UNL A   1      32.522  27.461  25.850  1.00  0.00     0.032 A 
ATOM     17  C   UNL A   1      33.788  27.472  23.357  1.00  0.00     0.023 A 
ATOM     18  C   UNL A   1      32.996  26.264  25.291  1.00  0.00     0.060 A 
ATOM     19  C   UNL A   1      33.608  26.266  24.031  1.00  0.00     0.059 A 
ATOM     20  Cl  UNL A   1      32.822  24.819  26.221  1.00  0.00    -0.083 Cl
ATOM     21  Cl  UNL A   1      34.176  24.828  23.262  1.00  0.00    -0.083 Cl
ENDBRANCH  12  14
BRANCH  13  22
ATOM     22  C   UNL A   1      30.149  30.393  24.290  1.00  0.00     0.020 A 
ATOM     23  C   UNL A   1      29.461  31.472  23.728  1.00  0.00     0.012 A 
ATOM     24  C   UNL A   1      30.002  29.117  23.728  1.00  0.00     0.012 A 
ATOM     25  C   UNL A   1      28.665  31.284  22.597  1.00  0.00     0.001 A 
ATOM     26  C   UNL A   1      29.209  28.930  22.596  1.00  0.00     0.001 A 
ATOM     27  C   UNL A   1      28.548  30.016  22.026  1.00  0.00     0.000 A 
ENDBRANCH  13  22
ENDBRANCH   8   9
ENDBRANCH   7   8
ENDBRANCH   6   7
ENDBRANCH   4   6
ENDBRANCH   3   4
ENDBRANCH   2   3
ENDBRANCH   1   2
BRANCH   1  28
ATOM     28  O   UNL A   1      34.533  35.624  33.822  1.00  0.00    -0.374 OA
BRANCH  28  29
ATOM     29  C   UNL A   1      35.128  34.431  34.352  1.00  0.00     0.202 C 
BRANCH  29  30
ATOM     30  C   UNL A   1      36.094  33.745  33.380  1.00  0.00     0.261 C 
BRANCH  30  31
ATOM     31  O   UNL A   1      35.760  32.353  33.210  1.00  0.00    -0.460 OA
BRANCH  31  32
ATOM     32  C   UNL A   1      35.372  32.013  31.963  1.00  0.00     0.338 C 
ATOM     33  O   UNL A   1      34.377  32.404  31.358  1.00  0.00    -0.246 OA
BRANCH  32  34
ATOM     34  C   UNL A   1      36.413  31.204  31.307  1.00  0.00     0.060 A 
ATOM     35  C   UNL A   1      37.184  30.349  32.106  1.00  0.00     0.016 A 
ATOM     36  C   UNL A   1      36.691  31.337  29.951  1.00  0.00     0.016 A 
ATOM     37  C   UNL A   1      38.294  29.698  31.589  1.00  0.00     0.010 A 
ATOM     38  C   UNL A   1      37.795  30.662  29.419  1.00  0.00     0.010 A 
ATOM     39  C   UNL A   1      38.626  29.879  30.246  1.00  0.00    -0.014 A 
BRANCH  39  40
ATOM     40  C   UNL A   1      39.928  29.387  29.746  1.00  0.00     0.031 A 
ATOM     41  C   UNL A   1      41.077  30.349  29.689  1.00  0.00     0.074 A 
ATOM     42  C   UNL A   1      40.097  28.102  29.392  1.00  0.00     0.049 A 
ATOM     43  N   UNL A   1      42.240  30.221  29.108  1.00  0.00    -0.248 NA
ATOM     44  C   UNL A   1      40.885  31.637  30.379  1.00  0.00     0.031 C 
ATOM     45  C   UNL A   1      39.091  27.047  29.513  1.00  0.00     0.029 A 
ATOM     46  N   UNL A   1      41.185  27.469  28.846  1.00  0.00    -0.354 N 
ATOM     47  C   UNL A   1      42.898  31.426  29.321  1.00  0.00     0.074 A 
ATOM     48  C   UNL A   1      42.008  32.272  30.084  1.00  0.00     0.031 C 
ATOM     49  C   UNL A   1      39.604  25.899  29.040  1.00  0.00     0.029 A 
ATOM     50  C   UNL A   1      40.946  26.156  28.523  1.00  0.00     0.049 A 
ATOM     51  H   UNL A   1      42.052  27.913  28.701  1.00  0.00     0.167 HD
ATOM     52  C   UNL A   1      44.135  31.790  28.908  1.00  0.00     0.037 A 
ATOM     53  C   UNL A   1      41.707  25.281  27.840  1.00  0.00     0.037 A 
ATOM     54  C   UNL A   1      45.022  30.921  28.182  1.00  0.00     0.049 A 
ATOM     55  C   UNL A   1      43.047  25.730  27.322  1.00  0.00     0.074 A 
ATOM     56  C   UNL A   1      46.292  31.188  27.703  1.00  0.00     0.029 A 
ATOM     57  N   UNL A   1      44.731  29.608  27.842  1.00  0.00    -0.354 N 
ATOM     58  N   UNL A   1      43.639  26.893  27.458  1.00  0.00    -0.248 NA
ATOM     59  C   UNL A   1      43.816  24.752  26.540  1.00  0.00     0.031 C 
ATOM     60  C   UNL A   1      46.755  30.046  27.041  1.00  0.00     0.029 A 
ATOM     61  C   UNL A   1      45.793  29.054  27.147  1.00  0.00     0.049 A 
ATOM     62  H   UNL A   1      43.894  29.139  28.063  1.00  0.00     0.167 HD
ATOM     63  C   UNL A   1      44.859  26.778  26.804  1.00  0.00     0.074 A 
ATOM     64  C   UNL A   1      44.926  25.430  26.279  1.00  0.00     0.031 C 
ATOM     65  C   UNL A   1      45.837  27.704  26.649  1.00  0.00     0.037 A 
BRANCH  52  66
ATOM     66  C   UNL A   1      44.571  33.196  29.189  1.00  0.00     0.057 A 
ATOM     67  C   UNL A   1      44.272  34.258  28.327  1.00  0.00     0.134 A 
ATOM     68  C   UNL A   1      45.293  33.490  30.352  1.00  0.00     0.134 A 
ATOM     69  F   UNL A   1      43.603  34.039  27.185  1.00  0.00    -0.206 F 
ATOM     70  C   UNL A   1      44.694  35.560  28.602  1.00  0.00     0.040 A 
ATOM     71  C   UNL A   1      45.699  34.792  30.651  1.00  0.00     0.040 A 
ATOM     72  F   UNL A   1      45.615  32.519  31.219  1.00  0.00    -0.206 F 
ATOM     73  C   UNL A   1      45.403  35.831  29.772  1.00  0.00     0.006 A 
ENDBRANCH  52  66
BRANCH  53  74
ATOM     74  C   UNL A   1      41.200  23.914  27.559  1.00  0.00     0.057 A 
ATOM     75  C   UNL A   1      41.712  22.798  28.229  1.00  0.00     0.134 A 
ATOM     76  C   UNL A   1      40.201  23.690  26.603  1.00  0.00     0.134 A 
ATOM     77  F   UNL A   1      42.688  22.944  29.138  1.00  0.00    -0.206 F 
ATOM     78  C   UNL A   1      41.259  21.507  27.950  1.00  0.00     0.040 A 
ATOM     79  C   UNL A   1      39.721  22.409  26.332  1.00  0.00     0.040 A 
ATOM     80  F   UNL A   1      39.670  24.718  25.924  1.00  0.00    -0.206 F 
ATOM     81  C   UNL A   1      40.254  21.311  27.003  1.00  0.00     0.006 A 
ENDBRANCH  53  74
BRANCH  65  82
ATOM     82  C   UNL A   1      47.078  27.274  25.924  1.00  0.00     0.057 A 
ATOM     83  C   UNL A   1      48.152  26.671  26.589  1.00  0.00     0.134 A 
ATOM     84  C   UNL A   1      47.174  27.424  24.535  1.00  0.00     0.134 A 
ATOM     85  F   UNL A   1      48.124  26.510  27.921  1.00  0.00    -0.206 F 
ATOM     86  C   UNL A   1      49.290  26.250  25.899  1.00  0.00     0.040 A 
ATOM     87  C   UNL A   1      48.296  26.986  23.831  1.00  0.00     0.040 A 
ATOM     88  F   UNL A   1      46.174  27.986  23.839  1.00  0.00    -0.206 F 
ATOM     89  C   UNL A   1      49.360  26.401  24.515  1.00  0.00     0.006 A 
ENDBRANCH  65  82
ENDBRANCH  39  40
ENDBRANCH  32  34
ENDBRANCH  31  32
ENDBRANCH  30  31
ENDBRANCH  29  30
ENDBRANCH  28  29
ENDBRANCH   1  28
TORSDOF 19
ENDMDL
MODEL 3
REMARK VINA RESULT:     -11.1      3.274      8.144
REMARK SMILES O=C(CCCc1nc(-c2ccc(Cl)c(Cl)c2)c(-c2ccccc2)o1)OCCOCCOC(=O)c1ccc(-c2c3nc(c(-c4c(F)cccc4F)c4ccc([nH]4)c(-c4c(F)cccc4F)c4nc(c(-c5c(F)cccc5F)c5ccc2[nH]5)C=C4)C=C3)cc1
REMARK SMILES IDX 27 1 26 2 25 3 2 4 1 5 3 6 4 7 5 8 6 9 7 10 24 11 8 12 17 13
REMARK SMILES IDX 9 14 10 15 16 16 11 17 14 18 12 19 15 20 13 21 18 22 19 23
REMARK SMILES IDX 23 24 20 25 22 26 21 27 28 28 29 29 30 30 31 31 32 32 33 33
REMARK SMILES IDX 34 34 35 35 87 36 36 37 86 38 37 39 38 40 39 41 80 42 40 43
REMARK SMILES IDX 85 44 79 45 81 46 41 47 84 48 78 49 77 50 42 52 68 53 51 54
REMARK SMILES IDX 67 55 52 56 55 57 66 58 82 59 53 60 54 61 65 63 83 64 56 65
REMARK SMILES IDX 43 66 44 67 49 68 45 69 46 70 48 71 50 72 47 73 69 74 70 75
REMARK SMILES IDX 75 76 71 77 72 78 74 79 76 80 73 81 57 82 58 83 63 84 59 85
REMARK SMILES IDX 60 86 62 87 64 88 61 89
REMARK H PARENT 81 51 55 62
REMARK Flexibility Score: inf
ROOT
ATOM      1  C   UNL A   1      43.910  19.030  25.341  1.00  0.00     0.202 C 
ENDROOT
BRANCH   1   2
ATOM      2  C   UNL A   1      42.707  19.365  26.217  1.00  0.00     0.261 C 
BRANCH   2   3
ATOM      3  O   UNL A   1      41.754  20.310  25.707  1.00  0.00    -0.463 OA
BRANCH   3   4
ATOM      4  C   UNL A   1      40.786  20.752  26.536  1.00  0.00     0.305 C 
ATOM      5  O   UNL A   1      40.783  20.448  27.725  1.00  0.00    -0.252 OA
BRANCH   4   6
ATOM      6  C   UNL A   1      39.743  21.664  25.919  1.00  0.00     0.123 C 
BRANCH   6   7
ATOM      7  C   UNL A   1      39.244  22.853  26.735  1.00  0.00     0.021 C 
BRANCH   7   8
ATOM      8  C   UNL A   1      38.167  23.765  26.143  1.00  0.00     0.098 C 
BRANCH   8   9
ATOM      9  C   UNL A   1      36.809  23.187  25.896  1.00  0.00     0.195 A 
ATOM     10  N   UNL A   1      36.529  21.995  25.391  1.00  0.00    -0.213 NA
ATOM     11  O   UNL A   1      35.711  23.983  26.113  1.00  0.00    -0.440 OA
ATOM     12  C   UNL A   1      35.163  21.999  25.272  1.00  0.00     0.117 A 
ATOM     13  C   UNL A   1      34.655  23.195  25.728  1.00  0.00     0.162 A 
BRANCH  12  14
ATOM     14  C   UNL A   1      34.367  20.931  24.702  1.00  0.00     0.006 A 
ATOM     15  C   UNL A   1      33.319  21.234  23.830  1.00  0.00     0.012 A 
ATOM     16  C   UNL A   1      34.668  19.590  24.954  1.00  0.00     0.032 A 
ATOM     17  C   UNL A   1      32.523  20.230  23.276  1.00  0.00     0.023 A 
ATOM     18  C   UNL A   1      33.905  18.573  24.360  1.00  0.00     0.060 A 
ATOM     19  C   UNL A   1      32.816  18.894  23.539  1.00  0.00     0.059 A 
ATOM     20  Cl  UNL A   1      34.379  16.938  24.653  1.00  0.00    -0.083 Cl
ATOM     21  Cl  UNL A   1      31.807  17.697  22.810  1.00  0.00    -0.083 Cl
ENDBRANCH  12  14
BRANCH  13  22
ATOM     22  C   UNL A   1      33.318  23.744  25.790  1.00  0.00     0.020 A 
ATOM     23  C   UNL A   1      32.372  23.183  26.654  1.00  0.00     0.012 A 
ATOM     24  C   UNL A   1      33.015  24.939  25.123  1.00  0.00     0.012 A 
ATOM     25  C   UNL A   1      31.154  23.827  26.874  1.00  0.00     0.001 A 
ATOM     26  C   UNL A   1      31.798  25.584  25.345  1.00  0.00     0.001 A 
ATOM     27  C   UNL A   1      30.872  25.031  26.228  1.00  0.00     0.000 A 
ENDBRANCH  13  22
ENDBRANCH   8   9
ENDBRANCH   7   8
ENDBRANCH   6   7
ENDBRANCH   4   6
ENDBRANCH   3   4
ENDBRANCH   2   3
ENDBRANCH   1   2
BRANCH   1  28
ATOM     28  O   UNL A   1      44.512  20.166  24.725  1.00  0.00    -0.374 OA
BRANCH  28  29
ATOM     29  C   UNL A   1      45.605  20.696  25.487  1.00  0.00     0.202 C 
BRANCH  29  30
ATOM     30  C   UNL A   1      45.640  22.228  25.523  1.00  0.00     0.261 C 
BRANCH  30  31
ATOM     31  O   UNL A   1      44.519  22.758  26.257  1.00  0.00    -0.460 OA
BRANCH  31  32
ATOM     32  C   UNL A   1      43.661  23.497  25.523  1.00  0.00     0.338 C 
ATOM     33  O   UNL A   1      43.379  23.354  24.337  1.00  0.00    -0.246 OA
BRANCH  32  34
ATOM     34  C   UNL A   1      42.937  24.445  26.386  1.00  0.00     0.060 A 
ATOM     35  C   UNL A   1      43.042  25.813  26.096  1.00  0.00     0.016 A 
ATOM     36  C   UNL A   1      42.236  24.018  27.509  1.00  0.00     0.016 A 
ATOM     37  C   UNL A   1      42.539  26.767  26.968  1.00  0.00     0.010 A 
ATOM     38  C   UNL A   1      41.704  24.977  28.377  1.00  0.00     0.010 A 
ATOM     39  C   UNL A   1      41.894  26.353  28.134  1.00  0.00    -0.014 A 
BRANCH  39  40
ATOM     40  C   UNL A   1      41.567  27.348  29.177  1.00  0.00     0.031 A 
ATOM     41  C   UNL A   1      42.388  27.358  30.434  1.00  0.00     0.074 A 
ATOM     42  C   UNL A   1      40.592  28.254  28.994  1.00  0.00     0.049 A 
ATOM     43  N   UNL A   1      42.174  27.982  31.561  1.00  0.00    -0.248 NA
ATOM     44  C   UNL A   1      43.617  26.546  30.416  1.00  0.00     0.031 C 
ATOM     45  C   UNL A   1      39.804  28.420  27.773  1.00  0.00     0.029 A 
ATOM     46  N   UNL A   1      40.091  29.202  29.850  1.00  0.00    -0.354 N 
ATOM     47  C   UNL A   1      43.214  27.601  32.401  1.00  0.00     0.074 A 
ATOM     48  C   UNL A   1      44.057  26.694  31.655  1.00  0.00     0.031 C 
ATOM     49  C   UNL A   1      38.907  29.403  27.963  1.00  0.00     0.029 A 
ATOM     50  C   UNL A   1      39.015  29.884  29.338  1.00  0.00     0.049 A 
ATOM     51  H   UNL A   1      40.467  29.377  30.743  1.00  0.00     0.167 HD
ATOM     52  C   UNL A   1      43.434  27.975  33.683  1.00  0.00     0.037 A 
ATOM     53  C   UNL A   1      38.181  30.757  29.933  1.00  0.00     0.037 A 
ATOM     54  C   UNL A   1      42.605  28.908  34.397  1.00  0.00     0.049 A 
ATOM     55  C   UNL A   1      38.398  31.100  31.382  1.00  0.00     0.074 A 
ATOM     56  C   UNL A   1      42.728  29.351  35.702  1.00  0.00     0.029 A 
ATOM     57  N   UNL A   1      41.503  29.552  33.856  1.00  0.00    -0.354 N 
ATOM     58  N   UNL A   1      39.337  30.684  32.199  1.00  0.00    -0.248 NA
ATOM     59  C   UNL A   1      37.431  32.020  31.997  1.00  0.00     0.031 C 
ATOM     60  C   UNL A   1      41.677  30.236  35.961  1.00  0.00     0.029 A 
ATOM     61  C   UNL A   1      40.926  30.379  34.805  1.00  0.00     0.049 A 
ATOM     62  H   UNL A   1      41.178  29.439  32.933  1.00  0.00     0.167 HD
ATOM     63  C   UNL A   1      39.090  31.309  33.414  1.00  0.00     0.074 A 
ATOM     64  C   UNL A   1      37.918  32.140  33.225  1.00  0.00     0.031 C 
ATOM     65  C   UNL A   1      39.769  31.207  34.583  1.00  0.00     0.037 A 
BRANCH  52  66
ATOM     66  C   UNL A   1      44.585  27.335  34.400  1.00  0.00     0.057 A 
ATOM     67  C   UNL A   1      44.475  26.087  35.024  1.00  0.00     0.134 A 
ATOM     68  C   UNL A   1      45.827  27.980  34.454  1.00  0.00     0.134 A 
ATOM     69  F   UNL A   1      43.307  25.428  35.028  1.00  0.00    -0.206 F 
ATOM     70  C   UNL A   1      45.557  25.511  35.694  1.00  0.00     0.040 A 
ATOM     71  C   UNL A   1      46.923  27.403  35.099  1.00  0.00     0.040 A 
ATOM     72  F   UNL A   1      45.998  29.180  33.880  1.00  0.00    -0.206 F 
ATOM     73  C   UNL A   1      46.787  26.166  35.726  1.00  0.00     0.006 A 
ENDBRANCH  52  66
BRANCH  53  74
ATOM     74  C   UNL A   1      37.035  31.325  29.179  1.00  0.00     0.057 A 
ATOM     75  C   UNL A   1      35.902  30.556  28.894  1.00  0.00     0.134 A 
ATOM     76  C   UNL A   1      37.053  32.645  28.711  1.00  0.00     0.134 A 
ATOM     77  F   UNL A   1      35.835  29.277  29.292  1.00  0.00    -0.206 F 
ATOM     78  C   UNL A   1      34.833  31.075  28.160  1.00  0.00     0.040 A 
ATOM     79  C   UNL A   1      35.981  33.185  28.000  1.00  0.00     0.040 A 
ATOM     80  F   UNL A   1      38.111  33.434  28.950  1.00  0.00    -0.206 F 
ATOM     81  C   UNL A   1      34.868  32.396  27.718  1.00  0.00     0.006 A 
ENDBRANCH  53  74
BRANCH  65  82
ATOM     82  C   UNL A   1      39.288  32.047  35.729  1.00  0.00     0.057 A 
ATOM     83  C   UNL A   1      38.337  31.578  36.643  1.00  0.00     0.134 A 
ATOM     84  C   UNL A   1      39.822  33.325  35.943  1.00  0.00     0.134 A 
ATOM     85  F   UNL A   1      37.781  30.367  36.484  1.00  0.00    -0.206 F 
ATOM     86  C   UNL A   1      37.918  32.359  37.720  1.00  0.00     0.040 A 
ATOM     87  C   UNL A   1      39.428  34.105  37.029  1.00  0.00     0.040 A 
ATOM     88  F   UNL A   1      40.743  33.827  35.107  1.00  0.00    -0.206 F 
ATOM     89  C   UNL A   1      38.469  33.624  37.919  1.00  0.00     0.006 A 
ENDBRANCH  65  82
ENDBRANCH  39  40
ENDBRANCH  32  34
ENDBRANCH  31  32
ENDBRANCH  30  31
ENDBRANCH  29  30
ENDBRANCH  28  29
ENDBRANCH   1  28
TORSDOF 19
ENDMDL
