MODEL 1
REMARK VINA RESULT:     -11.2      0.000      0.000
REMARK SMILES Cc1ccc(CNc2ccc(C(=O)OCCOCCOC(=O)c3ccc(-c4c5nc(c(-c6c(F)cccc6F)c6ccc([nH]6)c(-c6c(F)cccc6F)c6nc(c(-c7c(F)cccc7F)c7ccc4[nH]7)C=C6)C=C5)cc3)cc2Br)cc1
REMARK SMILES IDX 16 1 15 2 14 3 12 4 13 5 11 6 8 7 9 8 78 9 10 10 77 11 79 12
REMARK SMILES IDX 7 13 6 15 5 16 1 17 2 18 3 19 81 20 4 21 80 22 17 23 18 24
REMARK SMILES IDX 19 25 20 26 21 27 22 28 23 29 24 30 76 31 25 32 75 33 26 34
REMARK SMILES IDX 27 35 28 36 69 37 29 38 74 39 68 40 70 41 30 42 73 43 67 44
REMARK SMILES IDX 66 45 31 47 57 48 40 49 56 50 41 51 44 52 55 53 71 54 42 55
REMARK SMILES IDX 43 56 54 58 72 59 45 60 32 61 33 62 38 63 34 64 35 65 37 66
REMARK SMILES IDX 39 67 36 68 58 69 59 70 64 71 60 72 61 73 63 74 65 75 62 76
REMARK SMILES IDX 46 77 47 78 52 79 48 80 49 81 51 82 53 83 50 84
REMARK H PARENT 7 14 70 46 44 57
REMARK Flexibility Score: inf
ROOT
ATOM      1  C   UNL A   1      33.182  37.144  29.831  1.00  0.00     0.202 C 
ENDROOT
BRANCH   1   2
ATOM      2  C   UNL A   1      32.659  35.762  29.963  1.00  0.00     0.261 C 
BRANCH   2   3
ATOM      3  O   UNL A   1      32.687  35.098  28.704  1.00  0.00    -0.460 OA
BRANCH   3   4
ATOM      4  C   UNL A   1      33.856  34.516  28.313  1.00  0.00     0.338 C 
ATOM      5  O   UNL A   1      34.989  34.889  28.488  1.00  0.00    -0.246 OA
BRANCH   4   6
ATOM      6  C   UNL A   1      33.448  33.211  27.765  1.00  0.00     0.061 A 
ATOM      7  C   UNL A   1      32.564  30.708  26.957  1.00  0.00     0.049 A 
ATOM      8  C   UNL A   1      31.705  31.808  26.899  1.00  0.00     0.028 A 
ATOM      9  C   UNL A   1      33.855  30.865  27.496  1.00  0.00     0.042 A 
ATOM     10  C   UNL A   1      32.157  33.057  27.246  1.00  0.00     0.018 A 
ATOM     11  C   UNL A   1      34.304  32.120  27.901  1.00  0.00     0.033 A 
ATOM     12  Br  UNL A   1      35.039  29.390  27.661  1.00  0.00    -0.049 Br
BRANCH   7  13
ATOM     13  N   UNL A   1      32.158  29.539  26.310  1.00  0.00    -0.380 N 
ATOM     14  H   UNL A   1      32.392  28.641  26.638  1.00  0.00     0.160 HD
BRANCH  13  15
ATOM     15  C   UNL A   1      31.359  29.759  25.110  1.00  0.00     0.148 C 
BRANCH  15  16
ATOM     16  C   UNL A   1      31.669  28.684  24.112  1.00  0.00    -0.029 A 
ATOM     17  C   UNL A   1      32.647  25.763  21.123  1.00  0.00     0.044 C 
ATOM     18  C   UNL A   1      32.301  26.762  22.181  1.00  0.00    -0.051 A 
ATOM     19  C   UNL A   1      30.992  27.245  22.284  1.00  0.00     0.004 A 
ATOM     20  C   UNL A   1      33.283  27.235  23.060  1.00  0.00     0.004 A 
ATOM     21  C   UNL A   1      30.675  28.196  23.250  1.00  0.00     0.006 A 
ATOM     22  C   UNL A   1      32.971  28.192  24.018  1.00  0.00     0.006 A 
ENDBRANCH  15  16
ENDBRANCH  13  15
ENDBRANCH   7  13
ENDBRANCH   4   6
ENDBRANCH   3   4
ENDBRANCH   2   3
ENDBRANCH   1   2
BRANCH   1  23
ATOM     23  O   UNL A   1      33.131  37.671  31.147  1.00  0.00    -0.374 OA
BRANCH  23  24
ATOM     24  C   UNL A   1      32.890  36.720  32.159  1.00  0.00     0.202 C 
BRANCH  24  25
ATOM     25  C   UNL A   1      34.121  36.481  33.047  1.00  0.00     0.261 C 
BRANCH  25  26
ATOM     26  O   UNL A   1      34.923  35.415  32.485  1.00  0.00    -0.460 OA
BRANCH  26  27
ATOM     27  C   UNL A   1      34.370  34.167  32.448  1.00  0.00     0.338 C 
ATOM     28  O   UNL A   1      33.421  33.792  33.119  1.00  0.00    -0.246 OA
BRANCH  27  29
ATOM     29  C   UNL A   1      35.288  33.229  31.726  1.00  0.00     0.060 A 
ATOM     30  C   UNL A   1      35.183  31.836  31.928  1.00  0.00     0.016 A 
ATOM     31  C   UNL A   1      36.452  33.757  31.178  1.00  0.00     0.016 A 
ATOM     32  C   UNL A   1      36.306  31.004  31.760  1.00  0.00     0.010 A 
ATOM     33  C   UNL A   1      37.575  32.959  31.127  1.00  0.00     0.010 A 
ATOM     34  C   UNL A   1      37.532  31.588  31.457  1.00  0.00    -0.014 A 
BRANCH  34  35
ATOM     35  C   UNL A   1      38.860  30.958  31.556  1.00  0.00     0.031 A 
ATOM     36  C   UNL A   1      39.126  29.826  30.643  1.00  0.00     0.074 A 
ATOM     37  C   UNL A   1      39.902  31.548  32.201  1.00  0.00     0.049 A 
ATOM     38  N   UNL A   1      40.167  29.078  30.705  1.00  0.00    -0.248 NA
ATOM     39  C   UNL A   1      38.196  29.400  29.601  1.00  0.00     0.031 C 
ATOM     40  C   UNL A   1      41.339  31.413  31.937  1.00  0.00     0.029 A 
ATOM     41  N   UNL A   1      39.890  32.461  33.260  1.00  0.00    -0.354 N 
ATOM     42  C   UNL A   1      40.222  28.336  29.547  1.00  0.00     0.074 A 
ATOM     43  C   UNL A   1      38.911  28.467  28.972  1.00  0.00     0.031 C 
ATOM     44  C   UNL A   1      42.046  31.955  32.949  1.00  0.00     0.029 A 
ATOM     45  C   UNL A   1      41.095  32.355  33.970  1.00  0.00     0.049 A 
ATOM     46  H   UNL A   1      39.154  33.079  33.473  1.00  0.00     0.167 HD
ATOM     47  C   UNL A   1      41.431  27.828  29.175  1.00  0.00     0.037 A 
ATOM     48  C   UNL A   1      41.086  32.071  35.299  1.00  0.00     0.037 A 
ATOM     49  C   UNL A   1      42.427  28.093  30.232  1.00  0.00     0.049 A 
ATOM     50  C   UNL A   1      41.724  30.723  35.446  1.00  0.00     0.074 A 
ATOM     51  C   UNL A   1      43.465  29.003  30.350  1.00  0.00     0.029 A 
ATOM     52  N   UNL A   1      42.194  27.609  31.524  1.00  0.00    -0.354 N 
ATOM     53  N   UNL A   1      41.778  29.879  34.451  1.00  0.00    -0.248 NA
ATOM     54  C   UNL A   1      42.448  30.261  36.621  1.00  0.00     0.031 C 
ATOM     55  C   UNL A   1      43.795  29.116  31.734  1.00  0.00     0.029 A 
ATOM     56  C   UNL A   1      42.982  28.256  32.460  1.00  0.00     0.049 A 
ATOM     57  H   UNL A   1      41.550  26.897  31.740  1.00  0.00     0.167 HD
ATOM     58  C   UNL A   1      42.603  28.853  34.774  1.00  0.00     0.074 A 
ATOM     59  C   UNL A   1      42.959  29.103  36.162  1.00  0.00     0.031 C 
ATOM     60  C   UNL A   1      42.929  27.885  33.875  1.00  0.00     0.037 A 
BRANCH  47  61
ATOM     61  C   UNL A   1      41.789  27.298  27.791  1.00  0.00     0.057 A 
ATOM     62  C   UNL A   1      41.946  25.911  27.587  1.00  0.00     0.134 A 
ATOM     63  C   UNL A   1      42.044  28.061  26.631  1.00  0.00     0.134 A 
ATOM     64  F   UNL A   1      41.714  25.026  28.565  1.00  0.00    -0.206 F 
ATOM     65  C   UNL A   1      42.352  25.349  26.363  1.00  0.00     0.040 A 
ATOM     66  C   UNL A   1      42.452  27.514  25.405  1.00  0.00     0.040 A 
ATOM     67  F   UNL A   1      41.906  29.384  26.583  1.00  0.00    -0.206 F 
ATOM     68  C   UNL A   1      42.614  26.151  25.265  1.00  0.00     0.006 A 
ENDBRANCH  47  61
BRANCH  48  69
ATOM     69  C   UNL A   1      39.868  32.642  35.958  1.00  0.00     0.057 A 
ATOM     70  C   UNL A   1      38.825  31.738  36.266  1.00  0.00     0.134 A 
ATOM     71  C   UNL A   1      39.934  33.803  36.739  1.00  0.00     0.134 A 
ATOM     72  F   UNL A   1      38.708  30.588  35.581  1.00  0.00    -0.206 F 
ATOM     73  C   UNL A   1      37.997  31.902  37.385  1.00  0.00     0.040 A 
ATOM     74  C   UNL A   1      39.111  33.972  37.864  1.00  0.00     0.040 A 
ATOM     75  F   UNL A   1      40.898  34.709  36.528  1.00  0.00    -0.206 F 
ATOM     76  C   UNL A   1      38.175  32.999  38.219  1.00  0.00     0.006 A 
ENDBRANCH  48  69
BRANCH  60  77
ATOM     77  C   UNL A   1      43.286  26.495  34.305  1.00  0.00     0.057 A 
ATOM     78  C   UNL A   1      42.353  25.606  34.863  1.00  0.00     0.134 A 
ATOM     79  C   UNL A   1      44.540  25.940  33.987  1.00  0.00     0.134 A 
ATOM     80  F   UNL A   1      41.078  25.956  35.078  1.00  0.00    -0.206 F 
ATOM     81  C   UNL A   1      42.674  24.285  35.173  1.00  0.00     0.040 A 
ATOM     82  C   UNL A   1      44.845  24.600  34.220  1.00  0.00     0.040 A 
ATOM     83  F   UNL A   1      45.508  26.659  33.399  1.00  0.00    -0.206 F 
ATOM     84  C   UNL A   1      43.919  23.774  34.841  1.00  0.00     0.006 A 
ENDBRANCH  60  77
ENDBRANCH  34  35
ENDBRANCH  27  29
ENDBRANCH  26  27
ENDBRANCH  25  26
ENDBRANCH  24  25
ENDBRANCH  23  24
ENDBRANCH   1  23
TORSDOF 17
ENDMDL
MODEL 2
REMARK VINA RESULT:     -11.1      3.787      5.910
REMARK SMILES Cc1ccc(CNc2ccc(C(=O)OCCOCCOC(=O)c3ccc(-c4c5nc(c(-c6c(F)cccc6F)c6ccc([nH]6)c(-c6c(F)cccc6F)c6nc(c(-c7c(F)cccc7F)c7ccc4[nH]7)C=C6)C=C5)cc3)cc2Br)cc1
REMARK SMILES IDX 16 1 15 2 14 3 12 4 13 5 11 6 8 7 9 8 78 9 10 10 77 11 79 12
REMARK SMILES IDX 7 13 6 15 5 16 1 17 2 18 3 19 81 20 4 21 80 22 17 23 18 24
REMARK SMILES IDX 19 25 20 26 21 27 22 28 23 29 24 30 76 31 25 32 75 33 26 34
REMARK SMILES IDX 27 35 28 36 69 37 29 38 74 39 68 40 70 41 30 42 73 43 67 44
REMARK SMILES IDX 66 45 31 47 57 48 40 49 56 50 41 51 44 52 55 53 71 54 42 55
REMARK SMILES IDX 43 56 54 58 72 59 45 60 32 61 33 62 38 63 34 64 35 65 37 66
REMARK SMILES IDX 39 67 36 68 58 69 59 70 64 71 60 72 61 73 63 74 65 75 62 76
REMARK SMILES IDX 46 77 47 78 52 79 48 80 49 81 51 82 53 83 50 84
REMARK H PARENT 7 14 70 46 44 57
REMARK Flexibility Score: inf
ROOT
ATOM      1  C   UNL A   1      31.524  29.923  25.533  1.00  0.00     0.202 C 
ENDROOT
BRANCH   1   2
ATOM      2  C   UNL A   1      31.659  29.210  24.239  1.00  0.00     0.261 C 
BRANCH   2   3
ATOM      3  O   UNL A   1      30.891  28.011  24.251  1.00  0.00    -0.460 OA
BRANCH   3   4
ATOM      4  C   UNL A   1      30.681  27.374  23.064  1.00  0.00     0.338 C 
ATOM      5  O   UNL A   1      30.286  27.824  22.017  1.00  0.00    -0.246 OA
BRANCH   4   6
ATOM      6  C   UNL A   1      31.213  26.017  23.278  1.00  0.00     0.061 A 
ATOM      7  C   UNL A   1      32.024  23.376  23.534  1.00  0.00     0.049 A 
ATOM      8  C   UNL A   1      32.362  24.106  22.393  1.00  0.00     0.028 A 
ATOM      9  C   UNL A   1      31.208  23.968  24.518  1.00  0.00     0.042 A 
ATOM     10  C   UNL A   1      32.009  25.429  22.288  1.00  0.00     0.018 A 
ATOM     11  C   UNL A   1      30.800  25.293  24.394  1.00  0.00     0.033 A 
ATOM     12  Br  UNL A   1      30.663  22.999  26.057  1.00  0.00    -0.049 Br
BRANCH   7  13
ATOM     13  N   UNL A   1      32.662  22.149  23.727  1.00  0.00    -0.380 N 
ATOM     14  H   UNL A   1      33.392  22.025  24.376  1.00  0.00     0.160 HD
BRANCH  13  15
ATOM     15  C   UNL A   1      32.157  21.067  22.889  1.00  0.00     0.148 C 
BRANCH  15  16
ATOM     16  C   UNL A   1      32.478  19.755  23.538  1.00  0.00    -0.029 A 
ATOM     17  C   UNL A   1      33.177  15.944  25.387  1.00  0.00     0.044 C 
ATOM     18  C   UNL A   1      32.958  17.275  24.739  1.00  0.00    -0.051 A 
ATOM     19  C   UNL A   1      32.899  18.432  25.524  1.00  0.00     0.004 A 
ATOM     20  C   UNL A   1      32.793  17.372  23.352  1.00  0.00     0.004 A 
ATOM     21  C   UNL A   1      32.667  19.668  24.926  1.00  0.00     0.006 A 
ATOM     22  C   UNL A   1      32.551  18.604  22.755  1.00  0.00     0.006 A 
ENDBRANCH  15  16
ENDBRANCH  13  15
ENDBRANCH   7  13
ENDBRANCH   4   6
ENDBRANCH   3   4
ENDBRANCH   2   3
ENDBRANCH   1   2
BRANCH   1  23
ATOM     23  O   UNL A   1      31.898  28.964  26.509  1.00  0.00    -0.374 OA
BRANCH  23  24
ATOM     24  C   UNL A   1      32.953  29.358  27.356  1.00  0.00     0.202 C 
BRANCH  24  25
ATOM     25  C   UNL A   1      33.366  30.822  27.139  1.00  0.00     0.261 C 
BRANCH  25  26
ATOM     26  O   UNL A   1      34.071  31.303  28.308  1.00  0.00    -0.460 OA
BRANCH  26  27
ATOM     27  C   UNL A   1      35.396  31.598  28.165  1.00  0.00     0.338 C 
ATOM     28  O   UNL A   1      35.846  32.637  27.706  1.00  0.00    -0.246 OA
BRANCH  27  29
ATOM     29  C   UNL A   1      36.211  30.353  28.331  1.00  0.00     0.060 A 
ATOM     30  C   UNL A   1      36.288  29.716  29.589  1.00  0.00     0.016 A 
ATOM     31  C   UNL A   1      37.163  30.067  27.358  1.00  0.00     0.016 A 
ATOM     32  C   UNL A   1      37.417  28.949  29.932  1.00  0.00     0.010 A 
ATOM     33  C   UNL A   1      38.316  29.414  27.739  1.00  0.00     0.010 A 
ATOM     34  C   UNL A   1      38.480  28.885  29.036  1.00  0.00    -0.014 A 
BRANCH  34  35
ATOM     35  C   UNL A   1      39.850  28.422  29.321  1.00  0.00     0.031 A 
ATOM     36  C   UNL A   1      40.229  27.101  28.777  1.00  0.00     0.074 A 
ATOM     37  C   UNL A   1      40.823  29.257  29.774  1.00  0.00     0.049 A 
ATOM     38  N   UNL A   1      41.323  26.492  29.060  1.00  0.00    -0.248 NA
ATOM     39  C   UNL A   1      39.367  26.317  27.899  1.00  0.00     0.031 C 
ATOM     40  C   UNL A   1      42.274  29.172  29.568  1.00  0.00     0.029 A 
ATOM     41  N   UNL A   1      40.709  30.434  30.522  1.00  0.00    -0.354 N 
ATOM     42  C   UNL A   1      41.470  25.455  28.167  1.00  0.00     0.074 A 
ATOM     43  C   UNL A   1      40.170  25.305  27.571  1.00  0.00     0.031 C 
ATOM     44  C   UNL A   1      42.906  30.040  30.383  1.00  0.00     0.029 A 
ATOM     45  C   UNL A   1      41.897  30.636  31.239  1.00  0.00     0.049 A 
ATOM     46  H   UNL A   1      39.922  31.023  30.542  1.00  0.00     0.167 HD
ATOM     47  C   UNL A   1      42.725  24.963  27.964  1.00  0.00     0.037 A 
ATOM     48  C   UNL A   1      41.871  30.749  32.593  1.00  0.00     0.037 A 
ATOM     49  C   UNL A   1      43.666  25.603  28.905  1.00  0.00     0.049 A 
ATOM     50  C   UNL A   1      42.607  29.559  33.129  1.00  0.00     0.074 A 
ATOM     51  C   UNL A   1      44.626  26.592  28.760  1.00  0.00     0.029 A 
ATOM     52  N   UNL A   1      43.433  25.496  30.281  1.00  0.00    -0.354 N 
ATOM     53  N   UNL A   1      42.757  28.470  32.422  1.00  0.00    -0.248 NA
ATOM     54  C   UNL A   1      43.331  29.517  34.391  1.00  0.00     0.031 C 
ATOM     55  C   UNL A   1      44.906  27.126  30.053  1.00  0.00     0.029 A 
ATOM     56  C   UNL A   1      44.141  26.448  30.993  1.00  0.00     0.049 A 
ATOM     57  H   UNL A   1      42.841  24.824  30.690  1.00  0.00     0.167 HD
ATOM     58  C   UNL A   1      43.648  27.654  33.032  1.00  0.00     0.074 A 
ATOM     59  C   UNL A   1      43.943  28.322  34.290  1.00  0.00     0.031 C 
ATOM     60  C   UNL A   1      44.075  26.498  32.455  1.00  0.00     0.037 A 
BRANCH  47  61
ATOM     61  C   UNL A   1      43.164  24.088  26.796  1.00  0.00     0.057 A 
ATOM     62  C   UNL A   1      42.949  22.694  26.840  1.00  0.00     0.134 A 
ATOM     63  C   UNL A   1      43.837  24.508  25.629  1.00  0.00     0.134 A 
ATOM     64  F   UNL A   1      42.295  22.116  27.855  1.00  0.00    -0.206 F 
ATOM     65  C   UNL A   1      43.394  21.810  25.841  1.00  0.00     0.040 A 
ATOM     66  C   UNL A   1      44.289  23.637  24.626  1.00  0.00     0.040 A 
ATOM     67  F   UNL A   1      44.098  25.784  25.356  1.00  0.00    -0.206 F 
ATOM     68  C   UNL A   1      44.074  22.278  24.729  1.00  0.00     0.006 A 
ENDBRANCH  47  61
BRANCH  48  69
ATOM     69  C   UNL A   1      40.594  31.383  33.051  1.00  0.00     0.057 A 
ATOM     70  C   UNL A   1      40.469  32.779  32.862  1.00  0.00     0.134 A 
ATOM     71  C   UNL A   1      39.399  30.657  33.119  1.00  0.00     0.134 A 
ATOM     72  F   UNL A   1      41.569  33.545  32.761  1.00  0.00    -0.206 F 
ATOM     73  C   UNL A   1      39.237  33.392  32.595  1.00  0.00     0.040 A 
ATOM     74  C   UNL A   1      38.161  31.263  32.848  1.00  0.00     0.040 A 
ATOM     75  F   UNL A   1      39.421  29.326  33.282  1.00  0.00    -0.206 F 
ATOM     76  C   UNL A   1      38.082  32.621  32.536  1.00  0.00     0.006 A 
ENDBRANCH  48  69
BRANCH  60  77
ATOM     77  C   UNL A   1      44.526  25.326  33.271  1.00  0.00     0.057 A 
ATOM     78  C   UNL A   1      45.847  24.848  33.257  1.00  0.00     0.134 A 
ATOM     79  C   UNL A   1      43.686  24.761  34.251  1.00  0.00     0.134 A 
ATOM     80  F   UNL A   1      46.792  25.396  32.481  1.00  0.00    -0.206 F 
ATOM     81  C   UNL A   1      46.276  23.817  34.090  1.00  0.00     0.040 A 
ATOM     82  C   UNL A   1      44.129  23.785  35.141  1.00  0.00     0.040 A 
ATOM     83  F   UNL A   1      42.417  25.161  34.415  1.00  0.00    -0.206 F 
ATOM     84  C   UNL A   1      45.420  23.289  35.045  1.00  0.00     0.006 A 
ENDBRANCH  60  77
ENDBRANCH  34  35
ENDBRANCH  27  29
ENDBRANCH  26  27
ENDBRANCH  25  26
ENDBRANCH  24  25
ENDBRANCH  23  24
ENDBRANCH   1  23
TORSDOF 17
ENDMDL
MODEL 3
REMARK VINA RESULT:     -11.0      4.296      6.209
REMARK SMILES Cc1ccc(CNc2ccc(C(=O)OCCOCCOC(=O)c3ccc(-c4c5nc(c(-c6c(F)cccc6F)c6ccc([nH]6)c(-c6c(F)cccc6F)c6nc(c(-c7c(F)cccc7F)c7ccc4[nH]7)C=C6)C=C5)cc3)cc2Br)cc1
REMARK SMILES IDX 16 1 15 2 14 3 12 4 13 5 11 6 8 7 9 8 78 9 10 10 77 11 79 12
REMARK SMILES IDX 7 13 6 15 5 16 1 17 2 18 3 19 81 20 4 21 80 22 17 23 18 24
REMARK SMILES IDX 19 25 20 26 21 27 22 28 23 29 24 30 76 31 25 32 75 33 26 34
REMARK SMILES IDX 27 35 28 36 69 37 29 38 74 39 68 40 70 41 30 42 73 43 67 44
REMARK SMILES IDX 66 45 31 47 57 48 40 49 56 50 41 51 44 52 55 53 71 54 42 55
REMARK SMILES IDX 43 56 54 58 72 59 45 60 32 61 33 62 38 63 34 64 35 65 37 66
REMARK SMILES IDX 39 67 36 68 58 69 59 70 64 71 60 72 61 73 63 74 65 75 62 76
REMARK SMILES IDX 46 77 47 78 52 79 48 80 49 81 51 82 53 83 50 84
REMARK H PARENT 7 14 70 46 44 57
REMARK Flexibility Score: inf
ROOT
ATOM      1  C   UNL A   1      31.753  28.081  26.967  1.00  0.00     0.202 C 
ENDROOT
BRANCH   1   2
ATOM      2  C   UNL A   1      32.099  26.710  26.518  1.00  0.00     0.261 C 
BRANCH   2   3
ATOM      3  O   UNL A   1      30.996  25.831  26.711  1.00  0.00    -0.460 OA
BRANCH   3   4
ATOM      4  C   UNL A   1      30.261  25.476  25.619  1.00  0.00     0.338 C 
ATOM      5  O   UNL A   1      29.364  26.073  25.077  1.00  0.00    -0.246 OA
BRANCH   4   6
ATOM      6  C   UNL A   1      30.920  24.259  25.115  1.00  0.00     0.061 A 
ATOM      7  C   UNL A   1      32.365  22.032  24.307  1.00  0.00     0.049 A 
ATOM      8  C   UNL A   1      31.709  22.033  25.540  1.00  0.00     0.028 A 
ATOM      9  C   UNL A   1      32.347  23.194  23.512  1.00  0.00     0.042 A 
ATOM     10  C   UNL A   1      30.949  23.112  25.919  1.00  0.00     0.018 A 
ATOM     11  C   UNL A   1      31.622  24.313  23.913  1.00  0.00     0.033 A 
ATOM     12  Br  UNL A   1      33.277  23.269  21.859  1.00  0.00    -0.049 Br
BRANCH   7  13
ATOM     13  N   UNL A   1      32.860  20.812  23.842  1.00  0.00    -0.380 N 
ATOM     14  H   UNL A   1      32.494  20.357  23.050  1.00  0.00     0.160 HD
BRANCH  13  15
ATOM     15  C   UNL A   1      33.963  20.269  24.626  1.00  0.00     0.148 C 
BRANCH  15  16
ATOM     16  C   UNL A   1      33.717  18.811  24.872  1.00  0.00    -0.029 A 
ATOM     17  C   UNL A   1      32.912  14.625  25.377  1.00  0.00     0.044 C 
ATOM     18  C   UNL A   1      33.209  16.083  25.221  1.00  0.00    -0.051 A 
ATOM     19  C   UNL A   1      32.397  17.032  25.853  1.00  0.00     0.004 A 
ATOM     20  C   UNL A   1      34.282  16.509  24.430  1.00  0.00     0.004 A 
ATOM     21  C   UNL A   1      32.655  18.389  25.686  1.00  0.00     0.006 A 
ATOM     22  C   UNL A   1      34.534  17.865  24.253  1.00  0.00     0.006 A 
ENDBRANCH  15  16
ENDBRANCH  13  15
ENDBRANCH   7  13
ENDBRANCH   4   6
ENDBRANCH   3   4
ENDBRANCH   2   3
ENDBRANCH   1   2
BRANCH   1  23
ATOM     23  O   UNL A   1      32.997  28.663  27.324  1.00  0.00    -0.374 OA
BRANCH  23  24
ATOM     24  C   UNL A   1      33.379  29.773  26.544  1.00  0.00     0.202 C 
BRANCH  24  25
ATOM     25  C   UNL A   1      33.396  31.080  27.349  1.00  0.00     0.261 C 
BRANCH  25  26
ATOM     26  O   UNL A   1      34.720  31.663  27.298  1.00  0.00    -0.460 OA
BRANCH  26  27
ATOM     27  C   UNL A   1      35.440  31.687  28.458  1.00  0.00     0.338 C 
ATOM     28  O   UNL A   1      35.617  32.669  29.162  1.00  0.00    -0.246 OA
BRANCH  27  29
ATOM     29  C   UNL A   1      36.256  30.437  28.572  1.00  0.00     0.060 A 
ATOM     30  C   UNL A   1      36.281  29.712  29.783  1.00  0.00     0.016 A 
ATOM     31  C   UNL A   1      37.254  30.226  27.626  1.00  0.00     0.016 A 
ATOM     32  C   UNL A   1      37.399  28.927  30.122  1.00  0.00     0.010 A 
ATOM     33  C   UNL A   1      38.393  29.552  28.012  1.00  0.00     0.010 A 
ATOM     34  C   UNL A   1      38.502  28.932  29.274  1.00  0.00    -0.014 A 
BRANCH  34  35
ATOM     35  C   UNL A   1      39.861  28.457  29.588  1.00  0.00     0.031 A 
ATOM     36  C   UNL A   1      40.249  27.144  29.030  1.00  0.00     0.074 A 
ATOM     37  C   UNL A   1      40.826  29.278  30.083  1.00  0.00     0.049 A 
ATOM     38  N   UNL A   1      41.331  26.523  29.331  1.00  0.00    -0.248 NA
ATOM     39  C   UNL A   1      39.407  26.381  28.113  1.00  0.00     0.031 C 
ATOM     40  C   UNL A   1      42.281  29.188  29.915  1.00  0.00     0.029 A 
ATOM     41  N   UNL A   1      40.697  30.440  30.850  1.00  0.00    -0.354 N 
ATOM     42  C   UNL A   1      41.497  25.503  28.423  1.00  0.00     0.074 A 
ATOM     43  C   UNL A   1      40.214  25.371  27.789  1.00  0.00     0.031 C 
ATOM     44  C   UNL A   1      42.895  30.036  30.764  1.00  0.00     0.029 A 
ATOM     45  C   UNL A   1      41.866  30.623  31.603  1.00  0.00     0.049 A 
ATOM     46  H   UNL A   1      39.912  31.034  30.860  1.00  0.00     0.167 HD
ATOM     47  C   UNL A   1      42.755  25.008  28.246  1.00  0.00     0.037 A 
ATOM     48  C   UNL A   1      41.803  30.710  32.958  1.00  0.00     0.037 A 
ATOM     49  C   UNL A   1      43.673  25.624  29.224  1.00  0.00     0.049 A 
ATOM     50  C   UNL A   1      42.518  29.506  33.491  1.00  0.00     0.074 A 
ATOM     51  C   UNL A   1      44.641  26.610  29.124  1.00  0.00     0.029 A 
ATOM     52  N   UNL A   1      43.402  25.492  30.591  1.00  0.00    -0.354 N 
ATOM     53  N   UNL A   1      42.681  28.430  32.768  1.00  0.00    -0.248 NA
ATOM     54  C   UNL A   1      43.206  29.436  34.772  1.00  0.00     0.031 C 
ATOM     55  C   UNL A   1      44.888  27.119  30.435  1.00  0.00     0.029 A 
ATOM     56  C   UNL A   1      44.094  26.427  31.340  1.00  0.00     0.049 A 
ATOM     57  H   UNL A   1      42.795  24.817  30.971  1.00  0.00     0.167 HD
ATOM     58  C   UNL A   1      43.551  27.597  33.387  1.00  0.00     0.074 A 
ATOM     59  C   UNL A   1      43.815  28.240  34.665  1.00  0.00     0.031 C 
ATOM     60  C   UNL A   1      43.988  26.450  32.800  1.00  0.00     0.037 A 
BRANCH  47  61
ATOM     61  C   UNL A   1      43.222  24.152  27.074  1.00  0.00     0.057 A 
ATOM     62  C   UNL A   1      43.816  24.761  25.949  1.00  0.00     0.134 A 
ATOM     63  C   UNL A   1      43.086  22.753  26.940  1.00  0.00     0.134 A 
ATOM     64  F   UNL A   1      44.057  26.077  25.908  1.00  0.00    -0.206 F 
ATOM     65  C   UNL A   1      44.199  24.052  24.796  1.00  0.00     0.040 A 
ATOM     66  C   UNL A   1      43.462  22.033  25.795  1.00  0.00     0.040 A 
ATOM     67  F   UNL A   1      42.598  21.972  27.900  1.00  0.00    -0.206 F 
ATOM     68  C   UNL A   1      44.018  22.682  24.711  1.00  0.00     0.006 A 
ENDBRANCH  47  61
BRANCH  48  69
ATOM     69  C   UNL A   1      40.517  31.342  33.393  1.00  0.00     0.057 A 
ATOM     70  C   UNL A   1      40.409  32.745  33.236  1.00  0.00     0.134 A 
ATOM     71  C   UNL A   1      39.315  30.625  33.403  1.00  0.00     0.134 A 
ATOM     72  F   UNL A   1      41.517  33.503  33.190  1.00  0.00    -0.206 F 
ATOM     73  C   UNL A   1      39.190  33.375  32.947  1.00  0.00     0.040 A 
ATOM     74  C   UNL A   1      38.090  31.249  33.110  1.00  0.00     0.040 A 
ATOM     75  F   UNL A   1      39.321  29.291  33.531  1.00  0.00    -0.206 F 
ATOM     76  C   UNL A   1      38.032  32.615  32.832  1.00  0.00     0.006 A 
ENDBRANCH  48  69
BRANCH  60  77
ATOM     77  C   UNL A   1      44.410  25.260  33.606  1.00  0.00     0.057 A 
ATOM     78  C   UNL A   1      43.539  24.573  34.467  1.00  0.00     0.134 A 
ATOM     79  C   UNL A   1      45.660  24.647  33.391  1.00  0.00     0.134 A 
ATOM     80  F   UNL A   1      42.268  24.959  34.648  1.00  0.00    -0.206 F 
ATOM     81  C   UNL A   1      43.916  23.412  35.140  1.00  0.00     0.040 A 
ATOM     82  C   UNL A   1      46.016  23.445  33.998  1.00  0.00     0.040 A 
ATOM     83  F   UNL A   1      46.570  25.163  32.552  1.00  0.00    -0.206 F 
ATOM     84  C   UNL A   1      45.154  22.837  34.898  1.00  0.00     0.006 A 
ENDBRANCH  60  77
ENDBRANCH  34  35
ENDBRANCH  27  29
ENDBRANCH  26  27
ENDBRANCH  25  26
ENDBRANCH  24  25
ENDBRANCH  23  24
ENDBRANCH   1  23
TORSDOF 17
ENDMDL
