MODEL 1
REMARK VINA RESULT:     -12.1      0.000      0.000
REMARK SMILES CC(C)(C)c1cc(Nc2ccccc2C(=O)OCCOCCOC(=O)c2ccc(-c3c4nc(c(-c5c(F)cccc5F)c5ccc([nH]5)c(-c5c(F)cccc5F)c5nc(c(-c6c(F)cccc6F)c6ccc3[nH]6)C=C5)C=C4)cc2)cc2c1OCC2(C)C
REMARK SMILES IDX 19 1 18 2 17 3 15 4 16 5 14 6 9 7 10 8 11 9 13 10 12 11 8 12
REMARK SMILES IDX 7 14 5 15 6 16 82 17 81 18 83 19 80 20 85 21 84 22 86 23
REMARK SMILES IDX 87 24 2 25 1 26 3 27 4 28 20 29 21 30 22 31 23 32 24 33
REMARK SMILES IDX 25 34 26 35 27 36 79 37 28 38 78 39 29 40 30 41 31 42 72 43
REMARK SMILES IDX 32 44 77 45 71 46 73 47 33 48 76 49 70 50 69 51 34 53 60 54
REMARK SMILES IDX 43 55 59 56 44 57 47 58 58 59 74 60 45 61 46 62 57 64 75 65
REMARK SMILES IDX 48 66 35 67 36 68 41 69 37 70 38 71 40 72 42 73 39 74 61 75
REMARK SMILES IDX 62 76 67 77 63 78 64 79 66 80 68 81 65 82 49 83 50 84 55 85
REMARK SMILES IDX 51 86 52 87 54 88 56 89 53 90
REMARK H PARENT 8 13 73 52 47 63
REMARK Flexibility Score: inf
ROOT
ATOM      1  C   UNL A   1      43.346  19.291  25.303  1.00  0.00     0.202 C 
ENDROOT
BRANCH   1   2
ATOM      2  C   UNL A   1      42.243  19.090  26.343  1.00  0.00     0.261 C 
BRANCH   2   3
ATOM      3  O   UNL A   1      41.468  20.290  26.506  1.00  0.00    -0.460 OA
BRANCH   3   4
ATOM      4  C   UNL A   1      40.195  20.193  26.056  1.00  0.00     0.340 C 
ATOM      5  O   UNL A   1      39.627  19.157  25.742  1.00  0.00    -0.246 OA
BRANCH   4   6
ATOM      6  C   UNL A   1      39.478  21.492  26.113  1.00  0.00     0.083 A 
ATOM      7  C   UNL A   1      38.186  21.748  25.616  1.00  0.00     0.053 A 
ATOM      8  C   UNL A   1      37.630  23.013  25.912  1.00  0.00     0.027 A 
ATOM      9  C   UNL A   1      38.370  24.033  26.515  1.00  0.00     0.002 A 
ATOM     10  C   UNL A   1      40.225  22.533  26.709  1.00  0.00     0.018 A 
ATOM     11  C   UNL A   1      39.687  23.805  26.877  1.00  0.00     0.001 A 
BRANCH   7  12
ATOM     12  N   UNL A   1      37.492  20.879  24.732  1.00  0.00    -0.355 N 
ATOM     13  H   UNL A   1      38.030  20.473  24.016  1.00  0.00     0.167 HD
BRANCH  12  14
ATOM     14  C   UNL A   1      36.118  20.525  24.756  1.00  0.00     0.039 A 
ATOM     15  C   UNL A   1      33.714  21.197  24.601  1.00  0.00     0.002 A 
ATOM     16  C   UNL A   1      35.104  21.513  24.701  1.00  0.00     0.034 A 
ATOM     17  C   UNL A   1      33.408  19.838  24.546  1.00  0.00     0.127 A 
ATOM     18  C   UNL A   1      34.385  18.858  24.618  1.00  0.00     0.006 A 
ATOM     19  O   UNL A   1      32.154  19.303  24.404  1.00  0.00    -0.492 OA
ATOM     20  C   UNL A   1      35.722  19.186  24.748  1.00  0.00     0.034 A 
ATOM     21  C   UNL A   1      33.795  17.500  24.450  1.00  0.00     0.028 C 
ATOM     22  C   UNL A   1      32.307  17.874  24.555  1.00  0.00     0.240 C 
ATOM     23  C   UNL A   1      34.147  16.941  23.067  1.00  0.00     0.020 C 
ATOM     24  C   UNL A   1      34.214  16.521  25.548  1.00  0.00     0.020 C 
BRANCH  15  25
ATOM     25  C   UNL A   1      32.636  22.301  24.668  1.00  0.00    -0.009 C 
ATOM     26  C   UNL A   1      31.586  22.165  25.794  1.00  0.00     0.016 C 
ATOM     27  C   UNL A   1      31.857  22.466  23.347  1.00  0.00     0.016 C 
ATOM     28  C   UNL A   1      33.378  23.606  24.948  1.00  0.00     0.016 C 
ENDBRANCH  15  25
ENDBRANCH  12  14
ENDBRANCH   7  12
ENDBRANCH   4   6
ENDBRANCH   3   4
ENDBRANCH   2   3
ENDBRANCH   1   2
BRANCH   1  29
ATOM     29  O   UNL A   1      43.849  20.615  25.142  1.00  0.00    -0.374 OA
BRANCH  29  30
ATOM     30  C   UNL A   1      45.244  20.813  25.380  1.00  0.00     0.202 C 
BRANCH  30  31
ATOM     31  C   UNL A   1      45.796  22.231  25.178  1.00  0.00     0.261 C 
BRANCH  31  32
ATOM     32  O   UNL A   1      45.253  23.176  26.118  1.00  0.00    -0.460 OA
BRANCH  32  33
ATOM     33  C   UNL A   1      44.530  24.191  25.583  1.00  0.00     0.338 C 
ATOM     34  O   UNL A   1      44.247  24.369  24.408  1.00  0.00    -0.246 OA
BRANCH  33  35
ATOM     35  C   UNL A   1      43.957  24.983  26.685  1.00  0.00     0.060 A 
ATOM     36  C   UNL A   1      44.222  26.342  26.768  1.00  0.00     0.016 A 
ATOM     37  C   UNL A   1      43.141  24.361  27.642  1.00  0.00     0.016 A 
ATOM     38  C   UNL A   1      43.668  27.066  27.822  1.00  0.00     0.010 A 
ATOM     39  C   UNL A   1      42.620  25.093  28.718  1.00  0.00     0.010 A 
ATOM     40  C   UNL A   1      42.888  26.461  28.833  1.00  0.00    -0.014 A 
BRANCH  40  41
ATOM     41  C   UNL A   1      42.354  27.292  29.960  1.00  0.00     0.031 A 
ATOM     42  C   UNL A   1      43.042  27.373  31.307  1.00  0.00     0.074 A 
ATOM     43  C   UNL A   1      41.287  28.085  29.735  1.00  0.00     0.049 A 
ATOM     44  N   UNL A   1      42.742  28.119  32.346  1.00  0.00    -0.248 NA
ATOM     45  C   UNL A   1      44.235  26.537  31.507  1.00  0.00     0.031 C 
ATOM     46  C   UNL A   1      40.542  28.150  28.476  1.00  0.00     0.029 A 
ATOM     47  N   UNL A   1      40.666  29.011  30.536  1.00  0.00    -0.354 N 
ATOM     48  C   UNL A   1      43.705  27.850  33.314  1.00  0.00     0.074 A 
ATOM     49  C   UNL A   1      44.589  26.852  32.747  1.00  0.00     0.031 C 
ATOM     50  C   UNL A   1      39.607  29.104  28.569  1.00  0.00     0.029 A 
ATOM     51  C   UNL A   1      39.622  29.657  29.919  1.00  0.00     0.049 A 
ATOM     52  H   UNL A   1      40.942  29.195  31.462  1.00  0.00     0.167 HD
ATOM     53  C   UNL A   1      43.848  28.385  34.555  1.00  0.00     0.037 A 
ATOM     54  C   UNL A   1      38.743  30.564  30.385  1.00  0.00     0.037 A 
ATOM     55  C   UNL A   1      42.968  29.372  35.136  1.00  0.00     0.049 A 
ATOM     56  C   UNL A   1      38.844  31.033  31.807  1.00  0.00     0.074 A 
ATOM     57  C   UNL A   1      43.040  29.964  36.389  1.00  0.00     0.029 A 
ATOM     58  N   UNL A   1      41.845  29.901  34.519  1.00  0.00    -0.354 N 
ATOM     59  N   UNL A   1      39.758  30.765  32.704  1.00  0.00    -0.248 NA
ATOM     60  C   UNL A   1      37.774  31.921  32.283  1.00  0.00     0.031 C 
ATOM     61  C   UNL A   1      41.927  30.795  36.553  1.00  0.00     0.029 A 
ATOM     62  C   UNL A   1      41.194  30.773  35.380  1.00  0.00     0.049 A 
ATOM     63  H   UNL A   1      41.553  29.689  33.602  1.00  0.00     0.167 HD
ATOM     64  C   UNL A   1      39.381  31.460  33.848  1.00  0.00     0.074 A 
ATOM     65  C   UNL A   1      38.174  32.186  33.518  1.00  0.00     0.031 C 
ATOM     66  C   UNL A   1      39.982  31.484  35.063  1.00  0.00     0.037 A 
BRANCH  53  67
ATOM     67  C   UNL A   1      44.985  27.889  35.407  1.00  0.00     0.057 A 
ATOM     68  C   UNL A   1      44.818  26.770  36.237  1.00  0.00     0.134 A 
ATOM     69  C   UNL A   1      46.219  28.550  35.463  1.00  0.00     0.134 A 
ATOM     70  F   UNL A   1      43.657  26.099  36.248  1.00  0.00    -0.206 F 
ATOM     71  C   UNL A   1      45.832  26.331  37.091  1.00  0.00     0.040 A 
ATOM     72  C   UNL A   1      47.251  28.104  36.295  1.00  0.00     0.040 A 
ATOM     73  F   UNL A   1      46.449  29.626  34.696  1.00  0.00    -0.206 F 
ATOM     74  C   UNL A   1      47.055  26.996  37.117  1.00  0.00     0.006 A 
ENDBRANCH  53  67
BRANCH  54  75
ATOM     75  C   UNL A   1      37.639  31.040  29.511  1.00  0.00     0.057 A 
ATOM     76  C   UNL A   1      36.516  30.238  29.267  1.00  0.00     0.134 A 
ATOM     77  C   UNL A   1      37.663  32.311  28.929  1.00  0.00     0.134 A 
ATOM     78  F   UNL A   1      36.431  29.010  29.799  1.00  0.00    -0.206 F 
ATOM     79  C   UNL A   1      35.466  30.676  28.462  1.00  0.00     0.040 A 
ATOM     80  C   UNL A   1      36.602  32.777  28.151  1.00  0.00     0.040 A 
ATOM     81  F   UNL A   1      38.698  33.136  29.147  1.00  0.00    -0.206 F 
ATOM     82  C   UNL A   1      35.502  31.953  27.911  1.00  0.00     0.006 A 
ENDBRANCH  54  75
BRANCH  66  83
ATOM     83  C   UNL A   1      39.342  32.339  36.121  1.00  0.00     0.057 A 
ATOM     84  C   UNL A   1      38.298  31.844  36.912  1.00  0.00     0.134 A 
ATOM     85  C   UNL A   1      39.767  33.652  36.367  1.00  0.00     0.134 A 
ATOM     86  F   UNL A   1      37.836  30.598  36.729  1.00  0.00    -0.206 F 
ATOM     87  C   UNL A   1      37.702  32.620  37.907  1.00  0.00     0.040 A 
ATOM     88  C   UNL A   1      39.200  34.428  37.380  1.00  0.00     0.040 A 
ATOM     89  F   UNL A   1      40.775  34.184  35.659  1.00  0.00    -0.206 F 
ATOM     90  C   UNL A   1      38.161  33.913  38.152  1.00  0.00     0.006 A 
ENDBRANCH  66  83
ENDBRANCH  40  41
ENDBRANCH  33  35
ENDBRANCH  32  33
ENDBRANCH  31  32
ENDBRANCH  30  31
ENDBRANCH  29  30
ENDBRANCH   1  29
TORSDOF 17
ENDMDL
MODEL 2
REMARK VINA RESULT:     -11.9      4.940      9.362
REMARK SMILES CC(C)(C)c1cc(Nc2ccccc2C(=O)OCCOCCOC(=O)c2ccc(-c3c4nc(c(-c5c(F)cccc5F)c5ccc([nH]5)c(-c5c(F)cccc5F)c5nc(c(-c6c(F)cccc6F)c6ccc3[nH]6)C=C5)C=C4)cc2)cc2c1OCC2(C)C
REMARK SMILES IDX 19 1 18 2 17 3 15 4 16 5 14 6 9 7 10 8 11 9 13 10 12 11 8 12
REMARK SMILES IDX 7 14 5 15 6 16 82 17 81 18 83 19 80 20 85 21 84 22 86 23
REMARK SMILES IDX 87 24 2 25 1 26 3 27 4 28 20 29 21 30 22 31 23 32 24 33
REMARK SMILES IDX 25 34 26 35 27 36 79 37 28 38 78 39 29 40 30 41 31 42 72 43
REMARK SMILES IDX 32 44 77 45 71 46 73 47 33 48 76 49 70 50 69 51 34 53 60 54
REMARK SMILES IDX 43 55 59 56 44 57 47 58 58 59 74 60 45 61 46 62 57 64 75 65
REMARK SMILES IDX 48 66 35 67 36 68 41 69 37 70 38 71 40 72 42 73 39 74 61 75
REMARK SMILES IDX 62 76 67 77 63 78 64 79 66 80 68 81 65 82 49 83 50 84 55 85
REMARK SMILES IDX 51 86 52 87 54 88 56 89 53 90
REMARK H PARENT 8 13 73 52 47 63
REMARK Flexibility Score: inf
ROOT
ATOM      1  C   UNL A   1      45.905  20.525  24.958  1.00  0.00     0.202 C 
ENDROOT
BRANCH   1   2
ATOM      2  C   UNL A   1      45.426  21.744  25.746  1.00  0.00     0.261 C 
BRANCH   2   3
ATOM      3  O   UNL A   1      44.913  22.756  24.862  1.00  0.00    -0.460 OA
BRANCH   3   4
ATOM      4  C   UNL A   1      45.811  23.717  24.542  1.00  0.00     0.340 C 
ATOM      5  O   UNL A   1      46.806  23.561  23.850  1.00  0.00    -0.246 OA
BRANCH   4   6
ATOM      6  C   UNL A   1      45.386  25.061  25.010  1.00  0.00     0.083 A 
ATOM      7  C   UNL A   1      46.236  26.097  25.440  1.00  0.00     0.053 A 
ATOM      8  C   UNL A   1      45.635  27.349  25.696  1.00  0.00     0.027 A 
ATOM      9  C   UNL A   1      44.249  27.528  25.696  1.00  0.00     0.002 A 
ATOM     10  C   UNL A   1      43.985  25.246  25.026  1.00  0.00     0.018 A 
ATOM     11  C   UNL A   1      43.418  26.459  25.401  1.00  0.00     0.001 A 
BRANCH   7  12
ATOM     12  N   UNL A   1      47.607  25.912  25.762  1.00  0.00    -0.355 N 
ATOM     13  H   UNL A   1      47.795  25.555  26.660  1.00  0.00     0.167 HD
BRANCH  12  14
ATOM     14  C   UNL A   1      48.739  26.179  24.948  1.00  0.00     0.039 A 
ATOM     15  C   UNL A   1      49.721  27.191  22.882  1.00  0.00     0.002 A 
ATOM     16  C   UNL A   1      48.603  26.795  23.680  1.00  0.00     0.034 A 
ATOM     17  C   UNL A   1      50.975  26.943  23.439  1.00  0.00     0.127 A 
ATOM     18  C   UNL A   1      51.127  26.324  24.670  1.00  0.00     0.006 A 
ATOM     19  O   UNL A   1      52.181  27.276  22.880  1.00  0.00    -0.492 OA
ATOM     20  C   UNL A   1      50.031  25.920  25.409  1.00  0.00     0.034 A 
ATOM     21  C   UNL A   1      52.563  26.260  25.063  1.00  0.00     0.028 C 
ATOM     22  C   UNL A   1      53.194  26.691  23.729  1.00  0.00     0.240 C 
ATOM     23  C   UNL A   1      52.847  27.271  26.181  1.00  0.00     0.020 C 
ATOM     24  C   UNL A   1      53.012  24.859  25.479  1.00  0.00     0.020 C 
BRANCH  15  25
ATOM     25  C   UNL A   1      49.528  27.747  21.454  1.00  0.00    -0.009 C 
ATOM     26  C   UNL A   1      49.774  26.754  20.295  1.00  0.00     0.016 C 
ATOM     27  C   UNL A   1      50.393  28.992  21.169  1.00  0.00     0.016 C 
ATOM     28  C   UNL A   1      48.061  28.153  21.349  1.00  0.00     0.016 C 
ENDBRANCH  15  25
ENDBRANCH  12  14
ENDBRANCH   7  12
ENDBRANCH   4   6
ENDBRANCH   3   4
ENDBRANCH   2   3
ENDBRANCH   1   2
BRANCH   1  29
ATOM     29  O   UNL A   1      45.341  19.264  25.310  1.00  0.00    -0.374 OA
BRANCH  29  30
ATOM     30  C   UNL A   1      44.004  19.007  24.878  1.00  0.00     0.202 C 
BRANCH  30  31
ATOM     31  C   UNL A   1      43.158  18.056  25.738  1.00  0.00     0.261 C 
BRANCH  31  32
ATOM     32  O   UNL A   1      42.394  18.750  26.741  1.00  0.00    -0.460 OA
BRANCH  32  33
ATOM     33  C   UNL A   1      41.453  19.608  26.276  1.00  0.00     0.338 C 
ATOM     34  O   UNL A   1      40.452  19.342  25.629  1.00  0.00    -0.246 OA
BRANCH  33  35
ATOM     35  C   UNL A   1      41.724  20.943  26.840  1.00  0.00     0.060 A 
ATOM     36  C   UNL A   1      41.685  22.059  26.019  1.00  0.00     0.016 A 
ATOM     37  C   UNL A   1      42.014  21.078  28.206  1.00  0.00     0.016 A 
ATOM     38  C   UNL A   1      41.945  23.309  26.579  1.00  0.00     0.010 A 
ATOM     39  C   UNL A   1      42.311  22.336  28.750  1.00  0.00     0.010 A 
ATOM     40  C   UNL A   1      42.295  23.474  27.938  1.00  0.00    -0.014 A 
BRANCH  40  41
ATOM     41  C   UNL A   1      42.601  24.842  28.468  1.00  0.00     0.031 A 
ATOM     42  C   UNL A   1      44.010  25.289  28.799  1.00  0.00     0.074 A 
ATOM     43  C   UNL A   1      41.605  25.747  28.546  1.00  0.00     0.049 A 
ATOM     44  N   UNL A   1      44.435  26.472  29.183  1.00  0.00    -0.248 NA
ATOM     45  C   UNL A   1      45.085  24.296  28.653  1.00  0.00     0.031 C 
ATOM     46  C   UNL A   1      40.202  25.480  28.222  1.00  0.00     0.029 A 
ATOM     47  N   UNL A   1      41.620  27.078  28.886  1.00  0.00    -0.354 N 
ATOM     48  C   UNL A   1      45.816  26.368  29.317  1.00  0.00     0.074 A 
ATOM     49  C   UNL A   1      46.158  24.998  28.996  1.00  0.00     0.031 C 
ATOM     50  C   UNL A   1      39.505  26.619  28.319  1.00  0.00     0.029 A 
ATOM     51  C   UNL A   1      40.386  27.678  28.801  1.00  0.00     0.049 A 
ATOM     52  H   UNL A   1      42.434  27.555  29.162  1.00  0.00     0.167 HD
ATOM     53  C   UNL A   1      46.718  27.322  29.667  1.00  0.00     0.037 A 
ATOM     54  C   UNL A   1      39.987  28.926  29.110  1.00  0.00     0.037 A 
ATOM     55  C   UNL A   1      46.389  28.689  30.001  1.00  0.00     0.049 A 
ATOM     56  C   UNL A   1      40.985  29.919  29.627  1.00  0.00     0.074 A 
ATOM     57  C   UNL A   1      47.243  29.718  30.369  1.00  0.00     0.029 A 
ATOM     58  N   UNL A   1      45.107  29.217  30.026  1.00  0.00    -0.354 N 
ATOM     59  N   UNL A   1      42.283  29.801  29.748  1.00  0.00    -0.248 NA
ATOM     60  C   UNL A   1      40.454  31.217  30.066  1.00  0.00     0.031 C 
ATOM     61  C   UNL A   1      46.474  30.844  30.683  1.00  0.00     0.029 A 
ATOM     62  C   UNL A   1      45.144  30.539  30.448  1.00  0.00     0.049 A 
ATOM     63  H   UNL A   1      44.290  28.726  29.780  1.00  0.00     0.167 HD
ATOM     64  C   UNL A   1      42.726  31.012  30.267  1.00  0.00     0.074 A 
ATOM     65  C   UNL A   1      41.562  31.860  30.405  1.00  0.00     0.031 C 
ATOM     66  C   UNL A   1      43.986  31.381  30.605  1.00  0.00     0.037 A 
BRANCH  53  67
ATOM     67  C   UNL A   1      48.166  26.922  29.753  1.00  0.00     0.057 A 
ATOM     68  C   UNL A   1      48.644  26.209  30.862  1.00  0.00     0.134 A 
ATOM     69  C   UNL A   1      49.102  27.297  28.779  1.00  0.00     0.134 A 
ATOM     70  F   UNL A   1      47.808  25.833  31.840  1.00  0.00    -0.206 F 
ATOM     71  C   UNL A   1      49.996  25.887  31.001  1.00  0.00     0.040 A 
ATOM     72  C   UNL A   1      50.454  26.957  28.895  1.00  0.00     0.040 A 
ATOM     73  F   UNL A   1      48.716  27.979  27.691  1.00  0.00    -0.206 F 
ATOM     74  C   UNL A   1      50.904  26.257  30.012  1.00  0.00     0.006 A 
ENDBRANCH  53  67
BRANCH  54  75
ATOM     75  C   UNL A   1      38.549  29.289  29.002  1.00  0.00     0.057 A 
ATOM     76  C   UNL A   1      37.996  29.686  27.778  1.00  0.00     0.134 A 
ATOM     77  C   UNL A   1      37.692  29.219  30.105  1.00  0.00     0.134 A 
ATOM     78  F   UNL A   1      38.764  29.772  26.682  1.00  0.00    -0.206 F 
ATOM     79  C   UNL A   1      36.647  30.017  27.657  1.00  0.00     0.040 A 
ATOM     80  C   UNL A   1      36.332  29.511  29.991  1.00  0.00     0.040 A 
ATOM     81  F   UNL A   1      38.156  28.820  31.298  1.00  0.00    -0.206 F 
ATOM     82  C   UNL A   1      35.809  29.919  28.764  1.00  0.00     0.006 A 
ENDBRANCH  54  75
BRANCH  66  83
ATOM     83  C   UNL A   1      44.167  32.772  31.145  1.00  0.00     0.057 A 
ATOM     84  C   UNL A   1      44.114  33.022  32.521  1.00  0.00     0.134 A 
ATOM     85  C   UNL A   1      44.404  33.867  30.302  1.00  0.00     0.134 A 
ATOM     86  F   UNL A   1      43.886  32.023  33.387  1.00  0.00    -0.206 F 
ATOM     87  C   UNL A   1      44.293  34.306  33.040  1.00  0.00     0.040 A 
ATOM     88  C   UNL A   1      44.615  35.151  30.810  1.00  0.00     0.040 A 
ATOM     89  F   UNL A   1      44.484  33.697  28.973  1.00  0.00    -0.206 F 
ATOM     90  C   UNL A   1      44.555  35.373  32.184  1.00  0.00     0.006 A 
ENDBRANCH  66  83
ENDBRANCH  40  41
ENDBRANCH  33  35
ENDBRANCH  32  33
ENDBRANCH  31  32
ENDBRANCH  30  31
ENDBRANCH  29  30
ENDBRANCH   1  29
TORSDOF 17
ENDMDL
MODEL 3
REMARK VINA RESULT:     -11.9      6.064     11.067
REMARK SMILES CC(C)(C)c1cc(Nc2ccccc2C(=O)OCCOCCOC(=O)c2ccc(-c3c4nc(c(-c5c(F)cccc5F)c5ccc([nH]5)c(-c5c(F)cccc5F)c5nc(c(-c6c(F)cccc6F)c6ccc3[nH]6)C=C5)C=C4)cc2)cc2c1OCC2(C)C
REMARK SMILES IDX 19 1 18 2 17 3 15 4 16 5 14 6 9 7 10 8 11 9 13 10 12 11 8 12
REMARK SMILES IDX 7 14 5 15 6 16 82 17 81 18 83 19 80 20 85 21 84 22 86 23
REMARK SMILES IDX 87 24 2 25 1 26 3 27 4 28 20 29 21 30 22 31 23 32 24 33
REMARK SMILES IDX 25 34 26 35 27 36 79 37 28 38 78 39 29 40 30 41 31 42 72 43
REMARK SMILES IDX 32 44 77 45 71 46 73 47 33 48 76 49 70 50 69 51 34 53 60 54
REMARK SMILES IDX 43 55 59 56 44 57 47 58 58 59 74 60 45 61 46 62 57 64 75 65
REMARK SMILES IDX 48 66 35 67 36 68 41 69 37 70 38 71 40 72 42 73 39 74 61 75
REMARK SMILES IDX 62 76 67 77 63 78 64 79 66 80 68 81 65 82 49 83 50 84 55 85
REMARK SMILES IDX 51 86 52 87 54 88 56 89 53 90
REMARK H PARENT 8 13 73 52 47 63
REMARK Flexibility Score: inf
ROOT
ATOM      1  C   UNL A   1      33.241  35.457  30.120  1.00  0.00     0.202 C 
ENDROOT
BRANCH   1   2
ATOM      2  C   UNL A   1      33.530  35.491  28.619  1.00  0.00     0.261 C 
BRANCH   2   3
ATOM      3  O   UNL A   1      34.119  34.254  28.183  1.00  0.00    -0.460 OA
BRANCH   3   4
ATOM      4  C   UNL A   1      33.219  33.325  27.781  1.00  0.00     0.340 C 
ATOM      5  O   UNL A   1      32.088  33.555  27.378  1.00  0.00    -0.246 OA
BRANCH   4   6
ATOM      6  C   UNL A   1      33.802  31.960  27.740  1.00  0.00     0.083 A 
ATOM      7  C   UNL A   1      33.260  30.847  27.069  1.00  0.00     0.053 A 
ATOM      8  C   UNL A   1      34.055  29.680  27.028  1.00  0.00     0.027 A 
ATOM      9  C   UNL A   1      35.243  29.557  27.753  1.00  0.00     0.002 A 
ATOM     10  C   UNL A   1      34.996  31.823  28.482  1.00  0.00     0.018 A 
ATOM     11  C   UNL A   1      35.693  30.620  28.518  1.00  0.00     0.001 A 
BRANCH   7  12
ATOM     12  N   UNL A   1      31.930  30.793  26.573  1.00  0.00    -0.355 N 
ATOM     13  H   UNL A   1      31.266  31.332  27.061  1.00  0.00     0.167 HD
BRANCH  12  14
ATOM     14  C   UNL A   1      31.442  30.059  25.461  1.00  0.00     0.039 A 
ATOM     15  C   UNL A   1      29.849  29.851  23.544  1.00  0.00     0.002 A 
ATOM     16  C   UNL A   1      30.302  30.490  24.740  1.00  0.00     0.034 A 
ATOM     17  C   UNL A   1      30.614  28.767  23.115  1.00  0.00     0.127 A 
ATOM     18  C   UNL A   1      31.720  28.319  23.819  1.00  0.00     0.006 A 
ATOM     19  O   UNL A   1      30.398  28.032  21.978  1.00  0.00    -0.492 OA
ATOM     20  C   UNL A   1      32.121  28.933  24.991  1.00  0.00     0.034 A 
ATOM     21  C   UNL A   1      32.400  27.207  23.097  1.00  0.00     0.028 C 
ATOM     22  C   UNL A   1      31.331  26.930  22.027  1.00  0.00     0.240 C 
ATOM     23  C   UNL A   1      33.711  27.705  22.478  1.00  0.00     0.020 C 
ATOM     24  C   UNL A   1      32.653  25.982  23.978  1.00  0.00     0.020 C 
BRANCH  15  25
ATOM     25  C   UNL A   1      28.532  30.277  22.858  1.00  0.00    -0.009 C 
ATOM     26  C   UNL A   1      28.639  30.700  21.375  1.00  0.00     0.016 C 
ATOM     27  C   UNL A   1      27.808  31.420  23.599  1.00  0.00     0.016 C 
ATOM     28  C   UNL A   1      27.625  29.050  22.876  1.00  0.00     0.016 C 
ENDBRANCH  15  25
ENDBRANCH  12  14
ENDBRANCH   7  12
ENDBRANCH   4   6
ENDBRANCH   3   4
ENDBRANCH   2   3
ENDBRANCH   1   2
BRANCH   1  29
ATOM     29  O   UNL A   1      33.486  34.228  30.798  1.00  0.00    -0.374 OA
BRANCH  29  30
ATOM     30  C   UNL A   1      34.554  34.211  31.747  1.00  0.00     0.202 C 
BRANCH  30  31
ATOM     31  C   UNL A   1      34.517  33.120  32.827  1.00  0.00     0.261 C 
BRANCH  31  32
ATOM     32  O   UNL A   1      35.495  32.088  32.603  1.00  0.00    -0.460 OA
BRANCH  32  33
ATOM     33  C   UNL A   1      36.610  32.157  33.371  1.00  0.00     0.338 C 
ATOM     34  O   UNL A   1      36.680  32.377  34.571  1.00  0.00    -0.246 OA
BRANCH  33  35
ATOM     35  C   UNL A   1      37.762  31.730  32.556  1.00  0.00     0.060 A 
ATOM     36  C   UNL A   1      37.768  31.973  31.191  1.00  0.00     0.016 A 
ATOM     37  C   UNL A   1      38.849  31.085  33.166  1.00  0.00     0.016 A 
ATOM     38  C   UNL A   1      38.869  31.558  30.445  1.00  0.00     0.010 A 
ATOM     39  C   UNL A   1      39.934  30.639  32.398  1.00  0.00     0.010 A 
ATOM     40  C   UNL A   1      39.955  30.857  31.017  1.00  0.00    -0.014 A 
BRANCH  40  41
ATOM     41  C   UNL A   1      41.090  30.405  30.150  1.00  0.00     0.031 A 
ATOM     42  C   UNL A   1      42.315  31.262  29.903  1.00  0.00     0.074 A 
ATOM     43  C   UNL A   1      41.077  29.147  29.664  1.00  0.00     0.049 A 
ATOM     44  N   UNL A   1      43.414  30.964  29.247  1.00  0.00    -0.248 NA
ATOM     45  C   UNL A   1      42.326  32.610  30.490  1.00  0.00     0.031 C 
ATOM     46  C   UNL A   1      39.987  28.188  29.852  1.00  0.00     0.029 A 
ATOM     47  N   UNL A   1      42.016  28.447  28.947  1.00  0.00    -0.354 N 
ATOM     48  C   UNL A   1      44.244  32.077  29.346  1.00  0.00     0.074 A 
ATOM     49  C   UNL A   1      43.512  33.068  30.108  1.00  0.00     0.031 C 
ATOM     50  C   UNL A   1      40.343  27.011  29.320  1.00  0.00     0.029 A 
ATOM     51  C   UNL A   1      41.642  27.153  28.673  1.00  0.00     0.049 A 
ATOM     52  H   UNL A   1      42.873  28.834  28.658  1.00  0.00     0.167 HD
ATOM     53  C   UNL A   1      45.499  32.259  28.858  1.00  0.00     0.037 A 
ATOM     54  C   UNL A   1      42.248  26.192  27.951  1.00  0.00     0.037 A 
ATOM     55  C   UNL A   1      46.235  31.284  28.087  1.00  0.00     0.049 A 
ATOM     56  C   UNL A   1      43.574  26.471  27.307  1.00  0.00     0.074 A 
ATOM     57  C   UNL A   1      47.511  31.390  27.552  1.00  0.00     0.029 A 
ATOM     58  N   UNL A   1      45.762  30.032  27.724  1.00  0.00    -0.354 N 
ATOM     59  N   UNL A   1      44.339  27.528  27.411  1.00  0.00    -0.248 NA
ATOM     60  C   UNL A   1      44.111  25.422  26.428  1.00  0.00     0.031 C 
ATOM     61  C   UNL A   1      47.779  30.234  26.810  1.00  0.00     0.029 A 
ATOM     62  C   UNL A   1      46.699  29.379  26.934  1.00  0.00     0.049 A 
ATOM     63  H   UNL A   1      44.888  29.661  27.987  1.00  0.00     0.167 HD
ATOM     64  C   UNL A   1      45.453  27.268  26.621  1.00  0.00     0.074 A 
ATOM     65  C   UNL A   1      45.278  25.941  26.072  1.00  0.00     0.031 C 
ATOM     66  C   UNL A   1      46.520  28.065  26.371  1.00  0.00     0.037 A 
BRANCH  53  67
ATOM     67  C   UNL A   1      46.162  33.588  29.102  1.00  0.00     0.057 A 
ATOM     68  C   UNL A   1      46.944  33.794  30.248  1.00  0.00     0.134 A 
ATOM     69  C   UNL A   1      45.977  34.682  28.246  1.00  0.00     0.134 A 
ATOM     70  F   UNL A   1      47.149  32.796  31.120  1.00  0.00    -0.206 F 
ATOM     71  C   UNL A   1      47.512  35.037  30.535  1.00  0.00     0.040 A 
ATOM     72  C   UNL A   1      46.562  35.924  28.510  1.00  0.00     0.040 A 
ATOM     73  F   UNL A   1      45.243  34.556  27.131  1.00  0.00    -0.206 F 
ATOM     74  C   UNL A   1      47.327  36.105  29.661  1.00  0.00     0.006 A 
ENDBRANCH  53  67
BRANCH  54  75
ATOM     75  C   UNL A   1      41.568  24.887  27.740  1.00  0.00     0.057 A 
ATOM     76  C   UNL A   1      41.923  23.760  28.492  1.00  0.00     0.134 A 
ATOM     77  C   UNL A   1      40.532  24.744  26.812  1.00  0.00     0.134 A 
ATOM     78  F   UNL A   1      42.907  23.833  29.401  1.00  0.00    -0.206 F 
ATOM     79  C   UNL A   1      41.286  22.532  28.317  1.00  0.00     0.040 A 
ATOM     80  C   UNL A   1      39.860  23.530  26.652  1.00  0.00     0.040 A 
ATOM     81  F   UNL A   1      40.128  25.793  26.081  1.00  0.00    -0.206 F 
ATOM     82  C   UNL A   1      40.243  22.419  27.401  1.00  0.00     0.006 A 
ENDBRANCH  54  75
BRANCH  66  83
ATOM     83  C   UNL A   1      47.588  27.511  25.470  1.00  0.00     0.057 A 
ATOM     84  C   UNL A   1      47.517  27.678  24.081  1.00  0.00     0.134 A 
ATOM     85  C   UNL A   1      48.695  26.816  25.977  1.00  0.00     0.134 A 
ATOM     86  F   UNL A   1      46.483  28.327  23.525  1.00  0.00    -0.206 F 
ATOM     87  C   UNL A   1      48.507  27.180  23.232  1.00  0.00     0.040 A 
ATOM     88  C   UNL A   1      49.708  26.340  25.141  1.00  0.00     0.040 A 
ATOM     89  F   UNL A   1      48.837  26.635  27.299  1.00  0.00    -0.206 F 
ATOM     90  C   UNL A   1      49.612  26.518  23.762  1.00  0.00     0.006 A 
ENDBRANCH  66  83
ENDBRANCH  40  41
ENDBRANCH  33  35
ENDBRANCH  32  33
ENDBRANCH  31  32
ENDBRANCH  30  31
ENDBRANCH  29  30
ENDBRANCH   1  29
TORSDOF 17
ENDMDL
