MODEL 1
REMARK VINA RESULT:     -11.6      0.000      0.000
REMARK SMILES O=C(OCCOCCOC(=O)c1cccnc1C(=O)Nc1ccc([N+](=O)[O-])cc1)c1ccc(-c2c3nc(c(-c4c(F)cccc4F)c4ccc([nH]4)c(-c4c(F)cccc4F)c4nc(c(-c5c(F)cccc5F)c5ccc2[nH]5)C=C4)C=C3)cc1
REMARK SMILES IDX 7 1 6 2 5 3 4 4 3 5 2 6 1 7 30 8 31 9 83 10 32 11 82 12
REMARK SMILES IDX 33 13 34 14 35 15 76 16 36 17 81 18 75 19 77 20 37 21 80 22
REMARK SMILES IDX 74 23 73 24 38 26 64 27 47 28 63 29 48 30 51 31 62 32 78 33
REMARK SMILES IDX 49 34 50 35 61 37 79 38 52 39 39 40 40 41 45 42 41 43 42 44
REMARK SMILES IDX 44 45 46 46 43 47 65 48 66 49 71 50 67 51 68 52 70 53 72 54
REMARK SMILES IDX 69 55 53 56 54 57 59 58 55 59 56 60 58 61 60 62 57 63 8 64
REMARK SMILES IDX 9 65 10 66 11 67 12 68 13 69 17 70 14 71 16 72 15 73 18 74
REMARK SMILES IDX 19 75 20 76 21 78 22 79 29 80 23 81 28 82 24 83 25 84 26 85
REMARK SMILES IDX 27 86
REMARK H PARENT 77 25 51 36 20 77
REMARK Flexibility Score: inf
ROOT
ATOM      1  C   UNL A   1      34.407  23.281  24.269  1.00  0.00     0.202 C 
ENDROOT
BRANCH   1   2
ATOM      2  O   UNL A   1      35.690  23.738  23.851  1.00  0.00    -0.374 OA
BRANCH   2   3
ATOM      3  C   UNL A   1      36.709  22.789  23.541  1.00  0.00     0.202 C 
BRANCH   3   4
ATOM      4  C   UNL A   1      36.972  21.592  24.461  1.00  0.00     0.261 C 
BRANCH   4   5
ATOM      5  O   UNL A   1      37.538  21.865  25.761  1.00  0.00    -0.460 OA
BRANCH   5   6
ATOM      6  C   UNL A   1      38.842  21.619  26.027  1.00  0.00     0.338 C 
ATOM      7  O   UNL A   1      39.521  20.705  25.602  1.00  0.00    -0.246 OA
BRANCH   6   8
ATOM      8  C   UNL A   1      39.340  22.785  26.768  1.00  0.00     0.060 A 
ATOM      9  C   UNL A   1      38.855  24.040  26.427  1.00  0.00     0.016 A 
ATOM     10  C   UNL A   1      40.427  22.657  27.627  1.00  0.00     0.016 A 
ATOM     11  C   UNL A   1      39.609  25.157  26.709  1.00  0.00     0.010 A 
ATOM     12  C   UNL A   1      41.068  23.812  28.080  1.00  0.00     0.010 A 
ATOM     13  C   UNL A   1      40.709  25.070  27.564  1.00  0.00    -0.014 A 
BRANCH  13  14
ATOM     14  C   UNL A   1      41.505  26.296  27.827  1.00  0.00     0.031 A 
ATOM     15  C   UNL A   1      40.941  27.368  28.717  1.00  0.00     0.074 A 
ATOM     16  C   UNL A   1      42.763  26.400  27.351  1.00  0.00     0.049 A 
ATOM     17  N   UNL A   1      41.364  28.590  28.903  1.00  0.00    -0.248 NA
ATOM     18  C   UNL A   1      39.730  27.031  29.484  1.00  0.00     0.031 C 
ATOM     19  C   UNL A   1      43.455  25.390  26.543  1.00  0.00     0.029 A 
ATOM     20  N   UNL A   1      43.702  27.387  27.506  1.00  0.00    -0.354 N 
ATOM     21  C   UNL A   1      40.429  29.189  29.736  1.00  0.00     0.074 A 
ATOM     22  C   UNL A   1      39.420  28.197  30.031  1.00  0.00     0.031 C 
ATOM     23  C   UNL A   1      44.727  25.766  26.352  1.00  0.00     0.029 A 
ATOM     24  C   UNL A   1      44.896  27.109  26.882  1.00  0.00     0.049 A 
ATOM     25  H   UNL A   1      43.538  28.213  28.015  1.00  0.00     0.167 HD
ATOM     26  C   UNL A   1      40.417  30.461  30.199  1.00  0.00     0.037 A 
ATOM     27  C   UNL A   1      45.981  27.881  26.691  1.00  0.00     0.037 A 
ATOM     28  C   UNL A   1      41.469  31.408  29.936  1.00  0.00     0.049 A 
ATOM     29  C   UNL A   1      45.929  29.297  27.186  1.00  0.00     0.074 A 
ATOM     30  C   UNL A   1      41.551  32.740  30.300  1.00  0.00     0.029 A 
ATOM     31  N   UNL A   1      42.645  31.102  29.265  1.00  0.00    -0.354 N 
ATOM     32  N   UNL A   1      44.978  29.903  27.857  1.00  0.00    -0.248 NA
ATOM     33  C   UNL A   1      47.079  30.149  26.863  1.00  0.00     0.031 C 
ATOM     34  C   UNL A   1      42.767  33.245  29.826  1.00  0.00     0.029 A 
ATOM     35  C   UNL A   1      43.461  32.218  29.206  1.00  0.00     0.049 A 
ATOM     36  H   UNL A   1      42.866  30.221  28.886  1.00  0.00     0.167 HD
ATOM     37  C   UNL A   1      45.410  31.209  28.031  1.00  0.00     0.074 A 
ATOM     38  C   UNL A   1      46.730  31.292  27.434  1.00  0.00     0.031 C 
ATOM     39  C   UNL A   1      44.771  32.256  28.609  1.00  0.00     0.037 A 
BRANCH  26  40
ATOM     40  C   UNL A   1      39.216  30.904  30.982  1.00  0.00     0.057 A 
ATOM     41  C   UNL A   1      39.166  30.843  32.380  1.00  0.00     0.134 A 
ATOM     42  C   UNL A   1      38.085  31.401  30.319  1.00  0.00     0.134 A 
ATOM     43  F   UNL A   1      40.203  30.353  33.076  1.00  0.00    -0.206 F 
ATOM     44  C   UNL A   1      38.029  31.239  33.089  1.00  0.00     0.040 A 
ATOM     45  C   UNL A   1      36.952  31.823  31.017  1.00  0.00     0.040 A 
ATOM     46  F   UNL A   1      38.063  31.484  28.980  1.00  0.00    -0.206 F 
ATOM     47  C   UNL A   1      36.920  31.737  32.406  1.00  0.00     0.006 A 
ENDBRANCH  26  40
BRANCH  27  48
ATOM     48  C   UNL A   1      47.146  27.373  25.916  1.00  0.00     0.057 A 
ATOM     49  C   UNL A   1      47.205  27.494  24.523  1.00  0.00     0.134 A 
ATOM     50  C   UNL A   1      48.221  26.732  26.549  1.00  0.00     0.134 A 
ATOM     51  F   UNL A   1      46.199  28.073  23.852  1.00  0.00    -0.206 F 
ATOM     52  C   UNL A   1      48.277  26.982  23.788  1.00  0.00     0.040 A 
ATOM     53  C   UNL A   1      49.318  26.254  25.832  1.00  0.00     0.040 A 
ATOM     54  F   UNL A   1      48.229  26.576  27.881  1.00  0.00    -0.206 F 
ATOM     55  C   UNL A   1      49.343  26.369  24.445  1.00  0.00     0.006 A 
ENDBRANCH  27  48
BRANCH  39  56
ATOM     56  C   UNL A   1      45.517  33.554  28.641  1.00  0.00     0.057 A 
ATOM     57  C   UNL A   1      45.381  34.508  27.625  1.00  0.00     0.134 A 
ATOM     58  C   UNL A   1      46.375  33.852  29.707  1.00  0.00     0.134 A 
ATOM     59  F   UNL A   1      44.586  34.269  26.571  1.00  0.00    -0.206 F 
ATOM     60  C   UNL A   1      46.099  35.702  27.651  1.00  0.00     0.040 A 
ATOM     61  C   UNL A   1      47.077  35.055  29.757  1.00  0.00     0.040 A 
ATOM     62  F   UNL A   1      46.541  32.982  30.713  1.00  0.00    -0.206 F 
ATOM     63  C   UNL A   1      46.946  35.980  28.722  1.00  0.00     0.006 A 
ENDBRANCH  39  56
ENDBRANCH  13  14
ENDBRANCH   6   8
ENDBRANCH   5   6
ENDBRANCH   4   5
ENDBRANCH   3   4
ENDBRANCH   2   3
ENDBRANCH   1   2
BRANCH   1  64
ATOM     64  C   UNL A   1      33.373  24.297  23.839  1.00  0.00     0.261 C 
BRANCH  64  65
ATOM     65  O   UNL A   1      34.070  25.546  23.766  1.00  0.00    -0.460 OA
BRANCH  65  66
ATOM     66  C   UNL A   1      33.456  26.447  22.979  1.00  0.00     0.340 C 
ATOM     67  O   UNL A   1      33.441  26.486  21.772  1.00  0.00    -0.246 OA
BRANCH  66  68
ATOM     68  C   UNL A   1      32.934  27.524  23.814  1.00  0.00     0.091 A 
ATOM     69  C   UNL A   1      33.939  28.211  24.517  1.00  0.00     0.020 A 
ATOM     70  C   UNL A   1      31.606  27.887  24.000  1.00  0.00     0.142 A 
ATOM     71  C   UNL A   1      33.602  29.183  25.446  1.00  0.00     0.021 A 
ATOM     72  N   UNL A   1      31.288  28.878  24.897  1.00  0.00    -0.250 NA
ATOM     73  C   UNL A   1      32.266  29.470  25.611  1.00  0.00     0.112 A 
BRANCH  70  74
ATOM     74  C   UNL A   1      30.346  27.221  23.542  1.00  0.00     0.275 C 
ATOM     75  O   UNL A   1      30.370  25.979  23.525  1.00  0.00    -0.267 OA
ATOM     76  N   UNL A   1      29.104  27.752  23.275  1.00  0.00    -0.321 N 
ATOM     77  H   UNL A   1      28.393  27.098  23.460  1.00  0.00     0.170 HD
BRANCH  76  78
ATOM     78  C   UNL A   1      28.567  28.958  22.815  1.00  0.00     0.042 A 
ATOM     79  C   UNL A   1      29.242  29.557  21.735  1.00  0.00     0.033 A 
ATOM     80  C   UNL A   1      27.552  29.665  23.430  1.00  0.00     0.033 A 
ATOM     81  C   UNL A   1      29.057  30.908  21.429  1.00  0.00     0.088 A 
ATOM     82  C   UNL A   1      27.402  31.037  23.189  1.00  0.00     0.088 A 
ATOM     83  C   UNL A   1      28.195  31.663  22.222  1.00  0.00     0.269 A 
BRANCH  83  84
ATOM     84  N   UNL A   1      28.163  33.121  22.079  1.00  0.00     0.062 N 
ATOM     85  O   UNL A   1      28.685  33.798  22.977  1.00  0.00    -0.258 OA
ATOM     86  O   UNL A   1      27.585  33.588  21.088  1.00  0.00    -0.258 OA
ENDBRANCH  83  84
ENDBRANCH  76  78
ENDBRANCH  70  74
ENDBRANCH  66  68
ENDBRANCH  65  66
ENDBRANCH  64  65
ENDBRANCH   1  64
TORSDOF 17
ENDMDL
MODEL 2
REMARK VINA RESULT:     -11.5      4.208      9.316
REMARK SMILES O=C(OCCOCCOC(=O)c1cccnc1C(=O)Nc1ccc([N+](=O)[O-])cc1)c1ccc(-c2c3nc(c(-c4c(F)cccc4F)c4ccc([nH]4)c(-c4c(F)cccc4F)c4nc(c(-c5c(F)cccc5F)c5ccc2[nH]5)C=C4)C=C3)cc1
REMARK SMILES IDX 7 1 6 2 5 3 4 4 3 5 2 6 1 7 30 8 31 9 83 10 32 11 82 12
REMARK SMILES IDX 33 13 34 14 35 15 76 16 36 17 81 18 75 19 77 20 37 21 80 22
REMARK SMILES IDX 74 23 73 24 38 26 64 27 47 28 63 29 48 30 51 31 62 32 78 33
REMARK SMILES IDX 49 34 50 35 61 37 79 38 52 39 39 40 40 41 45 42 41 43 42 44
REMARK SMILES IDX 44 45 46 46 43 47 65 48 66 49 71 50 67 51 68 52 70 53 72 54
REMARK SMILES IDX 69 55 53 56 54 57 59 58 55 59 56 60 58 61 60 62 57 63 8 64
REMARK SMILES IDX 9 65 10 66 11 67 12 68 13 69 17 70 14 71 16 72 15 73 18 74
REMARK SMILES IDX 19 75 20 76 21 78 22 79 29 80 23 81 28 82 24 83 25 84 26 85
REMARK SMILES IDX 27 86
REMARK H PARENT 77 25 51 36 20 77
REMARK Flexibility Score: inf
ROOT
ATOM      1  C   UNL A   1      33.939  26.685  25.740  1.00  0.00     0.202 C 
ENDROOT
BRANCH   1   2
ATOM      2  O   UNL A   1      32.661  27.070  26.240  1.00  0.00    -0.374 OA
BRANCH   2   3
ATOM      3  C   UNL A   1      31.868  28.001  25.507  1.00  0.00     0.202 C 
BRANCH   3   4
ATOM      4  C   UNL A   1      31.952  29.503  25.800  1.00  0.00     0.261 C 
BRANCH   4   5
ATOM      5  O   UNL A   1      32.529  29.902  27.063  1.00  0.00    -0.460 OA
BRANCH   5   6
ATOM      6  C   UNL A   1      33.065  31.132  27.235  1.00  0.00     0.338 C 
ATOM      7  O   UNL A   1      32.473  32.193  27.294  1.00  0.00    -0.246 OA
BRANCH   6   8
ATOM      8  C   UNL A   1      34.486  30.924  27.541  1.00  0.00     0.060 A 
ATOM      9  C   UNL A   1      34.932  29.628  27.758  1.00  0.00     0.016 A 
ATOM     10  C   UNL A   1      35.307  32.011  27.828  1.00  0.00     0.016 A 
ATOM     11  C   UNL A   1      36.067  29.419  28.509  1.00  0.00     0.010 A 
ATOM     12  C   UNL A   1      36.556  31.778  28.406  1.00  0.00     0.010 A 
ATOM     13  C   UNL A   1      36.916  30.482  28.819  1.00  0.00    -0.014 A 
BRANCH  13  14
ATOM     14  C   UNL A   1      38.119  30.214  29.646  1.00  0.00     0.031 A 
ATOM     15  C   UNL A   1      39.268  29.447  29.054  1.00  0.00     0.074 A 
ATOM     16  C   UNL A   1      38.221  30.742  30.884  1.00  0.00     0.049 A 
ATOM     17  N   UNL A   1      40.304  28.924  29.653  1.00  0.00    -0.248 NA
ATOM     18  C   UNL A   1      39.240  29.218  27.599  1.00  0.00     0.031 C 
ATOM     19  C   UNL A   1      37.208  31.575  31.541  1.00  0.00     0.029 A 
ATOM     20  N   UNL A   1      39.239  30.689  31.801  1.00  0.00    -0.354 N 
ATOM     21  C   UNL A   1      41.001  28.236  28.668  1.00  0.00     0.074 A 
ATOM     22  C   UNL A   1      40.280  28.415  27.429  1.00  0.00     0.031 C 
ATOM     23  C   UNL A   1      37.690  32.027  32.707  1.00  0.00     0.029 A 
ATOM     24  C   UNL A   1      38.972  31.389  32.955  1.00  0.00     0.049 A 
ATOM     25  H   UNL A   1      40.078  30.199  31.648  1.00  0.00     0.167 HD
ATOM     26  C   UNL A   1      42.138  27.512  28.801  1.00  0.00     0.037 A 
ATOM     27  C   UNL A   1      39.650  31.448  34.116  1.00  0.00     0.037 A 
ATOM     28  C   UNL A   1      42.866  27.403  30.038  1.00  0.00     0.049 A 
ATOM     29  C   UNL A   1      40.889  30.611  34.246  1.00  0.00     0.074 A 
ATOM     30  C   UNL A   1      43.997  26.659  30.318  1.00  0.00     0.029 A 
ATOM     31  N   UNL A   1      42.542  28.095  31.198  1.00  0.00    -0.354 N 
ATOM     32  N   UNL A   1      41.469  29.850  33.349  1.00  0.00    -0.248 NA
ATOM     33  C   UNL A   1      41.543  30.607  35.559  1.00  0.00     0.031 C 
ATOM     34  C   UNL A   1      44.343  26.881  31.656  1.00  0.00     0.029 A 
ATOM     35  C   UNL A   1      43.453  27.797  32.196  1.00  0.00     0.049 A 
ATOM     36  H   UNL A   1      41.777  28.706  31.296  1.00  0.00     0.167 HD
ATOM     37  C   UNL A   1      42.554  29.269  33.990  1.00  0.00     0.074 A 
ATOM     38  C   UNL A   1      42.574  29.805  35.338  1.00  0.00     0.031 C 
ATOM     39  C   UNL A   1      43.442  28.358  33.522  1.00  0.00     0.037 A 
BRANCH  26  40
ATOM     40  C   UNL A   1      42.620  26.751  27.601  1.00  0.00     0.057 A 
ATOM     41  C   UNL A   1      42.409  25.375  27.450  1.00  0.00     0.134 A 
ATOM     42  C   UNL A   1      43.311  27.413  26.576  1.00  0.00     0.134 A 
ATOM     43  F   UNL A   1      41.778  24.676  28.405  1.00  0.00    -0.206 F 
ATOM     44  C   UNL A   1      42.886  24.681  26.335  1.00  0.00     0.040 A 
ATOM     45  C   UNL A   1      43.770  26.735  25.445  1.00  0.00     0.040 A 
ATOM     46  F   UNL A   1      43.550  28.730  26.657  1.00  0.00    -0.206 F 
ATOM     47  C   UNL A   1      43.563  25.363  25.326  1.00  0.00     0.006 A 
ENDBRANCH  26  40
BRANCH  27  48
ATOM     48  C   UNL A   1      39.121  32.235  35.262  1.00  0.00     0.057 A 
ATOM     49  C   UNL A   1      39.408  33.598  35.407  1.00  0.00     0.134 A 
ATOM     50  C   UNL A   1      38.331  31.640  36.256  1.00  0.00     0.134 A 
ATOM     51  F   UNL A   1      40.178  34.225  34.506  1.00  0.00    -0.206 F 
ATOM     52  C   UNL A   1      38.947  34.332  36.503  1.00  0.00     0.040 A 
ATOM     53  C   UNL A   1      37.830  32.370  37.334  1.00  0.00     0.040 A 
ATOM     54  F   UNL A   1      38.022  30.337  36.185  1.00  0.00    -0.206 F 
ATOM     55  C   UNL A   1      38.146  33.718  37.465  1.00  0.00     0.006 A 
ENDBRANCH  27  48
BRANCH  39  56
ATOM     56  C   UNL A   1      44.513  27.925  34.474  1.00  0.00     0.057 A 
ATOM     57  C   UNL A   1      45.726  28.616  34.584  1.00  0.00     0.134 A 
ATOM     58  C   UNL A   1      44.323  26.806  35.294  1.00  0.00     0.134 A 
ATOM     59  F   UNL A   1      45.971  29.685  33.811  1.00  0.00    -0.206 F 
ATOM     60  C   UNL A   1      46.727  28.190  35.455  1.00  0.00     0.040 A 
ATOM     61  C   UNL A   1      45.306  26.387  36.189  1.00  0.00     0.040 A 
ATOM     62  F   UNL A   1      43.180  26.107  35.240  1.00  0.00    -0.206 F 
ATOM     63  C   UNL A   1      46.516  27.076  36.265  1.00  0.00     0.006 A 
ENDBRANCH  39  56
ENDBRANCH  13  14
ENDBRANCH   6   8
ENDBRANCH   5   6
ENDBRANCH   4   5
ENDBRANCH   3   4
ENDBRANCH   2   3
ENDBRANCH   1   2
BRANCH   1  64
ATOM     64  C   UNL A   1      33.944  25.187  25.537  1.00  0.00     0.261 C 
BRANCH  64  65
ATOM     65  O   UNL A   1      35.254  24.752  25.920  1.00  0.00    -0.460 OA
BRANCH  65  66
ATOM     66  C   UNL A   1      35.842  23.974  24.997  1.00  0.00     0.340 C 
ATOM     67  O   UNL A   1      35.419  23.671  23.907  1.00  0.00    -0.246 OA
BRANCH  66  68
ATOM     68  C   UNL A   1      37.036  23.370  25.580  1.00  0.00     0.091 A 
ATOM     69  C   UNL A   1      37.965  24.321  26.038  1.00  0.00     0.020 A 
ATOM     70  C   UNL A   1      37.342  22.018  25.681  1.00  0.00     0.142 A 
ATOM     71  C   UNL A   1      39.204  23.916  26.509  1.00  0.00     0.021 A 
ATOM     72  N   UNL A   1      38.560  21.629  26.184  1.00  0.00    -0.250 NA
ATOM     73  C   UNL A   1      39.460  22.564  26.549  1.00  0.00     0.112 A 
BRANCH  70  74
ATOM     74  C   UNL A   1      36.644  20.822  25.114  1.00  0.00     0.275 C 
ATOM     75  O   UNL A   1      37.340  20.082  24.400  1.00  0.00    -0.267 OA
ATOM     76  N   UNL A   1      35.389  20.318  25.371  1.00  0.00    -0.321 N 
ATOM     77  H   UNL A   1      35.370  19.341  25.256  1.00  0.00     0.170 HD
BRANCH  76  78
ATOM     78  C   UNL A   1      34.133  20.801  25.749  1.00  0.00     0.042 A 
ATOM     79  C   UNL A   1      33.191  20.934  24.712  1.00  0.00     0.033 A 
ATOM     80  C   UNL A   1      33.812  21.298  26.998  1.00  0.00     0.033 A 
ATOM     81  C   UNL A   1      32.058  21.738  24.866  1.00  0.00     0.088 A 
ATOM     82  C   UNL A   1      32.722  22.165  27.152  1.00  0.00     0.088 A 
ATOM     83  C   UNL A   1      31.879  22.421  26.067  1.00  0.00     0.269 A 
BRANCH  83  84
ATOM     84  N   UNL A   1      30.841  23.450  26.173  1.00  0.00     0.062 N 
ATOM     85  O   UNL A   1      30.284  23.595  27.271  1.00  0.00    -0.258 OA
ATOM     86  O   UNL A   1      30.558  24.087  25.149  1.00  0.00    -0.258 OA
ENDBRANCH  83  84
ENDBRANCH  76  78
ENDBRANCH  70  74
ENDBRANCH  66  68
ENDBRANCH  65  66
ENDBRANCH  64  65
ENDBRANCH   1  64
TORSDOF 17
ENDMDL
MODEL 3
REMARK VINA RESULT:     -11.5      4.276      9.385
REMARK SMILES O=C(OCCOCCOC(=O)c1cccnc1C(=O)Nc1ccc([N+](=O)[O-])cc1)c1ccc(-c2c3nc(c(-c4c(F)cccc4F)c4ccc([nH]4)c(-c4c(F)cccc4F)c4nc(c(-c5c(F)cccc5F)c5ccc2[nH]5)C=C4)C=C3)cc1
REMARK SMILES IDX 7 1 6 2 5 3 4 4 3 5 2 6 1 7 30 8 31 9 83 10 32 11 82 12
REMARK SMILES IDX 33 13 34 14 35 15 76 16 36 17 81 18 75 19 77 20 37 21 80 22
REMARK SMILES IDX 74 23 73 24 38 26 64 27 47 28 63 29 48 30 51 31 62 32 78 33
REMARK SMILES IDX 49 34 50 35 61 37 79 38 52 39 39 40 40 41 45 42 41 43 42 44
REMARK SMILES IDX 44 45 46 46 43 47 65 48 66 49 71 50 67 51 68 52 70 53 72 54
REMARK SMILES IDX 69 55 53 56 54 57 59 58 55 59 56 60 58 61 60 62 57 63 8 64
REMARK SMILES IDX 9 65 10 66 11 67 12 68 13 69 17 70 14 71 16 72 15 73 18 74
REMARK SMILES IDX 19 75 20 76 21 78 22 79 29 80 23 81 28 82 24 83 25 84 26 85
REMARK SMILES IDX 27 86
REMARK H PARENT 77 25 51 36 20 77
REMARK Flexibility Score: inf
ROOT
ATOM      1  C   UNL A   1      33.607  27.135  23.813  1.00  0.00     0.202 C 
ENDROOT
BRANCH   1   2
ATOM      2  O   UNL A   1      32.556  28.097  23.832  1.00  0.00    -0.374 OA
BRANCH   2   3
ATOM      3  C   UNL A   1      32.700  29.284  24.609  1.00  0.00     0.202 C 
BRANCH   3   4
ATOM      4  C   UNL A   1      31.800  29.541  25.822  1.00  0.00     0.261 C 
BRANCH   4   5
ATOM      5  O   UNL A   1      32.440  29.955  27.049  1.00  0.00    -0.460 OA
BRANCH   5   6
ATOM      6  C   UNL A   1      32.981  31.188  27.180  1.00  0.00     0.338 C 
ATOM      7  O   UNL A   1      32.392  32.251  27.209  1.00  0.00    -0.246 OA
BRANCH   6   8
ATOM      8  C   UNL A   1      34.403  30.985  27.484  1.00  0.00     0.060 A 
ATOM      9  C   UNL A   1      34.864  29.686  27.650  1.00  0.00     0.016 A 
ATOM     10  C   UNL A   1      35.209  32.069  27.820  1.00  0.00     0.016 A 
ATOM     11  C   UNL A   1      35.998  29.461  28.397  1.00  0.00     0.010 A 
ATOM     12  C   UNL A   1      36.458  31.828  28.394  1.00  0.00     0.010 A 
ATOM     13  C   UNL A   1      36.832  30.521  28.756  1.00  0.00    -0.014 A 
BRANCH  13  14
ATOM     14  C   UNL A   1      38.035  30.234  29.577  1.00  0.00     0.031 A 
ATOM     15  C   UNL A   1      39.165  29.442  28.983  1.00  0.00     0.074 A 
ATOM     16  C   UNL A   1      38.153  30.765  30.812  1.00  0.00     0.049 A 
ATOM     17  N   UNL A   1      40.195  28.903  29.579  1.00  0.00    -0.248 NA
ATOM     18  C   UNL A   1      39.125  29.207  27.530  1.00  0.00     0.031 C 
ATOM     19  C   UNL A   1      37.160  31.621  31.471  1.00  0.00     0.029 A 
ATOM     20  N   UNL A   1      39.175  30.698  31.724  1.00  0.00    -0.354 N 
ATOM     21  C   UNL A   1      40.873  28.197  28.593  1.00  0.00     0.074 A 
ATOM     22  C   UNL A   1      40.148  28.383  27.357  1.00  0.00     0.031 C 
ATOM     23  C   UNL A   1      37.657  32.068  32.632  1.00  0.00     0.029 A 
ATOM     24  C   UNL A   1      38.929  31.408  32.876  1.00  0.00     0.049 A 
ATOM     25  H   UNL A   1      40.004  30.191  31.569  1.00  0.00     0.167 HD
ATOM     26  C   UNL A   1      41.996  27.452  28.723  1.00  0.00     0.037 A 
ATOM     27  C   UNL A   1      39.614  31.460  34.033  1.00  0.00     0.037 A 
ATOM     28  C   UNL A   1      42.729  27.335  29.956  1.00  0.00     0.049 A 
ATOM     29  C   UNL A   1      40.837  30.599  34.161  1.00  0.00     0.074 A 
ATOM     30  C   UNL A   1      43.847  26.570  30.234  1.00  0.00     0.029 A 
ATOM     31  N   UNL A   1      42.425  28.038  31.115  1.00  0.00    -0.354 N 
ATOM     32  N   UNL A   1      41.398  29.823  33.264  1.00  0.00    -0.248 NA
ATOM     33  C   UNL A   1      41.498  30.589  35.470  1.00  0.00     0.031 C 
ATOM     34  C   UNL A   1      44.205  26.792  31.569  1.00  0.00     0.029 A 
ATOM     35  C   UNL A   1      43.336  27.728  32.110  1.00  0.00     0.049 A 
ATOM     36  H   UNL A   1      41.673  28.664  31.215  1.00  0.00     0.167 HD
ATOM     37  C   UNL A   1      42.475  29.224  33.902  1.00  0.00     0.074 A 
ATOM     38  C   UNL A   1      42.513  29.766  35.247  1.00  0.00     0.031 C 
ATOM     39  C   UNL A   1      43.343  28.295  33.433  1.00  0.00     0.037 A 
BRANCH  26  40
ATOM     40  C   UNL A   1      42.457  26.676  27.524  1.00  0.00     0.057 A 
ATOM     41  C   UNL A   1      42.138  25.326  27.335  1.00  0.00     0.134 A 
ATOM     42  C   UNL A   1      43.238  27.297  26.540  1.00  0.00     0.134 A 
ATOM     43  F   UNL A   1      41.416  24.664  28.252  1.00  0.00    -0.206 F 
ATOM     44  C   UNL A   1      42.596  24.616  26.223  1.00  0.00     0.040 A 
ATOM     45  C   UNL A   1      43.681  26.605  25.411  1.00  0.00     0.040 A 
ATOM     46  F   UNL A   1      43.584  28.588  26.659  1.00  0.00    -0.206 F 
ATOM     47  C   UNL A   1      43.364  25.258  25.253  1.00  0.00     0.006 A 
ENDBRANCH  26  40
BRANCH  27  48
ATOM     48  C   UNL A   1      39.106  32.262  35.178  1.00  0.00     0.057 A 
ATOM     49  C   UNL A   1      39.417  33.620  35.313  1.00  0.00     0.134 A 
ATOM     50  C   UNL A   1      38.314  31.685  36.182  1.00  0.00     0.134 A 
ATOM     51  F   UNL A   1      40.190  34.229  34.402  1.00  0.00    -0.206 F 
ATOM     52  C   UNL A   1      38.976  34.368  36.408  1.00  0.00     0.040 A 
ATOM     53  C   UNL A   1      37.832  32.430  37.258  1.00  0.00     0.040 A 
ATOM     54  F   UNL A   1      37.983  30.387  36.121  1.00  0.00    -0.206 F 
ATOM     55  C   UNL A   1      38.172  33.773  37.379  1.00  0.00     0.006 A 
ENDBRANCH  27  48
BRANCH  39  56
ATOM     56  C   UNL A   1      44.411  27.846  34.381  1.00  0.00     0.057 A 
ATOM     57  C   UNL A   1      45.632  28.523  34.492  1.00  0.00     0.134 A 
ATOM     58  C   UNL A   1      44.209  26.725  35.197  1.00  0.00     0.134 A 
ATOM     59  F   UNL A   1      45.888  29.592  33.723  1.00  0.00    -0.206 F 
ATOM     60  C   UNL A   1      46.630  28.082  35.359  1.00  0.00     0.040 A 
ATOM     61  C   UNL A   1      45.190  26.292  36.088  1.00  0.00     0.040 A 
ATOM     62  F   UNL A   1      43.059  26.040  35.142  1.00  0.00    -0.206 F 
ATOM     63  C   UNL A   1      46.407  26.967  36.164  1.00  0.00     0.006 A 
ENDBRANCH  39  56
ENDBRANCH  13  14
ENDBRANCH   6   8
ENDBRANCH   5   6
ENDBRANCH   4   5
ENDBRANCH   3   4
ENDBRANCH   2   3
ENDBRANCH   1   2
BRANCH   1  64
ATOM     64  C   UNL A   1      33.373  26.191  22.656  1.00  0.00     0.261 C 
BRANCH  64  65
ATOM     65  O   UNL A   1      32.126  25.544  22.934  1.00  0.00    -0.460 OA
BRANCH  65  66
ATOM     66  C   UNL A   1      32.245  24.216  23.098  1.00  0.00     0.340 C 
ATOM     67  O   UNL A   1      32.693  23.411  22.316  1.00  0.00    -0.246 OA
BRANCH  66  68
ATOM     68  C   UNL A   1      31.570  23.830  24.333  1.00  0.00     0.091 A 
ATOM     69  C   UNL A   1      30.780  24.861  24.872  1.00  0.00     0.020 A 
ATOM     70  C   UNL A   1      31.662  22.620  25.010  1.00  0.00     0.142 A 
ATOM     71  C   UNL A   1      30.168  24.699  26.105  1.00  0.00     0.021 A 
ATOM     72  N   UNL A   1      31.021  22.461  26.215  1.00  0.00    -0.250 NA
ATOM     73  C   UNL A   1      30.328  23.491  26.743  1.00  0.00     0.112 A 
BRANCH  70  74
ATOM     74  C   UNL A   1      32.559  21.446  24.777  1.00  0.00     0.275 C 
ATOM     75  O   UNL A   1      31.997  20.339  24.737  1.00  0.00    -0.267 OA
ATOM     76  N   UNL A   1      33.895  21.397  24.448  1.00  0.00    -0.321 N 
ATOM     77  H   UNL A   1      34.098  20.596  23.913  1.00  0.00     0.170 HD
BRANCH  76  78
ATOM     78  C   UNL A   1      35.046  22.161  24.660  1.00  0.00     0.042 A 
ATOM     79  C   UNL A   1      36.269  21.494  24.459  1.00  0.00     0.033 A 
ATOM     80  C   UNL A   1      35.071  23.434  25.197  1.00  0.00     0.033 A 
ATOM     81  C   UNL A   1      37.461  21.999  24.986  1.00  0.00     0.088 A 
ATOM     82  C   UNL A   1      36.239  23.923  25.796  1.00  0.00     0.088 A 
ATOM     83  C   UNL A   1      37.419  23.177  25.732  1.00  0.00     0.269 A 
BRANCH  83  84
ATOM     84  N   UNL A   1      38.596  23.599  26.493  1.00  0.00     0.062 N 
ATOM     85  O   UNL A   1      38.635  24.774  26.888  1.00  0.00    -0.258 OA
ATOM     86  O   UNL A   1      39.497  22.767  26.666  1.00  0.00    -0.258 OA
ENDBRANCH  83  84
ENDBRANCH  76  78
ENDBRANCH  70  74
ENDBRANCH  66  68
ENDBRANCH  65  66
ENDBRANCH  64  65
ENDBRANCH   1  64
TORSDOF 17
ENDMDL
