MODEL 1
REMARK VINA RESULT:     -12.3      0.000      0.000
REMARK SMILES COc1cccc(C(=O)Nc2ccc(NC(=O)[C@@H]3[C@@H](C(=O)OCCOCCOC(=O)c4ccc(-c5c6nc(c(-c7c(F)cccc7F)c7ccc([nH]7)c(-c7c(F)cccc7F)c7nc(c(-c8c(F)cccc8F)c8ccc5[nH]8)C=C7)C=C6)cc4)[C@@H]4C=C[C@H]3C4)cc2)c1
REMARK SMILES IDX 23 1 22 2 20 3 21 4 19 5 18 6 88 7 85 8 87 9 89 10 86 11
REMARK SMILES IDX 16 12 15 13 17 15 14 16 11 17 12 18 91 19 13 20 90 21 10 22
REMARK SMILES IDX 8 23 9 24 7 26 3 27 4 28 92 29 5 30 6 31 2 32 1 33 24 34
REMARK SMILES IDX 25 35 26 36 27 37 28 38 29 39 30 40 31 41 32 42 84 43 33 44
REMARK SMILES IDX 83 45 34 46 35 47 36 48 77 49 37 50 82 51 76 52 78 53 38 54
REMARK SMILES IDX 81 55 75 56 74 57 39 59 65 60 48 61 64 62 49 63 52 64 63 65
REMARK SMILES IDX 79 66 50 67 51 68 62 70 80 71 53 72 40 73 41 74 46 75 42 76
REMARK SMILES IDX 43 77 45 78 47 79 44 80 66 81 67 82 72 83 68 84 69 85 71 86
REMARK SMILES IDX 73 87 70 88 54 89 55 90 60 91 56 92 57 93 59 94 61 95 58 96
REMARK H PARENT 15 14 10 25 78 58 52 69
REMARK Flexibility Score: inf
ROOT
ATOM      1  C   UNL A   1      33.951  29.287  27.040  1.00  0.00     0.261 C 
ENDROOT
BRANCH   1   2
ATOM      2  O   UNL A   1      33.242  28.123  26.568  1.00  0.00    -0.463 OA
BRANCH   2   3
ATOM      3  C   UNL A   1      33.059  28.038  25.228  1.00  0.00     0.310 C 
ATOM      4  O   UNL A   1      33.942  28.200  24.394  1.00  0.00    -0.252 OA
BRANCH   3   5
ATOM      5  C   UNL A   1      31.644  27.692  24.835  1.00  0.00     0.119 C 
ATOM      6  C   UNL A   1      31.306  26.213  24.493  1.00  0.00     0.100 C 
ATOM      7  C   UNL A   1      30.384  26.368  23.250  1.00  0.00     0.025 C 
ATOM      8  C   UNL A   1      31.220  28.430  23.534  1.00  0.00     0.027 C 
ATOM      9  C   UNL A   1      29.221  27.310  23.472  1.00  0.00    -0.027 C 
ATOM     10  C   UNL A   1      31.272  27.335  22.452  1.00  0.00     0.017 C 
ATOM     11  C   UNL A   1      29.718  28.551  23.609  1.00  0.00    -0.027 C 
BRANCH   6  12
ATOM     12  C   UNL A   1      30.708  25.506  25.685  1.00  0.00     0.228 C 
ATOM     13  N   UNL A   1      31.443  24.810  26.601  1.00  0.00    -0.326 N 
ATOM     14  H   UNL A   1      30.916  24.604  27.408  1.00  0.00     0.169 HD
ATOM     15  O   UNL A   1      29.492  25.549  25.897  1.00  0.00    -0.274 OA
BRANCH  13  16
ATOM     16  C   UNL A   1      32.756  24.309  26.695  1.00  0.00     0.041 A 
ATOM     17  C   UNL A   1      35.046  22.704  26.473  1.00  0.00     0.041 A 
ATOM     18  C   UNL A   1      35.037  23.983  25.933  1.00  0.00     0.028 A 
ATOM     19  C   UNL A   1      34.028  22.332  27.341  1.00  0.00     0.028 A 
ATOM     20  C   UNL A   1      33.887  24.776  26.033  1.00  0.00     0.028 A 
ATOM     21  C   UNL A   1      32.892  23.139  27.459  1.00  0.00     0.028 A 
BRANCH  17  22
ATOM     22  N   UNL A   1      36.039  21.828  26.023  1.00  0.00    -0.322 N 
ATOM     23  C   UNL A   1      35.935  20.663  25.287  1.00  0.00     0.255 C 
ATOM     24  O   UNL A   1      36.960  20.016  25.069  1.00  0.00    -0.269 OA
ATOM     25  H   UNL A   1      36.958  22.081  26.269  1.00  0.00     0.170 HD
BRANCH  23  26
ATOM     26  C   UNL A   1      34.659  20.195  24.670  1.00  0.00     0.043 A 
ATOM     27  C   UNL A   1      33.075  18.480  23.991  1.00  0.00     0.119 A 
ATOM     28  C   UNL A   1      32.270  19.471  23.423  1.00  0.00     0.046 A 
ATOM     29  C   UNL A   1      34.234  18.853  24.673  1.00  0.00     0.060 A 
ATOM     30  C   UNL A   1      32.627  20.815  23.506  1.00  0.00     0.005 A 
ATOM     31  C   UNL A   1      33.825  21.175  24.116  1.00  0.00     0.014 A 
BRANCH  27  32
ATOM     32  O   UNL A   1      32.609  17.210  23.800  1.00  0.00    -0.497 OA
ATOM     33  C   UNL A   1      33.350  16.114  24.315  1.00  0.00     0.278 C 
ENDBRANCH  27  32
ENDBRANCH  23  26
ENDBRANCH  17  22
ENDBRANCH  13  16
ENDBRANCH   6  12
ENDBRANCH   3   5
ENDBRANCH   2   3
ENDBRANCH   1   2
BRANCH   1  34
ATOM     34  C   UNL A   1      33.290  30.584  26.563  1.00  0.00     0.202 C 
BRANCH  34  35
ATOM     35  O   UNL A   1      31.981  30.830  27.078  1.00  0.00    -0.374 OA
BRANCH  35  36
ATOM     36  C   UNL A   1      31.423  32.112  26.796  1.00  0.00     0.202 C 
BRANCH  36  37
ATOM     37  C   UNL A   1      32.389  33.292  26.948  1.00  0.00     0.261 C 
BRANCH  37  38
ATOM     38  O   UNL A   1      32.237  33.929  28.230  1.00  0.00    -0.460 OA
BRANCH  38  39
ATOM     39  C   UNL A   1      33.314  34.653  28.617  1.00  0.00     0.338 C 
ATOM     40  O   UNL A   1      33.345  35.836  28.908  1.00  0.00    -0.246 OA
BRANCH  39  41
ATOM     41  C   UNL A   1      34.484  33.775  28.805  1.00  0.00     0.060 A 
ATOM     42  C   UNL A   1      34.273  32.582  29.506  1.00  0.00     0.016 A 
ATOM     43  C   UNL A   1      35.769  34.144  28.403  1.00  0.00     0.016 A 
ATOM     44  C   UNL A   1      35.355  31.787  29.871  1.00  0.00     0.010 A 
ATOM     45  C   UNL A   1      36.859  33.345  28.774  1.00  0.00     0.010 A 
ATOM     46  C   UNL A   1      36.658  32.186  29.546  1.00  0.00    -0.014 A 
BRANCH  46  47
ATOM     47  C   UNL A   1      37.802  31.479  30.175  1.00  0.00     0.031 A 
ATOM     48  C   UNL A   1      38.114  31.747  31.623  1.00  0.00     0.074 A 
ATOM     49  C   UNL A   1      38.503  30.557  29.492  1.00  0.00     0.049 A 
ATOM     50  N   UNL A   1      39.049  31.232  32.380  1.00  0.00    -0.248 NA
ATOM     51  C   UNL A   1      37.253  32.721  32.312  1.00  0.00     0.031 C 
ATOM     52  C   UNL A   1      38.265  30.166  28.105  1.00  0.00     0.029 A 
ATOM     53  N   UNL A   1      39.559  29.775  29.887  1.00  0.00    -0.354 N 
ATOM     54  C   UNL A   1      38.891  31.820  33.629  1.00  0.00     0.074 A 
ATOM     55  C   UNL A   1      37.791  32.753  33.522  1.00  0.00     0.031 C 
ATOM     56  C   UNL A   1      39.152  29.216  27.763  1.00  0.00     0.029 A 
ATOM     57  C   UNL A   1      40.034  28.950  28.897  1.00  0.00     0.049 A 
ATOM     58  H   UNL A   1      39.941  29.803  30.794  1.00  0.00     0.167 HD
ATOM     59  C   UNL A   1      39.588  31.594  34.768  1.00  0.00     0.037 A 
ATOM     60  C   UNL A   1      41.069  28.088  28.907  1.00  0.00     0.037 A 
ATOM     61  C   UNL A   1      40.681  30.667  34.882  1.00  0.00     0.049 A 
ATOM     62  C   UNL A   1      41.880  27.915  30.164  1.00  0.00     0.074 A 
ATOM     63  C   UNL A   1      41.450  30.369  35.993  1.00  0.00     0.029 A 
ATOM     64  N   UNL A   1      41.164  29.888  33.841  1.00  0.00    -0.354 N 
ATOM     65  N   UNL A   1      41.710  28.463  31.343  1.00  0.00    -0.248 NA
ATOM     66  C   UNL A   1      43.027  26.997  30.092  1.00  0.00     0.031 C 
ATOM     67  C   UNL A   1      42.421  29.437  35.616  1.00  0.00     0.029 A 
ATOM     68  C   UNL A   1      42.230  29.123  34.280  1.00  0.00     0.049 A 
ATOM     69  H   UNL A   1      40.801  29.881  32.925  1.00  0.00     0.167 HD
ATOM     70  C   UNL A   1      42.708  27.940  32.156  1.00  0.00     0.074 A 
ATOM     71  C   UNL A   1      43.472  27.019  31.341  1.00  0.00     0.031 C 
ATOM     72  C   UNL A   1      42.970  28.199  33.460  1.00  0.00     0.037 A 
BRANCH  59  73
ATOM     73  C   UNL A   1      39.194  32.381  35.982  1.00  0.00     0.057 A 
ATOM     74  C   UNL A   1      38.315  31.864  36.942  1.00  0.00     0.134 A 
ATOM     75  C   UNL A   1      39.721  33.659  36.208  1.00  0.00     0.134 A 
ATOM     76  F   UNL A   1      37.763  30.652  36.776  1.00  0.00    -0.206 F 
ATOM     77  C   UNL A   1      37.958  32.598  38.075  1.00  0.00     0.040 A 
ATOM     78  C   UNL A   1      39.389  34.394  37.347  1.00  0.00     0.040 A 
ATOM     79  F   UNL A   1      40.570  34.211  35.328  1.00  0.00    -0.206 F 
ATOM     80  C   UNL A   1      38.501  33.866  38.282  1.00  0.00     0.006 A 
ENDBRANCH  59  73
BRANCH  60  81
ATOM     81  C   UNL A   1      41.413  27.323  27.682  1.00  0.00     0.057 A 
ATOM     82  C   UNL A   1      42.241  27.871  26.694  1.00  0.00     0.134 A 
ATOM     83  C   UNL A   1      40.898  26.042  27.455  1.00  0.00     0.134 A 
ATOM     84  F   UNL A   1      42.747  29.103  26.844  1.00  0.00    -0.206 F 
ATOM     85  C   UNL A   1      42.528  27.178  25.517  1.00  0.00     0.040 A 
ATOM     86  C   UNL A   1      41.195  25.330  26.293  1.00  0.00     0.040 A 
ATOM     87  F   UNL A   1      40.100  25.462  28.363  1.00  0.00    -0.206 F 
ATOM     88  C   UNL A   1      42.007  25.901  25.315  1.00  0.00     0.006 A 
ENDBRANCH  60  81
BRANCH  72  89
ATOM     89  C   UNL A   1      44.103  27.449  34.098  1.00  0.00     0.057 A 
ATOM     90  C   UNL A   1      43.920  26.186  34.674  1.00  0.00     0.134 A 
ATOM     91  C   UNL A   1      45.399  27.980  34.097  1.00  0.00     0.134 A 
ATOM     92  F   UNL A   1      42.701  25.629  34.718  1.00  0.00    -0.206 F 
ATOM     93  C   UNL A   1      44.985  25.485  35.244  1.00  0.00     0.040 A 
ATOM     94  C   UNL A   1      46.475  27.279  34.643  1.00  0.00     0.040 A 
ATOM     95  F   UNL A   1      45.643  29.183  33.552  1.00  0.00    -0.206 F 
ATOM     96  C   UNL A   1      46.268  26.030  35.222  1.00  0.00     0.006 A 
ENDBRANCH  72  89
ENDBRANCH  46  47
ENDBRANCH  39  41
ENDBRANCH  38  39
ENDBRANCH  37  38
ENDBRANCH  36  37
ENDBRANCH  35  36
ENDBRANCH  34  35
ENDBRANCH   1  34
TORSDOF 19
ENDMDL
MODEL 2
REMARK VINA RESULT:     -12.1      1.274      2.309
REMARK SMILES COc1cccc(C(=O)Nc2ccc(NC(=O)[C@@H]3[C@@H](C(=O)OCCOCCOC(=O)c4ccc(-c5c6nc(c(-c7c(F)cccc7F)c7ccc([nH]7)c(-c7c(F)cccc7F)c7nc(c(-c8c(F)cccc8F)c8ccc5[nH]8)C=C7)C=C6)cc4)[C@@H]4C=C[C@H]3C4)cc2)c1
REMARK SMILES IDX 23 1 22 2 20 3 21 4 19 5 18 6 88 7 85 8 87 9 89 10 86 11
REMARK SMILES IDX 16 12 15 13 17 15 14 16 11 17 12 18 91 19 13 20 90 21 10 22
REMARK SMILES IDX 8 23 9 24 7 26 3 27 4 28 92 29 5 30 6 31 2 32 1 33 24 34
REMARK SMILES IDX 25 35 26 36 27 37 28 38 29 39 30 40 31 41 32 42 84 43 33 44
REMARK SMILES IDX 83 45 34 46 35 47 36 48 77 49 37 50 82 51 76 52 78 53 38 54
REMARK SMILES IDX 81 55 75 56 74 57 39 59 65 60 48 61 64 62 49 63 52 64 63 65
REMARK SMILES IDX 79 66 50 67 51 68 62 70 80 71 53 72 40 73 41 74 46 75 42 76
REMARK SMILES IDX 43 77 45 78 47 79 44 80 66 81 67 82 72 83 68 84 69 85 71 86
REMARK SMILES IDX 73 87 70 88 54 89 55 90 60 91 56 92 57 93 59 94 61 95 58 96
REMARK H PARENT 15 14 10 25 78 58 52 69
REMARK Flexibility Score: inf
ROOT
ATOM      1  C   UNL A   1      33.348  29.249  26.086  1.00  0.00     0.261 C 
ENDROOT
BRANCH   1   2
ATOM      2  O   UNL A   1      32.430  28.151  25.904  1.00  0.00    -0.463 OA
BRANCH   2   3
ATOM      3  C   UNL A   1      32.084  27.868  24.625  1.00  0.00     0.310 C 
ATOM      4  O   UNL A   1      32.771  27.217  23.847  1.00  0.00    -0.252 OA
BRANCH   3   5
ATOM      5  C   UNL A   1      30.734  28.414  24.231  1.00  0.00     0.119 C 
ATOM      6  C   UNL A   1      29.898  27.642  23.171  1.00  0.00     0.100 C 
ATOM      7  C   UNL A   1      29.331  28.797  22.298  1.00  0.00     0.025 C 
ATOM      8  C   UNL A   1      30.857  29.822  23.584  1.00  0.00     0.027 C 
ATOM      9  C   UNL A   1      28.617  29.867  23.097  1.00  0.00    -0.027 C 
ATOM     10  C   UNL A   1      30.647  29.559  22.081  1.00  0.00     0.017 C 
ATOM     11  C   UNL A   1      29.536  30.503  23.843  1.00  0.00    -0.027 C 
BRANCH   6  12
ATOM     12  C   UNL A   1      28.882  26.743  23.833  1.00  0.00     0.228 C 
ATOM     13  N   UNL A   1      29.191  25.550  24.419  1.00  0.00    -0.326 N 
ATOM     14  H   UNL A   1      28.451  25.215  24.975  1.00  0.00     0.169 HD
ATOM     15  O   UNL A   1      27.693  27.075  23.893  1.00  0.00    -0.274 OA
BRANCH  13  16
ATOM     16  C   UNL A   1      30.293  24.671  24.435  1.00  0.00     0.041 A 
ATOM     17  C   UNL A   1      31.960  22.454  24.848  1.00  0.00     0.041 A 
ATOM     18  C   UNL A   1      31.687  22.888  23.558  1.00  0.00     0.028 A 
ATOM     19  C   UNL A   1      31.626  23.271  25.920  1.00  0.00     0.028 A 
ATOM     20  C   UNL A   1      30.843  23.987  23.355  1.00  0.00     0.028 A 
ATOM     21  C   UNL A   1      30.804  24.383  25.710  1.00  0.00     0.028 A 
BRANCH  17  22
ATOM     22  N   UNL A   1      32.469  21.159  24.992  1.00  0.00    -0.322 N 
ATOM     23  C   UNL A   1      33.763  20.690  24.876  1.00  0.00     0.255 C 
ATOM     24  O   UNL A   1      33.958  19.478  24.977  1.00  0.00    -0.269 OA
ATOM     25  H   UNL A   1      31.799  20.472  25.210  1.00  0.00     0.170 HD
BRANCH  23  26
ATOM     26  C   UNL A   1      34.948  21.584  24.720  1.00  0.00     0.043 A 
ATOM     27  C   UNL A   1      37.095  22.489  25.417  1.00  0.00     0.119 A 
ATOM     28  C   UNL A   1      37.063  23.361  24.326  1.00  0.00     0.046 A 
ATOM     29  C   UNL A   1      36.068  21.555  25.572  1.00  0.00     0.060 A 
ATOM     30  C   UNL A   1      36.011  23.327  23.414  1.00  0.00     0.005 A 
ATOM     31  C   UNL A   1      34.949  22.450  23.618  1.00  0.00     0.014 A 
BRANCH  27  32
ATOM     32  O   UNL A   1      38.173  22.665  26.238  1.00  0.00    -0.497 OA
ATOM     33  C   UNL A   1      39.274  21.774  26.136  1.00  0.00     0.278 C 
ENDBRANCH  27  32
ENDBRANCH  23  26
ENDBRANCH  17  22
ENDBRANCH  13  16
ENDBRANCH   6  12
ENDBRANCH   3   5
ENDBRANCH   2   3
ENDBRANCH   1   2
BRANCH   1  34
ATOM     34  C   UNL A   1      32.858  30.224  27.161  1.00  0.00     0.202 C 
BRANCH  34  35
ATOM     35  O   UNL A   1      31.613  30.866  26.885  1.00  0.00    -0.374 OA
BRANCH  35  36
ATOM     36  C   UNL A   1      31.658  32.281  26.714  1.00  0.00     0.202 C 
BRANCH  36  37
ATOM     37  C   UNL A   1      32.827  32.986  27.409  1.00  0.00     0.261 C 
BRANCH  37  38
ATOM     38  O   UNL A   1      32.425  34.259  27.946  1.00  0.00    -0.460 OA
BRANCH  38  39
ATOM     39  C   UNL A   1      33.232  34.723  28.930  1.00  0.00     0.338 C 
ATOM     40  O   UNL A   1      33.010  35.642  29.699  1.00  0.00    -0.246 OA
BRANCH  39  41
ATOM     41  C   UNL A   1      34.413  33.852  29.079  1.00  0.00     0.060 A 
ATOM     42  C   UNL A   1      34.226  32.644  29.759  1.00  0.00     0.016 A 
ATOM     43  C   UNL A   1      35.688  34.242  28.661  1.00  0.00     0.016 A 
ATOM     44  C   UNL A   1      35.322  31.852  30.088  1.00  0.00     0.010 A 
ATOM     45  C   UNL A   1      36.791  33.446  28.996  1.00  0.00     0.010 A 
ATOM     46  C   UNL A   1      36.615  32.269  29.748  1.00  0.00    -0.014 A 
BRANCH  46  47
ATOM     47  C   UNL A   1      37.776  31.561  30.341  1.00  0.00     0.031 A 
ATOM     48  C   UNL A   1      38.133  31.827  31.780  1.00  0.00     0.074 A 
ATOM     49  C   UNL A   1      38.456  30.639  29.637  1.00  0.00     0.049 A 
ATOM     50  N   UNL A   1      39.090  31.311  32.507  1.00  0.00    -0.248 NA
ATOM     51  C   UNL A   1      37.294  32.802  32.495  1.00  0.00     0.031 C 
ATOM     52  C   UNL A   1      38.175  30.249  28.257  1.00  0.00     0.029 A 
ATOM     53  N   UNL A   1      39.523  29.855  29.999  1.00  0.00    -0.354 N 
ATOM     54  C   UNL A   1      38.970  31.898  33.761  1.00  0.00     0.074 A 
ATOM     55  C   UNL A   1      37.868  32.831  33.688  1.00  0.00     0.031 C 
ATOM     56  C   UNL A   1      39.051  29.298  27.887  1.00  0.00     0.029 A 
ATOM     57  C   UNL A   1      39.967  29.031  28.994  1.00  0.00     0.049 A 
ATOM     58  H   UNL A   1      39.932  29.882  30.894  1.00  0.00     0.167 HD
ATOM     59  C   UNL A   1      39.701  31.670  34.878  1.00  0.00     0.037 A 
ATOM     60  C   UNL A   1      41.000  28.167  28.972  1.00  0.00     0.037 A 
ATOM     61  C   UNL A   1      40.796  30.741  34.958  1.00  0.00     0.049 A 
ATOM     62  C   UNL A   1      41.849  27.992  30.205  1.00  0.00     0.074 A 
ATOM     63  C   UNL A   1      41.598  30.442  36.045  1.00  0.00     0.029 A 
ATOM     64  N   UNL A   1      41.246  29.963  33.903  1.00  0.00    -0.354 N 
ATOM     65  N   UNL A   1      41.715  28.540  31.388  1.00  0.00    -0.248 NA
ATOM     66  C   UNL A   1      42.992  27.073  30.097  1.00  0.00     0.031 C 
ATOM     67  C   UNL A   1      42.556  29.509  35.638  1.00  0.00     0.029 A 
ATOM     68  C   UNL A   1      42.325  29.197  34.309  1.00  0.00     0.049 A 
ATOM     69  H   UNL A   1      40.856  29.957  32.998  1.00  0.00     0.167 HD
ATOM     70  C   UNL A   1      42.737  28.015  32.170  1.00  0.00     0.074 A 
ATOM     71  C   UNL A   1      43.475  27.094  31.331  1.00  0.00     0.031 C 
ATOM     72  C   UNL A   1      43.038  28.272  33.466  1.00  0.00     0.037 A 
BRANCH  59  73
ATOM     73  C   UNL A   1      39.345  32.457  36.104  1.00  0.00     0.057 A 
ATOM     74  C   UNL A   1      39.911  33.712  36.364  1.00  0.00     0.134 A 
ATOM     75  C   UNL A   1      38.408  31.967  37.022  1.00  0.00     0.134 A 
ATOM     76  F   UNL A   1      40.827  34.230  35.532  1.00  0.00    -0.206 F 
ATOM     77  C   UNL A   1      39.570  34.443  37.504  1.00  0.00     0.040 A 
ATOM     78  C   UNL A   1      38.044  32.698  38.154  1.00  0.00     0.040 A 
ATOM     79  F   UNL A   1      37.828  30.772  36.831  1.00  0.00    -0.206 F 
ATOM     80  C   UNL A   1      38.629  33.938  38.399  1.00  0.00     0.006 A 
ENDBRANCH  59  73
BRANCH  60  81
ATOM     81  C   UNL A   1      41.306  27.403  27.737  1.00  0.00     0.057 A 
ATOM     82  C   UNL A   1      42.161  27.922  26.757  1.00  0.00     0.134 A 
ATOM     83  C   UNL A   1      40.728  26.152  27.493  1.00  0.00     0.134 A 
ATOM     84  F   UNL A   1      42.727  29.126  26.923  1.00  0.00    -0.206 F 
ATOM     85  C   UNL A   1      42.413  27.232  25.570  1.00  0.00     0.040 A 
ATOM     86  C   UNL A   1      40.990  25.442  26.320  1.00  0.00     0.040 A 
ATOM     87  F   UNL A   1      39.901  25.600  28.393  1.00  0.00    -0.206 F 
ATOM     88  C   UNL A   1      41.830  25.986  25.350  1.00  0.00     0.006 A 
ENDBRANCH  60  81
BRANCH  72  89
ATOM     89  C   UNL A   1      44.189  27.521  34.069  1.00  0.00     0.057 A 
ATOM     90  C   UNL A   1      44.021  26.261  34.655  1.00  0.00     0.134 A 
ATOM     91  C   UNL A   1      45.486  28.047  34.023  1.00  0.00     0.134 A 
ATOM     92  F   UNL A   1      42.803  25.708  34.742  1.00  0.00    -0.206 F 
ATOM     93  C   UNL A   1      45.101  25.558  35.192  1.00  0.00     0.040 A 
ATOM     94  C   UNL A   1      46.578  27.345  34.535  1.00  0.00     0.040 A 
ATOM     95  F   UNL A   1      45.716  29.247  33.465  1.00  0.00    -0.206 F 
ATOM     96  C   UNL A   1      46.385  26.098  35.126  1.00  0.00     0.006 A 
ENDBRANCH  72  89
ENDBRANCH  46  47
ENDBRANCH  39  41
ENDBRANCH  38  39
ENDBRANCH  37  38
ENDBRANCH  36  37
ENDBRANCH  35  36
ENDBRANCH  34  35
ENDBRANCH   1  34
TORSDOF 19
ENDMDL
MODEL 3
REMARK VINA RESULT:     -12.0      2.566      8.480
REMARK SMILES COc1cccc(C(=O)Nc2ccc(NC(=O)[C@@H]3[C@@H](C(=O)OCCOCCOC(=O)c4ccc(-c5c6nc(c(-c7c(F)cccc7F)c7ccc([nH]7)c(-c7c(F)cccc7F)c7nc(c(-c8c(F)cccc8F)c8ccc5[nH]8)C=C7)C=C6)cc4)[C@@H]4C=C[C@H]3C4)cc2)c1
REMARK SMILES IDX 23 1 22 2 20 3 21 4 19 5 18 6 88 7 85 8 87 9 89 10 86 11
REMARK SMILES IDX 16 12 15 13 17 15 14 16 11 17 12 18 91 19 13 20 90 21 10 22
REMARK SMILES IDX 8 23 9 24 7 26 3 27 4 28 92 29 5 30 6 31 2 32 1 33 24 34
REMARK SMILES IDX 25 35 26 36 27 37 28 38 29 39 30 40 31 41 32 42 84 43 33 44
REMARK SMILES IDX 83 45 34 46 35 47 36 48 77 49 37 50 82 51 76 52 78 53 38 54
REMARK SMILES IDX 81 55 75 56 74 57 39 59 65 60 48 61 64 62 49 63 52 64 63 65
REMARK SMILES IDX 79 66 50 67 51 68 62 70 80 71 53 72 40 73 41 74 46 75 42 76
REMARK SMILES IDX 43 77 45 78 47 79 44 80 66 81 67 82 72 83 68 84 69 85 71 86
REMARK SMILES IDX 73 87 70 88 54 89 55 90 60 91 56 92 57 93 59 94 61 95 58 96
REMARK H PARENT 15 14 10 25 78 58 52 69
REMARK Flexibility Score: inf
ROOT
ATOM      1  C   UNL A   1      36.347  21.631  25.559  1.00  0.00     0.261 C 
ENDROOT
BRANCH   1   2
ATOM      2  O   UNL A   1      35.815  22.871  26.069  1.00  0.00    -0.463 OA
BRANCH   2   3
ATOM      3  C   UNL A   1      34.627  22.788  26.716  1.00  0.00     0.310 C 
ATOM      4  O   UNL A   1      34.503  22.643  27.926  1.00  0.00    -0.252 OA
BRANCH   3   5
ATOM      5  C   UNL A   1      33.434  22.921  25.803  1.00  0.00     0.119 C 
ATOM      6  C   UNL A   1      33.308  24.197  24.921  1.00  0.00     0.100 C 
ATOM      7  C   UNL A   1      31.794  24.530  25.044  1.00  0.00     0.025 C 
ATOM      8  C   UNL A   1      32.103  22.951  26.607  1.00  0.00     0.027 C 
ATOM      9  C   UNL A   1      30.888  23.364  24.708  1.00  0.00    -0.027 C 
ATOM     10  C   UNL A   1      31.682  24.432  26.573  1.00  0.00     0.017 C 
ATOM     11  C   UNL A   1      31.048  22.432  25.662  1.00  0.00    -0.027 C 
BRANCH   6  12
ATOM     12  C   UNL A   1      33.827  23.944  23.527  1.00  0.00     0.228 C 
ATOM     13  N   UNL A   1      33.808  24.875  22.529  1.00  0.00    -0.326 N 
ATOM     14  H   UNL A   1      34.373  24.605  21.769  1.00  0.00     0.169 HD
ATOM     15  O   UNL A   1      34.326  22.853  23.229  1.00  0.00    -0.274 OA
BRANCH  13  16
ATOM     16  C   UNL A   1      33.191  26.122  22.302  1.00  0.00     0.041 A 
ATOM     17  C   UNL A   1      31.553  28.390  22.503  1.00  0.00     0.041 A 
ATOM     18  C   UNL A   1      32.934  28.520  22.570  1.00  0.00     0.028 A 
ATOM     19  C   UNL A   1      31.010  27.186  22.075  1.00  0.00     0.028 A 
ATOM     20  C   UNL A   1      33.748  27.384  22.484  1.00  0.00     0.028 A 
ATOM     21  C   UNL A   1      31.831  26.059  21.965  1.00  0.00     0.028 A 
BRANCH  17  22
ATOM     22  N   UNL A   1      30.787  29.461  22.974  1.00  0.00    -0.322 N 
ATOM     23  C   UNL A   1      30.656  29.972  24.251  1.00  0.00     0.255 C 
ATOM     24  O   UNL A   1      29.855  30.889  24.434  1.00  0.00    -0.269 OA
ATOM     25  H   UNL A   1      30.257  29.925  22.286  1.00  0.00     0.170 HD
BRANCH  23  26
ATOM     26  C   UNL A   1      31.497  29.528  25.402  1.00  0.00     0.043 A 
ATOM     27  C   UNL A   1      33.330  29.782  26.978  1.00  0.00     0.119 A 
ATOM     28  C   UNL A   1      33.015  28.534  27.520  1.00  0.00     0.046 A 
ATOM     29  C   UNL A   1      32.526  30.306  25.964  1.00  0.00     0.060 A 
ATOM     30  C   UNL A   1      31.931  27.799  27.043  1.00  0.00     0.005 A 
ATOM     31  C   UNL A   1      31.182  28.290  25.977  1.00  0.00     0.014 A 
BRANCH  27  32
ATOM     32  O   UNL A   1      34.437  30.363  27.530  1.00  0.00    -0.497 OA
ATOM     33  C   UNL A   1      35.572  29.559  27.816  1.00  0.00     0.278 C 
ENDBRANCH  27  32
ENDBRANCH  23  26
ENDBRANCH  17  22
ENDBRANCH  13  16
ENDBRANCH   6  12
ENDBRANCH   3   5
ENDBRANCH   2   3
ENDBRANCH   1   2
BRANCH   1  34
ATOM     34  C   UNL A   1      37.800  21.785  25.101  1.00  0.00     0.202 C 
BRANCH  34  35
ATOM     35  O   UNL A   1      38.789  21.506  26.093  1.00  0.00    -0.374 OA
BRANCH  35  36
ATOM     36  C   UNL A   1      39.603  22.605  26.499  1.00  0.00     0.202 C 
BRANCH  36  37
ATOM     37  C   UNL A   1      41.113  22.359  26.432  1.00  0.00     0.261 C 
BRANCH  37  38
ATOM     38  O   UNL A   1      41.829  23.266  27.290  1.00  0.00    -0.460 OA
BRANCH  38  39
ATOM     39  C   UNL A   1      42.159  24.440  26.701  1.00  0.00     0.338 C 
ATOM     40  O   UNL A   1      42.660  24.602  25.602  1.00  0.00    -0.246 OA
BRANCH  39  41
ATOM     41  C   UNL A   1      41.684  25.574  27.514  1.00  0.00     0.060 A 
ATOM     42  C   UNL A   1      42.465  26.735  27.500  1.00  0.00     0.016 A 
ATOM     43  C   UNL A   1      40.567  25.481  28.348  1.00  0.00     0.016 A 
ATOM     44  C   UNL A   1      42.176  27.781  28.371  1.00  0.00     0.010 A 
ATOM     45  C   UNL A   1      40.278  26.533  29.227  1.00  0.00     0.010 A 
ATOM     46  C   UNL A   1      41.109  27.668  29.270  1.00  0.00    -0.014 A 
BRANCH  46  47
ATOM     47  C   UNL A   1      40.986  28.662  30.366  1.00  0.00     0.031 A 
ATOM     48  C   UNL A   1      39.897  29.699  30.289  1.00  0.00     0.074 A 
ATOM     49  C   UNL A   1      41.780  28.597  31.450  1.00  0.00     0.049 A 
ATOM     50  N   UNL A   1      39.593  30.649  31.136  1.00  0.00    -0.248 NA
ATOM     51  C   UNL A   1      39.031  29.655  29.100  1.00  0.00     0.031 C 
ATOM     52  C   UNL A   1      42.833  27.608  31.671  1.00  0.00     0.029 A 
ATOM     53  N   UNL A   1      41.812  29.382  32.574  1.00  0.00    -0.354 N 
ATOM     54  C   UNL A   1      38.506  31.314  30.583  1.00  0.00     0.074 A 
ATOM     55  C   UNL A   1      38.222  30.682  29.315  1.00  0.00     0.031 C 
ATOM     56  C   UNL A   1      43.410  27.847  32.861  1.00  0.00     0.029 A 
ATOM     57  C   UNL A   1      42.785  29.018  33.473  1.00  0.00     0.049 A 
ATOM     58  H   UNL A   1      41.196  30.136  32.723  1.00  0.00     0.167 HD
ATOM     59  C   UNL A   1      37.797  32.351  31.091  1.00  0.00     0.037 A 
ATOM     60  C   UNL A   1      43.134  29.575  34.648  1.00  0.00     0.037 A 
ATOM     61  C   UNL A   1      38.073  32.983  32.354  1.00  0.00     0.049 A 
ATOM     62  C   UNL A   1      42.381  30.778  35.154  1.00  0.00     0.074 A 
ATOM     63  C   UNL A   1      37.411  34.040  32.953  1.00  0.00     0.029 A 
ATOM     64  N   UNL A   1      39.100  32.616  33.209  1.00  0.00    -0.354 N 
ATOM     65  N   UNL A   1      41.345  31.387  34.630  1.00  0.00    -0.248 NA
ATOM     66  C   UNL A   1      42.846  31.368  36.418  1.00  0.00     0.031 C 
ATOM     67  C   UNL A   1      38.060  34.336  34.156  1.00  0.00     0.029 A 
ATOM     68  C   UNL A   1      39.100  33.437  34.324  1.00  0.00     0.049 A 
ATOM     69  H   UNL A   1      39.735  31.881  33.048  1.00  0.00     0.167 HD
ATOM     70  C   UNL A   1      41.019  32.412  35.510  1.00  0.00     0.074 A 
ATOM     71  C   UNL A   1      41.959  32.335  36.609  1.00  0.00     0.031 C 
ATOM     72  C   UNL A   1      40.033  33.336  35.417  1.00  0.00     0.037 A 
BRANCH  59  73
ATOM     73  C   UNL A   1      36.660  32.876  30.267  1.00  0.00     0.057 A 
ATOM     74  C   UNL A   1      35.330  32.534  30.544  1.00  0.00     0.134 A 
ATOM     75  C   UNL A   1      36.894  33.753  29.201  1.00  0.00     0.134 A 
ATOM     76  F   UNL A   1      35.040  31.685  31.541  1.00  0.00    -0.206 F 
ATOM     77  C   UNL A   1      34.274  33.032  29.778  1.00  0.00     0.040 A 
ATOM     78  C   UNL A   1      35.847  34.275  28.441  1.00  0.00     0.040 A 
ATOM     79  F   UNL A   1      38.145  34.122  28.885  1.00  0.00    -0.206 F 
ATOM     80  C   UNL A   1      34.532  33.910  28.726  1.00  0.00     0.006 A 
ENDBRANCH  59  73
BRANCH  60  81
ATOM     81  C   UNL A   1      44.261  29.012  35.434  1.00  0.00     0.057 A 
ATOM     82  C   UNL A   1      45.582  29.409  35.193  1.00  0.00     0.134 A 
ATOM     83  C   UNL A   1      44.048  28.043  36.421  1.00  0.00     0.134 A 
ATOM     84  F   UNL A   1      45.852  30.317  34.245  1.00  0.00    -0.206 F 
ATOM     85  C   UNL A   1      46.651  28.847  35.893  1.00  0.00     0.040 A 
ATOM     86  C   UNL A   1      45.106  27.490  37.143  1.00  0.00     0.040 A 
ATOM     87  F   UNL A   1      42.806  27.622  36.700  1.00  0.00    -0.206 F 
ATOM     88  C   UNL A   1      46.415  27.887  36.874  1.00  0.00     0.006 A 
ENDBRANCH  60  81
BRANCH  72  89
ATOM     89  C   UNL A   1      39.891  34.311  36.549  1.00  0.00     0.057 A 
ATOM     90  C   UNL A   1      40.522  35.561  36.531  1.00  0.00     0.134 A 
ATOM     91  C   UNL A   1      39.078  34.011  37.649  1.00  0.00     0.134 A 
ATOM     92  F   UNL A   1      41.323  35.903  35.511  1.00  0.00    -0.206 F 
ATOM     93  C   UNL A   1      40.364  36.472  37.577  1.00  0.00     0.040 A 
ATOM     94  C   UNL A   1      38.894  34.922  38.691  1.00  0.00     0.040 A 
ATOM     95  F   UNL A   1      38.437  32.834  37.723  1.00  0.00    -0.206 F 
ATOM     96  C   UNL A   1      39.542  36.155  38.658  1.00  0.00     0.006 A 
ENDBRANCH  72  89
ENDBRANCH  46  47
ENDBRANCH  39  41
ENDBRANCH  38  39
ENDBRANCH  37  38
ENDBRANCH  36  37
ENDBRANCH  35  36
ENDBRANCH  34  35
ENDBRANCH   1  34
TORSDOF 19
ENDMDL
