MODEL 1
REMARK VINA RESULT:     -10.8      0.000      0.000
REMARK SMILES CC(C)CCNC(=O)[C@@H](C)Oc1ccc(N)cc1C(=O)OCCOCCOC(=O)c1ccc(-c2c3nc(c(-c4c(F)cccc4F)c4ccc([nH]4)c(-c4c(F)cccc4F)c4nc(c(-c5c(F)cccc5F)c5ccc2[nH]5)C=C4)C=C3)cc1
REMARK SMILES IDX 22 1 21 2 19 3 20 4 18 5 12 6 13 7 14 8 17 9 15 10 11 11
REMARK SMILES IDX 9 12 10 13 7 14 6 15 8 17 5 18 4 19 2 20 1 21 3 22 16 23
REMARK SMILES IDX 23 26 24 27 25 28 26 29 27 30 28 31 29 32 30 33 31 34 83 35
REMARK SMILES IDX 32 36 82 37 33 38 34 39 35 40 76 41 36 42 81 43 75 44 77 45
REMARK SMILES IDX 37 46 80 47 74 48 73 49 38 51 64 52 47 53 63 54 48 55 51 56
REMARK SMILES IDX 62 57 78 58 49 59 50 60 61 62 79 63 52 64 39 65 40 66 45 67
REMARK SMILES IDX 41 68 42 69 44 70 46 71 43 72 65 73 66 74 71 75 67 76 68 77
REMARK SMILES IDX 70 78 72 79 69 80 53 81 54 82 59 83 55 84 56 85 58 86 60 87
REMARK SMILES IDX 57 88
REMARK H PARENT 6 16 16 24 16 25 77 50 51 61
REMARK Flexibility Score: inf
ROOT
ATOM      1  C   UNL A   1      31.769  27.335  26.708  1.00  0.00     0.261 C 
ENDROOT
BRANCH   1   2
ATOM      2  O   UNL A   1      31.597  26.260  25.769  1.00  0.00    -0.460 OA
BRANCH   2   3
ATOM      3  C   UNL A   1      31.697  25.032  26.326  1.00  0.00     0.342 C 
ATOM      4  O   UNL A   1      30.816  24.464  26.957  1.00  0.00    -0.246 OA
BRANCH   3   5
ATOM      5  C   UNL A   1      32.964  24.334  26.009  1.00  0.00     0.104 A 
ATOM      6  C   UNL A   1      33.902  24.729  25.052  1.00  0.00     0.135 A 
ATOM      7  C   UNL A   1      35.213  24.289  25.220  1.00  0.00     0.049 A 
ATOM      8  C   UNL A   1      35.511  23.253  26.114  1.00  0.00     0.029 A 
ATOM      9  C   UNL A   1      33.257  23.249  26.859  1.00  0.00     0.045 A 
ATOM     10  C   UNL A   1      34.502  22.636  26.842  1.00  0.00     0.032 A 
BRANCH   6  11
ATOM     11  O   UNL A   1      33.606  25.599  24.049  1.00  0.00    -0.480 OA
BRANCH  11  12
ATOM     12  C   UNL A   1      32.974  25.047  22.881  1.00  0.00     0.258 C 
ATOM     13  C   UNL A   1      33.443  23.618  22.587  1.00  0.00     0.064 C 
BRANCH  12  14
ATOM     14  C   UNL A   1      32.627  25.861  21.583  1.00  0.00     0.260 C 
ATOM     15  N   UNL A   1      31.794  26.946  21.554  1.00  0.00    -0.353 N 
ATOM     16  H   UNL A   1      31.890  27.524  20.762  1.00  0.00     0.163 HD
ATOM     17  O   UNL A   1      33.135  25.539  20.501  1.00  0.00    -0.271 OA
BRANCH  15  18
ATOM     18  C   UNL A   1      30.795  27.375  22.509  1.00  0.00     0.116 C 
BRANCH  18  19
ATOM     19  C   UNL A   1      30.369  28.835  22.387  1.00  0.00     0.024 C 
BRANCH  19  20
ATOM     20  C   UNL A   1      28.958  29.170  22.926  1.00  0.00    -0.016 C 
ATOM     21  C   UNL A   1      28.081  29.933  21.928  1.00  0.00     0.007 C 
ATOM     22  C   UNL A   1      28.252  27.866  23.313  1.00  0.00     0.007 C 
ENDBRANCH  19  20
ENDBRANCH  18  19
ENDBRANCH  15  18
ENDBRANCH  12  14
ENDBRANCH  11  12
ENDBRANCH   6  11
BRANCH  10  23
ATOM     23  N   UNL A   1      34.765  21.546  27.651  1.00  0.00    -0.399 N 
ATOM     24  H   UNL A   1      35.663  21.422  28.033  1.00  0.00     0.156 HD
ATOM     25  H   UNL A   1      34.053  20.894  27.843  1.00  0.00     0.156 HD
ENDBRANCH  10  23
ENDBRANCH   3   5
ENDBRANCH   2   3
ENDBRANCH   1   2
BRANCH   1  26
ATOM     26  C   UNL A   1      31.662  28.695  26.018  1.00  0.00     0.202 C 
BRANCH  26  27
ATOM     27  O   UNL A   1      31.721  29.840  26.867  1.00  0.00    -0.374 OA
BRANCH  27  28
ATOM     28  C   UNL A   1      31.811  31.115  26.229  1.00  0.00     0.202 C 
BRANCH  28  29
ATOM     29  C   UNL A   1      31.597  32.332  27.136  1.00  0.00     0.261 C 
BRANCH  29  30
ATOM     30  O   UNL A   1      32.605  33.338  26.912  1.00  0.00    -0.460 OA
BRANCH  30  31
ATOM     31  C   UNL A   1      33.160  33.853  28.032  1.00  0.00     0.338 C 
ATOM     32  O   UNL A   1      32.662  34.671  28.798  1.00  0.00    -0.246 OA
BRANCH  31  33
ATOM     33  C   UNL A   1      34.414  33.141  28.342  1.00  0.00     0.060 A 
ATOM     34  C   UNL A   1      34.319  31.788  28.696  1.00  0.00     0.016 A 
ATOM     35  C   UNL A   1      35.651  33.788  28.340  1.00  0.00     0.016 A 
ATOM     36  C   UNL A   1      35.453  31.091  29.102  1.00  0.00     0.010 A 
ATOM     37  C   UNL A   1      36.789  33.089  28.756  1.00  0.00     0.010 A 
ATOM     38  C   UNL A   1      36.687  31.750  29.178  1.00  0.00    -0.014 A 
BRANCH  38  39
ATOM     39  C   UNL A   1      37.827  31.085  29.854  1.00  0.00     0.031 A 
ATOM     40  C   UNL A   1      38.094  31.396  31.301  1.00  0.00     0.074 A 
ATOM     41  C   UNL A   1      38.591  30.191  29.204  1.00  0.00     0.049 A 
ATOM     42  N   UNL A   1      39.043  30.955  32.085  1.00  0.00    -0.248 NA
ATOM     43  C   UNL A   1      37.164  32.335  31.951  1.00  0.00     0.031 C 
ATOM     44  C   UNL A   1      38.413  29.777  27.813  1.00  0.00     0.029 A 
ATOM     45  N   UNL A   1      39.679  29.472  29.633  1.00  0.00    -0.354 N 
ATOM     46  C   UNL A   1      38.831  31.566  33.314  1.00  0.00     0.074 A 
ATOM     47  C   UNL A   1      37.683  32.431  33.166  1.00  0.00     0.031 C 
ATOM     48  C   UNL A   1      39.367  28.884  27.499  1.00  0.00     0.029 A 
ATOM     49  C   UNL A   1      40.237  28.685  28.657  1.00  0.00     0.049 A 
ATOM     50  H   UNL A   1      40.025  29.517  30.553  1.00  0.00     0.167 HD
ATOM     51  C   UNL A   1      39.526  31.412  34.467  1.00  0.00     0.037 A 
ATOM     52  C   UNL A   1      41.338  27.909  28.690  1.00  0.00     0.037 A 
ATOM     53  C   UNL A   1      40.664  30.544  34.616  1.00  0.00     0.049 A 
ATOM     54  C   UNL A   1      42.130  27.801  29.967  1.00  0.00     0.074 A 
ATOM     55  C   UNL A   1      41.418  30.300  35.751  1.00  0.00     0.029 A 
ATOM     56  N   UNL A   1      41.216  29.783  33.597  1.00  0.00    -0.354 N 
ATOM     57  N   UNL A   1      41.905  28.360  31.131  1.00  0.00    -0.248 NA
ATOM     58  C   UNL A   1      43.327  26.948  29.934  1.00  0.00     0.031 C 
ATOM     59  C   UNL A   1      42.456  29.428  35.406  1.00  0.00     0.029 A 
ATOM     60  C   UNL A   1      42.318  29.089  34.070  1.00  0.00     0.049 A 
ATOM     61  H   UNL A   1      40.876  29.742  32.674  1.00  0.00     0.167 HD
ATOM     62  C   UNL A   1      42.913  27.907  31.973  1.00  0.00     0.074 A 
ATOM     63  C   UNL A   1      43.745  27.017  31.190  1.00  0.00     0.031 C 
ATOM     64  C   UNL A   1      43.131  28.201  33.279  1.00  0.00     0.037 A 
BRANCH  51  65
ATOM     65  C   UNL A   1      39.087  32.220  35.652  1.00  0.00     0.057 A 
ATOM     66  C   UNL A   1      39.493  33.549  35.834  1.00  0.00     0.134 A 
ATOM     67  C   UNL A   1      38.223  31.671  36.606  1.00  0.00     0.134 A 
ATOM     68  F   UNL A   1      40.334  34.130  34.965  1.00  0.00    -0.206 F 
ATOM     69  C   UNL A   1      39.069  34.295  36.936  1.00  0.00     0.040 A 
ATOM     70  C   UNL A   1      37.772  32.416  37.697  1.00  0.00     0.040 A 
ATOM     71  F   UNL A   1      37.794  30.405  36.489  1.00  0.00    -0.206 F 
ATOM     72  C   UNL A   1      38.201  33.730  37.867  1.00  0.00     0.006 A 
ENDBRANCH  51  65
BRANCH  52  73
ATOM     73  C   UNL A   1      41.769  27.180  27.471  1.00  0.00     0.057 A 
ATOM     74  C   UNL A   1      41.387  25.854  27.243  1.00  0.00     0.134 A 
ATOM     75  C   UNL A   1      42.591  27.789  26.514  1.00  0.00     0.134 A 
ATOM     76  F   UNL A   1      40.622  25.209  28.136  1.00  0.00    -0.206 F 
ATOM     77  C   UNL A   1      41.819  25.153  26.115  1.00  0.00     0.040 A 
ATOM     78  C   UNL A   1      43.010  27.109  25.370  1.00  0.00     0.040 A 
ATOM     79  F   UNL A   1      42.993  29.059  26.676  1.00  0.00    -0.206 F 
ATOM     80  C   UNL A   1      42.628  25.783  25.172  1.00  0.00     0.006 A 
ENDBRANCH  52  73
BRANCH  64  81
ATOM     81  C   UNL A   1      44.290  27.527  33.955  1.00  0.00     0.057 A 
ATOM     82  C   UNL A   1      45.558  28.120  34.018  1.00  0.00     0.134 A 
ATOM     83  C   UNL A   1      44.125  26.287  34.585  1.00  0.00     0.134 A 
ATOM     84  F   UNL A   1      45.786  29.301  33.425  1.00  0.00    -0.206 F 
ATOM     85  C   UNL A   1      46.623  27.494  34.666  1.00  0.00     0.040 A 
ATOM     86  C   UNL A   1      45.175  25.664  35.260  1.00  0.00     0.040 A 
ATOM     87  F   UNL A   1      42.934  25.669  34.571  1.00  0.00    -0.206 F 
ATOM     88  C   UNL A   1      46.431  26.265  35.296  1.00  0.00     0.006 A 
ENDBRANCH  64  81
ENDBRANCH  38  39
ENDBRANCH  31  33
ENDBRANCH  30  31
ENDBRANCH  29  30
ENDBRANCH  28  29
ENDBRANCH  27  28
ENDBRANCH  26  27
ENDBRANCH   1  26
TORSDOF 21
ENDMDL
MODEL 2
REMARK VINA RESULT:     -10.8      1.762      7.014
REMARK SMILES CC(C)CCNC(=O)[C@@H](C)Oc1ccc(N)cc1C(=O)OCCOCCOC(=O)c1ccc(-c2c3nc(c(-c4c(F)cccc4F)c4ccc([nH]4)c(-c4c(F)cccc4F)c4nc(c(-c5c(F)cccc5F)c5ccc2[nH]5)C=C4)C=C3)cc1
REMARK SMILES IDX 22 1 21 2 19 3 20 4 18 5 12 6 13 7 14 8 17 9 15 10 11 11
REMARK SMILES IDX 9 12 10 13 7 14 6 15 8 17 5 18 4 19 2 20 1 21 3 22 16 23
REMARK SMILES IDX 23 26 24 27 25 28 26 29 27 30 28 31 29 32 30 33 31 34 83 35
REMARK SMILES IDX 32 36 82 37 33 38 34 39 35 40 76 41 36 42 81 43 75 44 77 45
REMARK SMILES IDX 37 46 80 47 74 48 73 49 38 51 64 52 47 53 63 54 48 55 51 56
REMARK SMILES IDX 62 57 78 58 49 59 50 60 61 62 79 63 52 64 39 65 40 66 45 67
REMARK SMILES IDX 41 68 42 69 44 70 46 71 43 72 65 73 66 74 71 75 67 76 68 77
REMARK SMILES IDX 70 78 72 79 69 80 53 81 54 82 59 83 55 84 56 85 58 86 60 87
REMARK SMILES IDX 57 88
REMARK H PARENT 6 16 16 24 16 25 77 50 51 61
REMARK Flexibility Score: inf
ROOT
ATOM      1  C   UNL A   1      32.964  27.218  24.638  1.00  0.00     0.261 C 
ENDROOT
BRANCH   1   2
ATOM      2  O   UNL A   1      34.028  26.262  24.501  1.00  0.00    -0.460 OA
BRANCH   2   3
ATOM      3  C   UNL A   1      33.897  25.185  25.307  1.00  0.00     0.342 C 
ATOM      4  O   UNL A   1      33.015  25.024  26.141  1.00  0.00    -0.246 OA
BRANCH   3   5
ATOM      5  C   UNL A   1      34.868  24.104  25.022  1.00  0.00     0.104 A 
ATOM      6  C   UNL A   1      34.818  23.217  23.944  1.00  0.00     0.135 A 
ATOM      7  C   UNL A   1      36.014  22.627  23.543  1.00  0.00     0.049 A 
ATOM      8  C   UNL A   1      37.144  22.670  24.370  1.00  0.00     0.029 A 
ATOM      9  C   UNL A   1      35.987  24.089  25.879  1.00  0.00     0.045 A 
ATOM     10  C   UNL A   1      37.090  23.292  25.610  1.00  0.00     0.032 A 
BRANCH   6  11
ATOM     11  O   UNL A   1      33.685  23.006  23.220  1.00  0.00    -0.480 OA
BRANCH  11  12
ATOM     12  C   UNL A   1      32.905  21.849  23.567  1.00  0.00     0.258 C 
ATOM     13  C   UNL A   1      32.117  21.300  22.372  1.00  0.00     0.064 C 
BRANCH  12  14
ATOM     14  C   UNL A   1      32.165  21.647  24.938  1.00  0.00     0.260 C 
ATOM     15  N   UNL A   1      32.502  20.695  25.861  1.00  0.00    -0.353 N 
ATOM     16  H   UNL A   1      32.163  20.859  26.772  1.00  0.00     0.163 HD
ATOM     17  O   UNL A   1      31.223  22.389  25.244  1.00  0.00    -0.271 OA
BRANCH  15  18
ATOM     18  C   UNL A   1      33.279  19.484  25.706  1.00  0.00     0.116 C 
BRANCH  18  19
ATOM     19  C   UNL A   1      32.513  18.292  25.140  1.00  0.00     0.024 C 
BRANCH  19  20
ATOM     20  C   UNL A   1      33.278  17.432  24.106  1.00  0.00    -0.016 C 
ATOM     21  C   UNL A   1      32.864  17.700  22.655  1.00  0.00     0.007 C 
ATOM     22  C   UNL A   1      34.780  17.699  24.251  1.00  0.00     0.007 C 
ENDBRANCH  19  20
ENDBRANCH  18  19
ENDBRANCH  15  18
ENDBRANCH  12  14
ENDBRANCH  11  12
ENDBRANCH   6  11
BRANCH  10  23
ATOM     23  N   UNL A   1      38.164  23.253  26.480  1.00  0.00    -0.399 N 
ATOM     24  H   UNL A   1      38.945  22.690  26.273  1.00  0.00     0.156 HD
ATOM     25  H   UNL A   1      38.148  23.788  27.305  1.00  0.00     0.156 HD
ENDBRANCH  10  23
ENDBRANCH   3   5
ENDBRANCH   2   3
ENDBRANCH   1   2
BRANCH   1  26
ATOM     26  C   UNL A   1      33.426  28.452  25.415  1.00  0.00     0.202 C 
BRANCH  26  27
ATOM     27  O   UNL A   1      32.935  29.709  24.952  1.00  0.00    -0.374 OA
BRANCH  27  28
ATOM     28  C   UNL A   1      31.591  30.046  25.297  1.00  0.00     0.202 C 
BRANCH  28  29
ATOM     29  C   UNL A   1      31.397  31.406  25.978  1.00  0.00     0.261 C 
BRANCH  29  30
ATOM     30  O   UNL A   1      32.067  31.454  27.253  1.00  0.00    -0.460 OA
BRANCH  30  31
ATOM     31  C   UNL A   1      32.870  32.526  27.439  1.00  0.00     0.338 C 
ATOM     32  O   UNL A   1      32.550  33.710  27.390  1.00  0.00    -0.246 OA
BRANCH  31  33
ATOM     33  C   UNL A   1      34.192  32.085  27.918  1.00  0.00     0.060 A 
ATOM     34  C   UNL A   1      34.361  30.719  28.185  1.00  0.00     0.016 A 
ATOM     35  C   UNL A   1      35.233  32.987  28.152  1.00  0.00     0.016 A 
ATOM     36  C   UNL A   1      35.552  30.258  28.739  1.00  0.00     0.010 A 
ATOM     37  C   UNL A   1      36.425  32.522  28.716  1.00  0.00     0.010 A 
ATOM     38  C   UNL A   1      36.574  31.163  29.050  1.00  0.00    -0.014 A 
BRANCH  38  39
ATOM     39  C   UNL A   1      37.722  30.711  29.873  1.00  0.00     0.031 A 
ATOM     40  C   UNL A   1      38.717  29.760  29.267  1.00  0.00     0.074 A 
ATOM     41  C   UNL A   1      37.898  31.167  31.125  1.00  0.00     0.049 A 
ATOM     42  N   UNL A   1      39.779  29.216  29.803  1.00  0.00    -0.248 NA
ATOM     43  C   UNL A   1      38.482  29.369  27.868  1.00  0.00     0.031 C 
ATOM     44  C   UNL A   1      37.025  32.117  31.811  1.00  0.00     0.029 A 
ATOM     45  N   UNL A   1      38.875  30.880  32.045  1.00  0.00    -0.354 N 
ATOM     46  C   UNL A   1      40.332  28.413  28.814  1.00  0.00     0.074 A 
ATOM     47  C   UNL A   1      39.474  28.518  27.654  1.00  0.00     0.031 C 
ATOM     48  C   UNL A   1      37.500  32.328  33.050  1.00  0.00     0.029 A 
ATOM     49  C   UNL A   1      38.693  31.508  33.252  1.00  0.00     0.049 A 
ATOM     50  H   UNL A   1      39.635  30.283  31.857  1.00  0.00     0.167 HD
ATOM     51  C   UNL A   1      41.459  27.664  28.863  1.00  0.00     0.037 A 
ATOM     52  C   UNL A   1      39.399  31.413  34.397  1.00  0.00     0.037 A 
ATOM     53  C   UNL A   1      42.317  27.567  30.014  1.00  0.00     0.049 A 
ATOM     54  C   UNL A   1      40.615  30.525  34.446  1.00  0.00     0.074 A 
ATOM     55  C   UNL A   1      43.496  26.855  30.152  1.00  0.00     0.029 A 
ATOM     56  N   UNL A   1      42.084  28.196  31.227  1.00  0.00    -0.354 N 
ATOM     57  N   UNL A   1      41.145  29.793  33.496  1.00  0.00    -0.248 NA
ATOM     58  C   UNL A   1      41.333  30.456  35.727  1.00  0.00     0.031 C 
ATOM     59  C   UNL A   1      43.950  27.015  31.465  1.00  0.00     0.029 A 
ATOM     60  C   UNL A   1      43.083  27.867  32.129  1.00  0.00     0.049 A 
ATOM     61  H   UNL A   1      41.322  28.789  31.420  1.00  0.00     0.167 HD
ATOM     62  C   UNL A   1      42.270  29.200  34.055  1.00  0.00     0.074 A 
ATOM     63  C   UNL A   1      42.354  29.667  35.423  1.00  0.00     0.031 C 
ATOM     64  C   UNL A   1      43.157  28.346  33.485  1.00  0.00     0.037 A 
BRANCH  51  65
ATOM     65  C   UNL A   1      41.815  26.870  27.641  1.00  0.00     0.057 A 
ATOM     66  C   UNL A   1      42.565  27.420  26.592  1.00  0.00     0.134 A 
ATOM     67  C   UNL A   1      41.429  25.530  27.526  1.00  0.00     0.134 A 
ATOM     68  F   UNL A   1      42.952  28.704  26.632  1.00  0.00    -0.206 F 
ATOM     69  C   UNL A   1      42.899  26.669  25.464  1.00  0.00     0.040 A 
ATOM     70  C   UNL A   1      41.780  24.761  26.415  1.00  0.00     0.040 A 
ATOM     71  F   UNL A   1      40.713  24.942  28.495  1.00  0.00    -0.206 F 
ATOM     72  C   UNL A   1      42.512  25.333  25.377  1.00  0.00     0.006 A 
ENDBRANCH  51  65
BRANCH  52  73
ATOM     73  C   UNL A   1      38.967  32.168  35.599  1.00  0.00     0.057 A 
ATOM     74  C   UNL A   1      39.349  33.499  35.799  1.00  0.00     0.134 A 
ATOM     75  C   UNL A   1      38.177  31.569  36.588  1.00  0.00     0.134 A 
ATOM     76  F   UNL A   1      40.127  34.119  34.899  1.00  0.00    -0.206 F 
ATOM     77  C   UNL A   1      38.976  34.203  36.945  1.00  0.00     0.040 A 
ATOM     78  C   UNL A   1      37.775  32.268  37.727  1.00  0.00     0.040 A 
ATOM     79  F   UNL A   1      37.779  30.294  36.457  1.00  0.00    -0.206 F 
ATOM     80  C   UNL A   1      38.181  33.588  37.910  1.00  0.00     0.006 A 
ENDBRANCH  52  73
BRANCH  64  81
ATOM     81  C   UNL A   1      44.313  27.889  34.326  1.00  0.00     0.057 A 
ATOM     82  C   UNL A   1      44.263  26.706  35.075  1.00  0.00     0.134 A 
ATOM     83  C   UNL A   1      45.506  28.621  34.354  1.00  0.00     0.134 A 
ATOM     84  F   UNL A   1      43.146  25.964  35.100  1.00  0.00    -0.206 F 
ATOM     85  C   UNL A   1      45.352  26.280  35.838  1.00  0.00     0.040 A 
ATOM     86  C   UNL A   1      46.611  28.192  35.091  1.00  0.00     0.040 A 
ATOM     87  F   UNL A   1      45.625  29.758  33.652  1.00  0.00    -0.206 F 
ATOM     88  C   UNL A   1      46.533  27.020  35.841  1.00  0.00     0.006 A 
ENDBRANCH  64  81
ENDBRANCH  38  39
ENDBRANCH  31  33
ENDBRANCH  30  31
ENDBRANCH  29  30
ENDBRANCH  28  29
ENDBRANCH  27  28
ENDBRANCH  26  27
ENDBRANCH   1  26
TORSDOF 21
ENDMDL
MODEL 3
REMARK VINA RESULT:     -10.7      1.991      3.883
REMARK SMILES CC(C)CCNC(=O)[C@@H](C)Oc1ccc(N)cc1C(=O)OCCOCCOC(=O)c1ccc(-c2c3nc(c(-c4c(F)cccc4F)c4ccc([nH]4)c(-c4c(F)cccc4F)c4nc(c(-c5c(F)cccc5F)c5ccc2[nH]5)C=C4)C=C3)cc1
REMARK SMILES IDX 22 1 21 2 19 3 20 4 18 5 12 6 13 7 14 8 17 9 15 10 11 11
REMARK SMILES IDX 9 12 10 13 7 14 6 15 8 17 5 18 4 19 2 20 1 21 3 22 16 23
REMARK SMILES IDX 23 26 24 27 25 28 26 29 27 30 28 31 29 32 30 33 31 34 83 35
REMARK SMILES IDX 32 36 82 37 33 38 34 39 35 40 76 41 36 42 81 43 75 44 77 45
REMARK SMILES IDX 37 46 80 47 74 48 73 49 38 51 64 52 47 53 63 54 48 55 51 56
REMARK SMILES IDX 62 57 78 58 49 59 50 60 61 62 79 63 52 64 39 65 40 66 45 67
REMARK SMILES IDX 41 68 42 69 44 70 46 71 43 72 65 73 66 74 71 75 67 76 68 77
REMARK SMILES IDX 70 78 72 79 69 80 53 81 54 82 59 83 55 84 56 85 58 86 60 87
REMARK SMILES IDX 57 88
REMARK H PARENT 6 16 16 24 16 25 77 50 51 61
REMARK Flexibility Score: inf
ROOT
ATOM      1  C   UNL A   1      32.865  27.156  24.432  1.00  0.00     0.261 C 
ENDROOT
BRANCH   1   2
ATOM      2  O   UNL A   1      34.030  26.319  24.516  1.00  0.00    -0.460 OA
BRANCH   2   3
ATOM      3  C   UNL A   1      33.867  25.241  25.316  1.00  0.00     0.342 C 
ATOM      4  O   UNL A   1      32.994  25.111  26.164  1.00  0.00    -0.246 OA
BRANCH   3   5
ATOM      5  C   UNL A   1      34.786  24.123  25.005  1.00  0.00     0.104 A 
ATOM      6  C   UNL A   1      34.657  23.224  23.943  1.00  0.00     0.135 A 
ATOM      7  C   UNL A   1      35.813  22.586  23.500  1.00  0.00     0.049 A 
ATOM      8  C   UNL A   1      36.979  22.599  24.275  1.00  0.00     0.029 A 
ATOM      9  C   UNL A   1      35.940  24.078  25.812  1.00  0.00     0.045 A 
ATOM     10  C   UNL A   1      37.002  23.239  25.507  1.00  0.00     0.032 A 
BRANCH   6  11
ATOM     11  O   UNL A   1      33.487  23.044  23.273  1.00  0.00    -0.480 OA
BRANCH  11  12
ATOM     12  C   UNL A   1      32.798  21.802  23.499  1.00  0.00     0.258 C 
ATOM     13  C   UNL A   1      31.877  21.427  22.333  1.00  0.00     0.064 C 
BRANCH  12  14
ATOM     14  C   UNL A   1      32.254  21.322  24.893  1.00  0.00     0.260 C 
ATOM     15  N   UNL A   1      32.317  20.031  25.341  1.00  0.00    -0.353 N 
ATOM     16  H   UNL A   1      32.213  19.922  26.315  1.00  0.00     0.163 HD
ATOM     17  O   UNL A   1      31.744  22.140  25.669  1.00  0.00    -0.271 OA
BRANCH  15  18
ATOM     18  C   UNL A   1      32.515  18.801  24.604  1.00  0.00     0.116 C 
BRANCH  18  19
ATOM     19  C   UNL A   1      33.302  17.723  25.344  1.00  0.00     0.024 C 
BRANCH  19  20
ATOM     20  C   UNL A   1      34.493  17.111  24.569  1.00  0.00    -0.016 C 
ATOM     21  C   UNL A   1      35.030  15.815  25.186  1.00  0.00     0.007 C 
ATOM     22  C   UNL A   1      34.055  16.831  23.127  1.00  0.00     0.007 C 
ENDBRANCH  19  20
ENDBRANCH  18  19
ENDBRANCH  15  18
ENDBRANCH  12  14
ENDBRANCH  11  12
ENDBRANCH   6  11
BRANCH  10  23
ATOM     23  N   UNL A   1      38.111  23.173  26.329  1.00  0.00    -0.399 N 
ATOM     24  H   UNL A   1      38.021  22.843  27.252  1.00  0.00     0.156 HD
ATOM     25  H   UNL A   1      38.991  23.458  25.992  1.00  0.00     0.156 HD
ENDBRANCH  10  23
ENDBRANCH   3   5
ENDBRANCH   2   3
ENDBRANCH   1   2
BRANCH   1  26
ATOM     26  C   UNL A   1      32.948  28.321  25.420  1.00  0.00     0.202 C 
BRANCH  26  27
ATOM     27  O   UNL A   1      32.627  29.611  24.902  1.00  0.00    -0.374 OA
BRANCH  27  28
ATOM     28  C   UNL A   1      31.402  30.199  25.342  1.00  0.00     0.202 C 
BRANCH  28  29
ATOM     29  C   UNL A   1      31.539  31.439  26.233  1.00  0.00     0.261 C 
BRANCH  29  30
ATOM     30  O   UNL A   1      32.477  31.214  27.305  1.00  0.00    -0.460 OA
BRANCH  30  31
ATOM     31  C   UNL A   1      33.306  32.249  27.568  1.00  0.00     0.338 C 
ATOM     32  O   UNL A   1      33.013  33.439  27.626  1.00  0.00    -0.246 OA
BRANCH  31  33
ATOM     33  C   UNL A   1      34.626  31.740  27.984  1.00  0.00     0.060 A 
ATOM     34  C   UNL A   1      34.751  30.359  28.190  1.00  0.00     0.016 A 
ATOM     35  C   UNL A   1      35.707  32.592  28.219  1.00  0.00     0.016 A 
ATOM     36  C   UNL A   1      35.940  29.831  28.684  1.00  0.00     0.010 A 
ATOM     37  C   UNL A   1      36.898  32.061  28.723  1.00  0.00     0.010 A 
ATOM     38  C   UNL A   1      37.005  30.685  28.997  1.00  0.00    -0.014 A 
BRANCH  38  39
ATOM     39  C   UNL A   1      38.161  30.157  29.762  1.00  0.00     0.031 A 
ATOM     40  C   UNL A   1      38.354  30.603  31.185  1.00  0.00     0.074 A 
ATOM     41  C   UNL A   1      39.005  29.267  29.213  1.00  0.00     0.049 A 
ATOM     42  N   UNL A   1      39.300  30.293  32.033  1.00  0.00    -0.248 NA
ATOM     43  C   UNL A   1      37.341  31.526  31.725  1.00  0.00     0.031 C 
ATOM     44  C   UNL A   1      38.905  28.730  27.858  1.00  0.00     0.029 A 
ATOM     45  N   UNL A   1      40.121  28.662  29.735  1.00  0.00    -0.354 N 
ATOM     46  C   UNL A   1      39.005  30.987  33.199  1.00  0.00     0.074 A 
ATOM     47  C   UNL A   1      37.808  31.757  32.942  1.00  0.00     0.031 C 
ATOM     48  C   UNL A   1      39.926  27.881  27.650  1.00  0.00     0.029 A 
ATOM     49  C   UNL A   1      40.765  27.837  28.847  1.00  0.00     0.049 A 
ATOM     50  H   UNL A   1      40.430  28.805  30.658  1.00  0.00     0.167 HD
ATOM     51  C   UNL A   1      39.666  30.976  34.381  1.00  0.00     0.037 A 
ATOM     52  C   UNL A   1      41.913  27.143  28.979  1.00  0.00     0.037 A 
ATOM     53  C   UNL A   1      40.852  30.203  34.638  1.00  0.00     0.049 A 
ATOM     54  C   UNL A   1      42.663  27.195  30.284  1.00  0.00     0.074 A 
ATOM     55  C   UNL A   1      41.578  30.105  35.812  1.00  0.00     0.029 A 
ATOM     56  N   UNL A   1      41.489  29.401  33.704  1.00  0.00    -0.354 N 
ATOM     57  N   UNL A   1      42.360  27.831  31.389  1.00  0.00    -0.248 NA
ATOM     58  C   UNL A   1      43.914  26.426  30.360  1.00  0.00     0.031 C 
ATOM     59  C   UNL A   1      42.683  29.281  35.574  1.00  0.00     0.029 A 
ATOM     60  C   UNL A   1      42.616  28.825  34.267  1.00  0.00     0.049 A 
ATOM     61  H   UNL A   1      41.186  29.261  32.778  1.00  0.00     0.167 HD
ATOM     62  C   UNL A   1      43.364  27.518  32.298  1.00  0.00     0.074 A 
ATOM     63  C   UNL A   1      44.280  26.626  31.618  1.00  0.00     0.031 C 
ATOM     64  C   UNL A   1      43.514  27.932  33.580  1.00  0.00     0.037 A 
BRANCH  51  65
ATOM     65  C   UNL A   1      39.131  31.847  35.480  1.00  0.00     0.057 A 
ATOM     66  C   UNL A   1      38.262  31.352  36.460  1.00  0.00     0.134 A 
ATOM     67  C   UNL A   1      39.517  33.189  35.574  1.00  0.00     0.134 A 
ATOM     68  F   UNL A   1      37.841  30.079  36.418  1.00  0.00    -0.206 F 
ATOM     69  C   UNL A   1      37.778  32.169  37.485  1.00  0.00     0.040 A 
ATOM     70  C   UNL A   1      39.061  34.008  36.608  1.00  0.00     0.040 A 
ATOM     71  F   UNL A   1      40.349  33.725  34.669  1.00  0.00    -0.206 F 
ATOM     72  C   UNL A   1      38.184  33.500  37.564  1.00  0.00     0.006 A 
ENDBRANCH  51  65
BRANCH  52  73
ATOM     73  C   UNL A   1      42.435  26.349  27.839  1.00  0.00     0.057 A 
ATOM     74  C   UNL A   1      43.322  26.904  26.911  1.00  0.00     0.134 A 
ATOM     75  C   UNL A   1      42.041  25.019  27.641  1.00  0.00     0.134 A 
ATOM     76  F   UNL A   1      43.714  28.180  27.033  1.00  0.00    -0.206 F 
ATOM     77  C   UNL A   1      43.787  26.172  25.816  1.00  0.00     0.040 A 
ATOM     78  C   UNL A   1      42.519  24.267  26.566  1.00  0.00     0.040 A 
ATOM     79  F   UNL A   1      41.192  24.430  28.495  1.00  0.00    -0.206 F 
ATOM     80  C   UNL A   1      43.390  24.847  25.646  1.00  0.00     0.006 A 
ENDBRANCH  52  73
BRANCH  64  81
ATOM     81  C   UNL A   1      44.689  27.397  34.346  1.00  0.00     0.057 A 
ATOM     82  C   UNL A   1      45.896  28.103  34.439  1.00  0.00     0.134 A 
ATOM     83  C   UNL A   1      44.598  26.179  35.031  1.00  0.00     0.134 A 
ATOM     84  F   UNL A   1      46.052  29.270  33.798  1.00  0.00    -0.206 F 
ATOM     85  C   UNL A   1      46.975  27.605  35.171  1.00  0.00     0.040 A 
ATOM     86  C   UNL A   1      45.661  25.684  35.788  1.00  0.00     0.040 A 
ATOM     87  F   UNL A   1      43.467  25.458  34.991  1.00  0.00    -0.206 F 
ATOM     88  C   UNL A   1      46.857  26.396  35.853  1.00  0.00     0.006 A 
ENDBRANCH  64  81
ENDBRANCH  38  39
ENDBRANCH  31  33
ENDBRANCH  30  31
ENDBRANCH  29  30
ENDBRANCH  28  29
ENDBRANCH  27  28
ENDBRANCH  26  27
ENDBRANCH   1  26
TORSDOF 21
ENDMDL
