MODEL 1
REMARK VINA RESULT:     -11.5      0.000      0.000
REMARK SMILES [NH3+][C@H](CS[C@@H]1CC(=O)N(c2ccc3ccccc3c2)C1=O)C(=O)OCCOCCOC(=O)c1ccc(-c2c3nc(c(-c4c(F)cccc4F)c4ccc([nH]4)c(-c4c(F)cccc4F)c4nc(c(-c5c(F)cccc5F)c5ccc2[nH]5)C=C4)C=C3)cc1
REMARK SMILES IDX 26 1 25 2 24 3 22 4 23 5 2 6 1 7 3 11 4 12 5 13 6 14 20 15
REMARK SMILES IDX 7 16 9 17 21 18 8 19 10 20 11 21 19 22 12 23 18 24 13 25
REMARK SMILES IDX 17 26 14 27 16 28 15 29 27 30 28 31 29 32 30 33 31 34 32 35
REMARK SMILES IDX 33 36 34 37 86 38 35 39 85 40 36 41 37 42 38 43 79 44 39 45
REMARK SMILES IDX 84 46 78 47 80 48 40 49 83 50 77 51 76 52 41 54 67 55 50 56
REMARK SMILES IDX 66 57 51 58 54 59 65 60 81 61 52 62 53 63 64 65 82 66 55 67
REMARK SMILES IDX 42 68 43 69 48 70 44 71 45 72 47 73 49 74 46 75 68 76 69 77
REMARK SMILES IDX 74 78 70 79 71 80 73 81 75 82 72 83 56 84 57 85 62 86 58 87
REMARK SMILES IDX 59 88 61 89 63 90 60 91
REMARK H PARENT 1 8 1 9 1 10 80 53 54 64
REMARK Flexibility Score: inf
ROOT
ATOM      1  C   UNL A   1      41.233  19.936  27.114  1.00  0.00     0.202 C 
ENDROOT
BRANCH   1   2
ATOM      2  C   UNL A   1      40.103  20.239  26.112  1.00  0.00     0.261 C 
BRANCH   2   3
ATOM      3  O   UNL A   1      39.536  21.563  26.346  1.00  0.00    -0.459 OA
BRANCH   3   4
ATOM      4  C   UNL A   1      38.472  22.236  25.891  1.00  0.00     0.365 C 
ATOM      5  O   UNL A   1      38.420  23.450  26.139  1.00  0.00    -0.245 OA
BRANCH   4   6
ATOM      6  C   UNL A   1      37.444  21.697  24.847  1.00  0.00     0.301 C 
BRANCH   6   7
ATOM      7  N   UNL A   1      37.072  22.776  23.891  1.00  0.00    -0.345 N 
ATOM      8  H   UNL A   1      37.481  22.577  22.977  1.00  0.00     0.345 HD
ATOM      9  H   UNL A   1      37.425  23.670  24.232  1.00  0.00     0.345 HD
ATOM     10  H   UNL A   1      36.057  22.821  23.806  1.00  0.00     0.345 HD
ENDBRANCH   6   7
BRANCH   6  11
ATOM     11  C   UNL A   1      36.309  20.679  25.102  1.00  0.00     0.147 C 
BRANCH  11  12
ATOM     12  S   UNL A   1      34.572  21.367  24.850  1.00  0.00    -0.141 SA
BRANCH  12  13
ATOM     13  C   UNL A   1      34.371  22.456  26.310  1.00  0.00     0.146 C 
ATOM     14  C   UNL A   1      33.046  22.328  27.048  1.00  0.00     0.125 C 
ATOM     15  C   UNL A   1      34.365  23.900  25.925  1.00  0.00     0.247 C 
ATOM     16  C   UNL A   1      32.320  23.625  26.762  1.00  0.00     0.235 C 
ATOM     17  N   UNL A   1      33.079  24.369  25.911  1.00  0.00    -0.250 N 
ATOM     18  O   UNL A   1      35.388  24.521  25.762  1.00  0.00    -0.273 OA
ATOM     19  O   UNL A   1      31.271  23.942  27.304  1.00  0.00    -0.274 OA
BRANCH  17  20
ATOM     20  C   UNL A   1      32.773  25.661  25.434  1.00  0.00     0.052 A 
ATOM     21  C   UNL A   1      32.115  25.864  24.225  1.00  0.00     0.027 A 
ATOM     22  C   UNL A   1      32.950  26.752  26.297  1.00  0.00     0.035 A 
ATOM     23  C   UNL A   1      31.596  27.133  23.921  1.00  0.00     0.011 A 
ATOM     24  C   UNL A   1      32.395  28.013  26.035  1.00  0.00    -0.016 A 
ATOM     25  C   UNL A   1      31.702  28.210  24.827  1.00  0.00    -0.018 A 
ATOM     26  C   UNL A   1      32.472  29.056  26.977  1.00  0.00     0.009 A 
ATOM     27  C   UNL A   1      31.119  29.467  24.582  1.00  0.00     0.009 A 
ATOM     28  C   UNL A   1      31.872  30.289  26.728  1.00  0.00     0.001 A 
ATOM     29  C   UNL A   1      31.201  30.497  25.526  1.00  0.00     0.001 A 
ENDBRANCH  17  20
ENDBRANCH  12  13
ENDBRANCH  11  12
ENDBRANCH   6  11
ENDBRANCH   4   6
ENDBRANCH   3   4
ENDBRANCH   2   3
ENDBRANCH   1   2
BRANCH   1  30
ATOM     30  O   UNL A   1      42.399  20.741  26.918  1.00  0.00    -0.374 OA
BRANCH  30  31
ATOM     31  C   UNL A   1      43.164  20.375  25.767  1.00  0.00     0.202 C 
BRANCH  31  32
ATOM     32  C   UNL A   1      44.144  21.447  25.299  1.00  0.00     0.261 C 
BRANCH  32  33
ATOM     33  O   UNL A   1      44.139  22.606  26.160  1.00  0.00    -0.460 OA
BRANCH  33  34
ATOM     34  C   UNL A   1      44.046  23.791  25.509  1.00  0.00     0.338 C 
ATOM     35  O   UNL A   1      44.465  24.052  24.393  1.00  0.00    -0.246 OA
BRANCH  34  36
ATOM     36  C   UNL A   1      43.290  24.778  26.307  1.00  0.00     0.060 A 
ATOM     37  C   UNL A   1      43.750  26.101  26.314  1.00  0.00     0.016 A 
ATOM     38  C   UNL A   1      42.250  24.390  27.157  1.00  0.00     0.016 A 
ATOM     39  C   UNL A   1      43.223  27.024  27.219  1.00  0.00     0.010 A 
ATOM     40  C   UNL A   1      41.720  25.319  28.061  1.00  0.00     0.010 A 
ATOM     41  C   UNL A   1      42.233  26.628  28.130  1.00  0.00    -0.014 A 
BRANCH  41  42
ATOM     42  C   UNL A   1      41.829  27.533  29.238  1.00  0.00     0.031 A 
ATOM     43  C   UNL A   1      42.557  27.461  30.554  1.00  0.00     0.074 A 
ATOM     44  C   UNL A   1      40.824  28.413  29.080  1.00  0.00     0.049 A 
ATOM     45  N   UNL A   1      42.307  28.085  31.678  1.00  0.00    -0.248 NA
ATOM     46  C   UNL A   1      43.722  26.563  30.612  1.00  0.00     0.031 C 
ATOM     47  C   UNL A   1      40.069  28.622  27.846  1.00  0.00     0.029 A 
ATOM     48  N   UNL A   1      40.256  29.286  29.975  1.00  0.00    -0.354 N 
ATOM     49  C   UNL A   1      43.269  27.644  32.580  1.00  0.00     0.074 A 
ATOM     50  C   UNL A   1      44.094  26.682  31.879  1.00  0.00     0.031 C 
ATOM     51  C   UNL A   1      39.119  29.547  28.068  1.00  0.00     0.029 A 
ATOM     52  C   UNL A   1      39.175  29.967  29.468  1.00  0.00     0.049 A 
ATOM     53  H   UNL A   1      40.591  29.413  30.893  1.00  0.00     0.167 HD
ATOM     54  C   UNL A   1      43.452  28.010  33.871  1.00  0.00     0.037 A 
ATOM     55  C   UNL A   1      38.312  30.806  30.072  1.00  0.00     0.037 A 
ATOM     56  C   UNL A   1      42.644  28.980  34.565  1.00  0.00     0.049 A 
ATOM     57  C   UNL A   1      38.488  31.139  31.531  1.00  0.00     0.074 A 
ATOM     58  C   UNL A   1      42.782  29.446  35.862  1.00  0.00     0.029 A 
ATOM     59  N   UNL A   1      41.543  29.623  34.025  1.00  0.00    -0.354 N 
ATOM     60  N   UNL A   1      39.418  30.738  32.365  1.00  0.00    -0.248 NA
ATOM     61  C   UNL A   1      37.492  32.037  32.134  1.00  0.00     0.031 C 
ATOM     62  C   UNL A   1      41.729  30.327  36.125  1.00  0.00     0.029 A 
ATOM     63  C   UNL A   1      40.968  30.453  34.974  1.00  0.00     0.049 A 
ATOM     64  H   UNL A   1      41.216  29.508  33.103  1.00  0.00     0.167 HD
ATOM     65  C   UNL A   1      39.136  31.357  33.578  1.00  0.00     0.074 A 
ATOM     66  C   UNL A   1      37.955  32.168  33.369  1.00  0.00     0.031 C 
ATOM     67  C   UNL A   1      39.796  31.262  34.757  1.00  0.00     0.037 A 
BRANCH  54  68
ATOM     68  C   UNL A   1      44.557  27.341  34.638  1.00  0.00     0.057 A 
ATOM     69  C   UNL A   1      45.805  27.946  34.826  1.00  0.00     0.134 A 
ATOM     70  C   UNL A   1      44.345  26.095  35.244  1.00  0.00     0.134 A 
ATOM     71  F   UNL A   1      46.076  29.135  34.267  1.00  0.00    -0.206 F 
ATOM     72  C   UNL A   1      46.810  27.328  35.574  1.00  0.00     0.040 A 
ATOM     73  C   UNL A   1      45.333  25.479  36.014  1.00  0.00     0.040 A 
ATOM     74  F   UNL A   1      43.169  25.464  35.110  1.00  0.00    -0.206 F 
ATOM     75  C   UNL A   1      46.572  26.094  36.177  1.00  0.00     0.006 A 
ENDBRANCH  54  68
BRANCH  55  76
ATOM     76  C   UNL A   1      37.171  31.371  29.306  1.00  0.00     0.057 A 
ATOM     77  C   UNL A   1      36.030  30.608  29.031  1.00  0.00     0.134 A 
ATOM     78  C   UNL A   1      37.207  32.679  28.808  1.00  0.00     0.134 A 
ATOM     79  F   UNL A   1      35.947  29.340  29.459  1.00  0.00    -0.206 F 
ATOM     80  C   UNL A   1      34.976  31.117  28.271  1.00  0.00     0.040 A 
ATOM     81  C   UNL A   1      36.148  33.211  28.070  1.00  0.00     0.040 A 
ATOM     82  F   UNL A   1      38.271  33.463  29.038  1.00  0.00    -0.206 F 
ATOM     83  C   UNL A   1      35.032  32.426  27.793  1.00  0.00     0.006 A 
ENDBRANCH  55  76
BRANCH  67  84
ATOM     84  C   UNL A   1      39.284  32.077  35.910  1.00  0.00     0.057 A 
ATOM     85  C   UNL A   1      39.704  33.395  36.130  1.00  0.00     0.134 A 
ATOM     86  C   UNL A   1      38.315  31.556  36.778  1.00  0.00     0.134 A 
ATOM     87  F   UNL A   1      40.638  33.951  35.344  1.00  0.00    -0.206 F 
ATOM     88  C   UNL A   1      39.192  34.158  37.182  1.00  0.00     0.040 A 
ATOM     89  C   UNL A   1      37.776  32.318  37.815  1.00  0.00     0.040 A 
ATOM     90  F   UNL A   1      37.860  30.304  36.618  1.00  0.00    -0.206 F 
ATOM     91  C   UNL A   1      38.218  33.622  38.022  1.00  0.00     0.006 A 
ENDBRANCH  67  84
ENDBRANCH  41  42
ENDBRANCH  34  36
ENDBRANCH  33  34
ENDBRANCH  32  33
ENDBRANCH  31  32
ENDBRANCH  30  31
ENDBRANCH   1  30
TORSDOF 19
ENDMDL
MODEL 2
REMARK VINA RESULT:     -11.4      1.238      2.106
REMARK SMILES [NH3+][C@H](CS[C@@H]1CC(=O)N(c2ccc3ccccc3c2)C1=O)C(=O)OCCOCCOC(=O)c1ccc(-c2c3nc(c(-c4c(F)cccc4F)c4ccc([nH]4)c(-c4c(F)cccc4F)c4nc(c(-c5c(F)cccc5F)c5ccc2[nH]5)C=C4)C=C3)cc1
REMARK SMILES IDX 26 1 25 2 24 3 22 4 23 5 2 6 1 7 3 11 4 12 5 13 6 14 20 15
REMARK SMILES IDX 7 16 9 17 21 18 8 19 10 20 11 21 19 22 12 23 18 24 13 25
REMARK SMILES IDX 17 26 14 27 16 28 15 29 27 30 28 31 29 32 30 33 31 34 32 35
REMARK SMILES IDX 33 36 34 37 86 38 35 39 85 40 36 41 37 42 38 43 79 44 39 45
REMARK SMILES IDX 84 46 78 47 80 48 40 49 83 50 77 51 76 52 41 54 67 55 50 56
REMARK SMILES IDX 66 57 51 58 54 59 65 60 81 61 52 62 53 63 64 65 82 66 55 67
REMARK SMILES IDX 42 68 43 69 48 70 44 71 45 72 47 73 49 74 46 75 68 76 69 77
REMARK SMILES IDX 74 78 70 79 71 80 73 81 75 82 72 83 56 84 57 85 62 86 58 87
REMARK SMILES IDX 59 88 61 89 63 90 60 91
REMARK H PARENT 1 8 1 9 1 10 80 53 54 64
REMARK Flexibility Score: inf
ROOT
ATOM      1  C   UNL A   1      40.476  20.959  26.611  1.00  0.00     0.202 C 
ENDROOT
BRANCH   1   2
ATOM      2  C   UNL A   1      39.360  22.010  26.457  1.00  0.00     0.261 C 
BRANCH   2   3
ATOM      3  O   UNL A   1      38.514  21.712  25.305  1.00  0.00    -0.459 OA
BRANCH   3   4
ATOM      4  C   UNL A   1      37.510  20.863  25.057  1.00  0.00     0.365 C 
ATOM      5  O   UNL A   1      37.807  19.758  24.578  1.00  0.00    -0.245 OA
BRANCH   4   6
ATOM      6  C   UNL A   1      36.045  21.026  25.570  1.00  0.00     0.301 C 
BRANCH   6   7
ATOM      7  N   UNL A   1      35.216  19.872  25.125  1.00  0.00    -0.345 N 
ATOM      8  H   UNL A   1      34.453  19.726  25.788  1.00  0.00     0.345 HD
ATOM      9  H   UNL A   1      35.794  19.033  25.084  1.00  0.00     0.345 HD
ATOM     10  H   UNL A   1      34.830  20.065  24.201  1.00  0.00     0.345 HD
ENDBRANCH   6   7
BRANCH   6  11
ATOM     11  C   UNL A   1      35.248  22.344  25.702  1.00  0.00     0.147 C 
BRANCH  11  12
ATOM     12  S   UNL A   1      34.033  22.382  27.143  1.00  0.00    -0.141 SA
BRANCH  12  13
ATOM     13  C   UNL A   1      32.414  22.335  26.285  1.00  0.00     0.146 C 
ATOM     14  C   UNL A   1      32.471  22.072  24.788  1.00  0.00     0.125 C 
ATOM     15  C   UNL A   1      31.726  23.661  26.334  1.00  0.00     0.247 C 
ATOM     16  C   UNL A   1      32.066  23.384  24.151  1.00  0.00     0.235 C 
ATOM     17  N   UNL A   1      31.880  24.306  25.136  1.00  0.00    -0.250 N 
ATOM     18  O   UNL A   1      31.067  24.004  27.287  1.00  0.00    -0.273 OA
ATOM     19  O   UNL A   1      31.865  23.516  22.952  1.00  0.00    -0.274 OA
BRANCH  17  20
ATOM     20  C   UNL A   1      31.457  25.640  24.960  1.00  0.00     0.052 A 
ATOM     21  C   UNL A   1      32.354  26.704  24.967  1.00  0.00     0.027 A 
ATOM     22  C   UNL A   1      30.134  25.876  24.560  1.00  0.00     0.035 A 
ATOM     23  C   UNL A   1      31.935  27.969  24.525  1.00  0.00     0.011 A 
ATOM     24  C   UNL A   1      29.710  27.119  24.066  1.00  0.00    -0.016 A 
ATOM     25  C   UNL A   1      30.626  28.187  24.045  1.00  0.00    -0.018 A 
ATOM     26  C   UNL A   1      28.415  27.296  23.546  1.00  0.00     0.009 A 
ATOM     27  C   UNL A   1      30.207  29.422  23.519  1.00  0.00     0.009 A 
ATOM     28  C   UNL A   1      28.022  28.521  23.012  1.00  0.00     0.001 A 
ATOM     29  C   UNL A   1      28.916  29.587  23.004  1.00  0.00     0.001 A 
ENDBRANCH  17  20
ENDBRANCH  12  13
ENDBRANCH  11  12
ENDBRANCH   6  11
ENDBRANCH   4   6
ENDBRANCH   3   4
ENDBRANCH   2   3
ENDBRANCH   1   2
BRANCH   1  30
ATOM     30  O   UNL A   1      41.778  21.529  26.766  1.00  0.00    -0.374 OA
BRANCH  30  31
ATOM     31  C   UNL A   1      42.808  20.807  26.086  1.00  0.00     0.202 C 
BRANCH  31  32
ATOM     32  C   UNL A   1      43.699  21.671  25.198  1.00  0.00     0.261 C 
BRANCH  32  33
ATOM     33  O   UNL A   1      43.034  22.877  24.766  1.00  0.00    -0.460 OA
BRANCH  33  34
ATOM     34  C   UNL A   1      43.754  24.012  24.941  1.00  0.00     0.338 C 
ATOM     35  O   UNL A   1      44.846  24.271  24.463  1.00  0.00    -0.246 OA
BRANCH  34  36
ATOM     36  C   UNL A   1      43.016  24.987  25.770  1.00  0.00     0.060 A 
ATOM     37  C   UNL A   1      43.511  26.295  25.835  1.00  0.00     0.016 A 
ATOM     38  C   UNL A   1      41.957  24.594  26.595  1.00  0.00     0.016 A 
ATOM     39  C   UNL A   1      42.999  27.195  26.770  1.00  0.00     0.010 A 
ATOM     40  C   UNL A   1      41.442  25.500  27.530  1.00  0.00     0.010 A 
ATOM     41  C   UNL A   1      41.990  26.791  27.656  1.00  0.00    -0.014 A 
BRANCH  41  42
ATOM     42  C   UNL A   1      41.598  27.662  28.795  1.00  0.00     0.031 A 
ATOM     43  C   UNL A   1      42.349  27.560  30.096  1.00  0.00     0.074 A 
ATOM     44  C   UNL A   1      40.585  28.539  28.679  1.00  0.00     0.049 A 
ATOM     45  N   UNL A   1      42.115  28.151  31.241  1.00  0.00    -0.248 NA
ATOM     46  C   UNL A   1      43.521  26.669  30.110  1.00  0.00     0.031 C 
ATOM     47  C   UNL A   1      39.807  28.775  27.463  1.00  0.00     0.029 A 
ATOM     48  N   UNL A   1      40.026  29.382  29.607  1.00  0.00    -0.354 N 
ATOM     49  C   UNL A   1      43.095  27.692  32.113  1.00  0.00     0.074 A 
ATOM     50  C   UNL A   1      43.914  26.757  31.373  1.00  0.00     0.031 C 
ATOM     51  C   UNL A   1      38.855  29.687  27.727  1.00  0.00     0.029 A 
ATOM     52  C   UNL A   1      38.932  30.069  29.137  1.00  0.00     0.049 A 
ATOM     53  H   UNL A   1      40.376  29.487  30.521  1.00  0.00     0.167 HD
ATOM     54  C   UNL A   1      43.298  28.024  33.411  1.00  0.00     0.037 A 
ATOM     55  C   UNL A   1      38.073  30.885  29.778  1.00  0.00     0.037 A 
ATOM     56  C   UNL A   1      42.494  28.968  34.145  1.00  0.00     0.049 A 
ATOM     57  C   UNL A   1      38.271  31.178  31.243  1.00  0.00     0.074 A 
ATOM     58  C   UNL A   1      42.652  29.400  35.452  1.00  0.00     0.029 A 
ATOM     59  N   UNL A   1      41.379  29.618  33.642  1.00  0.00    -0.354 N 
ATOM     60  N   UNL A   1      39.218  30.763  32.049  1.00  0.00    -0.248 NA
ATOM     61  C   UNL A   1      37.280  32.052  31.887  1.00  0.00     0.031 C 
ATOM     62  C   UNL A   1      41.597  30.265  35.757  1.00  0.00     0.029 A 
ATOM     63  C   UNL A   1      40.815  30.417  34.623  1.00  0.00     0.049 A 
ATOM     64  H   UNL A   1      41.038  29.526  32.723  1.00  0.00     0.167 HD
ATOM     65  C   UNL A   1      38.953  31.346  33.283  1.00  0.00     0.074 A 
ATOM     66  C   UNL A   1      37.763  32.153  33.117  1.00  0.00     0.031 C 
ATOM     67  C   UNL A   1      39.634  31.223  34.448  1.00  0.00     0.037 A 
BRANCH  54  68
ATOM     68  C   UNL A   1      44.420  27.342  34.140  1.00  0.00     0.057 A 
ATOM     69  C   UNL A   1      45.702  27.898  34.219  1.00  0.00     0.134 A 
ATOM     70  C   UNL A   1      44.195  26.138  34.821  1.00  0.00     0.134 A 
ATOM     71  F   UNL A   1      45.987  29.046  33.584  1.00  0.00    -0.206 F 
ATOM     72  C   UNL A   1      46.726  27.271  34.933  1.00  0.00     0.040 A 
ATOM     73  C   UNL A   1      45.203  25.515  35.558  1.00  0.00     0.040 A 
ATOM     74  F   UNL A   1      42.986  25.556  34.794  1.00  0.00    -0.206 F 
ATOM     75  C   UNL A   1      46.475  26.080  35.611  1.00  0.00     0.006 A 
ENDBRANCH  54  68
BRANCH  55  76
ATOM     76  C   UNL A   1      36.915  31.462  29.048  1.00  0.00     0.057 A 
ATOM     77  C   UNL A   1      36.917  32.794  28.617  1.00  0.00     0.134 A 
ATOM     78  C   UNL A   1      35.767  30.703  28.790  1.00  0.00     0.134 A 
ATOM     79  F   UNL A   1      37.977  33.579  28.857  1.00  0.00    -0.206 F 
ATOM     80  C   UNL A   1      35.813  33.355  27.974  1.00  0.00     0.040 A 
ATOM     81  C   UNL A   1      34.666  31.244  28.123  1.00  0.00     0.040 A 
ATOM     82  F   UNL A   1      35.701  29.420  29.176  1.00  0.00    -0.206 F 
ATOM     83  C   UNL A   1      34.684  32.576  27.720  1.00  0.00     0.006 A 
ENDBRANCH  55  76
BRANCH  67  84
ATOM     84  C   UNL A   1      39.136  32.003  35.632  1.00  0.00     0.057 A 
ATOM     85  C   UNL A   1      38.295  31.430  36.594  1.00  0.00     0.134 A 
ATOM     86  C   UNL A   1      39.549  33.325  35.841  1.00  0.00     0.134 A 
ATOM     87  F   UNL A   1      37.853  30.172  36.449  1.00  0.00    -0.206 F 
ATOM     88  C   UNL A   1      37.870  32.150  37.712  1.00  0.00     0.040 A 
ATOM     89  C   UNL A   1      39.153  34.046  36.968  1.00  0.00     0.040 A 
ATOM     90  F   UNL A   1      40.363  33.932  34.963  1.00  0.00    -0.206 F 
ATOM     91  C   UNL A   1      38.306  33.459  37.906  1.00  0.00     0.006 A 
ENDBRANCH  67  84
ENDBRANCH  41  42
ENDBRANCH  34  36
ENDBRANCH  33  34
ENDBRANCH  32  33
ENDBRANCH  31  32
ENDBRANCH  30  31
ENDBRANCH   1  30
TORSDOF 19
ENDMDL
MODEL 3
REMARK VINA RESULT:     -11.0      1.228      2.351
REMARK SMILES [NH3+][C@H](CS[C@@H]1CC(=O)N(c2ccc3ccccc3c2)C1=O)C(=O)OCCOCCOC(=O)c1ccc(-c2c3nc(c(-c4c(F)cccc4F)c4ccc([nH]4)c(-c4c(F)cccc4F)c4nc(c(-c5c(F)cccc5F)c5ccc2[nH]5)C=C4)C=C3)cc1
REMARK SMILES IDX 26 1 25 2 24 3 22 4 23 5 2 6 1 7 3 11 4 12 5 13 6 14 20 15
REMARK SMILES IDX 7 16 9 17 21 18 8 19 10 20 11 21 19 22 12 23 18 24 13 25
REMARK SMILES IDX 17 26 14 27 16 28 15 29 27 30 28 31 29 32 30 33 31 34 32 35
REMARK SMILES IDX 33 36 34 37 86 38 35 39 85 40 36 41 37 42 38 43 79 44 39 45
REMARK SMILES IDX 84 46 78 47 80 48 40 49 83 50 77 51 76 52 41 54 67 55 50 56
REMARK SMILES IDX 66 57 51 58 54 59 65 60 81 61 52 62 53 63 64 65 82 66 55 67
REMARK SMILES IDX 42 68 43 69 48 70 44 71 45 72 47 73 49 74 46 75 68 76 69 77
REMARK SMILES IDX 74 78 70 79 71 80 73 81 75 82 72 83 56 84 57 85 62 86 58 87
REMARK SMILES IDX 59 88 61 89 63 90 60 91
REMARK H PARENT 1 8 1 9 1 10 80 53 54 64
REMARK Flexibility Score: inf
ROOT
ATOM      1  C   UNL A   1      44.260  19.348  24.627  1.00  0.00     0.202 C 
ENDROOT
BRANCH   1   2
ATOM      2  C   UNL A   1      43.331  18.758  25.705  1.00  0.00     0.261 C 
BRANCH   2   3
ATOM      3  O   UNL A   1      41.986  19.314  25.601  1.00  0.00    -0.459 OA
BRANCH   3   4
ATOM      4  C   UNL A   1      41.091  19.808  26.464  1.00  0.00     0.365 C 
ATOM      5  O   UNL A   1      41.245  19.527  27.662  1.00  0.00    -0.245 OA
BRANCH   4   6
ATOM      6  C   UNL A   1      40.048  20.924  26.142  1.00  0.00     0.301 C 
BRANCH   6   7
ATOM      7  N   UNL A   1      40.048  21.952  27.220  1.00  0.00    -0.345 N 
ATOM      8  H   UNL A   1      40.357  22.846  26.837  1.00  0.00     0.345 HD
ATOM      9  H   UNL A   1      40.683  21.664  27.964  1.00  0.00     0.345 HD
ATOM     10  H   UNL A   1      39.105  22.051  27.595  1.00  0.00     0.345 HD
ENDBRANCH   6   7
BRANCH   6  11
ATOM     11  C   UNL A   1      38.670  20.740  25.464  1.00  0.00     0.147 C 
BRANCH  11  12
ATOM     12  S   UNL A   1      37.623  22.306  25.384  1.00  0.00    -0.141 SA
BRANCH  12  13
ATOM     13  C   UNL A   1      35.931  21.654  25.644  1.00  0.00     0.146 C 
ATOM     14  C   UNL A   1      35.185  21.242  24.384  1.00  0.00     0.125 C 
ATOM     15  C   UNL A   1      35.019  22.696  26.208  1.00  0.00     0.247 C 
ATOM     16  C   UNL A   1      34.090  22.275  24.230  1.00  0.00     0.235 C 
ATOM     17  N   UNL A   1      34.228  23.205  25.214  1.00  0.00    -0.250 N 
ATOM     18  O   UNL A   1      34.973  22.930  27.392  1.00  0.00    -0.273 OA
ATOM     19  O   UNL A   1      33.198  22.191  23.397  1.00  0.00    -0.274 OA
BRANCH  17  20
ATOM     20  C   UNL A   1      33.381  24.310  25.442  1.00  0.00     0.052 A 
ATOM     21  C   UNL A   1      32.161  24.181  26.098  1.00  0.00     0.027 A 
ATOM     22  C   UNL A   1      33.877  25.597  25.187  1.00  0.00     0.035 A 
ATOM     23  C   UNL A   1      31.484  25.329  26.538  1.00  0.00     0.011 A 
ATOM     24  C   UNL A   1      33.241  26.753  25.663  1.00  0.00    -0.016 A 
ATOM     25  C   UNL A   1      32.023  26.620  26.354  1.00  0.00    -0.018 A 
ATOM     26  C   UNL A   1      33.825  28.024  25.510  1.00  0.00     0.009 A 
ATOM     27  C   UNL A   1      31.406  27.779  26.859  1.00  0.00     0.009 A 
ATOM     28  C   UNL A   1      33.210  29.160  26.032  1.00  0.00     0.001 A 
ATOM     29  C   UNL A   1      31.996  29.039  26.701  1.00  0.00     0.001 A 
ENDBRANCH  17  20
ENDBRANCH  12  13
ENDBRANCH  11  12
ENDBRANCH   6  11
ENDBRANCH   4   6
ENDBRANCH   3   4
ENDBRANCH   2   3
ENDBRANCH   1   2
BRANCH   1  30
ATOM     30  O   UNL A   1      45.514  19.803  25.142  1.00  0.00    -0.374 OA
BRANCH  30  31
ATOM     31  C   UNL A   1      45.723  21.209  24.992  1.00  0.00     0.202 C 
BRANCH  31  32
ATOM     32  C   UNL A   1      45.118  22.056  26.106  1.00  0.00     0.261 C 
BRANCH  32  33
ATOM     33  O   UNL A   1      44.868  23.415  25.686  1.00  0.00    -0.460 OA
BRANCH  33  34
ATOM     34  C   UNL A   1      43.623  23.635  25.200  1.00  0.00     0.338 C 
ATOM     35  O   UNL A   1      43.088  23.066  24.263  1.00  0.00    -0.246 OA
BRANCH  34  36
ATOM     36  C   UNL A   1      42.911  24.650  26.003  1.00  0.00     0.060 A 
ATOM     37  C   UNL A   1      43.415  25.957  25.999  1.00  0.00     0.016 A 
ATOM     38  C   UNL A   1      41.870  24.302  26.869  1.00  0.00     0.016 A 
ATOM     39  C   UNL A   1      42.932  26.901  26.906  1.00  0.00     0.010 A 
ATOM     40  C   UNL A   1      41.384  25.252  27.776  1.00  0.00     0.010 A 
ATOM     41  C   UNL A   1      41.942  26.543  27.832  1.00  0.00    -0.014 A 
BRANCH  41  42
ATOM     42  C   UNL A   1      41.583  27.465  28.941  1.00  0.00     0.031 A 
ATOM     43  C   UNL A   1      42.343  27.391  30.239  1.00  0.00     0.074 A 
ATOM     44  C   UNL A   1      40.592  28.363  28.800  1.00  0.00     0.049 A 
ATOM     45  N   UNL A   1      42.134  28.031  31.363  1.00  0.00    -0.248 NA
ATOM     46  C   UNL A   1      43.491  26.472  30.276  1.00  0.00     0.031 C 
ATOM     47  C   UNL A   1      39.809  28.575  27.584  1.00  0.00     0.029 A 
ATOM     48  N   UNL A   1      40.063  29.255  29.701  1.00  0.00    -0.354 N 
ATOM     49  C   UNL A   1      43.110  27.579  32.244  1.00  0.00     0.074 A 
ATOM     50  C   UNL A   1      43.898  26.595  31.532  1.00  0.00     0.031 C 
ATOM     51  C   UNL A   1      38.883  29.520  27.821  1.00  0.00     0.029 A 
ATOM     52  C   UNL A   1      38.983  29.952  29.215  1.00  0.00     0.049 A 
ATOM     53  H   UNL A   1      40.424  29.384  30.608  1.00  0.00     0.167 HD
ATOM     54  C   UNL A   1      43.333  27.953  33.527  1.00  0.00     0.037 A 
ATOM     55  C   UNL A   1      38.151  30.813  29.832  1.00  0.00     0.037 A 
ATOM     56  C   UNL A   1      42.561  28.944  34.231  1.00  0.00     0.049 A 
ATOM     57  C   UNL A   1      38.371  31.155  31.283  1.00  0.00     0.074 A 
ATOM     58  C   UNL A   1      42.741  29.420  35.520  1.00  0.00     0.029 A 
ATOM     59  N   UNL A   1      41.459  29.604  33.714  1.00  0.00    -0.354 N 
ATOM     60  N   UNL A   1      39.314  30.745  32.097  1.00  0.00    -0.248 NA
ATOM     61  C   UNL A   1      37.408  32.078  31.902  1.00  0.00     0.031 C 
ATOM     62  C   UNL A   1      41.712  30.323  35.801  1.00  0.00     0.029 A 
ATOM     63  C   UNL A   1      40.924  30.454  34.669  1.00  0.00     0.049 A 
ATOM     64  H   UNL A   1      41.106  29.487  32.801  1.00  0.00     0.167 HD
ATOM     65  C   UNL A   1      39.075  31.380  33.311  1.00  0.00     0.074 A 
ATOM     66  C   UNL A   1      37.905  32.212  33.124  1.00  0.00     0.031 C 
ATOM     67  C   UNL A   1      39.763  31.283  34.474  1.00  0.00     0.037 A 
BRANCH  54  68
ATOM     68  C   UNL A   1      44.444  27.270  34.272  1.00  0.00     0.057 A 
ATOM     69  C   UNL A   1      44.262  26.039  34.914  1.00  0.00     0.134 A 
ATOM     70  C   UNL A   1      45.730  27.828  34.296  1.00  0.00     0.134 A 
ATOM     71  F   UNL A   1      43.055  25.454  34.935  1.00  0.00    -0.206 F 
ATOM     72  C   UNL A   1      45.314  25.397  35.571  1.00  0.00     0.040 A 
ATOM     73  C   UNL A   1      46.794  27.183  34.928  1.00  0.00     0.040 A 
ATOM     74  F   UNL A   1      45.974  29.001  33.693  1.00  0.00    -0.206 F 
ATOM     75  C   UNL A   1      46.586  25.965  35.572  1.00  0.00     0.006 A 
ENDBRANCH  54  68
BRANCH  55  76
ATOM     76  C   UNL A   1      37.002  31.393  29.090  1.00  0.00     0.057 A 
ATOM     77  C   UNL A   1      37.013  32.724  28.657  1.00  0.00     0.134 A 
ATOM     78  C   UNL A   1      35.853  30.637  28.824  1.00  0.00     0.134 A 
ATOM     79  F   UNL A   1      38.074  33.506  28.905  1.00  0.00    -0.206 F 
ATOM     80  C   UNL A   1      35.917  33.288  28.002  1.00  0.00     0.040 A 
ATOM     81  C   UNL A   1      34.761  31.181  28.146  1.00  0.00     0.040 A 
ATOM     82  F   UNL A   1      35.780  29.356  29.212  1.00  0.00    -0.206 F 
ATOM     83  C   UNL A   1      34.788  32.513  27.740  1.00  0.00     0.006 A 
ENDBRANCH  55  76
BRANCH  67  84
ATOM     84  C   UNL A   1      39.296  32.119  35.631  1.00  0.00     0.057 A 
ATOM     85  C   UNL A   1      38.348  31.648  36.548  1.00  0.00     0.134 A 
ATOM     86  C   UNL A   1      39.845  33.387  35.864  1.00  0.00     0.134 A 
ATOM     87  F   UNL A   1      37.774  30.448  36.378  1.00  0.00    -0.206 F 
ATOM     88  C   UNL A   1      37.949  32.417  37.644  1.00  0.00     0.040 A 
ATOM     89  C   UNL A   1      39.474  34.152  36.970  1.00  0.00     0.040 A 
ATOM     90  F   UNL A   1      40.766  33.894  35.030  1.00  0.00    -0.206 F 
ATOM     91  C   UNL A   1      38.520  33.669  37.862  1.00  0.00     0.006 A 
ENDBRANCH  67  84
ENDBRANCH  41  42
ENDBRANCH  34  36
ENDBRANCH  33  34
ENDBRANCH  32  33
ENDBRANCH  31  32
ENDBRANCH  30  31
ENDBRANCH   1  30
TORSDOF 19
ENDMDL
