MODEL 1
REMARK VINA RESULT:     -11.4      0.000      0.000
REMARK SMILES COC(=O)c1ccc(-c2ccc(C(=O)OCCOCCOC(=O)c3ccc(-c4c5nc(c(-c6c(F)cccc6F)c6ccc([nH]6)c(-c6c(F)cccc6F)c6nc(c(-c7c(F)cccc7F)c7ccc4[nH]7)C=C6)C=C5)cc3)cc2O)cc1F
REMARK SMILES IDX 17 1 16 2 15 3 13 4 14 5 12 6 9 7 10 8 79 9 11 10 78 11 8 12
REMARK SMILES IDX 5 13 6 14 82 15 7 16 81 17 83 18 3 19 4 20 2 21 1 22 80 23
REMARK SMILES IDX 18 25 19 26 20 27 21 28 22 29 23 30 24 31 25 32 77 33 26 34
REMARK SMILES IDX 76 35 27 36 28 37 29 38 70 39 30 40 75 41 69 42 71 43 31 44
REMARK SMILES IDX 74 45 68 46 67 47 32 49 58 50 41 51 57 52 42 53 45 54 56 55
REMARK SMILES IDX 72 56 43 57 44 58 55 60 73 61 46 62 33 63 34 64 39 65 35 66
REMARK SMILES IDX 36 67 38 68 40 69 37 70 59 71 60 72 65 73 61 74 62 75 64 76
REMARK SMILES IDX 66 77 63 78 47 79 48 80 53 81 49 82 50 83 52 84 54 85 51 86
REMARK H PARENT 80 24 71 48 45 59
REMARK Flexibility Score: inf
ROOT
ATOM      1  C   UNL A   1      32.901  36.281  31.690  1.00  0.00     0.202 C 
ENDROOT
BRANCH   1   2
ATOM      2  C   UNL A   1      32.749  36.336  30.168  1.00  0.00     0.261 C 
BRANCH   2   3
ATOM      3  O   UNL A   1      32.640  35.014  29.611  1.00  0.00    -0.460 OA
BRANCH   3   4
ATOM      4  C   UNL A   1      33.529  34.740  28.627  1.00  0.00     0.338 C 
ATOM      5  O   UNL A   1      34.511  35.399  28.321  1.00  0.00    -0.246 OA
BRANCH   4   6
ATOM      6  C   UNL A   1      33.248  33.413  28.036  1.00  0.00     0.063 A 
ATOM      7  C   UNL A   1      32.504  30.912  26.972  1.00  0.00     0.024 A 
ATOM      8  C   UNL A   1      31.706  32.049  26.763  1.00  0.00     0.013 A 
ATOM      9  C   UNL A   1      33.716  31.075  27.674  1.00  0.00     0.124 A 
ATOM     10  C   UNL A   1      32.067  33.284  27.298  1.00  0.00     0.016 A 
ATOM     11  C   UNL A   1      34.097  32.315  28.199  1.00  0.00     0.062 A 
BRANCH   7  12
ATOM     12  C   UNL A   1      31.993  29.598  26.550  1.00  0.00    -0.012 A 
ATOM     13  C   UNL A   1      31.230  27.043  25.634  1.00  0.00     0.095 A 
ATOM     14  C   UNL A   1      31.536  27.242  26.985  1.00  0.00     0.019 A 
ATOM     15  C   UNL A   1      31.265  28.123  24.757  1.00  0.00     0.138 A 
ATOM     16  C   UNL A   1      31.923  28.510  27.437  1.00  0.00     0.010 A 
ATOM     17  C   UNL A   1      31.642  29.385  25.207  1.00  0.00     0.049 A 
ATOM     18  F   UNL A   1      30.933  27.984  23.465  1.00  0.00    -0.206 F 
BRANCH  13  19
ATOM     19  C   UNL A   1      30.874  25.688  25.177  1.00  0.00     0.340 C 
ATOM     20  O   UNL A   1      29.778  25.183  25.364  1.00  0.00    -0.246 OA
BRANCH  19  21
ATOM     21  O   UNL A   1      31.958  25.085  24.637  1.00  0.00    -0.465 OA
ATOM     22  C   UNL A   1      31.690  24.350  23.442  1.00  0.00     0.282 C 
ENDBRANCH  19  21
ENDBRANCH  13  19
ENDBRANCH   7  12
BRANCH   9  23
ATOM     23  O   UNL A   1      34.524  29.985  27.858  1.00  0.00    -0.507 OA
ATOM     24  H   UNL A   1      35.147  29.977  28.559  1.00  0.00     0.293 HD
ENDBRANCH   9  23
ENDBRANCH   4   6
ENDBRANCH   3   4
ENDBRANCH   2   3
ENDBRANCH   1   2
BRANCH   1  25
ATOM     25  O   UNL A   1      32.583  35.032  32.305  1.00  0.00    -0.374 OA
BRANCH  25  26
ATOM     26  C   UNL A   1      33.658  34.312  32.911  1.00  0.00     0.202 C 
BRANCH  26  27
ATOM     27  C   UNL A   1      34.719  33.751  31.956  1.00  0.00     0.261 C 
BRANCH  27  28
ATOM     28  O   UNL A   1      34.988  32.361  32.215  1.00  0.00    -0.460 OA
BRANCH  28  29
ATOM     29  C   UNL A   1      36.115  32.124  32.927  1.00  0.00     0.338 C 
ATOM     30  O   UNL A   1      36.302  32.341  34.116  1.00  0.00    -0.246 OA
BRANCH  29  31
ATOM     31  C   UNL A   1      37.083  31.378  32.102  1.00  0.00     0.060 A 
ATOM     32  C   UNL A   1      38.063  30.634  32.770  1.00  0.00     0.016 A 
ATOM     33  C   UNL A   1      37.079  31.458  30.707  1.00  0.00     0.016 A 
ATOM     34  C   UNL A   1      39.076  30.006  32.049  1.00  0.00     0.010 A 
ATOM     35  C   UNL A   1      38.102  30.834  29.985  1.00  0.00     0.010 A 
ATOM     36  C   UNL A   1      39.123  30.135  30.654  1.00  0.00    -0.014 A 
BRANCH  36  37
ATOM     37  C   UNL A   1      40.315  29.655  29.915  1.00  0.00     0.031 A 
ATOM     38  C   UNL A   1      41.469  30.595  29.699  1.00  0.00     0.074 A 
ATOM     39  C   UNL A   1      40.386  28.387  29.474  1.00  0.00     0.049 A 
ATOM     40  N   UNL A   1      42.590  30.396  29.056  1.00  0.00    -0.248 NA
ATOM     41  C   UNL A   1      41.343  31.937  30.290  1.00  0.00     0.031 C 
ATOM     42  C   UNL A   1      39.356  27.368  29.666  1.00  0.00     0.029 A 
ATOM     43  N   UNL A   1      41.373  27.742  28.772  1.00  0.00    -0.354 N 
ATOM     44  C   UNL A   1      43.302  31.584  29.164  1.00  0.00     0.074 A 
ATOM     45  C   UNL A   1      42.475  32.509  29.906  1.00  0.00     0.031 C 
ATOM     46  C   UNL A   1      39.764  26.224  29.093  1.00  0.00     0.029 A 
ATOM     47  C   UNL A   1      41.069  26.438  28.467  1.00  0.00     0.049 A 
ATOM     48  H   UNL A   1      42.219  28.173  28.512  1.00  0.00     0.167 HD
ATOM     49  C   UNL A   1      44.540  31.872  28.697  1.00  0.00     0.037 A 
ATOM     50  C   UNL A   1      41.756  25.528  27.750  1.00  0.00     0.037 A 
ATOM     51  C   UNL A   1      45.363  30.949  27.962  1.00  0.00     0.049 A 
ATOM     52  C   UNL A   1      43.095  25.898  27.169  1.00  0.00     0.074 A 
ATOM     53  C   UNL A   1      46.635  31.149  27.453  1.00  0.00     0.029 A 
ATOM     54  N   UNL A   1      44.997  29.654  27.629  1.00  0.00    -0.354 N 
ATOM     55  N   UNL A   1      43.759  27.023  27.278  1.00  0.00    -0.248 NA
ATOM     56  C   UNL A   1      43.777  24.875  26.363  1.00  0.00     0.031 C 
ATOM     57  C   UNL A   1      47.020  29.990  26.774  1.00  0.00     0.029 A 
ATOM     58  C   UNL A   1      46.009  29.052  26.901  1.00  0.00     0.049 A 
ATOM     59  H   UNL A   1      44.144  29.228  27.873  1.00  0.00     0.167 HD
ATOM     60  C   UNL A   1      44.944  26.836  26.578  1.00  0.00     0.074 A 
ATOM     61  C   UNL A   1      44.913  25.486  26.054  1.00  0.00     0.031 C 
ATOM     62  C   UNL A   1      45.967  27.705  26.390  1.00  0.00     0.037 A 
BRANCH  49  63
ATOM     63  C   UNL A   1      45.079  33.247  28.954  1.00  0.00     0.057 A 
ATOM     64  C   UNL A   1      45.779  33.531  30.134  1.00  0.00     0.134 A 
ATOM     65  C   UNL A   1      44.853  34.305  28.064  1.00  0.00     0.134 A 
ATOM     66  F   UNL A   1      46.025  32.562  31.029  1.00  0.00    -0.206 F 
ATOM     67  C   UNL A   1      46.223  34.821  30.426  1.00  0.00     0.040 A 
ATOM     68  C   UNL A   1      45.313  35.594  28.335  1.00  0.00     0.040 A 
ATOM     69  F   UNL A   1      44.202  34.096  26.911  1.00  0.00    -0.206 F 
ATOM     70  C   UNL A   1      45.991  35.857  29.524  1.00  0.00     0.006 A 
ENDBRANCH  49  63
BRANCH  50  71
ATOM     71  C   UNL A   1      41.187  24.174  27.543  1.00  0.00     0.057 A 
ATOM     72  C   UNL A   1      41.678  23.062  28.241  1.00  0.00     0.134 A 
ATOM     73  C   UNL A   1      40.147  23.956  26.633  1.00  0.00     0.134 A 
ATOM     74  F   UNL A   1      42.676  23.206  29.126  1.00  0.00    -0.206 F 
ATOM     75  C   UNL A   1      41.168  21.782  28.026  1.00  0.00     0.040 A 
ATOM     76  C   UNL A   1      39.613  22.684  26.425  1.00  0.00     0.040 A 
ATOM     77  F   UNL A   1      39.620  24.984  25.952  1.00  0.00    -0.206 F 
ATOM     78  C   UNL A   1      40.130  21.590  27.118  1.00  0.00     0.006 A 
ENDBRANCH  50  71
BRANCH  62  79
ATOM     79  C   UNL A   1      47.155  27.229  25.606  1.00  0.00     0.057 A 
ATOM     80  C   UNL A   1      48.182  26.512  26.234  1.00  0.00     0.134 A 
ATOM     81  C   UNL A   1      47.324  27.553  24.256  1.00  0.00     0.134 A 
ATOM     82  F   UNL A   1      48.087  26.178  27.530  1.00  0.00    -0.206 F 
ATOM     83  C   UNL A   1      49.343  26.150  25.550  1.00  0.00     0.040 A 
ATOM     84  C   UNL A   1      48.470  27.177  23.553  1.00  0.00     0.040 A 
ATOM     85  F   UNL A   1      46.373  28.231  23.595  1.00  0.00    -0.206 F 
ATOM     86  C   UNL A   1      49.488  26.481  24.204  1.00  0.00     0.006 A 
ENDBRANCH  62  79
ENDBRANCH  36  37
ENDBRANCH  29  31
ENDBRANCH  28  29
ENDBRANCH  27  28
ENDBRANCH  26  27
ENDBRANCH  25  26
ENDBRANCH   1  25
TORSDOF 18
ENDMDL
MODEL 2
REMARK VINA RESULT:     -11.4      3.549      8.936
REMARK SMILES COC(=O)c1ccc(-c2ccc(C(=O)OCCOCCOC(=O)c3ccc(-c4c5nc(c(-c6c(F)cccc6F)c6ccc([nH]6)c(-c6c(F)cccc6F)c6nc(c(-c7c(F)cccc7F)c7ccc4[nH]7)C=C6)C=C5)cc3)cc2O)cc1F
REMARK SMILES IDX 17 1 16 2 15 3 13 4 14 5 12 6 9 7 10 8 79 9 11 10 78 11 8 12
REMARK SMILES IDX 5 13 6 14 82 15 7 16 81 17 83 18 3 19 4 20 2 21 1 22 80 23
REMARK SMILES IDX 18 25 19 26 20 27 21 28 22 29 23 30 24 31 25 32 77 33 26 34
REMARK SMILES IDX 76 35 27 36 28 37 29 38 70 39 30 40 75 41 69 42 71 43 31 44
REMARK SMILES IDX 74 45 68 46 67 47 32 49 58 50 41 51 57 52 42 53 45 54 56 55
REMARK SMILES IDX 72 56 43 57 44 58 55 60 73 61 46 62 33 63 34 64 39 65 35 66
REMARK SMILES IDX 36 67 38 68 40 69 37 70 59 71 60 72 65 73 61 74 62 75 64 76
REMARK SMILES IDX 66 77 63 78 47 79 48 80 53 81 49 82 50 83 52 84 54 85 51 86
REMARK H PARENT 80 24 71 48 45 59
REMARK Flexibility Score: inf
ROOT
ATOM      1  C   UNL A   1      36.060  22.048  24.618  1.00  0.00     0.202 C 
ENDROOT
BRANCH   1   2
ATOM      2  C   UNL A   1      34.812  21.215  24.922  1.00  0.00     0.261 C 
BRANCH   2   3
ATOM      3  O   UNL A   1      33.794  22.017  25.547  1.00  0.00    -0.460 OA
BRANCH   3   4
ATOM      4  C   UNL A   1      32.525  21.666  25.232  1.00  0.00     0.338 C 
ATOM      5  O   UNL A   1      32.043  20.544  25.273  1.00  0.00    -0.246 OA
BRANCH   4   6
ATOM      6  C   UNL A   1      31.710  22.872  24.964  1.00  0.00     0.063 A 
ATOM      7  C   UNL A   1      30.272  25.193  24.269  1.00  0.00     0.024 A 
ATOM      8  C   UNL A   1      30.549  24.204  23.310  1.00  0.00     0.013 A 
ATOM      9  C   UNL A   1      30.680  24.958  25.597  1.00  0.00     0.124 A 
ATOM     10  C   UNL A   1      31.269  23.060  23.651  1.00  0.00     0.016 A 
ATOM     11  C   UNL A   1      31.387  23.805  25.954  1.00  0.00     0.062 A 
BRANCH   7  12
ATOM     12  C   UNL A   1      29.675  26.464  23.827  1.00  0.00    -0.012 A 
ATOM     13  C   UNL A   1      28.562  28.820  22.752  1.00  0.00     0.095 A 
ATOM     14  C   UNL A   1      27.734  27.859  23.343  1.00  0.00     0.019 A 
ATOM     15  C   UNL A   1      29.939  28.622  22.736  1.00  0.00     0.138 A 
ATOM     16  C   UNL A   1      28.288  26.686  23.869  1.00  0.00     0.010 A 
ATOM     17  C   UNL A   1      30.491  27.459  23.265  1.00  0.00     0.049 A 
ATOM     18  F   UNL A   1      30.770  29.540  22.220  1.00  0.00    -0.206 F 
BRANCH  13  19
ATOM     19  C   UNL A   1      27.948  30.022  22.161  1.00  0.00     0.340 C 
ATOM     20  O   UNL A   1      27.978  30.273  20.966  1.00  0.00    -0.246 OA
BRANCH  19  21
ATOM     21  O   UNL A   1      27.464  30.821  23.140  1.00  0.00    -0.465 OA
ATOM     22  C   UNL A   1      28.278  31.957  23.431  1.00  0.00     0.282 C 
ENDBRANCH  19  21
ENDBRANCH  13  19
ENDBRANCH   7  12
BRANCH   9  23
ATOM     23  O   UNL A   1      30.389  25.895  26.553  1.00  0.00    -0.507 OA
ATOM     24  H   UNL A   1      29.959  26.692  26.312  1.00  0.00     0.293 HD
ENDBRANCH   9  23
ENDBRANCH   4   6
ENDBRANCH   3   4
ENDBRANCH   2   3
ENDBRANCH   1   2
BRANCH   1  25
ATOM     25  O   UNL A   1      37.293  21.330  24.568  1.00  0.00    -0.374 OA
BRANCH  25  26
ATOM     26  C   UNL A   1      37.275  19.972  25.010  1.00  0.00     0.202 C 
BRANCH  26  27
ATOM     27  C   UNL A   1      38.642  19.295  25.171  1.00  0.00     0.261 C 
BRANCH  27  28
ATOM     28  O   UNL A   1      39.259  19.631  26.427  1.00  0.00    -0.460 OA
BRANCH  28  29
ATOM     29  C   UNL A   1      40.577  19.929  26.351  1.00  0.00     0.338 C 
ATOM     30  O   UNL A   1      41.459  19.267  25.822  1.00  0.00    -0.246 OA
BRANCH  29  31
ATOM     31  C   UNL A   1      40.815  21.293  26.857  1.00  0.00     0.060 A 
ATOM     32  C   UNL A   1      40.168  22.347  26.200  1.00  0.00     0.016 A 
ATOM     33  C   UNL A   1      41.702  21.547  27.906  1.00  0.00     0.016 A 
ATOM     34  C   UNL A   1      40.444  23.665  26.554  1.00  0.00     0.010 A 
ATOM     35  C   UNL A   1      41.985  22.873  28.254  1.00  0.00     0.010 A 
ATOM     36  C   UNL A   1      41.384  23.937  27.558  1.00  0.00    -0.014 A 
BRANCH  36  37
ATOM     37  C   UNL A   1      41.836  25.331  27.779  1.00  0.00     0.031 A 
ATOM     38  C   UNL A   1      43.178  25.758  27.251  1.00  0.00     0.074 A 
ATOM     39  C   UNL A   1      41.046  26.218  28.410  1.00  0.00     0.049 A 
ATOM     40  N   UNL A   1      43.781  26.913  27.358  1.00  0.00    -0.248 NA
ATOM     41  C   UNL A   1      43.939  24.747  26.498  1.00  0.00     0.031 C 
ATOM     42  C   UNL A   1      39.706  25.939  28.922  1.00  0.00     0.029 A 
ATOM     43  N   UNL A   1      41.261  27.535  28.725  1.00  0.00    -0.354 N 
ATOM     44  C   UNL A   1      44.990  26.769  26.689  1.00  0.00     0.074 A 
ATOM     45  C   UNL A   1      45.050  25.408  26.206  1.00  0.00     0.031 C 
ATOM     46  C   UNL A   1      39.218  27.054  29.491  1.00  0.00     0.029 A 
ATOM     47  C   UNL A   1      40.223  28.114  29.412  1.00  0.00     0.049 A 
ATOM     48  H   UNL A   1      42.084  28.021  28.484  1.00  0.00     0.167 HD
ATOM     49  C   UNL A   1      45.957  27.695  26.486  1.00  0.00     0.037 A 
ATOM     50  C   UNL A   1      40.103  29.351  29.932  1.00  0.00     0.037 A 
ATOM     51  C   UNL A   1      45.894  29.051  26.963  1.00  0.00     0.049 A 
ATOM     52  C   UNL A   1      41.227  30.338  29.764  1.00  0.00     0.074 A 
ATOM     53  C   UNL A   1      46.824  30.063  26.800  1.00  0.00     0.029 A 
ATOM     54  N   UNL A   1      44.847  29.582  27.699  1.00  0.00    -0.354 N 
ATOM     55  N   UNL A   1      42.365  30.193  29.129  1.00  0.00    -0.248 NA
ATOM     56  C   UNL A   1      41.053  31.658  30.387  1.00  0.00     0.031 C 
ATOM     57  C   UNL A   1      46.358  31.195  27.475  1.00  0.00     0.029 A 
ATOM     58  C   UNL A   1      45.118  30.902  28.017  1.00  0.00     0.049 A 
ATOM     59  H   UNL A   1      44.033  29.093  27.957  1.00  0.00     0.167 HD
ATOM     60  C   UNL A   1      43.030  31.407  29.255  1.00  0.00     0.074 A 
ATOM     61  C   UNL A   1      42.166  32.280  30.021  1.00  0.00     0.031 C 
ATOM     62  C   UNL A   1      44.247  31.763  28.776  1.00  0.00     0.037 A 
BRANCH  49  63
ATOM     63  C   UNL A   1      47.176  27.273  25.722  1.00  0.00     0.057 A 
ATOM     64  C   UNL A   1      48.257  26.669  26.378  1.00  0.00     0.134 A 
ATOM     65  C   UNL A   1      47.307  27.519  24.349  1.00  0.00     0.134 A 
ATOM     66  F   UNL A   1      48.196  26.409  27.693  1.00  0.00    -0.206 F 
ATOM     67  C   UNL A   1      49.430  26.338  25.698  1.00  0.00     0.040 A 
ATOM     68  C   UNL A   1      48.466  27.171  23.654  1.00  0.00     0.040 A 
ATOM     69  F   UNL A   1      46.303  28.082  23.661  1.00  0.00    -0.206 F 
ATOM     70  C   UNL A   1      49.536  26.588  24.331  1.00  0.00     0.006 A 
ENDBRANCH  49  63
BRANCH  50  71
ATOM     71  C   UNL A   1      38.866  29.726  30.660  1.00  0.00     0.057 A 
ATOM     72  C   UNL A   1      37.827  30.419  30.025  1.00  0.00     0.134 A 
ATOM     73  C   UNL A   1      38.698  29.411  32.013  1.00  0.00     0.134 A 
ATOM     74  F   UNL A   1      37.929  30.752  28.729  1.00  0.00    -0.206 F 
ATOM     75  C   UNL A   1      36.676  30.802  30.713  1.00  0.00     0.040 A 
ATOM     76  C   UNL A   1      37.543  29.768  32.708  1.00  0.00     0.040 A 
ATOM     77  F   UNL A   1      39.648  28.728  32.669  1.00  0.00    -0.206 F 
ATOM     78  C   UNL A   1      36.530  30.473  32.060  1.00  0.00     0.006 A 
ENDBRANCH  50  71
BRANCH  62  79
ATOM     79  C   UNL A   1      44.718  33.164  29.037  1.00  0.00     0.057 A 
ATOM     80  C   UNL A   1      44.426  34.194  28.134  1.00  0.00     0.134 A 
ATOM     81  C   UNL A   1      45.532  33.473  30.132  1.00  0.00     0.134 A 
ATOM     82  F   UNL A   1      43.661  33.960  27.057  1.00  0.00    -0.206 F 
ATOM     83  C   UNL A   1      44.942  35.480  28.302  1.00  0.00     0.040 A 
ATOM     84  C   UNL A   1      46.035  34.762  30.325  1.00  0.00     0.040 A 
ATOM     85  F   UNL A   1      45.841  32.533  31.038  1.00  0.00    -0.206 F 
ATOM     86  C   UNL A   1      45.748  35.766  29.402  1.00  0.00     0.006 A 
ENDBRANCH  62  79
ENDBRANCH  36  37
ENDBRANCH  29  31
ENDBRANCH  28  29
ENDBRANCH  27  28
ENDBRANCH  26  27
ENDBRANCH  25  26
ENDBRANCH   1  25
TORSDOF 18
ENDMDL
MODEL 3
REMARK VINA RESULT:     -11.3      1.234      2.041
REMARK SMILES COC(=O)c1ccc(-c2ccc(C(=O)OCCOCCOC(=O)c3ccc(-c4c5nc(c(-c6c(F)cccc6F)c6ccc([nH]6)c(-c6c(F)cccc6F)c6nc(c(-c7c(F)cccc7F)c7ccc4[nH]7)C=C6)C=C5)cc3)cc2O)cc1F
REMARK SMILES IDX 17 1 16 2 15 3 13 4 14 5 12 6 9 7 10 8 79 9 11 10 78 11 8 12
REMARK SMILES IDX 5 13 6 14 82 15 7 16 81 17 83 18 3 19 4 20 2 21 1 22 80 23
REMARK SMILES IDX 18 25 19 26 20 27 21 28 22 29 23 30 24 31 25 32 77 33 26 34
REMARK SMILES IDX 76 35 27 36 28 37 29 38 70 39 30 40 75 41 69 42 71 43 31 44
REMARK SMILES IDX 74 45 68 46 67 47 32 49 58 50 41 51 57 52 42 53 45 54 56 55
REMARK SMILES IDX 72 56 43 57 44 58 55 60 73 61 46 62 33 63 34 64 39 65 35 66
REMARK SMILES IDX 36 67 38 68 40 69 37 70 59 71 60 72 65 73 61 74 62 75 64 76
REMARK SMILES IDX 66 77 63 78 47 79 48 80 53 81 49 82 50 83 52 84 54 85 51 86
REMARK H PARENT 80 24 71 48 45 59
REMARK Flexibility Score: inf
ROOT
ATOM      1  C   UNL A   1      33.167  35.004  30.562  1.00  0.00     0.202 C 
ENDROOT
BRANCH   1   2
ATOM      2  C   UNL A   1      33.721  34.598  29.194  1.00  0.00     0.261 C 
BRANCH   2   3
ATOM      3  O   UNL A   1      34.039  33.195  29.160  1.00  0.00    -0.460 OA
BRANCH   3   4
ATOM      4  C   UNL A   1      34.825  32.818  28.124  1.00  0.00     0.338 C 
ATOM      5  O   UNL A   1      35.840  33.376  27.733  1.00  0.00    -0.246 OA
BRANCH   4   6
ATOM      6  C   UNL A   1      34.380  31.513  27.590  1.00  0.00     0.063 A 
ATOM      7  C   UNL A   1      33.732  29.005  26.481  1.00  0.00     0.024 A 
ATOM      8  C   UNL A   1      34.967  29.212  27.117  1.00  0.00     0.013 A 
ATOM      9  C   UNL A   1      32.806  30.068  26.471  1.00  0.00     0.124 A 
ATOM     10  C   UNL A   1      35.293  30.455  27.657  1.00  0.00     0.016 A 
ATOM     11  C   UNL A   1      33.116  31.314  27.026  1.00  0.00     0.062 A 
BRANCH   7  12
ATOM     12  C   UNL A   1      33.505  27.739  25.765  1.00  0.00    -0.012 A 
ATOM     13  C   UNL A   1      33.312  25.291  24.381  1.00  0.00     0.095 A 
ATOM     14  C   UNL A   1      33.038  25.345  25.752  1.00  0.00     0.019 A 
ATOM     15  C   UNL A   1      33.640  26.460  23.700  1.00  0.00     0.138 A 
ATOM     16  C   UNL A   1      33.142  26.560  26.439  1.00  0.00     0.010 A 
ATOM     17  C   UNL A   1      33.736  27.669  24.382  1.00  0.00     0.049 A 
ATOM     18  F   UNL A   1      33.864  26.458  22.378  1.00  0.00    -0.206 F 
BRANCH  13  19
ATOM     19  C   UNL A   1      33.244  23.990  23.692  1.00  0.00     0.340 C 
ATOM     20  O   UNL A   1      32.373  23.703  22.884  1.00  0.00    -0.246 OA
BRANCH  19  21
ATOM     21  O   UNL A   1      34.203  23.164  24.170  1.00  0.00    -0.465 OA
ATOM     22  C   UNL A   1      35.522  23.464  23.713  1.00  0.00     0.282 C 
ENDBRANCH  19  21
ENDBRANCH  13  19
ENDBRANCH   7  12
BRANCH   9  23
ATOM     23  O   UNL A   1      31.584  29.874  25.886  1.00  0.00    -0.507 OA
ATOM     24  H   UNL A   1      31.524  29.737  24.960  1.00  0.00     0.293 HD
ENDBRANCH   9  23
ENDBRANCH   4   6
ENDBRANCH   3   4
ENDBRANCH   2   3
ENDBRANCH   1   2
BRANCH   1  25
ATOM     25  O   UNL A   1      34.069  35.703  31.419  1.00  0.00    -0.374 OA
BRANCH  25  26
ATOM     26  C   UNL A   1      34.862  34.917  32.311  1.00  0.00     0.202 C 
BRANCH  26  27
ATOM     27  C   UNL A   1      34.242  33.595  32.778  1.00  0.00     0.261 C 
BRANCH  27  28
ATOM     28  O   UNL A   1      35.000  32.460  32.323  1.00  0.00    -0.460 OA
BRANCH  28  29
ATOM     29  C   UNL A   1      36.120  32.199  33.038  1.00  0.00     0.338 C 
ATOM     30  O   UNL A   1      36.299  32.388  34.233  1.00  0.00    -0.246 OA
BRANCH  29  31
ATOM     31  C   UNL A   1      37.091  31.468  32.203  1.00  0.00     0.060 A 
ATOM     32  C   UNL A   1      38.046  30.684  32.861  1.00  0.00     0.016 A 
ATOM     33  C   UNL A   1      37.113  31.598  30.812  1.00  0.00     0.016 A 
ATOM     34  C   UNL A   1      39.062  30.066  32.135  1.00  0.00     0.010 A 
ATOM     35  C   UNL A   1      38.139  30.983  30.086  1.00  0.00     0.010 A 
ATOM     36  C   UNL A   1      39.136  30.244  30.747  1.00  0.00    -0.014 A 
BRANCH  36  37
ATOM     37  C   UNL A   1      40.333  29.771  30.011  1.00  0.00     0.031 A 
ATOM     38  C   UNL A   1      41.489  30.713  29.812  1.00  0.00     0.074 A 
ATOM     39  C   UNL A   1      40.408  28.507  29.560  1.00  0.00     0.049 A 
ATOM     40  N   UNL A   1      42.614  30.520  29.175  1.00  0.00    -0.248 NA
ATOM     41  C   UNL A   1      41.358  32.050  30.415  1.00  0.00     0.031 C 
ATOM     42  C   UNL A   1      39.376  27.486  29.735  1.00  0.00     0.029 A 
ATOM     43  N   UNL A   1      41.400  27.869  28.859  1.00  0.00    -0.354 N 
ATOM     44  C   UNL A   1      43.325  31.707  29.299  1.00  0.00     0.074 A 
ATOM     45  C   UNL A   1      42.493  32.626  30.044  1.00  0.00     0.031 C 
ATOM     46  C   UNL A   1      39.789  26.347  29.154  1.00  0.00     0.029 A 
ATOM     47  C   UNL A   1      41.098  26.568  28.539  1.00  0.00     0.049 A 
ATOM     48  H   UNL A   1      42.248  28.302  28.608  1.00  0.00     0.167 HD
ATOM     49  C   UNL A   1      44.566  31.999  28.843  1.00  0.00     0.037 A 
ATOM     50  C   UNL A   1      41.790  25.665  27.818  1.00  0.00     0.037 A 
ATOM     51  C   UNL A   1      45.395  31.084  28.106  1.00  0.00     0.049 A 
ATOM     52  C   UNL A   1      43.133  26.040  27.250  1.00  0.00     0.074 A 
ATOM     53  C   UNL A   1      46.670  31.289  27.608  1.00  0.00     0.029 A 
ATOM     54  N   UNL A   1      45.031  29.792  27.758  1.00  0.00    -0.354 N 
ATOM     55  N   UNL A   1      43.796  27.164  27.374  1.00  0.00    -0.248 NA
ATOM     56  C   UNL A   1      43.821  25.024  26.441  1.00  0.00     0.031 C 
ATOM     57  C   UNL A   1      47.060  30.136  26.921  1.00  0.00     0.029 A 
ATOM     58  C   UNL A   1      46.048  29.197  27.032  1.00  0.00     0.049 A 
ATOM     59  H   UNL A   1      44.177  29.364  27.992  1.00  0.00     0.167 HD
ATOM     60  C   UNL A   1      44.986  26.983  26.681  1.00  0.00     0.074 A 
ATOM     61  C   UNL A   1      44.959  25.639  26.145  1.00  0.00     0.031 C 
ATOM     62  C   UNL A   1      46.011  27.854  26.508  1.00  0.00     0.037 A 
BRANCH  49  63
ATOM     63  C   UNL A   1      45.103  33.372  29.117  1.00  0.00     0.057 A 
ATOM     64  C   UNL A   1      44.888  34.418  28.209  1.00  0.00     0.134 A 
ATOM     65  C   UNL A   1      45.885  33.645  30.246  1.00  0.00     0.134 A 
ATOM     66  F   UNL A   1      44.152  34.220  27.105  1.00  0.00    -0.206 F 
ATOM     67  C   UNL A   1      45.444  35.682  28.408  1.00  0.00     0.040 A 
ATOM     68  C   UNL A   1      46.426  34.912  30.468  1.00  0.00     0.040 A 
ATOM     69  F   UNL A   1      46.116  32.691  31.160  1.00  0.00    -0.206 F 
ATOM     70  C   UNL A   1      46.215  35.932  29.542  1.00  0.00     0.006 A 
ENDBRANCH  49  63
BRANCH  50  71
ATOM     71  C   UNL A   1      41.223  24.312  27.595  1.00  0.00     0.057 A 
ATOM     72  C   UNL A   1      41.704  23.195  28.292  1.00  0.00     0.134 A 
ATOM     73  C   UNL A   1      40.195  24.101  26.670  1.00  0.00     0.134 A 
ATOM     74  F   UNL A   1      42.690  23.332  29.192  1.00  0.00    -0.206 F 
ATOM     75  C   UNL A   1      41.196  21.917  28.063  1.00  0.00     0.040 A 
ATOM     76  C   UNL A   1      39.663  22.831  26.447  1.00  0.00     0.040 A 
ATOM     77  F   UNL A   1      39.678  25.134  25.989  1.00  0.00    -0.206 F 
ATOM     78  C   UNL A   1      40.169  21.732  27.139  1.00  0.00     0.006 A 
ENDBRANCH  50  71
BRANCH  62  79
ATOM     79  C   UNL A   1      47.204  27.385  25.728  1.00  0.00     0.057 A 
ATOM     80  C   UNL A   1      47.258  27.555  24.339  1.00  0.00     0.134 A 
ATOM     81  C   UNL A   1      48.254  26.690  26.338  1.00  0.00     0.134 A 
ATOM     82  F   UNL A   1      46.278  28.204  23.692  1.00  0.00    -0.206 F 
ATOM     83  C   UNL A   1      48.308  27.035  23.581  1.00  0.00     0.040 A 
ATOM     84  C   UNL A   1      49.321  26.184  25.593  1.00  0.00     0.040 A 
ATOM     85  F   UNL A   1      48.265  26.501  27.666  1.00  0.00    -0.206 F 
ATOM     86  C   UNL A   1      49.345  26.348  24.209  1.00  0.00     0.006 A 
ENDBRANCH  62  79
ENDBRANCH  36  37
ENDBRANCH  29  31
ENDBRANCH  28  29
ENDBRANCH  27  28
ENDBRANCH  26  27
ENDBRANCH  25  26
ENDBRANCH   1  25
TORSDOF 18
ENDMDL
