MODEL 1
REMARK VINA RESULT:      -9.7      0.000      0.000
REMARK SMILES C[C@@H]([N@@H+](C)[C@@H]1COC[C@@H]1C(=O)OCCOCCOC(=O)c1ccc(-c2c3nc(c(-c4c(F)cccc4F)c4ccc([nH]4)c(-c4c(F)cccc4F)c4nc(c(-c5c(F)cccc5F)c5ccc2[nH]5)C=C4)C=C3)cc1)C1(C)CC1
REMARK SMILES IDX 14 1 13 2 12 3 10 4 11 5 9 6 5 7 6 8 7 9 8 10 3 11 4 12 2 14
REMARK SMILES IDX 1 15 75 16 76 17 77 18 78 19 15 20 16 21 17 22 18 23 19 24
REMARK SMILES IDX 20 25 21 26 22 27 74 28 23 29 73 30 24 31 25 32 26 33 67 34
REMARK SMILES IDX 27 35 72 36 66 37 68 38 28 39 71 40 65 41 64 42 29 44 55 45
REMARK SMILES IDX 38 46 54 47 39 48 42 49 53 50 69 51 40 52 41 53 52 55 70 56
REMARK SMILES IDX 43 57 30 58 31 59 36 60 32 61 33 62 35 63 37 64 34 65 56 66
REMARK SMILES IDX 57 67 62 68 58 69 59 70 61 71 63 72 60 73 44 74 45 75 50 76
REMARK SMILES IDX 46 77 47 78 49 79 51 80 48 81
REMARK H PARENT 3 13 68 43 42 54
REMARK Flexibility Score: inf
ROOT
ATOM      1  C   UNL A   1      37.777  22.259  25.588  1.00  0.00     0.202 C 
ENDROOT
BRANCH   1   2
ATOM      2  C   UNL A   1      36.580  21.405  25.169  1.00  0.00     0.261 C 
BRANCH   2   3
ATOM      3  O   UNL A   1      35.535  22.180  24.549  1.00  0.00    -0.463 OA
BRANCH   3   4
ATOM      4  C   UNL A   1      34.659  22.769  25.408  1.00  0.00     0.317 C 
ATOM      5  O   UNL A   1      34.556  23.984  25.534  1.00  0.00    -0.252 OA
BRANCH   4   6
ATOM      6  C   UNL A   1      33.964  21.759  26.310  1.00  0.00     0.185 C 
ATOM      7  C   UNL A   1      32.900  20.808  25.727  1.00  0.00     0.227 C 
ATOM      8  C   UNL A   1      31.704  21.782  25.644  1.00  0.00     0.226 C 
ATOM      9  O   UNL A   1      31.796  22.664  26.765  1.00  0.00    -0.374 OA
ATOM     10  C   UNL A   1      33.113  22.538  27.317  1.00  0.00     0.182 C 
BRANCH   7  11
ATOM     11  N   UNL A   1      33.152  19.985  24.518  1.00  0.00    -0.330 N 
ATOM     12  C   UNL A   1      32.404  20.515  23.356  1.00  0.00     0.333 C 
ATOM     13  H   UNL A   1      34.161  20.059  24.385  1.00  0.00     0.348 HD
BRANCH  11  14
ATOM     14  C   UNL A   1      32.856  18.521  24.649  1.00  0.00     0.186 C 
ATOM     15  C   UNL A   1      32.568  18.016  26.067  1.00  0.00     0.076 C 
BRANCH  14  16
ATOM     16  C   UNL A   1      34.037  17.704  24.078  1.00  0.00     0.019 C 
ATOM     17  C   UNL A   1      35.408  18.201  24.443  1.00  0.00     0.018 C 
ATOM     18  C   UNL A   1      33.924  16.188  23.955  1.00  0.00     0.013 C 
ATOM     19  C   UNL A   1      33.864  17.024  22.721  1.00  0.00     0.013 C 
ENDBRANCH  14  16
ENDBRANCH  11  14
ENDBRANCH   7  11
ENDBRANCH   4   6
ENDBRANCH   3   4
ENDBRANCH   2   3
ENDBRANCH   1   2
BRANCH   1  20
ATOM     20  O   UNL A   1      38.997  21.550  25.795  1.00  0.00    -0.374 OA
BRANCH  20  21
ATOM     21  C   UNL A   1      39.003  20.199  25.335  1.00  0.00     0.202 C 
BRANCH  21  22
ATOM     22  C   UNL A   1      39.930  19.255  26.112  1.00  0.00     0.261 C 
BRANCH  22  23
ATOM     23  O   UNL A   1      41.189  19.070  25.440  1.00  0.00    -0.460 OA
BRANCH  23  24
ATOM     24  C   UNL A   1      42.301  19.256  26.194  1.00  0.00     0.338 C 
ATOM     25  O   UNL A   1      43.230  18.483  26.346  1.00  0.00    -0.246 OA
BRANCH  24  26
ATOM     26  C   UNL A   1      42.318  20.654  26.680  1.00  0.00     0.060 A 
ATOM     27  C   UNL A   1      42.554  21.679  25.759  1.00  0.00     0.016 A 
ATOM     28  C   UNL A   1      42.073  20.965  28.015  1.00  0.00     0.016 A 
ATOM     29  C   UNL A   1      42.578  23.013  26.182  1.00  0.00     0.010 A 
ATOM     30  C   UNL A   1      42.015  22.304  28.421  1.00  0.00     0.010 A 
ATOM     31  C   UNL A   1      42.333  23.340  27.524  1.00  0.00    -0.014 A 
BRANCH  31  32
ATOM     32  C   UNL A   1      42.611  24.717  28.032  1.00  0.00     0.031 A 
ATOM     33  C   UNL A   1      44.051  25.139  28.226  1.00  0.00     0.074 A 
ATOM     34  C   UNL A   1      41.628  25.605  28.280  1.00  0.00     0.049 A 
ATOM     35  N   UNL A   1      44.537  26.274  28.663  1.00  0.00    -0.248 NA
ATOM     36  C   UNL A   1      45.082  24.134  27.913  1.00  0.00     0.031 C 
ATOM     37  C   UNL A   1      40.193  25.349  28.151  1.00  0.00     0.029 A 
ATOM     38  N   UNL A   1      41.694  26.917  28.689  1.00  0.00    -0.354 N 
ATOM     39  C   UNL A   1      45.917  26.104  28.699  1.00  0.00     0.074 A 
ATOM     40  C   UNL A   1      46.187  24.738  28.316  1.00  0.00     0.031 C 
ATOM     41  C   UNL A   1      39.518  26.474  28.445  1.00  0.00     0.029 A 
ATOM     42  C   UNL A   1      40.467  27.526  28.812  1.00  0.00     0.049 A 
ATOM     43  H   UNL A   1      42.543  27.379  28.875  1.00  0.00     0.167 HD
ATOM     44  C   UNL A   1      46.886  27.006  28.981  1.00  0.00     0.037 A 
ATOM     45  C   UNL A   1      40.144  28.783  29.178  1.00  0.00     0.037 A 
ATOM     46  C   UNL A   1      46.638  28.383  29.306  1.00  0.00     0.049 A 
ATOM     47  C   UNL A   1      41.237  29.771  29.505  1.00  0.00     0.074 A 
ATOM     48  C   UNL A   1      47.558  29.387  29.552  1.00  0.00     0.029 A 
ATOM     49  N   UNL A   1      45.380  28.951  29.424  1.00  0.00    -0.354 N 
ATOM     50  N   UNL A   1      42.537  29.606  29.482  1.00  0.00    -0.248 NA
ATOM     51  C   UNL A   1      40.815  31.124  29.903  1.00  0.00     0.031 C 
ATOM     52  C   UNL A   1      46.855  30.554  29.867  1.00  0.00     0.029 A 
ATOM     53  C   UNL A   1      45.499  30.289  29.762  1.00  0.00     0.049 A 
ATOM     54  H   UNL A   1      44.530  28.475  29.288  1.00  0.00     0.167 HD
ATOM     55  C   UNL A   1      43.086  30.837  29.828  1.00  0.00     0.074 A 
ATOM     56  C   UNL A   1      41.979  31.744  30.043  1.00  0.00     0.031 C 
ATOM     57  C   UNL A   1      44.390  31.187  29.956  1.00  0.00     0.037 A 
BRANCH  44  58
ATOM     58  C   UNL A   1      48.309  26.526  28.942  1.00  0.00     0.057 A 
ATOM     59  C   UNL A   1      49.081  26.585  27.773  1.00  0.00     0.134 A 
ATOM     60  C   UNL A   1      48.917  26.007  30.091  1.00  0.00     0.134 A 
ATOM     61  F   UNL A   1      48.554  27.055  26.632  1.00  0.00    -0.206 F 
ATOM     62  C   UNL A   1      50.394  26.112  27.741  1.00  0.00     0.040 A 
ATOM     63  C   UNL A   1      50.239  25.562  30.080  1.00  0.00     0.040 A 
ATOM     64  F   UNL A   1      48.237  25.926  31.245  1.00  0.00    -0.206 F 
ATOM     65  C   UNL A   1      50.979  25.606  28.900  1.00  0.00     0.006 A 
ENDBRANCH  44  58
BRANCH  45  66
ATOM     66  C   UNL A   1      38.718  29.205  29.244  1.00  0.00     0.057 A 
ATOM     67  C   UNL A   1      37.985  29.110  30.435  1.00  0.00     0.134 A 
ATOM     68  C   UNL A   1      38.041  29.673  28.111  1.00  0.00     0.134 A 
ATOM     69  F   UNL A   1      38.568  28.642  31.548  1.00  0.00    -0.206 F 
ATOM     70  C   UNL A   1      36.630  29.442  30.491  1.00  0.00     0.040 A 
ATOM     71  C   UNL A   1      36.694  30.035  28.159  1.00  0.00     0.040 A 
ATOM     72  F   UNL A   1      38.683  29.787  26.938  1.00  0.00    -0.206 F 
ATOM     73  C   UNL A   1      35.981  29.911  29.351  1.00  0.00     0.006 A 
ENDBRANCH  45  66
BRANCH  57  74
ATOM     74  C   UNL A   1      44.702  32.613  30.304  1.00  0.00     0.057 A 
ATOM     75  C   UNL A   1      44.905  33.029  31.625  1.00  0.00     0.134 A 
ATOM     76  C   UNL A   1      44.860  33.572  29.293  1.00  0.00     0.134 A 
ATOM     77  F   UNL A   1      44.762  32.164  32.640  1.00  0.00    -0.206 F 
ATOM     78  C   UNL A   1      45.233  34.352  31.932  1.00  0.00     0.040 A 
ATOM     79  C   UNL A   1      45.215  34.890  29.585  1.00  0.00     0.040 A 
ATOM     80  F   UNL A   1      44.693  33.239  28.005  1.00  0.00    -0.206 F 
ATOM     81  C   UNL A   1      45.397  35.285  30.909  1.00  0.00     0.006 A 
ENDBRANCH  57  74
ENDBRANCH  31  32
ENDBRANCH  24  26
ENDBRANCH  23  24
ENDBRANCH  22  23
ENDBRANCH  21  22
ENDBRANCH  20  21
ENDBRANCH   1  20
TORSDOF 17
ENDMDL
MODEL 2
REMARK VINA RESULT:      -9.6      2.002      3.831
REMARK SMILES C[C@@H]([N@@H+](C)[C@@H]1COC[C@@H]1C(=O)OCCOCCOC(=O)c1ccc(-c2c3nc(c(-c4c(F)cccc4F)c4ccc([nH]4)c(-c4c(F)cccc4F)c4nc(c(-c5c(F)cccc5F)c5ccc2[nH]5)C=C4)C=C3)cc1)C1(C)CC1
REMARK SMILES IDX 14 1 13 2 12 3 10 4 11 5 9 6 5 7 6 8 7 9 8 10 3 11 4 12 2 14
REMARK SMILES IDX 1 15 75 16 76 17 77 18 78 19 15 20 16 21 17 22 18 23 19 24
REMARK SMILES IDX 20 25 21 26 22 27 74 28 23 29 73 30 24 31 25 32 26 33 67 34
REMARK SMILES IDX 27 35 72 36 66 37 68 38 28 39 71 40 65 41 64 42 29 44 55 45
REMARK SMILES IDX 38 46 54 47 39 48 42 49 53 50 69 51 40 52 41 53 52 55 70 56
REMARK SMILES IDX 43 57 30 58 31 59 36 60 32 61 33 62 35 63 37 64 34 65 56 66
REMARK SMILES IDX 57 67 62 68 58 69 59 70 61 71 63 72 60 73 44 74 45 75 50 76
REMARK SMILES IDX 46 77 47 78 49 79 51 80 48 81
REMARK H PARENT 3 13 68 43 42 54
REMARK Flexibility Score: inf
ROOT
ATOM      1  C   UNL A   1      37.267  22.269  25.182  1.00  0.00     0.202 C 
ENDROOT
BRANCH   1   2
ATOM      2  C   UNL A   1      36.146  23.019  25.901  1.00  0.00     0.261 C 
BRANCH   2   3
ATOM      3  O   UNL A   1      34.883  22.922  25.213  1.00  0.00    -0.463 OA
BRANCH   3   4
ATOM      4  C   UNL A   1      33.982  23.899  25.506  1.00  0.00     0.317 C 
ATOM      5  O   UNL A   1      33.293  23.897  26.519  1.00  0.00    -0.252 OA
BRANCH   4   6
ATOM      6  C   UNL A   1      33.802  24.883  24.358  1.00  0.00     0.185 C 
ATOM      7  C   UNL A   1      32.424  25.524  24.100  1.00  0.00     0.227 C 
ATOM      8  C   UNL A   1      31.721  24.342  23.396  1.00  0.00     0.226 C 
ATOM      9  O   UNL A   1      32.707  23.667  22.612  1.00  0.00    -0.374 OA
ATOM     10  C   UNL A   1      33.998  24.116  23.047  1.00  0.00     0.182 C 
BRANCH   7  11
ATOM     11  N   UNL A   1      31.650  26.193  25.174  1.00  0.00    -0.330 N 
ATOM     12  C   UNL A   1      30.247  25.720  25.184  1.00  0.00     0.333 C 
ATOM     13  H   UNL A   1      32.145  25.928  26.026  1.00  0.00     0.348 HD
BRANCH  11  14
ATOM     14  C   UNL A   1      31.647  27.692  25.144  1.00  0.00     0.186 C 
ATOM     15  C   UNL A   1      32.293  28.341  23.915  1.00  0.00     0.076 C 
BRANCH  14  16
ATOM     16  C   UNL A   1      32.359  28.234  26.404  1.00  0.00     0.019 C 
ATOM     17  C   UNL A   1      33.823  27.913  26.512  1.00  0.00     0.018 C 
ATOM     18  C   UNL A   1      31.964  29.592  26.976  1.00  0.00     0.013 C 
ATOM     19  C   UNL A   1      31.558  28.352  27.699  1.00  0.00     0.013 C 
ENDBRANCH  14  16
ENDBRANCH  11  14
ENDBRANCH   7  11
ENDBRANCH   4   6
ENDBRANCH   3   4
ENDBRANCH   2   3
ENDBRANCH   1   2
BRANCH   1  20
ATOM     20  O   UNL A   1      36.980  20.916  24.837  1.00  0.00    -0.374 OA
BRANCH  20  21
ATOM     21  C   UNL A   1      38.082  20.015  24.929  1.00  0.00     0.202 C 
BRANCH  21  22
ATOM     22  C   UNL A   1      39.318  20.576  25.646  1.00  0.00     0.261 C 
BRANCH  22  23
ATOM     23  O   UNL A   1      40.179  19.527  26.126  1.00  0.00    -0.460 OA
BRANCH  23  24
ATOM     24  C   UNL A   1      41.506  19.701  25.911  1.00  0.00     0.338 C 
ATOM     25  O   UNL A   1      42.244  19.008  25.233  1.00  0.00    -0.246 OA
BRANCH  24  26
ATOM     26  C   UNL A   1      41.915  21.002  26.487  1.00  0.00     0.060 A 
ATOM     27  C   UNL A   1      41.896  21.155  27.876  1.00  0.00     0.016 A 
ATOM     28  C   UNL A   1      42.346  22.054  25.681  1.00  0.00     0.016 A 
ATOM     29  C   UNL A   1      42.276  22.370  28.456  1.00  0.00     0.010 A 
ATOM     30  C   UNL A   1      42.804  23.240  26.266  1.00  0.00     0.010 A 
ATOM     31  C   UNL A   1      42.711  23.437  27.656  1.00  0.00    -0.014 A 
BRANCH  31  32
ATOM     32  C   UNL A   1      42.866  24.805  28.235  1.00  0.00     0.031 A 
ATOM     33  C   UNL A   1      44.250  25.273  28.628  1.00  0.00     0.074 A 
ATOM     34  C   UNL A   1      41.824  25.648  28.379  1.00  0.00     0.049 A 
ATOM     35  N   UNL A   1      44.630  26.409  29.157  1.00  0.00    -0.248 NA
ATOM     36  C   UNL A   1      45.352  24.318  28.423  1.00  0.00     0.031 C 
ATOM     37  C   UNL A   1      40.429  25.344  28.057  1.00  0.00     0.029 A 
ATOM     38  N   UNL A   1      41.783  26.947  28.831  1.00  0.00    -0.354 N 
ATOM     39  C   UNL A   1      45.999  26.288  29.368  1.00  0.00     0.074 A 
ATOM     40  C   UNL A   1      46.371  24.947  28.983  1.00  0.00     0.031 C 
ATOM     41  C   UNL A   1      39.677  26.434  28.293  1.00  0.00     0.029 A 
ATOM     42  C   UNL A   1      40.526  27.506  28.811  1.00  0.00     0.049 A 
ATOM     43  H   UNL A   1      42.581  27.433  29.139  1.00  0.00     0.167 HD
ATOM     44  C   UNL A   1      46.886  27.215  29.799  1.00  0.00     0.037 A 
ATOM     45  C   UNL A   1      40.108  28.737  29.167  1.00  0.00     0.037 A 
ATOM     46  C   UNL A   1      46.543  28.570  30.129  1.00  0.00     0.049 A 
ATOM     47  C   UNL A   1      41.109  29.752  29.663  1.00  0.00     0.074 A 
ATOM     48  C   UNL A   1      47.381  29.598  30.522  1.00  0.00     0.029 A 
ATOM     49  N   UNL A   1      45.258  29.087  30.099  1.00  0.00    -0.354 N 
ATOM     50  N   UNL A   1      42.407  29.637  29.805  1.00  0.00    -0.248 NA
ATOM     51  C   UNL A   1      40.585  31.075  30.041  1.00  0.00     0.031 C 
ATOM     52  C   UNL A   1      46.597  30.727  30.776  1.00  0.00     0.029 A 
ATOM     53  C   UNL A   1      45.278  30.417  30.488  1.00  0.00     0.049 A 
ATOM     54  H   UNL A   1      44.452  28.586  29.839  1.00  0.00     0.167 HD
ATOM     55  C   UNL A   1      42.856  30.874  30.255  1.00  0.00     0.074 A 
ATOM     56  C   UNL A   1      41.694  31.732  30.349  1.00  0.00     0.031 C 
ATOM     57  C   UNL A   1      44.117  31.266  30.562  1.00  0.00     0.037 A 
BRANCH  44  58
ATOM     58  C   UNL A   1      48.320  26.788  29.932  1.00  0.00     0.057 A 
ATOM     59  C   UNL A   1      48.810  26.181  31.096  1.00  0.00     0.134 A 
ATOM     60  C   UNL A   1      49.220  26.978  28.876  1.00  0.00     0.134 A 
ATOM     61  F   UNL A   1      48.005  25.986  32.152  1.00  0.00    -0.206 F 
ATOM     62  C   UNL A   1      50.150  25.811  31.219  1.00  0.00     0.040 A 
ATOM     63  C   UNL A   1      50.554  26.582  28.974  1.00  0.00     0.040 A 
ATOM     64  F   UNL A   1      48.817  27.549  27.730  1.00  0.00    -0.206 F 
ATOM     65  C   UNL A   1      51.025  26.005  30.152  1.00  0.00     0.006 A 
ENDBRANCH  44  58
BRANCH  45  66
ATOM     66  C   UNL A   1      38.670  29.104  29.060  1.00  0.00     0.057 A 
ATOM     67  C   UNL A   1      38.129  29.586  27.860  1.00  0.00     0.134 A 
ATOM     68  C   UNL A   1      37.811  29.024  30.163  1.00  0.00     0.134 A 
ATOM     69  F   UNL A   1      38.906  29.715  26.775  1.00  0.00    -0.206 F 
ATOM     70  C   UNL A   1      36.796  29.994  27.767  1.00  0.00     0.040 A 
ATOM     71  C   UNL A   1      36.470  29.402  30.077  1.00  0.00     0.040 A 
ATOM     72  F   UNL A   1      38.264  28.573  31.342  1.00  0.00    -0.206 F 
ATOM     73  C   UNL A   1      35.961  29.897  28.877  1.00  0.00     0.006 A 
ENDBRANCH  45  66
BRANCH  57  74
ATOM     74  C   UNL A   1      44.324  32.691  30.988  1.00  0.00     0.057 A 
ATOM     75  C   UNL A   1      44.320  33.072  32.335  1.00  0.00     0.134 A 
ATOM     76  C   UNL A   1      44.590  33.686  30.037  1.00  0.00     0.134 A 
ATOM     77  F   UNL A   1      44.065  32.171  33.296  1.00  0.00    -0.206 F 
ATOM     78  C   UNL A   1      44.552  34.394  32.721  1.00  0.00     0.040 A 
ATOM     79  C   UNL A   1      44.850  35.004  30.411  1.00  0.00     0.040 A 
ATOM     80  F   UNL A   1      44.621  33.387  28.729  1.00  0.00    -0.206 F 
ATOM     81  C   UNL A   1      44.826  35.363  31.757  1.00  0.00     0.006 A 
ENDBRANCH  57  74
ENDBRANCH  31  32
ENDBRANCH  24  26
ENDBRANCH  23  24
ENDBRANCH  22  23
ENDBRANCH  21  22
ENDBRANCH  20  21
ENDBRANCH   1  20
TORSDOF 17
ENDMDL
MODEL 3
REMARK VINA RESULT:      -9.6      4.568      9.336
REMARK SMILES C[C@@H]([N@@H+](C)[C@@H]1COC[C@@H]1C(=O)OCCOCCOC(=O)c1ccc(-c2c3nc(c(-c4c(F)cccc4F)c4ccc([nH]4)c(-c4c(F)cccc4F)c4nc(c(-c5c(F)cccc5F)c5ccc2[nH]5)C=C4)C=C3)cc1)C1(C)CC1
REMARK SMILES IDX 14 1 13 2 12 3 10 4 11 5 9 6 5 7 6 8 7 9 8 10 3 11 4 12 2 14
REMARK SMILES IDX 1 15 75 16 76 17 77 18 78 19 15 20 16 21 17 22 18 23 19 24
REMARK SMILES IDX 20 25 21 26 22 27 74 28 23 29 73 30 24 31 25 32 26 33 67 34
REMARK SMILES IDX 27 35 72 36 66 37 68 38 28 39 71 40 65 41 64 42 29 44 55 45
REMARK SMILES IDX 38 46 54 47 39 48 42 49 53 50 69 51 40 52 41 53 52 55 70 56
REMARK SMILES IDX 43 57 30 58 31 59 36 60 32 61 33 62 35 63 37 64 34 65 56 66
REMARK SMILES IDX 57 67 62 68 58 69 59 70 61 71 63 72 60 73 44 74 45 75 50 76
REMARK SMILES IDX 46 77 47 78 49 79 51 80 48 81
REMARK H PARENT 3 13 68 43 42 54
REMARK Flexibility Score: inf
ROOT
ATOM      1  C   UNL A   1      33.808  29.501  27.279  1.00  0.00     0.202 C 
ENDROOT
BRANCH   1   2
ATOM      2  C   UNL A   1      33.991  28.462  26.172  1.00  0.00     0.261 C 
BRANCH   2   3
ATOM      3  O   UNL A   1      33.268  27.243  26.431  1.00  0.00    -0.463 OA
BRANCH   3   4
ATOM      4  C   UNL A   1      33.471  26.242  25.532  1.00  0.00     0.317 C 
ATOM      5  O   UNL A   1      33.966  26.422  24.425  1.00  0.00    -0.252 OA
BRANCH   4   6
ATOM      6  C   UNL A   1      32.855  24.924  25.982  1.00  0.00     0.185 C 
ATOM      7  C   UNL A   1      32.575  23.812  24.952  1.00  0.00     0.227 C 
ATOM      8  C   UNL A   1      31.283  24.371  24.317  1.00  0.00     0.226 C 
ATOM      9  O   UNL A   1      30.549  25.026  25.354  1.00  0.00    -0.374 OA
ATOM     10  C   UNL A   1      31.432  25.213  26.468  1.00  0.00     0.182 C 
BRANCH   7  11
ATOM     11  N   UNL A   1      33.610  23.333  24.003  1.00  0.00    -0.330 N 
ATOM     12  C   UNL A   1      32.995  22.898  22.730  1.00  0.00     0.333 C 
ATOM     13  H   UNL A   1      34.211  24.148  23.875  1.00  0.00     0.348 HD
BRANCH  11  14
ATOM     14  C   UNL A   1      34.500  22.235  24.503  1.00  0.00     0.186 C 
ATOM     15  C   UNL A   1      34.151  21.660  25.881  1.00  0.00     0.076 C 
BRANCH  14  16
ATOM     16  C   UNL A   1      35.961  22.735  24.547  1.00  0.00     0.019 C 
ATOM     17  C   UNL A   1      36.286  23.697  25.656  1.00  0.00     0.018 C 
ATOM     18  C   UNL A   1      37.100  21.792  24.173  1.00  0.00     0.013 C 
ATOM     19  C   UNL A   1      36.720  22.884  23.230  1.00  0.00     0.013 C 
ENDBRANCH  14  16
ENDBRANCH  11  14
ENDBRANCH   7  11
ENDBRANCH   4   6
ENDBRANCH   3   4
ENDBRANCH   2   3
ENDBRANCH   1   2
BRANCH   1  20
ATOM     20  O   UNL A   1      33.518  30.825  26.838  1.00  0.00    -0.374 OA
BRANCH  20  21
ATOM     21  C   UNL A   1      32.131  31.154  26.765  1.00  0.00     0.202 C 
BRANCH  21  22
ATOM     22  C   UNL A   1      31.792  32.610  27.112  1.00  0.00     0.261 C 
BRANCH  22  23
ATOM     23  O   UNL A   1      32.961  33.448  27.098  1.00  0.00    -0.460 OA
BRANCH  23  24
ATOM     24  C   UNL A   1      33.199  34.158  28.228  1.00  0.00     0.338 C 
ATOM     25  O   UNL A   1      32.504  35.034  28.713  1.00  0.00    -0.246 OA
BRANCH  24  26
ATOM     26  C   UNL A   1      34.371  33.576  28.919  1.00  0.00     0.060 A 
ATOM     27  C   UNL A   1      35.633  34.125  28.675  1.00  0.00     0.016 A 
ATOM     28  C   UNL A   1      34.236  32.524  29.824  1.00  0.00     0.016 A 
ATOM     29  C   UNL A   1      36.764  33.600  29.311  1.00  0.00     0.010 A 
ATOM     30  C   UNL A   1      35.356  32.055  30.521  1.00  0.00     0.010 A 
ATOM     31  C   UNL A   1      36.642  32.542  30.223  1.00  0.00    -0.014 A 
BRANCH  31  32
ATOM     32  C   UNL A   1      37.853  31.810  30.701  1.00  0.00     0.031 A 
ATOM     33  C   UNL A   1      38.359  32.083  32.101  1.00  0.00     0.074 A 
ATOM     34  C   UNL A   1      38.482  30.887  29.946  1.00  0.00     0.049 A 
ATOM     35  N   UNL A   1      39.392  31.580  32.730  1.00  0.00    -0.248 NA
ATOM     36  C   UNL A   1      37.615  33.082  32.888  1.00  0.00     0.031 C 
ATOM     37  C   UNL A   1      38.124  30.518  28.576  1.00  0.00     0.029 A 
ATOM     38  N   UNL A   1      39.560  30.082  30.235  1.00  0.00    -0.354 N 
ATOM     39  C   UNL A   1      39.430  32.221  33.964  1.00  0.00     0.074 A 
ATOM     40  C   UNL A   1      38.369  33.199  33.968  1.00  0.00     0.031 C 
ATOM     41  C   UNL A   1      38.947  29.540  28.156  1.00  0.00     0.029 A 
ATOM     42  C   UNL A   1      39.910  29.231  29.212  1.00  0.00     0.049 A 
ATOM     43  H   UNL A   1      40.036  30.112  31.095  1.00  0.00     0.167 HD
ATOM     44  C   UNL A   1      40.242  31.993  35.024  1.00  0.00     0.037 A 
ATOM     45  C   UNL A   1      40.892  28.310  29.136  1.00  0.00     0.037 A 
ATOM     46  C   UNL A   1      41.263  30.984  35.058  1.00  0.00     0.049 A 
ATOM     47  C   UNL A   1      41.798  28.082  30.322  1.00  0.00     0.074 A 
ATOM     48  C   UNL A   1      42.098  30.641  36.106  1.00  0.00     0.029 A 
ATOM     49  N   UNL A   1      41.584  30.151  33.998  1.00  0.00    -0.354 N 
ATOM     50  N   UNL A   1      41.785  28.660  31.498  1.00  0.00    -0.248 NA
ATOM     51  C   UNL A   1      42.853  27.066  30.169  1.00  0.00     0.031 C 
ATOM     52  C   UNL A   1      42.959  29.632  35.665  1.00  0.00     0.029 A 
ATOM     53  C   UNL A   1      42.621  29.308  34.361  1.00  0.00     0.049 A 
ATOM     54  H   UNL A   1      41.141  30.157  33.119  1.00  0.00     0.167 HD
ATOM     55  C   UNL A   1      42.802  28.057  32.233  1.00  0.00     0.074 A 
ATOM     56  C   UNL A   1      43.403  27.059  31.374  1.00  0.00     0.031 C 
ATOM     57  C   UNL A   1      43.201  28.307  33.504  1.00  0.00     0.037 A 
BRANCH  44  58
ATOM     58  C   UNL A   1      40.047  32.855  36.239  1.00  0.00     0.057 A 
ATOM     59  C   UNL A   1      39.088  32.554  37.217  1.00  0.00     0.134 A 
ATOM     60  C   UNL A   1      40.836  33.993  36.438  1.00  0.00     0.134 A 
ATOM     61  F   UNL A   1      38.287  31.488  37.079  1.00  0.00    -0.206 F 
ATOM     62  C   UNL A   1      38.898  33.376  38.329  1.00  0.00     0.040 A 
ATOM     63  C   UNL A   1      40.679  34.803  37.563  1.00  0.00     0.040 A 
ATOM     64  F   UNL A   1      41.777  34.336  35.544  1.00  0.00    -0.206 F 
ATOM     65  C   UNL A   1      39.701  34.500  38.508  1.00  0.00     0.006 A 
ENDBRANCH  44  58
BRANCH  45  66
ATOM     66  C   UNL A   1      41.076  27.507  27.896  1.00  0.00     0.057 A 
ATOM     67  C   UNL A   1      40.488  26.243  27.752  1.00  0.00     0.134 A 
ATOM     68  C   UNL A   1      41.878  27.964  26.843  1.00  0.00     0.134 A 
ATOM     69  F   UNL A   1      39.733  25.736  28.738  1.00  0.00    -0.206 F 
ATOM     70  C   UNL A   1      40.708  25.455  26.621  1.00  0.00     0.040 A 
ATOM     71  C   UNL A   1      42.083  27.199  25.693  1.00  0.00     0.040 A 
ATOM     72  F   UNL A   1      42.472  29.165  26.915  1.00  0.00    -0.206 F 
ATOM     73  C   UNL A   1      41.504  25.936  25.584  1.00  0.00     0.006 A 
ENDBRANCH  45  66
BRANCH  57  74
ATOM     74  C   UNL A   1      44.311  27.467  34.067  1.00  0.00     0.057 A 
ATOM     75  C   UNL A   1      45.650  27.874  34.018  1.00  0.00     0.134 A 
ATOM     76  C   UNL A   1      44.027  26.260  34.722  1.00  0.00     0.134 A 
ATOM     77  F   UNL A   1      45.992  29.015  33.399  1.00  0.00    -0.206 F 
ATOM     78  C   UNL A   1      46.669  27.101  34.579  1.00  0.00     0.040 A 
ATOM     79  C   UNL A   1      45.033  25.494  35.311  1.00  0.00     0.040 A 
ATOM     80  F   UNL A   1      42.764  25.818  34.817  1.00  0.00    -0.206 F 
ATOM     81  C   UNL A   1      46.360  25.912  35.236  1.00  0.00     0.006 A 
ENDBRANCH  57  74
ENDBRANCH  31  32
ENDBRANCH  24  26
ENDBRANCH  23  24
ENDBRANCH  22  23
ENDBRANCH  21  22
ENDBRANCH  20  21
ENDBRANCH   1  20
TORSDOF 17
ENDMDL
