MODEL 1
REMARK VINA RESULT:     -10.9      0.000      0.000
REMARK SMILES C[C@@H](C(=O)OCCOCCOC(=O)c1ccc(-c2c3nc(c(-c4c(F)cccc4F)c4ccc([nH]4)c(-c4c(F)cccc4F)c4nc(c(-c5c(F)cccc5F)c5ccc2[nH]5)C=C4)C=C3)cc1)c1ccc(OC2CCCC2)cc1F
REMARK SMILES IDX 7 1 6 2 5 3 3 4 4 5 2 6 1 7 68 8 69 9 79 10 70 11 78 12
REMARK SMILES IDX 80 13 71 14 72 15 73 16 74 17 77 18 75 19 76 20 8 21 9 22
REMARK SMILES IDX 10 23 11 24 12 25 13 26 14 27 15 28 67 29 16 30 66 31 17 32
REMARK SMILES IDX 18 33 19 34 60 35 20 36 65 37 59 38 61 39 21 40 64 41 58 42
REMARK SMILES IDX 57 43 22 45 48 46 31 47 47 48 32 49 35 50 46 51 62 52 33 53
REMARK SMILES IDX 34 54 45 56 63 57 36 58 23 59 24 60 29 61 25 62 26 63 28 64
REMARK SMILES IDX 30 65 27 66 49 67 50 68 55 69 51 70 52 71 54 72 56 73 53 74
REMARK SMILES IDX 37 75 38 76 43 77 39 78 40 79 42 80 44 81 41 82
REMARK H PARENT 61 44 35 55
REMARK Flexibility Score: inf
ROOT
ATOM      1  C   UNL A   1      34.552  34.376  29.220  1.00  0.00     0.202 C 
ENDROOT
BRANCH   1   2
ATOM      2  C   UNL A   1      34.646  33.334  28.101  1.00  0.00     0.261 C 
BRANCH   2   3
ATOM      3  O   UNL A   1      34.402  31.998  28.569  1.00  0.00    -0.463 OA
BRANCH   3   4
ATOM      4  C   UNL A   1      33.648  31.230  27.733  1.00  0.00     0.313 C 
ATOM      5  O   UNL A   1      32.689  31.665  27.104  1.00  0.00    -0.252 OA
BRANCH   4   6
ATOM      6  C   UNL A   1      34.144  29.773  27.628  1.00  0.00     0.129 C 
ATOM      7  C   UNL A   1      35.673  29.649  27.631  1.00  0.00     0.025 C 
BRANCH   6   8
ATOM      8  C   UNL A   1      33.445  29.042  26.482  1.00  0.00     0.002 A 
ATOM      9  C   UNL A   1      33.948  28.941  25.179  1.00  0.00     0.011 A 
ATOM     10  C   UNL A   1      32.201  28.449  26.730  1.00  0.00     0.130 A 
ATOM     11  C   UNL A   1      33.208  28.289  24.177  1.00  0.00     0.047 A 
ATOM     12  C   UNL A   1      31.439  27.861  25.726  1.00  0.00     0.086 A 
ATOM     13  F   UNL A   1      31.712  28.411  27.977  1.00  0.00    -0.207 F 
ATOM     14  C   UNL A   1      31.944  27.749  24.441  1.00  0.00     0.122 A 
BRANCH  14  15
ATOM     15  O   UNL A   1      31.344  27.137  23.380  1.00  0.00    -0.490 OA
BRANCH  15  16
ATOM     16  C   UNL A   1      30.162  27.650  22.766  1.00  0.00     0.173 C 
ATOM     17  C   UNL A   1      28.842  27.383  23.483  1.00  0.00     0.045 C 
ATOM     18  C   UNL A   1      30.208  29.138  22.424  1.00  0.00     0.045 C 
ATOM     19  C   UNL A   1      27.905  28.478  22.997  1.00  0.00     0.004 C 
ATOM     20  C   UNL A   1      28.774  29.643  22.534  1.00  0.00     0.004 C 
ENDBRANCH  15  16
ENDBRANCH  14  15
ENDBRANCH   6   8
ENDBRANCH   4   6
ENDBRANCH   3   4
ENDBRANCH   2   3
ENDBRANCH   1   2
BRANCH   1  21
ATOM     21  O   UNL A   1      33.717  34.071  30.332  1.00  0.00    -0.374 OA
BRANCH  21  22
ATOM     22  C   UNL A   1      34.047  34.648  31.596  1.00  0.00     0.202 C 
BRANCH  22  23
ATOM     23  C   UNL A   1      34.258  33.690  32.775  1.00  0.00     0.261 C 
BRANCH  23  24
ATOM     24  O   UNL A   1      34.951  32.487  32.385  1.00  0.00    -0.460 OA
BRANCH  24  25
ATOM     25  C   UNL A   1      36.105  32.256  33.051  1.00  0.00     0.338 C 
ATOM     26  O   UNL A   1      36.347  32.503  34.227  1.00  0.00    -0.246 OA
BRANCH  25  27
ATOM     27  C   UNL A   1      37.029  31.466  32.218  1.00  0.00     0.060 A 
ATOM     28  C   UNL A   1      38.006  30.705  32.875  1.00  0.00     0.016 A 
ATOM     29  C   UNL A   1      37.008  31.547  30.824  1.00  0.00     0.016 A 
ATOM     30  C   UNL A   1      38.996  30.059  32.140  1.00  0.00     0.010 A 
ATOM     31  C   UNL A   1      38.013  30.907  30.091  1.00  0.00     0.010 A 
ATOM     32  C   UNL A   1      39.032  30.193  30.747  1.00  0.00    -0.014 A 
BRANCH  32  33
ATOM     33  C   UNL A   1      40.225  29.719  30.004  1.00  0.00     0.031 A 
ATOM     34  C   UNL A   1      41.368  30.671  29.780  1.00  0.00     0.074 A 
ATOM     35  C   UNL A   1      40.311  28.450  29.572  1.00  0.00     0.049 A 
ATOM     36  N   UNL A   1      42.499  30.478  29.150  1.00  0.00    -0.248 NA
ATOM     37  C   UNL A   1      41.215  32.022  30.345  1.00  0.00     0.031 C 
ATOM     38  C   UNL A   1      39.291  27.421  29.763  1.00  0.00     0.029 A 
ATOM     39  N   UNL A   1      41.309  27.813  28.879  1.00  0.00    -0.354 N 
ATOM     40  C   UNL A   1      43.191  31.679  29.242  1.00  0.00     0.074 A 
ATOM     41  C   UNL A   1      42.342  32.605  29.961  1.00  0.00     0.031 C 
ATOM     42  C   UNL A   1      39.711  26.281  29.188  1.00  0.00     0.029 A 
ATOM     43  C   UNL A   1      41.016  26.508  28.569  1.00  0.00     0.049 A 
ATOM     44  H   UNL A   1      42.155  28.249  28.628  1.00  0.00     0.167 HD
ATOM     45  C   UNL A   1      44.427  31.981  28.779  1.00  0.00     0.037 A 
ATOM     46  C   UNL A   1      41.714  25.607  27.851  1.00  0.00     0.037 A 
ATOM     47  C   UNL A   1      45.272  31.065  28.061  1.00  0.00     0.049 A 
ATOM     48  C   UNL A   1      43.056  25.987  27.286  1.00  0.00     0.074 A 
ATOM     49  C   UNL A   1      46.543  31.276  27.558  1.00  0.00     0.029 A 
ATOM     50  N   UNL A   1      44.925  29.762  27.738  1.00  0.00    -0.354 N 
ATOM     51  N   UNL A   1      43.708  27.119  27.394  1.00  0.00    -0.248 NA
ATOM     52  C   UNL A   1      43.760  24.963  26.500  1.00  0.00     0.031 C 
ATOM     53  C   UNL A   1      46.950  30.113  26.896  1.00  0.00     0.029 A 
ATOM     54  C   UNL A   1      45.949  29.163  27.024  1.00  0.00     0.049 A 
ATOM     55  H   UNL A   1      44.076  29.327  27.981  1.00  0.00     0.167 HD
ATOM     56  C   UNL A   1      44.906  26.936  26.714  1.00  0.00     0.074 A 
ATOM     57  C   UNL A   1      44.895  25.580  26.206  1.00  0.00     0.031 C 
ATOM     58  C   UNL A   1      45.924  27.812  26.528  1.00  0.00     0.037 A 
BRANCH  45  59
ATOM     59  C   UNL A   1      44.929  33.374  29.019  1.00  0.00     0.057 A 
ATOM     60  C   UNL A   1      44.673  34.416  28.118  1.00  0.00     0.134 A 
ATOM     61  C   UNL A   1      45.655  33.682  30.177  1.00  0.00     0.134 A 
ATOM     62  F   UNL A   1      43.998  34.182  26.984  1.00  0.00    -0.206 F 
ATOM     63  C   UNL A   1      45.142  35.711  28.350  1.00  0.00     0.040 A 
ATOM     64  C   UNL A   1      46.108  34.977  30.430  1.00  0.00     0.040 A 
ATOM     65  F   UNL A   1      45.931  32.730  31.080  1.00  0.00    -0.206 F 
ATOM     66  C   UNL A   1      45.857  35.995  29.512  1.00  0.00     0.006 A 
ENDBRANCH  45  59
BRANCH  46  67
ATOM     67  C   UNL A   1      41.149  24.256  27.611  1.00  0.00     0.057 A 
ATOM     68  C   UNL A   1      41.645  23.131  28.280  1.00  0.00     0.134 A 
ATOM     69  C   UNL A   1      40.112  24.057  26.692  1.00  0.00     0.134 A 
ATOM     70  F   UNL A   1      42.654  23.256  29.153  1.00  0.00    -0.206 F 
ATOM     71  C   UNL A   1      41.138  21.853  28.035  1.00  0.00     0.040 A 
ATOM     72  C   UNL A   1      39.579  22.789  26.453  1.00  0.00     0.040 A 
ATOM     73  F   UNL A   1      39.595  25.095  26.018  1.00  0.00    -0.206 F 
ATOM     74  C   UNL A   1      40.097  21.681  27.122  1.00  0.00     0.006 A 
ENDBRANCH  46  67
BRANCH  58  75
ATOM     75  C   UNL A   1      47.122  27.323  25.768  1.00  0.00     0.057 A 
ATOM     76  C   UNL A   1      47.283  27.577  24.401  1.00  0.00     0.134 A 
ATOM     77  C   UNL A   1      48.146  26.626  26.423  1.00  0.00     0.134 A 
ATOM     78  F   UNL A   1      46.332  28.228  23.714  1.00  0.00    -0.206 F 
ATOM     79  C   UNL A   1      48.412  27.139  23.706  1.00  0.00     0.040 A 
ATOM     80  C   UNL A   1      49.290  26.203  25.745  1.00  0.00     0.040 A 
ATOM     81  F   UNL A   1      48.057  26.357  27.734  1.00  0.00    -0.206 F 
ATOM     82  C   UNL A   1      49.422  26.455  24.380  1.00  0.00     0.006 A 
ENDBRANCH  58  75
ENDBRANCH  32  33
ENDBRANCH  25  27
ENDBRANCH  24  25
ENDBRANCH  23  24
ENDBRANCH  22  23
ENDBRANCH  21  22
ENDBRANCH   1  21
TORSDOF 17
ENDMDL
MODEL 2
REMARK VINA RESULT:     -10.4      3.752      7.142
REMARK SMILES C[C@@H](C(=O)OCCOCCOC(=O)c1ccc(-c2c3nc(c(-c4c(F)cccc4F)c4ccc([nH]4)c(-c4c(F)cccc4F)c4nc(c(-c5c(F)cccc5F)c5ccc2[nH]5)C=C4)C=C3)cc1)c1ccc(OC2CCCC2)cc1F
REMARK SMILES IDX 7 1 6 2 5 3 3 4 4 5 2 6 1 7 68 8 69 9 79 10 70 11 78 12
REMARK SMILES IDX 80 13 71 14 72 15 73 16 74 17 77 18 75 19 76 20 8 21 9 22
REMARK SMILES IDX 10 23 11 24 12 25 13 26 14 27 15 28 67 29 16 30 66 31 17 32
REMARK SMILES IDX 18 33 19 34 60 35 20 36 65 37 59 38 61 39 21 40 64 41 58 42
REMARK SMILES IDX 57 43 22 45 48 46 31 47 47 48 32 49 35 50 46 51 62 52 33 53
REMARK SMILES IDX 34 54 45 56 63 57 36 58 23 59 24 60 29 61 25 62 26 63 28 64
REMARK SMILES IDX 30 65 27 66 49 67 50 68 55 69 51 70 52 71 54 72 56 73 53 74
REMARK SMILES IDX 37 75 38 76 43 77 39 78 40 79 42 80 44 81 41 82
REMARK H PARENT 61 44 35 55
REMARK Flexibility Score: inf
ROOT
ATOM      1  C   UNL A   1      33.388  35.988  29.899  1.00  0.00     0.202 C 
ENDROOT
BRANCH   1   2
ATOM      2  C   UNL A   1      32.982  35.757  31.358  1.00  0.00     0.261 C 
BRANCH   2   3
ATOM      3  O   UNL A   1      33.555  34.560  31.908  1.00  0.00    -0.463 OA
BRANCH   3   4
ATOM      4  C   UNL A   1      34.840  34.693  32.345  1.00  0.00     0.313 C 
ATOM      5  O   UNL A   1      35.263  35.709  32.884  1.00  0.00    -0.252 OA
BRANCH   4   6
ATOM      6  C   UNL A   1      35.692  33.426  32.128  1.00  0.00     0.129 C 
ATOM      7  C   UNL A   1      35.871  32.587  33.401  1.00  0.00     0.025 C 
BRANCH   6   8
ATOM      8  C   UNL A   1      36.990  33.762  31.397  1.00  0.00     0.002 A 
ATOM      9  C   UNL A   1      37.200  33.582  30.023  1.00  0.00     0.011 A 
ATOM     10  C   UNL A   1      38.066  34.261  32.143  1.00  0.00     0.130 A 
ATOM     11  C   UNL A   1      38.449  33.874  29.447  1.00  0.00     0.047 A 
ATOM     12  C   UNL A   1      39.320  34.489  31.587  1.00  0.00     0.086 A 
ATOM     13  F   UNL A   1      37.902  34.562  33.437  1.00  0.00    -0.207 F 
ATOM     14  C   UNL A   1      39.521  34.325  30.225  1.00  0.00     0.122 A 
BRANCH  14  15
ATOM     15  O   UNL A   1      40.670  34.578  29.535  1.00  0.00    -0.490 OA
BRANCH  15  16
ATOM     16  C   UNL A   1      41.923  33.991  29.886  1.00  0.00     0.173 C 
ATOM     17  C   UNL A   1      41.977  32.467  29.941  1.00  0.00     0.045 C 
ATOM     18  C   UNL A   1      43.112  34.465  29.054  1.00  0.00     0.045 C 
ATOM     19  C   UNL A   1      43.444  32.121  29.736  1.00  0.00     0.004 C 
ATOM     20  C   UNL A   1      44.084  33.292  28.997  1.00  0.00     0.004 C 
ENDBRANCH  15  16
ENDBRANCH  14  15
ENDBRANCH   6   8
ENDBRANCH   4   6
ENDBRANCH   3   4
ENDBRANCH   2   3
ENDBRANCH   1   2
BRANCH   1  21
ATOM     21  O   UNL A   1      32.525  35.478  28.889  1.00  0.00    -0.374 OA
BRANCH  21  22
ATOM     22  C   UNL A   1      32.987  34.377  28.105  1.00  0.00     0.202 C 
BRANCH  22  23
ATOM     23  C   UNL A   1      34.117  33.520  28.689  1.00  0.00     0.261 C 
BRANCH  23  24
ATOM     24  O   UNL A   1      34.705  32.645  27.704  1.00  0.00    -0.460 OA
BRANCH  24  25
ATOM     25  C   UNL A   1      34.343  31.347  27.812  1.00  0.00     0.338 C 
ATOM     26  O   UNL A   1      33.259  30.851  27.529  1.00  0.00    -0.246 OA
BRANCH  25  27
ATOM     27  C   UNL A   1      35.512  30.515  28.149  1.00  0.00     0.060 A 
ATOM     28  C   UNL A   1      35.584  29.993  29.448  1.00  0.00     0.016 A 
ATOM     29  C   UNL A   1      36.565  30.334  27.250  1.00  0.00     0.016 A 
ATOM     30  C   UNL A   1      36.732  29.328  29.869  1.00  0.00     0.010 A 
ATOM     31  C   UNL A   1      37.722  29.676  27.682  1.00  0.00     0.010 A 
ATOM     32  C   UNL A   1      37.825  29.204  29.003  1.00  0.00    -0.014 A 
BRANCH  32  33
ATOM     33  C   UNL A   1      39.123  28.726  29.538  1.00  0.00     0.031 A 
ATOM     34  C   UNL A   1      39.701  29.398  30.753  1.00  0.00     0.074 A 
ATOM     35  C   UNL A   1      39.759  27.683  28.978  1.00  0.00     0.049 A 
ATOM     36  N   UNL A   1      40.822  29.155  31.383  1.00  0.00    -0.248 NA
ATOM     37  C   UNL A   1      38.904  30.489  31.339  1.00  0.00     0.031 C 
ATOM     38  C   UNL A   1      39.282  26.922  27.825  1.00  0.00     0.029 A 
ATOM     39  N   UNL A   1      40.949  27.085  29.310  1.00  0.00    -0.354 N 
ATOM     40  C   UNL A   1      40.867  30.060  32.436  1.00  0.00     0.074 A 
ATOM     41  C   UNL A   1      39.676  30.877  32.344  1.00  0.00     0.031 C 
ATOM     42  C   UNL A   1      40.180  25.964  27.536  1.00  0.00     0.029 A 
ATOM     43  C   UNL A   1      41.302  26.061  28.468  1.00  0.00     0.049 A 
ATOM     44  H   UNL A   1      41.496  27.365  30.079  1.00  0.00     0.167 HD
ATOM     45  C   UNL A   1      41.809  30.192  33.399  1.00  0.00     0.037 A 
ATOM     46  C   UNL A   1      42.415  25.301  28.442  1.00  0.00     0.037 A 
ATOM     47  C   UNL A   1      42.996  29.383  33.491  1.00  0.00     0.049 A 
ATOM     48  C   UNL A   1      43.482  25.512  29.482  1.00  0.00     0.074 A 
ATOM     49  C   UNL A   1      44.005  29.435  34.435  1.00  0.00     0.029 A 
ATOM     50  N   UNL A   1      43.334  28.377  32.599  1.00  0.00    -0.354 N 
ATOM     51  N   UNL A   1      43.506  26.358  30.483  1.00  0.00    -0.248 NA
ATOM     52  C   UNL A   1      44.677  24.660  29.389  1.00  0.00     0.031 C 
ATOM     53  C   UNL A   1      44.975  28.487  34.092  1.00  0.00     0.029 A 
ATOM     54  C   UNL A   1      44.547  27.815  32.958  1.00  0.00     0.049 A 
ATOM     55  H   UNL A   1      42.791  28.102  31.825  1.00  0.00     0.167 HD
ATOM     56  C   UNL A   1      44.701  26.125  31.152  1.00  0.00     0.074 A 
ATOM     57  C   UNL A   1      45.370  25.050  30.449  1.00  0.00     0.031 C 
ATOM     58  C   UNL A   1      45.199  26.744  32.251  1.00  0.00     0.037 A 
BRANCH  45  59
ATOM     59  C   UNL A   1      41.601  31.269  34.421  1.00  0.00     0.057 A 
ATOM     60  C   UNL A   1      42.087  32.570  34.231  1.00  0.00     0.134 A 
ATOM     61  C   UNL A   1      40.885  31.011  35.596  1.00  0.00     0.134 A 
ATOM     62  F   UNL A   1      42.793  32.877  33.133  1.00  0.00    -0.206 F 
ATOM     63  C   UNL A   1      41.887  33.569  35.185  1.00  0.00     0.040 A 
ATOM     64  C   UNL A   1      40.659  32.007  36.547  1.00  0.00     0.040 A 
ATOM     65  F   UNL A   1      40.392  29.788  35.837  1.00  0.00    -0.206 F 
ATOM     66  C   UNL A   1      41.165  33.290  36.345  1.00  0.00     0.006 A 
ENDBRANCH  45  59
BRANCH  46  67
ATOM     67  C   UNL A   1      42.585  24.276  27.383  1.00  0.00     0.057 A 
ATOM     68  C   UNL A   1      42.172  22.953  27.577  1.00  0.00     0.134 A 
ATOM     69  C   UNL A   1      43.182  24.593  26.157  1.00  0.00     0.134 A 
ATOM     70  F   UNL A   1      41.616  22.584  28.741  1.00  0.00    -0.206 F 
ATOM     71  C   UNL A   1      42.358  21.978  26.596  1.00  0.00     0.040 A 
ATOM     72  C   UNL A   1      43.354  23.635  25.157  1.00  0.00     0.040 A 
ATOM     73  F   UNL A   1      43.600  25.843  25.910  1.00  0.00    -0.206 F 
ATOM     74  C   UNL A   1      42.947  22.320  25.378  1.00  0.00     0.006 A 
ENDBRANCH  46  67
BRANCH  58  75
ATOM     75  C   UNL A   1      46.516  26.257  32.777  1.00  0.00     0.057 A 
ATOM     76  C   UNL A   1      47.728  26.843  32.392  1.00  0.00     0.134 A 
ATOM     77  C   UNL A   1      46.569  25.215  33.712  1.00  0.00     0.134 A 
ATOM     78  F   UNL A   1      47.746  27.836  31.491  1.00  0.00    -0.206 F 
ATOM     79  C   UNL A   1      48.948  26.398  32.906  1.00  0.00     0.040 A 
ATOM     80  C   UNL A   1      47.780  24.778  34.250  1.00  0.00     0.040 A 
ATOM     81  F   UNL A   1      45.444  24.616  34.129  1.00  0.00    -0.206 F 
ATOM     82  C   UNL A   1      48.975  25.367  33.842  1.00  0.00     0.006 A 
ENDBRANCH  58  75
ENDBRANCH  32  33
ENDBRANCH  25  27
ENDBRANCH  24  25
ENDBRANCH  23  24
ENDBRANCH  22  23
ENDBRANCH  21  22
ENDBRANCH   1  21
TORSDOF 17
ENDMDL
MODEL 3
REMARK VINA RESULT:     -10.3      3.124      8.083
REMARK SMILES C[C@@H](C(=O)OCCOCCOC(=O)c1ccc(-c2c3nc(c(-c4c(F)cccc4F)c4ccc([nH]4)c(-c4c(F)cccc4F)c4nc(c(-c5c(F)cccc5F)c5ccc2[nH]5)C=C4)C=C3)cc1)c1ccc(OC2CCCC2)cc1F
REMARK SMILES IDX 7 1 6 2 5 3 3 4 4 5 2 6 1 7 68 8 69 9 79 10 70 11 78 12
REMARK SMILES IDX 80 13 71 14 72 15 73 16 74 17 77 18 75 19 76 20 8 21 9 22
REMARK SMILES IDX 10 23 11 24 12 25 13 26 14 27 15 28 67 29 16 30 66 31 17 32
REMARK SMILES IDX 18 33 19 34 60 35 20 36 65 37 59 38 61 39 21 40 64 41 58 42
REMARK SMILES IDX 57 43 22 45 48 46 31 47 47 48 32 49 35 50 46 51 62 52 33 53
REMARK SMILES IDX 34 54 45 56 63 57 36 58 23 59 24 60 29 61 25 62 26 63 28 64
REMARK SMILES IDX 30 65 27 66 49 67 50 68 55 69 51 70 52 71 54 72 56 73 53 74
REMARK SMILES IDX 37 75 38 76 43 77 39 78 40 79 42 80 44 81 41 82
REMARK H PARENT 61 44 35 55
REMARK Flexibility Score: inf
ROOT
ATOM      1  C   UNL A   1      36.312  22.402  24.578  1.00  0.00     0.202 C 
ENDROOT
BRANCH   1   2
ATOM      2  C   UNL A   1      35.513  22.959  23.397  1.00  0.00     0.261 C 
BRANCH   2   3
ATOM      3  O   UNL A   1      34.248  23.509  23.797  1.00  0.00    -0.463 OA
BRANCH   3   4
ATOM      4  C   UNL A   1      34.005  24.771  23.342  1.00  0.00     0.313 C 
ATOM      5  O   UNL A   1      33.950  25.055  22.150  1.00  0.00    -0.252 OA
BRANCH   4   6
ATOM      6  C   UNL A   1      33.769  25.793  24.472  1.00  0.00     0.129 C 
ATOM      7  C   UNL A   1      33.819  25.173  25.875  1.00  0.00     0.025 C 
BRANCH   6   8
ATOM      8  C   UNL A   1      32.527  26.637  24.191  1.00  0.00     0.002 A 
ATOM      9  C   UNL A   1      31.232  26.124  24.042  1.00  0.00     0.011 A 
ATOM     10  C   UNL A   1      32.681  28.022  24.042  1.00  0.00     0.130 A 
ATOM     11  C   UNL A   1      30.157  26.976  23.734  1.00  0.00     0.047 A 
ATOM     12  C   UNL A   1      31.631  28.857  23.673  1.00  0.00     0.086 A 
ATOM     13  F   UNL A   1      33.869  28.594  24.280  1.00  0.00    -0.207 F 
ATOM     14  C   UNL A   1      30.349  28.349  23.541  1.00  0.00     0.122 A 
BRANCH  14  15
ATOM     15  O   UNL A   1      29.217  29.057  23.258  1.00  0.00    -0.490 OA
BRANCH  15  16
ATOM     16  C   UNL A   1      29.252  30.356  22.669  1.00  0.00     0.173 C 
ATOM     17  C   UNL A   1      28.394  30.571  21.425  1.00  0.00     0.045 C 
ATOM     18  C   UNL A   1      28.966  31.507  23.631  1.00  0.00     0.045 C 
ATOM     19  C   UNL A   1      28.145  32.071  21.378  1.00  0.00     0.004 C 
ATOM     20  C   UNL A   1      28.303  32.600  22.799  1.00  0.00     0.004 C 
ENDBRANCH  15  16
ENDBRANCH  14  15
ENDBRANCH   6   8
ENDBRANCH   4   6
ENDBRANCH   3   4
ENDBRANCH   2   3
ENDBRANCH   1   2
BRANCH   1  21
ATOM     21  O   UNL A   1      37.332  21.451  24.290  1.00  0.00    -0.374 OA
BRANCH  21  22
ATOM     22  C   UNL A   1      37.247  20.167  24.911  1.00  0.00     0.202 C 
BRANCH  22  23
ATOM     23  C   UNL A   1      38.557  19.528  25.390  1.00  0.00     0.261 C 
BRANCH  23  24
ATOM     24  O   UNL A   1      39.633  20.485  25.475  1.00  0.00    -0.460 OA
BRANCH  24  25
ATOM     25  C   UNL A   1      40.357  20.424  26.616  1.00  0.00     0.338 C 
ATOM     26  O   UNL A   1      40.908  19.440  27.095  1.00  0.00    -0.246 OA
BRANCH  25  27
ATOM     27  C   UNL A   1      40.581  21.777  27.153  1.00  0.00     0.060 A 
ATOM     28  C   UNL A   1      39.928  22.844  26.519  1.00  0.00     0.016 A 
ATOM     29  C   UNL A   1      41.487  22.013  28.188  1.00  0.00     0.016 A 
ATOM     30  C   UNL A   1      40.216  24.155  26.887  1.00  0.00     0.010 A 
ATOM     31  C   UNL A   1      41.784  23.333  28.546  1.00  0.00     0.010 A 
ATOM     32  C   UNL A   1      41.178  24.409  27.871  1.00  0.00    -0.014 A 
BRANCH  32  33
ATOM     33  C   UNL A   1      41.659  25.797  28.073  1.00  0.00     0.031 A 
ATOM     34  C   UNL A   1      43.013  26.182  27.543  1.00  0.00     0.074 A 
ATOM     35  C   UNL A   1      40.888  26.715  28.680  1.00  0.00     0.049 A 
ATOM     36  N   UNL A   1      43.639  27.330  27.615  1.00  0.00    -0.248 NA
ATOM     37  C   UNL A   1      43.762  25.131  26.834  1.00  0.00     0.031 C 
ATOM     38  C   UNL A   1      39.543  26.478  29.199  1.00  0.00     0.029 A 
ATOM     39  N   UNL A   1      41.132  28.035  28.962  1.00  0.00    -0.354 N 
ATOM     40  C   UNL A   1      44.850  27.140  26.963  1.00  0.00     0.074 A 
ATOM     41  C   UNL A   1      44.888  25.760  26.528  1.00  0.00     0.031 C 
ATOM     42  C   UNL A   1      39.083  27.615  29.751  1.00  0.00     0.029 A 
ATOM     43  C   UNL A   1      40.111  28.649  29.644  1.00  0.00     0.049 A 
ATOM     44  H   UNL A   1      41.961  28.498  28.701  1.00  0.00     0.167 HD
ATOM     45  C   UNL A   1      45.839  28.037  26.737  1.00  0.00     0.037 A 
ATOM     46  C   UNL A   1      40.025  29.899  30.141  1.00  0.00     0.037 A 
ATOM     47  C   UNL A   1      45.807  29.409  27.170  1.00  0.00     0.049 A 
ATOM     48  C   UNL A   1      41.166  30.858  29.937  1.00  0.00     0.074 A 
ATOM     49  C   UNL A   1      46.757  30.396  26.982  1.00  0.00     0.029 A 
ATOM     50  N   UNL A   1      44.768  29.983  27.886  1.00  0.00    -0.354 N 
ATOM     51  N   UNL A   1      42.300  30.674  29.305  1.00  0.00    -0.248 NA
ATOM     52  C   UNL A   1      41.015  32.201  30.517  1.00  0.00     0.031 C 
ATOM     53  C   UNL A   1      46.311  31.559  27.619  1.00  0.00     0.029 A 
ATOM     54  C   UNL A   1      45.063  31.307  28.166  1.00  0.00     0.049 A 
ATOM     55  H   UNL A   1      43.943  29.519  28.156  1.00  0.00     0.167 HD
ATOM     56  C   UNL A   1      42.984  31.881  29.387  1.00  0.00     0.074 A 
ATOM     57  C   UNL A   1      42.134  32.793  30.123  1.00  0.00     0.031 C 
ATOM     58  C   UNL A   1      44.206  32.204  28.897  1.00  0.00     0.037 A 
BRANCH  45  59
ATOM     59  C   UNL A   1      47.052  27.551  26.001  1.00  0.00     0.057 A 
ATOM     60  C   UNL A   1      47.136  27.600  24.604  1.00  0.00     0.134 A 
ATOM     61  C   UNL A   1      48.159  27.052  26.700  1.00  0.00     0.134 A 
ATOM     62  F   UNL A   1      46.105  28.052  23.876  1.00  0.00    -0.206 F 
ATOM     63  C   UNL A   1      48.271  27.148  23.925  1.00  0.00     0.040 A 
ATOM     64  C   UNL A   1      49.306  26.619  26.034  1.00  0.00     0.040 A 
ATOM     65  F   UNL A   1      48.143  26.981  28.039  1.00  0.00    -0.206 F 
ATOM     66  C   UNL A   1      49.363  26.661  24.643  1.00  0.00     0.006 A 
ENDBRANCH  45  59
BRANCH  46  67
ATOM     67  C   UNL A   1      38.816  30.312  30.895  1.00  0.00     0.057 A 
ATOM     68  C   UNL A   1      37.751  30.962  30.262  1.00  0.00     0.134 A 
ATOM     69  C   UNL A   1      38.707  30.083  32.271  1.00  0.00     0.134 A 
ATOM     70  F   UNL A   1      37.809  31.231  28.949  1.00  0.00    -0.206 F 
ATOM     71  C   UNL A   1      36.625  31.381  30.973  1.00  0.00     0.040 A 
ATOM     72  C   UNL A   1      37.578  30.475  32.992  1.00  0.00     0.040 A 
ATOM     73  F   UNL A   1      39.695  29.465  32.936  1.00  0.00    -0.206 F 
ATOM     74  C   UNL A   1      36.534  31.132  32.342  1.00  0.00     0.006 A 
ENDBRANCH  46  67
BRANCH  58  75
ATOM     75  C   UNL A   1      44.685  33.608  29.115  1.00  0.00     0.057 A 
ATOM     76  C   UNL A   1      44.368  34.643  28.226  1.00  0.00     0.134 A 
ATOM     77  C   UNL A   1      45.435  33.937  30.251  1.00  0.00     0.134 A 
ATOM     78  F   UNL A   1      43.664  34.391  27.113  1.00  0.00    -0.206 F 
ATOM     79  C   UNL A   1      44.799  35.952  28.450  1.00  0.00     0.040 A 
ATOM     80  C   UNL A   1      45.850  35.246  30.498  1.00  0.00     0.040 A 
ATOM     81  F   UNL A   1      45.765  32.995  31.147  1.00  0.00    -0.206 F 
ATOM     82  C   UNL A   1      45.536  36.257  29.592  1.00  0.00     0.006 A 
ENDBRANCH  58  75
ENDBRANCH  32  33
ENDBRANCH  25  27
ENDBRANCH  24  25
ENDBRANCH  23  24
ENDBRANCH  22  23
ENDBRANCH  21  22
ENDBRANCH   1  21
TORSDOF 17
ENDMDL
