MODEL 1
REMARK VINA RESULT:     -10.5      0.000      0.000
REMARK SMILES CCOc1ncnc(N[C@@H]2C=C[C@H](C(=O)OCCOCCOC(=O)c3ccc(-c4c5nc(c(-c6c(F)cccc6F)c6ccc([nH]6)c(-c6c(F)cccc6F)c6nc(c(-c7c(F)cccc7F)c7ccc4[nH]7)C=C6)C=C5)cc3)C2)c1C
REMARK SMILES IDX 18 1 17 2 16 3 14 4 15 5 13 6 10 7 11 8 79 9 12 10 9 11 8 13
REMARK SMILES IDX 4 14 5 15 80 16 6 17 81 18 7 19 3 20 2 21 1 22 19 23 20 24
REMARK SMILES IDX 21 25 22 26 23 27 24 28 25 29 26 30 78 31 27 32 77 33 28 34
REMARK SMILES IDX 29 35 30 36 71 37 31 38 76 39 70 40 72 41 32 42 75 43 69 44
REMARK SMILES IDX 68 45 33 47 59 48 42 49 58 50 43 51 46 52 57 53 73 54 44 55
REMARK SMILES IDX 45 56 56 58 74 59 47 60 34 61 35 62 40 63 36 64 37 65 39 66
REMARK SMILES IDX 41 67 38 68 60 69 61 70 66 71 62 72 63 73 65 74 67 75 64 76
REMARK SMILES IDX 48 77 49 78 54 79 50 80 51 81 53 82 55 83 52 84
REMARK H PARENT 9 12 72 46 46 57
REMARK Flexibility Score: inf
ROOT
ATOM      1  C   UNL A   1      40.280  20.486  26.083  1.00  0.00     0.202 C 
ENDROOT
BRANCH   1   2
ATOM      2  C   UNL A   1      39.134  21.469  25.791  1.00  0.00     0.261 C 
BRANCH   2   3
ATOM      3  O   UNL A   1      37.914  20.861  25.347  1.00  0.00    -0.463 OA
BRANCH   3   4
ATOM      4  C   UNL A   1      37.029  21.789  24.883  1.00  0.00     0.312 C 
ATOM      5  O   UNL A   1      37.294  22.570  23.980  1.00  0.00    -0.252 OA
BRANCH   4   6
ATOM      6  C   UNL A   1      35.651  21.604  25.490  1.00  0.00     0.124 C 
ATOM      7  C   UNL A   1      34.070  23.342  24.787  1.00  0.00     0.104 C 
ATOM      8  C   UNL A   1      34.533  23.547  26.188  1.00  0.00    -0.006 C 
ATOM      9  C   UNL A   1      34.572  21.934  24.442  1.00  0.00     0.048 C 
ATOM     10  C   UNL A   1      35.376  22.585  26.587  1.00  0.00    -0.014 C 
BRANCH   7  11
ATOM     11  N   UNL A   1      34.482  24.376  23.863  1.00  0.00    -0.363 N 
ATOM     12  H   UNL A   1      35.445  24.580  23.853  1.00  0.00     0.162 HD
BRANCH  11  13
ATOM     13  C   UNL A   1      33.705  25.119  22.992  1.00  0.00     0.136 A 
ATOM     14  C   UNL A   1      32.390  27.005  22.490  1.00  0.00     0.221 A 
ATOM     15  N   UNL A   1      32.022  26.514  21.299  1.00  0.00    -0.201 NA
ATOM     16  C   UNL A   1      33.205  26.353  23.402  1.00  0.00     0.054 A 
ATOM     17  C   UNL A   1      32.549  25.322  21.018  1.00  0.00     0.228 A 
ATOM     18  C   UNL A   1      33.573  26.979  24.711  1.00  0.00     0.054 C 
ATOM     19  N   UNL A   1      33.410  24.625  21.778  1.00  0.00    -0.219 NA
BRANCH  14  20
ATOM     20  O   UNL A   1      31.857  28.229  22.829  1.00  0.00    -0.478 OA
BRANCH  20  21
ATOM     21  C   UNL A   1      30.437  28.222  22.671  1.00  0.00     0.228 C 
ATOM     22  C   UNL A   1      29.858  29.467  23.321  1.00  0.00     0.049 C 
ENDBRANCH  20  21
ENDBRANCH  14  20
ENDBRANCH  11  13
ENDBRANCH   7  11
ENDBRANCH   4   6
ENDBRANCH   3   4
ENDBRANCH   2   3
ENDBRANCH   1   2
BRANCH   1  23
ATOM     23  O   UNL A   1      41.455  20.911  26.769  1.00  0.00    -0.374 OA
BRANCH  23  24
ATOM     24  C   UNL A   1      42.726  20.443  26.320  1.00  0.00     0.202 C 
BRANCH  24  25
ATOM     25  C   UNL A   1      43.569  21.393  25.469  1.00  0.00     0.261 C 
BRANCH  25  26
ATOM     26  O   UNL A   1      42.801  22.527  25.043  1.00  0.00    -0.460 OA
BRANCH  26  27
ATOM     27  C   UNL A   1      43.505  23.685  25.001  1.00  0.00     0.338 C 
ATOM     28  O   UNL A   1      44.444  23.957  24.278  1.00  0.00    -0.246 OA
BRANCH  27  29
ATOM     29  C   UNL A   1      42.829  24.693  25.839  1.00  0.00     0.060 A 
ATOM     30  C   UNL A   1      43.424  25.959  25.924  1.00  0.00     0.016 A 
ATOM     31  C   UNL A   1      41.667  24.398  26.552  1.00  0.00     0.016 A 
ATOM     32  C   UNL A   1      42.902  26.916  26.783  1.00  0.00     0.010 A 
ATOM     33  C   UNL A   1      41.152  25.355  27.428  1.00  0.00     0.010 A 
ATOM     34  C   UNL A   1      41.797  26.596  27.579  1.00  0.00    -0.014 A 
BRANCH  34  35
ATOM     35  C   UNL A   1      41.445  27.479  28.712  1.00  0.00     0.031 A 
ATOM     36  C   UNL A   1      42.259  27.378  29.973  1.00  0.00     0.074 A 
ATOM     37  C   UNL A   1      40.452  28.375  28.604  1.00  0.00     0.049 A 
ATOM     38  N   UNL A   1      42.104  27.998  31.112  1.00  0.00    -0.248 NA
ATOM     39  C   UNL A   1      43.401  26.447  29.944  1.00  0.00     0.031 C 
ATOM     40  C   UNL A   1      39.635  28.593  27.411  1.00  0.00     0.029 A 
ATOM     41  N   UNL A   1      39.956  29.265  29.521  1.00  0.00    -0.354 N 
ATOM     42  C   UNL A   1      43.119  27.529  31.936  1.00  0.00     0.074 A 
ATOM     43  C   UNL A   1      43.865  26.548  31.180  1.00  0.00     0.031 C 
ATOM     44  C   UNL A   1      38.725  29.546  27.676  1.00  0.00     0.029 A 
ATOM     45  C   UNL A   1      38.874  29.975  29.065  1.00  0.00     0.049 A 
ATOM     46  H   UNL A   1      40.340  29.384  30.420  1.00  0.00     0.167 HD
ATOM     47  C   UNL A   1      43.410  27.895  33.206  1.00  0.00     0.037 A 
ATOM     48  C   UNL A   1      38.079  30.848  29.712  1.00  0.00     0.037 A 
ATOM     49  C   UNL A   1      42.663  28.876  33.948  1.00  0.00     0.049 A 
ATOM     50  C   UNL A   1      38.375  31.176  31.154  1.00  0.00     0.074 A 
ATOM     51  C   UNL A   1      42.875  29.325  35.238  1.00  0.00     0.029 A 
ATOM     52  N   UNL A   1      41.556  29.556  33.462  1.00  0.00    -0.354 N 
ATOM     53  N   UNL A   1      39.344  30.740  31.922  1.00  0.00    -0.248 NA
ATOM     54  C   UNL A   1      37.466  32.123  31.816  1.00  0.00     0.031 C 
ATOM     55  C   UNL A   1      41.864  30.237  35.553  1.00  0.00     0.029 A 
ATOM     56  C   UNL A   1      41.059  30.404  34.437  1.00  0.00     0.049 A 
ATOM     57  H   UNL A   1      41.179  29.451  32.559  1.00  0.00     0.167 HD
ATOM     58  C   UNL A   1      39.184  31.385  33.142  1.00  0.00     0.074 A 
ATOM     59  C   UNL A   1      38.032  32.252  33.007  1.00  0.00     0.031 C 
ATOM     60  C   UNL A   1      39.920  31.271  34.276  1.00  0.00     0.037 A 
BRANCH  47  61
ATOM     61  C   UNL A   1      44.568  27.219  33.880  1.00  0.00     0.057 A 
ATOM     62  C   UNL A   1      44.420  26.009  34.571  1.00  0.00     0.134 A 
ATOM     63  C   UNL A   1      45.855  27.762  33.797  1.00  0.00     0.134 A 
ATOM     64  F   UNL A   1      43.211  25.444  34.703  1.00  0.00    -0.206 F 
ATOM     65  C   UNL A   1      45.511  25.371  35.167  1.00  0.00     0.040 A 
ATOM     66  C   UNL A   1      46.958  27.121  34.363  1.00  0.00     0.040 A 
ATOM     67  F   UNL A   1      46.067  28.918  33.150  1.00  0.00    -0.206 F 
ATOM     68  C   UNL A   1      46.786  25.922  35.054  1.00  0.00     0.006 A 
ENDBRANCH  47  61
BRANCH  48  69
ATOM     69  C   UNL A   1      36.912  31.454  29.022  1.00  0.00     0.057 A 
ATOM     70  C   UNL A   1      36.919  32.795  28.620  1.00  0.00     0.134 A 
ATOM     71  C   UNL A   1      35.745  30.718  28.784  1.00  0.00     0.134 A 
ATOM     72  F   UNL A   1      37.999  33.559  28.837  1.00  0.00    -0.206 F 
ATOM     73  C   UNL A   1      35.798  33.390  28.038  1.00  0.00     0.040 A 
ATOM     74  C   UNL A   1      34.628  31.291  28.174  1.00  0.00     0.040 A 
ATOM     75  F   UNL A   1      35.673  29.426  29.141  1.00  0.00    -0.206 F 
ATOM     76  C   UNL A   1      34.649  32.635  27.810  1.00  0.00     0.006 A 
ENDBRANCH  48  69
BRANCH  60  77
ATOM     77  C   UNL A   1      39.535  32.140  35.438  1.00  0.00     0.057 A 
ATOM     78  C   UNL A   1      40.049  33.431  35.605  1.00  0.00     0.134 A 
ATOM     79  C   UNL A   1      38.603  31.688  36.383  1.00  0.00     0.134 A 
ATOM     80  F   UNL A   1      40.954  33.920  34.743  1.00  0.00    -0.206 F 
ATOM     81  C   UNL A   1      39.672  34.232  36.684  1.00  0.00     0.040 A 
ATOM     82  C   UNL A   1      38.194  32.492  37.447  1.00  0.00     0.040 A 
ATOM     83  F   UNL A   1      38.062  30.465  36.276  1.00  0.00    -0.206 F 
ATOM     84  C   UNL A   1      38.736  33.765  37.604  1.00  0.00     0.006 A 
ENDBRANCH  60  77
ENDBRANCH  34  35
ENDBRANCH  27  29
ENDBRANCH  26  27
ENDBRANCH  25  26
ENDBRANCH  24  25
ENDBRANCH  23  24
ENDBRANCH   1  23
TORSDOF 18
ENDMDL
MODEL 2
REMARK VINA RESULT:     -10.3      3.556      9.072
REMARK SMILES CCOc1ncnc(N[C@@H]2C=C[C@H](C(=O)OCCOCCOC(=O)c3ccc(-c4c5nc(c(-c6c(F)cccc6F)c6ccc([nH]6)c(-c6c(F)cccc6F)c6nc(c(-c7c(F)cccc7F)c7ccc4[nH]7)C=C6)C=C5)cc3)C2)c1C
REMARK SMILES IDX 18 1 17 2 16 3 14 4 15 5 13 6 10 7 11 8 79 9 12 10 9 11 8 13
REMARK SMILES IDX 4 14 5 15 80 16 6 17 81 18 7 19 3 20 2 21 1 22 19 23 20 24
REMARK SMILES IDX 21 25 22 26 23 27 24 28 25 29 26 30 78 31 27 32 77 33 28 34
REMARK SMILES IDX 29 35 30 36 71 37 31 38 76 39 70 40 72 41 32 42 75 43 69 44
REMARK SMILES IDX 68 45 33 47 59 48 42 49 58 50 43 51 46 52 57 53 73 54 44 55
REMARK SMILES IDX 45 56 56 58 74 59 47 60 34 61 35 62 40 63 36 64 37 65 39 66
REMARK SMILES IDX 41 67 38 68 60 69 61 70 66 71 62 72 63 73 65 74 67 75 64 76
REMARK SMILES IDX 48 77 49 78 54 79 50 80 51 81 53 82 55 83 52 84
REMARK H PARENT 9 12 72 46 46 57
REMARK Flexibility Score: inf
ROOT
ATOM      1  C   UNL A   1      34.735  33.044  28.206  1.00  0.00     0.202 C 
ENDROOT
BRANCH   1   2
ATOM      2  C   UNL A   1      33.839  31.795  28.156  1.00  0.00     0.261 C 
BRANCH   2   3
ATOM      3  O   UNL A   1      33.882  31.068  26.921  1.00  0.00    -0.463 OA
BRANCH   3   4
ATOM      4  C   UNL A   1      33.490  29.773  27.085  1.00  0.00     0.312 C 
ATOM      5  O   UNL A   1      34.225  28.905  27.534  1.00  0.00    -0.252 OA
BRANCH   4   6
ATOM      6  C   UNL A   1      32.007  29.596  26.816  1.00  0.00     0.124 C 
ATOM      7  C   UNL A   1      31.394  27.256  26.412  1.00  0.00     0.104 C 
ATOM      8  C   UNL A   1      31.410  28.050  25.152  1.00  0.00    -0.006 C 
ATOM      9  C   UNL A   1      31.501  28.319  27.512  1.00  0.00     0.048 C 
ATOM     10  C   UNL A   1      31.717  29.337  25.371  1.00  0.00    -0.014 C 
BRANCH   7  11
ATOM     11  N   UNL A   1      32.398  26.215  26.476  1.00  0.00    -0.363 N 
ATOM     12  H   UNL A   1      33.321  26.522  26.627  1.00  0.00     0.162 HD
BRANCH  11  13
ATOM     13  C   UNL A   1      32.236  24.847  26.350  1.00  0.00     0.136 A 
ATOM     14  C   UNL A   1      32.773  22.784  25.352  1.00  0.00     0.221 A 
ATOM     15  N   UNL A   1      31.788  22.142  25.993  1.00  0.00    -0.201 NA
ATOM     16  C   UNL A   1      33.040  24.140  25.458  1.00  0.00     0.054 A 
ATOM     17  C   UNL A   1      31.075  22.919  26.808  1.00  0.00     0.228 A 
ATOM     18  C   UNL A   1      34.169  24.777  24.709  1.00  0.00     0.054 C 
ATOM     19  N   UNL A   1      31.280  24.223  27.059  1.00  0.00    -0.219 NA
BRANCH  14  20
ATOM     20  O   UNL A   1      33.528  22.022  24.487  1.00  0.00    -0.478 OA
BRANCH  20  21
ATOM     21  C   UNL A   1      33.112  20.655  24.526  1.00  0.00     0.228 C 
ATOM     22  C   UNL A   1      32.320  20.341  23.268  1.00  0.00     0.049 C 
ENDBRANCH  20  21
ENDBRANCH  14  20
ENDBRANCH  11  13
ENDBRANCH   7  11
ENDBRANCH   4   6
ENDBRANCH   3   4
ENDBRANCH   2   3
ENDBRANCH   1   2
BRANCH   1  23
ATOM     23  O   UNL A   1      34.264  34.305  27.739  1.00  0.00    -0.374 OA
BRANCH  23  24
ATOM     24  C   UNL A   1      34.312  35.430  28.616  1.00  0.00     0.202 C 
BRANCH  24  25
ATOM     25  C   UNL A   1      33.001  35.881  29.260  1.00  0.00     0.261 C 
BRANCH  25  26
ATOM     26  O   UNL A   1      32.643  35.030  30.359  1.00  0.00    -0.460 OA
BRANCH  26  27
ATOM     27  C   UNL A   1      32.798  35.607  31.576  1.00  0.00     0.338 C 
ATOM     28  O   UNL A   1      32.069  36.418  32.110  1.00  0.00    -0.246 OA
BRANCH  27  29
ATOM     29  C   UNL A   1      33.906  34.942  32.288  1.00  0.00     0.060 A 
ATOM     30  C   UNL A   1      35.150  35.590  32.284  1.00  0.00     0.016 A 
ATOM     31  C   UNL A   1      33.746  33.704  32.909  1.00  0.00     0.016 A 
ATOM     32  C   UNL A   1      36.259  34.966  32.838  1.00  0.00     0.010 A 
ATOM     33  C   UNL A   1      34.865  33.070  33.451  1.00  0.00     0.010 A 
ATOM     34  C   UNL A   1      36.130  33.680  33.372  1.00  0.00    -0.014 A 
BRANCH  34  35
ATOM     35  C   UNL A   1      37.349  32.894  33.659  1.00  0.00     0.031 A 
ATOM     36  C   UNL A   1      38.088  33.168  34.939  1.00  0.00     0.074 A 
ATOM     37  C   UNL A   1      37.762  31.932  32.818  1.00  0.00     0.049 A 
ATOM     38  N   UNL A   1      39.208  32.655  35.377  1.00  0.00    -0.248 NA
ATOM     39  C   UNL A   1      37.484  34.159  35.847  1.00  0.00     0.031 C 
ATOM     40  C   UNL A   1      37.090  31.548  31.577  1.00  0.00     0.029 A 
ATOM     41  N   UNL A   1      38.855  31.108  32.880  1.00  0.00    -0.354 N 
ATOM     42  C   UNL A   1      39.446  33.264  36.603  1.00  0.00     0.074 A 
ATOM     43  C   UNL A   1      38.375  34.209  36.826  1.00  0.00     0.031 C 
ATOM     44  C   UNL A   1      37.799  30.572  30.984  1.00  0.00     0.029 A 
ATOM     45  C   UNL A   1      38.989  30.292  31.785  1.00  0.00     0.049 A 
ATOM     46  H   UNL A   1      39.484  31.103  33.638  1.00  0.00     0.167 HD
ATOM     47  C   UNL A   1      40.462  33.044  37.469  1.00  0.00     0.037 A 
ATOM     48  C   UNL A   1      39.980  29.441  31.458  1.00  0.00     0.037 A 
ATOM     49  C   UNL A   1      41.520  32.098  37.238  1.00  0.00     0.049 A 
ATOM     50  C   UNL A   1      41.143  29.276  32.403  1.00  0.00     0.074 A 
ATOM     51  C   UNL A   1      42.595  31.791  38.053  1.00  0.00     0.029 A 
ATOM     52  N   UNL A   1      41.637  31.306  36.105  1.00  0.00    -0.354 N 
ATOM     53  N   UNL A   1      41.354  29.843  33.566  1.00  0.00    -0.248 NA
ATOM     54  C   UNL A   1      42.203  28.345  31.989  1.00  0.00     0.031 C 
ATOM     55  C   UNL A   1      43.392  30.855  37.389  1.00  0.00     0.029 A 
ATOM     56  C   UNL A   1      42.781  30.530  36.188  1.00  0.00     0.049 A 
ATOM     57  H   UNL A   1      41.002  31.299  35.353  1.00  0.00     0.167 HD
ATOM     58  C   UNL A   1      42.550  29.314  34.037  1.00  0.00     0.074 A 
ATOM     59  C   UNL A   1      43.009  28.369  33.041  1.00  0.00     0.031 C 
ATOM     60  C   UNL A   1      43.211  29.584  35.190  1.00  0.00     0.037 A 
BRANCH  47  61
ATOM     61  C   UNL A   1      40.489  33.852  38.733  1.00  0.00     0.057 A 
ATOM     62  C   UNL A   1      39.799  33.451  39.885  1.00  0.00     0.134 A 
ATOM     63  C   UNL A   1      41.254  35.022  38.813  1.00  0.00     0.134 A 
ATOM     64  F   UNL A   1      39.035  32.349  39.871  1.00  0.00    -0.206 F 
ATOM     65  C   UNL A   1      39.859  34.193  41.067  1.00  0.00     0.040 A 
ATOM     66  C   UNL A   1      41.345  35.757  39.996  1.00  0.00     0.040 A 
ATOM     67  F   UNL A   1      41.940  35.462  37.747  1.00  0.00    -0.206 F 
ATOM     68  C   UNL A   1      40.642  35.344  41.126  1.00  0.00     0.006 A 
ENDBRANCH  47  61
BRANCH  48  69
ATOM     69  C   UNL A   1      39.938  28.700  30.171  1.00  0.00     0.057 A 
ATOM     70  C   UNL A   1      40.536  29.215  29.015  1.00  0.00     0.134 A 
ATOM     71  C   UNL A   1      39.263  27.479  30.056  1.00  0.00     0.134 A 
ATOM     72  F   UNL A   1      41.181  30.390  29.054  1.00  0.00    -0.206 F 
ATOM     73  C   UNL A   1      40.436  28.559  27.786  1.00  0.00     0.040 A 
ATOM     74  C   UNL A   1      39.182  26.798  28.841  1.00  0.00     0.040 A 
ATOM     75  F   UNL A   1      38.670  26.928  31.127  1.00  0.00    -0.206 F 
ATOM     76  C   UNL A   1      39.760  27.344  27.699  1.00  0.00     0.006 A 
ENDBRANCH  48  69
BRANCH  60  77
ATOM     77  C   UNL A   1      44.471  28.813  35.459  1.00  0.00     0.057 A 
ATOM     78  C   UNL A   1      44.462  27.583  36.127  1.00  0.00     0.134 A 
ATOM     79  C   UNL A   1      45.707  29.293  35.005  1.00  0.00     0.134 A 
ATOM     80  F   UNL A   1      43.314  27.072  36.598  1.00  0.00    -0.206 F 
ATOM     81  C   UNL A   1      45.640  26.870  36.359  1.00  0.00     0.040 A 
ATOM     82  C   UNL A   1      46.887  28.575  35.201  1.00  0.00     0.040 A 
ATOM     83  F   UNL A   1      45.785  30.460  34.346  1.00  0.00    -0.206 F 
ATOM     84  C   UNL A   1      46.856  27.363  35.887  1.00  0.00     0.006 A 
ENDBRANCH  60  77
ENDBRANCH  34  35
ENDBRANCH  27  29
ENDBRANCH  26  27
ENDBRANCH  25  26
ENDBRANCH  24  25
ENDBRANCH  23  24
ENDBRANCH   1  23
TORSDOF 18
ENDMDL
MODEL 3
REMARK VINA RESULT:     -10.2      4.868      7.523
REMARK SMILES CCOc1ncnc(N[C@@H]2C=C[C@H](C(=O)OCCOCCOC(=O)c3ccc(-c4c5nc(c(-c6c(F)cccc6F)c6ccc([nH]6)c(-c6c(F)cccc6F)c6nc(c(-c7c(F)cccc7F)c7ccc4[nH]7)C=C6)C=C5)cc3)C2)c1C
REMARK SMILES IDX 18 1 17 2 16 3 14 4 15 5 13 6 10 7 11 8 79 9 12 10 9 11 8 13
REMARK SMILES IDX 4 14 5 15 80 16 6 17 81 18 7 19 3 20 2 21 1 22 19 23 20 24
REMARK SMILES IDX 21 25 22 26 23 27 24 28 25 29 26 30 78 31 27 32 77 33 28 34
REMARK SMILES IDX 29 35 30 36 71 37 31 38 76 39 70 40 72 41 32 42 75 43 69 44
REMARK SMILES IDX 68 45 33 47 59 48 42 49 58 50 43 51 46 52 57 53 73 54 44 55
REMARK SMILES IDX 45 56 56 58 74 59 47 60 34 61 35 62 40 63 36 64 37 65 39 66
REMARK SMILES IDX 41 67 38 68 60 69 61 70 66 71 62 72 63 73 65 74 67 75 64 76
REMARK SMILES IDX 48 77 49 78 54 79 50 80 51 81 53 82 55 83 52 84
REMARK H PARENT 9 12 72 46 46 57
REMARK Flexibility Score: inf
ROOT
ATOM      1  C   UNL A   1      45.983  20.844  24.629  1.00  0.00     0.202 C 
ENDROOT
BRANCH   1   2
ATOM      2  C   UNL A   1      45.893  22.333  24.257  1.00  0.00     0.261 C 
BRANCH   2   3
ATOM      3  O   UNL A   1      46.836  23.182  24.924  1.00  0.00    -0.463 OA
BRANCH   3   4
ATOM      4  C   UNL A   1      46.505  24.499  24.801  1.00  0.00     0.312 C 
ATOM      5  O   UNL A   1      45.350  24.900  24.817  1.00  0.00    -0.252 OA
BRANCH   4   6
ATOM      6  C   UNL A   1      47.732  25.392  24.826  1.00  0.00     0.124 C 
ATOM      7  C   UNL A   1      47.401  27.409  26.181  1.00  0.00     0.104 C 
ATOM      8  C   UNL A   1      47.358  27.707  24.721  1.00  0.00    -0.006 C 
ATOM      9  C   UNL A   1      47.925  25.969  26.241  1.00  0.00     0.048 C 
ATOM     10  C   UNL A   1      47.566  26.612  23.977  1.00  0.00    -0.014 C 
BRANCH   7  11
ATOM     11  N   UNL A   1      46.149  27.629  26.874  1.00  0.00    -0.363 N 
ATOM     12  H   UNL A   1      45.894  26.935  27.523  1.00  0.00     0.162 HD
BRANCH  11  13
ATOM     13  C   UNL A   1      45.262  28.683  26.745  1.00  0.00     0.136 A 
ATOM     14  C   UNL A   1      44.720  30.964  26.944  1.00  0.00     0.221 A 
ATOM     15  N   UNL A   1      43.434  30.753  26.639  1.00  0.00    -0.201 NA
ATOM     16  C   UNL A   1      45.687  29.976  27.045  1.00  0.00     0.054 A 
ATOM     17  C   UNL A   1      43.138  29.478  26.386  1.00  0.00     0.228 A 
ATOM     18  C   UNL A   1      47.108  30.302  27.385  1.00  0.00     0.054 C 
ATOM     19  N   UNL A   1      43.994  28.443  26.373  1.00  0.00    -0.219 NA
BRANCH  14  20
ATOM     20  O   UNL A   1      45.068  32.267  27.228  1.00  0.00    -0.478 OA
BRANCH  20  21
ATOM     21  C   UNL A   1      44.157  33.178  26.609  1.00  0.00     0.228 C 
ATOM     22  C   UNL A   1      44.678  34.595  26.779  1.00  0.00     0.049 C 
ENDBRANCH  20  21
ENDBRANCH  14  20
ENDBRANCH  11  13
ENDBRANCH   7  11
ENDBRANCH   4   6
ENDBRANCH   3   4
ENDBRANCH   2   3
ENDBRANCH   1   2
BRANCH   1  23
ATOM     23  O   UNL A   1      44.873  19.971  24.440  1.00  0.00    -0.374 OA
BRANCH  23  24
ATOM     24  C   UNL A   1      44.718  18.848  25.307  1.00  0.00     0.202 C 
BRANCH  24  25
ATOM     25  C   UNL A   1      43.313  18.542  25.824  1.00  0.00     0.261 C 
BRANCH  25  26
ATOM     26  O   UNL A   1      42.328  19.346  25.158  1.00  0.00    -0.460 OA
BRANCH  26  27
ATOM     27  C   UNL A   1      41.437  19.932  25.995  1.00  0.00     0.338 C 
ATOM     28  O   UNL A   1      40.386  19.475  26.397  1.00  0.00    -0.246 OA
BRANCH  27  29
ATOM     29  C   UNL A   1      42.030  21.167  26.544  1.00  0.00     0.060 A 
ATOM     30  C   UNL A   1      42.051  21.302  27.939  1.00  0.00     0.016 A 
ATOM     31  C   UNL A   1      42.515  22.180  25.719  1.00  0.00     0.016 A 
ATOM     32  C   UNL A   1      42.490  22.485  28.515  1.00  0.00     0.010 A 
ATOM     33  C   UNL A   1      42.941  23.377  26.298  1.00  0.00     0.010 A 
ATOM     34  C   UNL A   1      42.884  23.547  27.693  1.00  0.00    -0.014 A 
BRANCH  34  35
ATOM     35  C   UNL A   1      43.036  24.895  28.281  1.00  0.00     0.031 A 
ATOM     36  C   UNL A   1      44.385  25.293  28.810  1.00  0.00     0.074 A 
ATOM     37  C   UNL A   1      42.005  25.756  28.304  1.00  0.00     0.049 A 
ATOM     38  N   UNL A   1      44.746  26.390  29.423  1.00  0.00    -0.248 NA
ATOM     39  C   UNL A   1      45.476  24.318  28.627  1.00  0.00     0.031 C 
ATOM     40  C   UNL A   1      40.670  25.492  27.770  1.00  0.00     0.029 A 
ATOM     41  N   UNL A   1      41.924  27.028  28.808  1.00  0.00    -0.354 N 
ATOM     42  C   UNL A   1      46.098  26.235  29.705  1.00  0.00     0.074 A 
ATOM     43  C   UNL A   1      46.487  24.927  29.228  1.00  0.00     0.031 C 
ATOM     44  C   UNL A   1      39.894  26.567  27.992  1.00  0.00     0.029 A 
ATOM     45  C   UNL A   1      40.669  27.574  28.714  1.00  0.00     0.049 A 
ATOM     46  H   UNL A   1      42.692  27.503  29.200  1.00  0.00     0.167 HD
ATOM     47  C   UNL A   1      46.940  27.113  30.297  1.00  0.00     0.037 A 
ATOM     48  C   UNL A   1      40.198  28.744  29.188  1.00  0.00     0.037 A 
ATOM     49  C   UNL A   1      46.543  28.414  30.763  1.00  0.00     0.049 A 
ATOM     50  C   UNL A   1      41.138  29.668  29.918  1.00  0.00     0.074 A 
ATOM     51  C   UNL A   1      47.317  29.385  31.372  1.00  0.00     0.029 A 
ATOM     52  N   UNL A   1      45.256  28.924  30.675  1.00  0.00    -0.354 N 
ATOM     53  N   UNL A   1      42.418  29.522  30.168  1.00  0.00    -0.248 NA
ATOM     54  C   UNL A   1      40.568  30.923  30.428  1.00  0.00     0.031 C 
ATOM     55  C   UNL A   1      46.487  30.460  31.701  1.00  0.00     0.029 A 
ATOM     56  C   UNL A   1      45.209  30.186  31.240  1.00  0.00     0.049 A 
ATOM     57  H   UNL A   1      44.489  28.457  30.270  1.00  0.00     0.167 HD
ATOM     58  C   UNL A   1      42.812  30.679  30.830  1.00  0.00     0.074 A 
ATOM     59  C   UNL A   1      41.639  31.522  30.930  1.00  0.00     0.031 C 
ATOM     60  C   UNL A   1      44.033  31.015  31.315  1.00  0.00     0.037 A 
BRANCH  47  61
ATOM     61  C   UNL A   1      48.366  26.689  30.492  1.00  0.00     0.057 A 
ATOM     62  C   UNL A   1      48.741  25.789  31.499  1.00  0.00     0.134 A 
ATOM     63  C   UNL A   1      49.370  27.151  29.632  1.00  0.00     0.134 A 
ATOM     64  F   UNL A   1      47.831  25.322  32.367  1.00  0.00    -0.206 F 
ATOM     65  C   UNL A   1      50.066  25.375  31.651  1.00  0.00     0.040 A 
ATOM     66  C   UNL A   1      50.693  26.723  29.756  1.00  0.00     0.040 A 
ATOM     67  F   UNL A   1      49.080  28.013  28.647  1.00  0.00    -0.206 F 
ATOM     68  C   UNL A   1      51.044  25.835  30.771  1.00  0.00     0.006 A 
ENDBRANCH  47  61
BRANCH  48  69
ATOM     69  C   UNL A   1      38.766  29.100  29.018  1.00  0.00     0.057 A 
ATOM     70  C   UNL A   1      38.272  29.565  27.793  1.00  0.00     0.134 A 
ATOM     71  C   UNL A   1      37.865  29.023  30.087  1.00  0.00     0.134 A 
ATOM     72  F   UNL A   1      39.089  29.681  26.736  1.00  0.00    -0.206 F 
ATOM     73  C   UNL A   1      36.944  29.972  27.647  1.00  0.00     0.040 A 
ATOM     74  C   UNL A   1      36.528  29.396  29.947  1.00  0.00     0.040 A 
ATOM     75  F   UNL A   1      38.273  28.582  31.287  1.00  0.00    -0.206 F 
ATOM     76  C   UNL A   1      36.067  29.884  28.727  1.00  0.00     0.006 A 
ENDBRANCH  48  69
BRANCH  60  77
ATOM     77  C   UNL A   1      44.174  32.369  31.948  1.00  0.00     0.057 A 
ATOM     78  C   UNL A   1      44.532  33.503  31.209  1.00  0.00     0.134 A 
ATOM     79  C   UNL A   1      43.906  32.546  33.313  1.00  0.00     0.134 A 
ATOM     80  F   UNL A   1      44.814  33.402  29.901  1.00  0.00    -0.206 F 
ATOM     81  C   UNL A   1      44.648  34.759  31.809  1.00  0.00     0.040 A 
ATOM     82  C   UNL A   1      43.985  33.801  33.917  1.00  0.00     0.040 A 
ATOM     83  F   UNL A   1      43.545  31.503  34.077  1.00  0.00    -0.206 F 
ATOM     84  C   UNL A   1      44.365  34.910  33.165  1.00  0.00     0.006 A 
ENDBRANCH  60  77
ENDBRANCH  34  35
ENDBRANCH  27  29
ENDBRANCH  26  27
ENDBRANCH  25  26
ENDBRANCH  24  25
ENDBRANCH  23  24
ENDBRANCH   1  23
TORSDOF 18
ENDMDL
