MODEL 1
REMARK VINA RESULT:     -11.2      0.000      0.000
REMARK SMILES O=C(OCCOCCOC(=O)[C@H]1CC[C@@H]2CCCC[C@@H]2N1C(=O)Cc1ccn[nH]1)c1ccc(-c2c3nc(c(-c4c(F)cccc4F)c4ccc([nH]4)c(-c4c(F)cccc4F)c4nc(c(-c5c(F)cccc5F)c5ccc2[nH]5)C=C4)C=C3)cc1
REMARK SMILES IDX 7 1 6 2 5 3 4 4 3 5 2 6 1 7 30 8 31 9 83 10 32 11 82 12
REMARK SMILES IDX 33 13 34 14 35 15 76 16 36 17 81 18 75 19 77 20 37 21 80 22
REMARK SMILES IDX 74 23 73 24 38 26 64 27 47 28 63 29 48 30 51 31 62 32 78 33
REMARK SMILES IDX 49 34 50 35 61 37 79 38 52 39 39 40 40 41 45 42 41 43 42 44
REMARK SMILES IDX 44 45 46 46 43 47 65 48 66 49 71 50 67 51 68 52 70 53 72 54
REMARK SMILES IDX 69 55 53 56 54 57 59 58 55 59 56 60 58 61 60 62 57 63 8 64
REMARK SMILES IDX 9 65 10 66 11 67 12 68 13 69 21 70 14 71 20 72 15 73 19 74
REMARK SMILES IDX 16 75 18 76 17 77 22 78 23 79 24 80 25 81 26 82 29 83 27 84
REMARK SMILES IDX 28 85
REMARK H PARENT 77 25 51 36 29 86
REMARK Flexibility Score: inf
ROOT
ATOM      1  C   UNL A   1      36.718  21.728  25.384  1.00  0.00     0.202 C 
ENDROOT
BRANCH   1   2
ATOM      2  O   UNL A   1      36.584  20.347  25.025  1.00  0.00    -0.374 OA
BRANCH   2   3
ATOM      3  C   UNL A   1      37.781  19.586  24.902  1.00  0.00     0.202 C 
BRANCH   3   4
ATOM      4  C   UNL A   1      38.940  20.114  25.749  1.00  0.00     0.261 C 
BRANCH   4   5
ATOM      5  O   UNL A   1      40.036  19.190  25.741  1.00  0.00    -0.460 OA
BRANCH   5   6
ATOM      6  C   UNL A   1      41.346  19.450  25.957  1.00  0.00     0.338 C 
ATOM      7  O   UNL A   1      42.140  18.511  25.903  1.00  0.00    -0.246 OA
BRANCH   6   8
ATOM      8  C   UNL A   1      41.899  20.800  26.300  1.00  0.00     0.060 A 
ATOM      9  C   UNL A   1      42.234  21.799  25.381  1.00  0.00     0.016 A 
ATOM     10  C   UNL A   1      41.968  21.123  27.665  1.00  0.00     0.016 A 
ATOM     11  C   UNL A   1      42.586  23.074  25.777  1.00  0.00     0.010 A 
ATOM     12  C   UNL A   1      42.352  22.399  28.083  1.00  0.00     0.010 A 
ATOM     13  C   UNL A   1      42.654  23.372  27.128  1.00  0.00    -0.014 A 
BRANCH  13  14
ATOM     14  C   UNL A   1      43.224  24.675  27.475  1.00  0.00     0.031 A 
ATOM     15  C   UNL A   1      42.287  25.705  28.016  1.00  0.00     0.074 A 
ATOM     16  C   UNL A   1      44.558  24.836  27.473  1.00  0.00     0.049 A 
ATOM     17  N   UNL A   1      42.519  26.947  28.328  1.00  0.00    -0.248 NA
ATOM     18  C   UNL A   1      40.899  25.266  28.259  1.00  0.00     0.031 C 
ATOM     19  C   UNL A   1      45.534  23.794  27.139  1.00  0.00     0.029 A 
ATOM     20  N   UNL A   1      45.323  25.924  27.783  1.00  0.00    -0.354 N 
ATOM     21  C   UNL A   1      41.301  27.450  28.762  1.00  0.00     0.074 A 
ATOM     22  C   UNL A   1      40.336  26.378  28.702  1.00  0.00     0.031 C 
ATOM     23  C   UNL A   1      46.772  24.303  27.252  1.00  0.00     0.029 A 
ATOM     24  C   UNL A   1      46.668  25.717  27.589  1.00  0.00     0.049 A 
ATOM     25  H   UNL A   1      44.948  26.773  28.113  1.00  0.00     0.167 HD
ATOM     26  C   UNL A   1      41.027  28.714  29.148  1.00  0.00     0.037 A 
ATOM     27  C   UNL A   1      47.676  26.606  27.620  1.00  0.00     0.037 A 
ATOM     28  C   UNL A   1      42.027  29.742  29.188  1.00  0.00     0.049 A 
ATOM     29  C   UNL A   1      47.319  28.038  27.930  1.00  0.00     0.074 A 
ATOM     30  C   UNL A   1      41.884  31.079  29.495  1.00  0.00     0.029 A 
ATOM     31  N   UNL A   1      43.370  29.529  28.901  1.00  0.00    -0.354 N 
ATOM     32  N   UNL A   1      46.154  28.544  28.267  1.00  0.00    -0.248 NA
ATOM     33  C   UNL A   1      48.399  29.025  27.837  1.00  0.00     0.031 C 
ATOM     34  C   UNL A   1      43.132  31.689  29.337  1.00  0.00     0.029 A 
ATOM     35  C   UNL A   1      44.064  30.720  28.990  1.00  0.00     0.049 A 
ATOM     36  H   UNL A   1      43.768  28.660  28.669  1.00  0.00     0.167 HD
ATOM     37  C   UNL A   1      46.362  29.905  28.438  1.00  0.00     0.074 A 
ATOM     38  C   UNL A   1      47.774  30.137  28.198  1.00  0.00     0.031 C 
ATOM     39  C   UNL A   1      45.476  30.883  28.750  1.00  0.00     0.037 A 
BRANCH  26  40
ATOM     40  C   UNL A   1      39.598  29.053  29.435  1.00  0.00     0.057 A 
ATOM     41  C   UNL A   1      39.048  28.986  30.720  1.00  0.00     0.134 A 
ATOM     42  C   UNL A   1      38.749  29.435  28.387  1.00  0.00     0.134 A 
ATOM     43  F   UNL A   1      39.797  28.587  31.760  1.00  0.00    -0.206 F 
ATOM     44  C   UNL A   1      37.702  29.277  30.953  1.00  0.00     0.040 A 
ATOM     45  C   UNL A   1      37.408  29.750  28.610  1.00  0.00     0.040 A 
ATOM     46  F   UNL A   1      39.207  29.498  27.129  1.00  0.00    -0.206 F 
ATOM     47  C   UNL A   1      36.880  29.668  29.896  1.00  0.00     0.006 A 
ENDBRANCH  26  40
BRANCH  27  48
ATOM     48  C   UNL A   1      49.063  26.214  27.249  1.00  0.00     0.057 A 
ATOM     49  C   UNL A   1      50.008  25.849  28.214  1.00  0.00     0.134 A 
ATOM     50  C   UNL A   1      49.500  26.260  25.916  1.00  0.00     0.134 A 
ATOM     51  F   UNL A   1      49.666  25.802  29.510  1.00  0.00    -0.206 F 
ATOM     52  C   UNL A   1      51.337  25.580  27.877  1.00  0.00     0.040 A 
ATOM     53  C   UNL A   1      50.815  25.961  25.560  1.00  0.00     0.040 A 
ATOM     54  F   UNL A   1      48.653  26.604  24.935  1.00  0.00    -0.206 F 
ATOM     55  C   UNL A   1      51.744  25.634  26.544  1.00  0.00     0.006 A 
ENDBRANCH  27  48
BRANCH  39  56
ATOM     56  C   UNL A   1      46.026  32.271  28.870  1.00  0.00     0.057 A 
ATOM     57  C   UNL A   1      46.035  33.154  27.784  1.00  0.00     0.134 A 
ATOM     58  C   UNL A   1      46.488  32.743  30.104  1.00  0.00     0.134 A 
ATOM     59  F   UNL A   1      45.617  32.750  26.575  1.00  0.00    -0.206 F 
ATOM     60  C   UNL A   1      46.506  34.459  27.918  1.00  0.00     0.040 A 
ATOM     61  C   UNL A   1      46.931  34.056  30.257  1.00  0.00     0.040 A 
ATOM     62  F   UNL A   1      46.491  31.945  31.183  1.00  0.00    -0.206 F 
ATOM     63  C   UNL A   1      46.945  34.915  29.160  1.00  0.00     0.006 A 
ENDBRANCH  39  56
ENDBRANCH  13  14
ENDBRANCH   6   8
ENDBRANCH   5   6
ENDBRANCH   4   5
ENDBRANCH   3   4
ENDBRANCH   2   3
ENDBRANCH   1   2
BRANCH   1  64
ATOM     64  C   UNL A   1      35.598  22.483  24.690  1.00  0.00     0.261 C 
BRANCH  64  65
ATOM     65  O   UNL A   1      35.522  23.736  25.367  1.00  0.00    -0.462 OA
BRANCH  65  66
ATOM     66  C   UNL A   1      34.477  23.873  26.226  1.00  0.00     0.328 C 
ATOM     67  O   UNL A   1      34.204  23.127  27.155  1.00  0.00    -0.250 OA
BRANCH  66  68
ATOM     68  C   UNL A   1      33.660  25.099  25.845  1.00  0.00     0.195 C 
ATOM     69  C   UNL A   1      33.889  25.636  24.419  1.00  0.00     0.037 C 
ATOM     70  N   UNL A   1      32.229  25.141  26.218  1.00  0.00    -0.325 N 
ATOM     71  C   UNL A   1      33.279  27.028  24.256  1.00  0.00     0.008 C 
ATOM     72  C   UNL A   1      31.641  26.503  26.140  1.00  0.00     0.089 C 
ATOM     73  C   UNL A   1      31.808  27.037  24.705  1.00  0.00     0.012 C 
ATOM     74  C   UNL A   1      32.175  27.459  27.225  1.00  0.00     0.025 C 
ATOM     75  C   UNL A   1      31.170  28.419  24.605  1.00  0.00     0.006 C 
ATOM     76  C   UNL A   1      32.092  28.965  26.942  1.00  0.00     0.002 C 
ATOM     77  C   UNL A   1      31.851  29.434  25.508  1.00  0.00     0.000 C 
BRANCH  70  78
ATOM     78  C   UNL A   1      31.338  24.059  26.180  1.00  0.00     0.229 C 
ATOM     79  O   UNL A   1      30.844  23.612  27.224  1.00  0.00    -0.274 OA
BRANCH  78  80
ATOM     80  C   UNL A   1      31.010  23.317  24.882  1.00  0.00     0.155 C 
BRANCH  80  81
ATOM     81  C   UNL A   1      31.736  22.025  24.699  1.00  0.00     0.044 A 
ATOM     82  C   UNL A   1      32.230  21.347  23.605  1.00  0.00     0.045 A 
ATOM     83  N   UNL A   1      32.078  21.250  25.781  1.00  0.00    -0.282 N 
ATOM     84  C   UNL A   1      32.964  20.272  24.141  1.00  0.00     0.135 A 
ATOM     85  N   UNL A   1      32.866  20.207  25.470  1.00  0.00    -0.184 NA
ATOM     86  H   UNL A   1      31.776  21.442  26.697  1.00  0.00     0.190 HD
ENDBRANCH  80  81
ENDBRANCH  78  80
ENDBRANCH  70  78
ENDBRANCH  66  68
ENDBRANCH  65  66
ENDBRANCH  64  65
ENDBRANCH   1  64
TORSDOF 17
ENDMDL
MODEL 2
REMARK VINA RESULT:     -11.1      4.844      9.733
REMARK SMILES O=C(OCCOCCOC(=O)[C@H]1CC[C@@H]2CCCC[C@@H]2N1C(=O)Cc1ccn[nH]1)c1ccc(-c2c3nc(c(-c4c(F)cccc4F)c4ccc([nH]4)c(-c4c(F)cccc4F)c4nc(c(-c5c(F)cccc5F)c5ccc2[nH]5)C=C4)C=C3)cc1
REMARK SMILES IDX 7 1 6 2 5 3 4 4 3 5 2 6 1 7 30 8 31 9 83 10 32 11 82 12
REMARK SMILES IDX 33 13 34 14 35 15 76 16 36 17 81 18 75 19 77 20 37 21 80 22
REMARK SMILES IDX 74 23 73 24 38 26 64 27 47 28 63 29 48 30 51 31 62 32 78 33
REMARK SMILES IDX 49 34 50 35 61 37 79 38 52 39 39 40 40 41 45 42 41 43 42 44
REMARK SMILES IDX 44 45 46 46 43 47 65 48 66 49 71 50 67 51 68 52 70 53 72 54
REMARK SMILES IDX 69 55 53 56 54 57 59 58 55 59 56 60 58 61 60 62 57 63 8 64
REMARK SMILES IDX 9 65 10 66 11 67 12 68 13 69 21 70 14 71 20 72 15 73 19 74
REMARK SMILES IDX 16 75 18 76 17 77 22 78 23 79 24 80 25 81 26 82 29 83 27 84
REMARK SMILES IDX 28 85
REMARK H PARENT 77 25 51 36 29 86
REMARK Flexibility Score: inf
ROOT
ATOM      1  C   UNL A   1      31.792  28.842  27.390  1.00  0.00     0.202 C 
ENDROOT
BRANCH   1   2
ATOM      2  O   UNL A   1      32.823  29.836  27.362  1.00  0.00    -0.374 OA
BRANCH   2   3
ATOM      3  C   UNL A   1      32.606  30.978  26.541  1.00  0.00     0.202 C 
BRANCH   3   4
ATOM      4  C   UNL A   1      31.703  32.035  27.178  1.00  0.00     0.261 C 
BRANCH   4   5
ATOM      5  O   UNL A   1      32.311  33.332  27.105  1.00  0.00    -0.460 OA
BRANCH   5   6
ATOM      6  C   UNL A   1      32.980  33.994  28.077  1.00  0.00     0.338 C 
ATOM      7  O   UNL A   1      32.537  35.080  28.450  1.00  0.00    -0.246 OA
BRANCH   6   8
ATOM      8  C   UNL A   1      34.253  33.517  28.709  1.00  0.00     0.060 A 
ATOM      9  C   UNL A   1      35.542  33.915  28.344  1.00  0.00     0.016 A 
ATOM     10  C   UNL A   1      34.122  32.694  29.841  1.00  0.00     0.016 A 
ATOM     11  C   UNL A   1      36.656  33.557  29.076  1.00  0.00     0.010 A 
ATOM     12  C   UNL A   1      35.243  32.298  30.573  1.00  0.00     0.010 A 
ATOM     13  C   UNL A   1      36.509  32.740  30.185  1.00  0.00    -0.014 A 
BRANCH  13  14
ATOM     14  C   UNL A   1      37.745  32.240  30.790  1.00  0.00     0.031 A 
ATOM     15  C   UNL A   1      38.445  31.127  30.084  1.00  0.00     0.074 A 
ATOM     16  C   UNL A   1      38.290  32.902  31.824  1.00  0.00     0.049 A 
ATOM     17  N   UNL A   1      39.505  30.461  30.442  1.00  0.00    -0.248 NA
ATOM     18  C   UNL A   1      37.885  30.720  28.780  1.00  0.00     0.031 C 
ATOM     19  C   UNL A   1      37.744  34.120  32.431  1.00  0.00     0.029 A 
ATOM     20  N   UNL A   1      39.434  32.660  32.531  1.00  0.00    -0.354 N 
ATOM     21  C   UNL A   1      39.713  29.531  29.433  1.00  0.00     0.074 A 
ATOM     22  C   UNL A   1      38.691  29.731  28.433  1.00  0.00     0.031 C 
ATOM     23  C   UNL A   1      38.552  34.511  33.431  1.00  0.00     0.029 A 
ATOM     24  C   UNL A   1      39.621  33.531  33.578  1.00  0.00     0.049 A 
ATOM     25  H   UNL A   1      40.062  31.935  32.312  1.00  0.00     0.167 HD
ATOM     26  C   UNL A   1      40.669  28.579  29.381  1.00  0.00     0.037 A 
ATOM     27  C   UNL A   1      40.525  33.480  34.572  1.00  0.00     0.037 A 
ATOM     28  C   UNL A   1      41.661  28.426  30.406  1.00  0.00     0.049 A 
ATOM     29  C   UNL A   1      41.500  32.331  34.554  1.00  0.00     0.074 A 
ATOM     30  C   UNL A   1      42.649  27.469  30.519  1.00  0.00     0.029 A 
ATOM     31  N   UNL A   1      41.778  29.267  31.506  1.00  0.00    -0.354 N 
ATOM     32  N   UNL A   1      41.658  31.396  33.644  1.00  0.00    -0.248 NA
ATOM     33  C   UNL A   1      42.399  32.207  35.706  1.00  0.00     0.031 C 
ATOM     34  C   UNL A   1      43.328  27.698  31.720  1.00  0.00     0.029 A 
ATOM     35  C   UNL A   1      42.801  28.832  32.324  1.00  0.00     0.049 A 
ATOM     36  H   UNL A   1      41.215  30.056  31.676  1.00  0.00     0.167 HD
ATOM     37  C   UNL A   1      42.681  30.580  34.106  1.00  0.00     0.074 A 
ATOM     38  C   UNL A   1      43.126  31.153  35.364  1.00  0.00     0.031 C 
ATOM     39  C   UNL A   1      43.204  29.455  33.560  1.00  0.00     0.037 A 
BRANCH  26  40
ATOM     40  C   UNL A   1      40.600  27.595  28.255  1.00  0.00     0.057 A 
ATOM     41  C   UNL A   1      41.270  27.788  27.041  1.00  0.00     0.134 A 
ATOM     42  C   UNL A   1      39.824  26.437  28.390  1.00  0.00     0.134 A 
ATOM     43  F   UNL A   1      41.997  28.896  26.833  1.00  0.00    -0.206 F 
ATOM     44  C   UNL A   1      41.161  26.866  25.996  1.00  0.00     0.040 A 
ATOM     45  C   UNL A   1      39.725  25.498  27.362  1.00  0.00     0.040 A 
ATOM     46  F   UNL A   1      39.139  26.203  29.519  1.00  0.00    -0.206 F 
ATOM     47  C   UNL A   1      40.393  25.714  26.159  1.00  0.00     0.006 A 
ENDBRANCH  26  40
BRANCH  27  48
ATOM     48  C   UNL A   1      40.486  34.449  35.701  1.00  0.00     0.057 A 
ATOM     49  C   UNL A   1      39.695  34.229  36.834  1.00  0.00     0.134 A 
ATOM     50  C   UNL A   1      41.194  35.660  35.645  1.00  0.00     0.134 A 
ATOM     51  F   UNL A   1      38.976  33.102  36.947  1.00  0.00    -0.206 F 
ATOM     52  C   UNL A   1      39.579  35.185  37.847  1.00  0.00     0.040 A 
ATOM     53  C   UNL A   1      41.115  36.609  36.665  1.00  0.00     0.040 A 
ATOM     54  F   UNL A   1      41.972  35.944  34.590  1.00  0.00    -0.206 F 
ATOM     55  C   UNL A   1      40.292  36.379  37.764  1.00  0.00     0.006 A 
ENDBRANCH  27  48
BRANCH  39  56
ATOM     56  C   UNL A   1      44.322  28.801  34.313  1.00  0.00     0.057 A 
ATOM     57  C   UNL A   1      45.654  29.193  34.135  1.00  0.00     0.134 A 
ATOM     58  C   UNL A   1      44.049  27.817  35.269  1.00  0.00     0.134 A 
ATOM     59  F   UNL A   1      45.974  30.122  33.222  1.00  0.00    -0.206 F 
ATOM     60  C   UNL A   1      46.682  28.611  34.874  1.00  0.00     0.040 A 
ATOM     61  C   UNL A   1      45.065  27.251  36.037  1.00  0.00     0.040 A 
ATOM     62  F   UNL A   1      42.789  27.411  35.491  1.00  0.00    -0.206 F 
ATOM     63  C   UNL A   1      46.387  27.646  35.835  1.00  0.00     0.006 A 
ENDBRANCH  39  56
ENDBRANCH  13  14
ENDBRANCH   6   8
ENDBRANCH   5   6
ENDBRANCH   4   5
ENDBRANCH   3   4
ENDBRANCH   2   3
ENDBRANCH   1   2
BRANCH   1  64
ATOM     64  C   UNL A   1      31.860  28.086  26.076  1.00  0.00     0.261 C 
BRANCH  64  65
ATOM     65  O   UNL A   1      32.871  27.099  26.269  1.00  0.00    -0.462 OA
BRANCH  65  66
ATOM     66  C   UNL A   1      33.696  26.893  25.207  1.00  0.00     0.328 C 
ATOM     67  O   UNL A   1      34.082  27.744  24.419  1.00  0.00    -0.250 OA
BRANCH  66  68
ATOM     68  C   UNL A   1      34.058  25.418  25.120  1.00  0.00     0.195 C 
ATOM     69  C   UNL A   1      33.354  24.498  26.135  1.00  0.00     0.037 C 
ATOM     70  N   UNL A   1      34.146  24.788  23.785  1.00  0.00    -0.325 N 
ATOM     71  C   UNL A   1      34.019  23.122  26.175  1.00  0.00     0.008 C 
ATOM     72  C   UNL A   1      34.860  23.485  23.795  1.00  0.00     0.089 C 
ATOM     73  C   UNL A   1      34.137  22.528  24.762  1.00  0.00     0.012 C 
ATOM     74  C   UNL A   1      36.371  23.621  24.068  1.00  0.00     0.025 C 
ATOM     75  C   UNL A   1      34.840  21.174  24.748  1.00  0.00     0.006 C 
ATOM     76  C   UNL A   1      37.098  22.396  24.637  1.00  0.00     0.002 C 
ATOM     77  C   UNL A   1      36.273  21.264  25.245  1.00  0.00     0.000 C 
BRANCH  70  78
ATOM     78  C   UNL A   1      33.293  25.039  22.700  1.00  0.00     0.229 C 
ATOM     79  O   UNL A   1      33.733  25.530  21.652  1.00  0.00    -0.274 OA
BRANCH  78  80
ATOM     80  C   UNL A   1      31.780  24.818  22.783  1.00  0.00     0.155 C 
BRANCH  80  81
ATOM     81  C   UNL A   1      30.964  26.067  22.756  1.00  0.00     0.044 A 
ATOM     82  C   UNL A   1      29.843  26.498  23.434  1.00  0.00     0.045 A 
ATOM     83  N   UNL A   1      31.309  27.118  21.940  1.00  0.00    -0.282 N 
ATOM     84  C   UNL A   1      29.687  27.847  23.066  1.00  0.00     0.135 A 
ATOM     85  N   UNL A   1      30.577  28.225  22.146  1.00  0.00    -0.184 NA
ATOM     86  H   UNL A   1      32.026  27.064  21.268  1.00  0.00     0.190 HD
ENDBRANCH  80  81
ENDBRANCH  78  80
ENDBRANCH  70  78
ENDBRANCH  66  68
ENDBRANCH  65  66
ENDBRANCH  64  65
ENDBRANCH   1  64
TORSDOF 17
ENDMDL
MODEL 3
REMARK VINA RESULT:     -11.0      0.748      1.629
REMARK SMILES O=C(OCCOCCOC(=O)[C@H]1CC[C@@H]2CCCC[C@@H]2N1C(=O)Cc1ccn[nH]1)c1ccc(-c2c3nc(c(-c4c(F)cccc4F)c4ccc([nH]4)c(-c4c(F)cccc4F)c4nc(c(-c5c(F)cccc5F)c5ccc2[nH]5)C=C4)C=C3)cc1
REMARK SMILES IDX 7 1 6 2 5 3 4 4 3 5 2 6 1 7 30 8 31 9 83 10 32 11 82 12
REMARK SMILES IDX 33 13 34 14 35 15 76 16 36 17 81 18 75 19 77 20 37 21 80 22
REMARK SMILES IDX 74 23 73 24 38 26 64 27 47 28 63 29 48 30 51 31 62 32 78 33
REMARK SMILES IDX 49 34 50 35 61 37 79 38 52 39 39 40 40 41 45 42 41 43 42 44
REMARK SMILES IDX 44 45 46 46 43 47 65 48 66 49 71 50 67 51 68 52 70 53 72 54
REMARK SMILES IDX 69 55 53 56 54 57 59 58 55 59 56 60 58 61 60 62 57 63 8 64
REMARK SMILES IDX 9 65 10 66 11 67 12 68 13 69 21 70 14 71 20 72 15 73 19 74
REMARK SMILES IDX 16 75 18 76 17 77 22 78 23 79 24 80 25 81 26 82 29 83 27 84
REMARK SMILES IDX 28 85
REMARK H PARENT 77 25 51 36 29 86
REMARK Flexibility Score: inf
ROOT
ATOM      1  C   UNL A   1      37.004  21.154  24.831  1.00  0.00     0.202 C 
ENDROOT
BRANCH   1   2
ATOM      2  O   UNL A   1      38.000  21.879  25.565  1.00  0.00    -0.374 OA
BRANCH   2   3
ATOM      3  C   UNL A   1      39.125  21.146  26.038  1.00  0.00     0.202 C 
BRANCH   3   4
ATOM      4  C   UNL A   1      39.294  19.778  25.376  1.00  0.00     0.261 C 
BRANCH   4   5
ATOM      5  O   UNL A   1      40.390  19.063  25.964  1.00  0.00    -0.460 OA
BRANCH   5   6
ATOM      6  C   UNL A   1      41.698  19.409  25.978  1.00  0.00     0.338 C 
ATOM      7  O   UNL A   1      42.531  18.535  25.742  1.00  0.00    -0.246 OA
BRANCH   6   8
ATOM      8  C   UNL A   1      42.210  20.780  26.301  1.00  0.00     0.060 A 
ATOM      9  C   UNL A   1      42.504  21.779  25.369  1.00  0.00     0.016 A 
ATOM     10  C   UNL A   1      42.282  21.119  27.662  1.00  0.00     0.016 A 
ATOM     11  C   UNL A   1      42.819  23.068  25.748  1.00  0.00     0.010 A 
ATOM     12  C   UNL A   1      42.629  22.411  28.063  1.00  0.00     0.010 A 
ATOM     13  C   UNL A   1      42.891  23.383  27.096  1.00  0.00    -0.014 A 
BRANCH  13  14
ATOM     14  C   UNL A   1      43.422  24.707  27.424  1.00  0.00     0.031 A 
ATOM     15  C   UNL A   1      42.458  25.712  27.961  1.00  0.00     0.074 A 
ATOM     16  C   UNL A   1      44.750  24.910  27.408  1.00  0.00     0.049 A 
ATOM     17  N   UNL A   1      42.652  26.964  28.259  1.00  0.00    -0.248 NA
ATOM     18  C   UNL A   1      41.086  25.233  28.221  1.00  0.00     0.031 C 
ATOM     19  C   UNL A   1      45.756  23.896  27.078  1.00  0.00     0.029 A 
ATOM     20  N   UNL A   1      45.483  26.025  27.700  1.00  0.00    -0.354 N 
ATOM     21  C   UNL A   1      41.422  27.433  28.697  1.00  0.00     0.074 A 
ATOM     22  C   UNL A   1      40.491  26.331  28.657  1.00  0.00     0.031 C 
ATOM     23  C   UNL A   1      46.978  24.444  27.174  1.00  0.00     0.029 A 
ATOM     24  C   UNL A   1      46.831  25.858  27.497  1.00  0.00     0.049 A 
ATOM     25  H   UNL A   1      45.084  26.865  28.024  1.00  0.00     0.167 HD
ATOM     26  C   UNL A   1      41.112  28.693  29.072  1.00  0.00     0.037 A 
ATOM     27  C   UNL A   1      47.811  26.779  27.510  1.00  0.00     0.037 A 
ATOM     28  C   UNL A   1      42.079  29.752  29.093  1.00  0.00     0.049 A 
ATOM     29  C   UNL A   1      47.412  28.202  27.807  1.00  0.00     0.074 A 
ATOM     30  C   UNL A   1      41.896  31.088  29.387  1.00  0.00     0.029 A 
ATOM     31  N   UNL A   1      43.426  29.579  28.796  1.00  0.00    -0.354 N 
ATOM     32  N   UNL A   1      46.234  28.675  28.149  1.00  0.00    -0.248 NA
ATOM     33  C   UNL A   1      48.459  29.222  27.695  1.00  0.00     0.031 C 
ATOM     34  C   UNL A   1      43.123  31.734  29.212  1.00  0.00     0.029 A 
ATOM     35  C   UNL A   1      44.083  30.791  28.867  1.00  0.00     0.049 A 
ATOM     36  H   UNL A   1      43.849  28.720  28.570  1.00  0.00     0.167 HD
ATOM     37  C   UNL A   1      46.400  30.043  28.303  1.00  0.00     0.074 A 
ATOM     38  C   UNL A   1      47.803  30.317  28.049  1.00  0.00     0.031 C 
ATOM     39  C   UNL A   1      45.487  30.997  28.613  1.00  0.00     0.037 A 
BRANCH  26  40
ATOM     40  C   UNL A   1      39.675  28.989  29.368  1.00  0.00     0.057 A 
ATOM     41  C   UNL A   1      39.131  28.887  30.653  1.00  0.00     0.134 A 
ATOM     42  C   UNL A   1      38.814  29.365  28.329  1.00  0.00     0.134 A 
ATOM     43  F   UNL A   1      39.892  28.491  31.685  1.00  0.00    -0.206 F 
ATOM     44  C   UNL A   1      37.778  29.140  30.894  1.00  0.00     0.040 A 
ATOM     45  C   UNL A   1      37.465  29.642  28.559  1.00  0.00     0.040 A 
ATOM     46  F   UNL A   1      39.267  29.461  27.070  1.00  0.00    -0.206 F 
ATOM     47  C   UNL A   1      36.943  29.526  29.845  1.00  0.00     0.006 A 
ENDBRANCH  26  40
BRANCH  27  48
ATOM     48  C   UNL A   1      49.207  26.427  27.131  1.00  0.00     0.057 A 
ATOM     49  C   UNL A   1      49.632  26.435  25.798  1.00  0.00     0.134 A 
ATOM     50  C   UNL A   1      50.138  26.007  28.093  1.00  0.00     0.134 A 
ATOM     51  F   UNL A   1      48.790  26.808  24.822  1.00  0.00    -0.206 F 
ATOM     52  C   UNL A   1      50.912  26.007  25.432  1.00  0.00     0.040 A 
ATOM     53  C   UNL A   1      51.429  25.609  27.746  1.00  0.00     0.040 A 
ATOM     54  F   UNL A   1      49.803  25.970  29.391  1.00  0.00    -0.206 F 
ATOM     55  C   UNL A   1      51.815  25.593  26.409  1.00  0.00     0.006 A 
ENDBRANCH  27  48
BRANCH  39  56
ATOM     56  C   UNL A   1      45.993  32.402  28.713  1.00  0.00     0.057 A 
ATOM     57  C   UNL A   1      46.514  32.912  29.908  1.00  0.00     0.134 A 
ATOM     58  C   UNL A   1      46.016  33.228  27.584  1.00  0.00     0.134 A 
ATOM     59  F   UNL A   1      46.505  32.169  31.026  1.00  0.00    -0.206 F 
ATOM     60  C   UNL A   1      47.025  34.206  29.981  1.00  0.00     0.040 A 
ATOM     61  C   UNL A   1      46.554  34.512  27.635  1.00  0.00     0.040 A 
ATOM     62  F   UNL A   1      45.540  32.789  26.407  1.00  0.00    -0.206 F 
ATOM     63  C   UNL A   1      47.056  35.005  28.839  1.00  0.00     0.006 A 
ENDBRANCH  39  56
ENDBRANCH  13  14
ENDBRANCH   6   8
ENDBRANCH   5   6
ENDBRANCH   4   5
ENDBRANCH   3   4
ENDBRANCH   2   3
ENDBRANCH   1   2
BRANCH   1  64
ATOM     64  C   UNL A   1      35.744  21.142  25.676  1.00  0.00     0.261 C 
BRANCH  64  65
ATOM     65  O   UNL A   1      35.679  22.440  26.263  1.00  0.00    -0.462 OA
BRANCH  65  66
ATOM     66  C   UNL A   1      34.498  22.753  26.861  1.00  0.00     0.328 C 
ATOM     67  O   UNL A   1      34.027  22.213  27.851  1.00  0.00    -0.250 OA
BRANCH  66  68
ATOM     68  C   UNL A   1      33.819  23.876  26.093  1.00  0.00     0.195 C 
ATOM     69  C   UNL A   1      34.655  24.515  24.967  1.00  0.00     0.037 C 
ATOM     70  N   UNL A   1      32.406  23.706  25.690  1.00  0.00    -0.325 N 
ATOM     71  C   UNL A   1      34.017  25.819  24.488  1.00  0.00     0.008 C 
ATOM     72  C   UNL A   1      31.748  24.978  25.296  1.00  0.00     0.089 C 
ATOM     73  C   UNL A   1      32.536  25.607  24.131  1.00  0.00     0.012 C 
ATOM     74  C   UNL A   1      31.520  25.937  26.481  1.00  0.00     0.025 C 
ATOM     75  C   UNL A   1      31.845  26.894  23.692  1.00  0.00     0.006 C 
ATOM     76  C   UNL A   1      31.376  27.431  26.162  1.00  0.00     0.002 C 
ATOM     77  C   UNL A   1      31.825  27.940  24.794  1.00  0.00     0.000 C 
BRANCH  70  78
ATOM     78  C   UNL A   1      31.820  22.517  25.230  1.00  0.00     0.229 C 
ATOM     79  O   UNL A   1      30.797  22.070  25.765  1.00  0.00    -0.274 OA
BRANCH  78  80
ATOM     80  C   UNL A   1      32.457  21.666  24.128  1.00  0.00     0.155 C 
BRANCH  80  81
ATOM     81  C   UNL A   1      32.449  20.196  24.389  1.00  0.00     0.044 A 
ATOM     82  C   UNL A   1      32.516  19.077  23.586  1.00  0.00     0.045 A 
ATOM     83  N   UNL A   1      32.396  19.709  25.672  1.00  0.00    -0.282 N 
ATOM     84  C   UNL A   1      32.641  17.995  24.476  1.00  0.00     0.135 A 
ATOM     85  N   UNL A   1      32.559  18.377  25.752  1.00  0.00    -0.184 NA
ATOM     86  H   UNL A   1      32.252  20.281  26.460  1.00  0.00     0.190 HD
ENDBRANCH  80  81
ENDBRANCH  78  80
ENDBRANCH  70  78
ENDBRANCH  66  68
ENDBRANCH  65  66
ENDBRANCH  64  65
ENDBRANCH   1  64
TORSDOF 17
ENDMDL
