MODEL 1
REMARK VINA RESULT:      -9.6      0.000      0.000
REMARK SMILES CN(CCO)C(=O)N[C@H]1C=C[C@@H](C(=O)OCCOCCOC(=O)c2ccc(-c3c4nc(c(-c5c(F)cccc5F)c5ccc([nH]5)c(-c5c(F)cccc5F)c5nc(c(-c6c(F)cccc6F)c6ccc3[nH]6)C=C5)C=C4)cc2)C1
REMARK SMILES IDX 16 1 15 2 13 3 14 4 12 5 9 6 10 7 78 8 11 9 8 10 6 11 7 12
REMARK SMILES IDX 2 14 1 15 3 16 4 17 5 18 17 20 18 21 19 22 20 23 21 24 22 25
REMARK SMILES IDX 23 26 24 27 25 28 77 29 26 30 76 31 27 32 28 33 29 34 70 35
REMARK SMILES IDX 30 36 75 37 69 38 71 39 31 40 74 41 68 42 67 43 32 45 58 46
REMARK SMILES IDX 41 47 57 48 42 49 45 50 56 51 72 52 43 53 44 54 55 56 73 57
REMARK SMILES IDX 46 58 33 59 34 60 39 61 35 62 36 63 38 64 40 65 37 66 59 67
REMARK SMILES IDX 60 68 65 69 61 70 62 71 64 72 66 73 63 74 47 75 48 76 53 77
REMARK SMILES IDX 49 78 50 79 52 80 54 81 51 82
REMARK H PARENT 8 13 5 19 71 44 45 55
REMARK Flexibility Score: inf
ROOT
ATOM      1  C   UNL A   1      41.979  19.272  26.675  1.00  0.00     0.261 C 
ENDROOT
BRANCH   1   2
ATOM      2  O   UNL A   1      41.066  20.130  25.970  1.00  0.00    -0.463 OA
BRANCH   2   3
ATOM      3  C   UNL A   1      40.473  21.116  26.689  1.00  0.00     0.312 C 
ATOM      4  O   UNL A   1      40.692  21.345  27.873  1.00  0.00    -0.252 OA
BRANCH   3   5
ATOM      5  C   UNL A   1      39.487  21.933  25.861  1.00  0.00     0.124 C 
ATOM      6  C   UNL A   1      37.044  22.305  25.656  1.00  0.00     0.107 C 
ATOM      7  C   UNL A   1      37.757  23.428  26.358  1.00  0.00    -0.006 C 
ATOM      8  C   UNL A   1      38.151  21.252  25.551  1.00  0.00     0.048 C 
ATOM      9  C   UNL A   1      39.070  23.212  26.502  1.00  0.00    -0.014 C 
BRANCH   6  10
ATOM     10  N   UNL A   1      35.927  21.912  26.502  1.00  0.00    -0.332 N 
ATOM     11  C   UNL A   1      34.588  21.902  26.479  1.00  0.00     0.317 C 
ATOM     12  O   UNL A   1      34.070  21.454  27.508  1.00  0.00    -0.249 OA
ATOM     13  H   UNL A   1      36.257  21.540  27.352  1.00  0.00     0.165 HD
BRANCH  11  14
ATOM     14  N   UNL A   1      33.819  22.343  25.439  1.00  0.00    -0.326 N 
ATOM     15  C   UNL A   1      33.243  23.680  25.560  1.00  0.00     0.148 C 
BRANCH  14  16
ATOM     16  C   UNL A   1      33.482  21.658  24.192  1.00  0.00     0.149 C 
BRANCH  16  17
ATOM     17  C   UNL A   1      32.166  20.879  24.211  1.00  0.00     0.177 C 
BRANCH  17  18
ATOM     18  O   UNL A   1      32.012  20.082  25.376  1.00  0.00    -0.395 OA
ATOM     19  H   UNL A   1      32.589  20.421  26.079  1.00  0.00     0.210 HD
ENDBRANCH  17  18
ENDBRANCH  16  17
ENDBRANCH  14  16
ENDBRANCH  11  14
ENDBRANCH   6  10
ENDBRANCH   3   5
ENDBRANCH   2   3
ENDBRANCH   1   2
BRANCH   1  20
ATOM     20  C   UNL A   1      43.183  18.964  25.782  1.00  0.00     0.202 C 
BRANCH  20  21
ATOM     21  O   UNL A   1      43.419  19.931  24.753  1.00  0.00    -0.374 OA
BRANCH  21  22
ATOM     22  C   UNL A   1      44.663  20.630  24.814  1.00  0.00     0.202 C 
BRANCH  22  23
ATOM     23  C   UNL A   1      44.683  21.836  25.760  1.00  0.00     0.261 C 
BRANCH  23  24
ATOM     24  O   UNL A   1      43.508  22.655  25.598  1.00  0.00    -0.460 OA
BRANCH  24  25
ATOM     25  C   UNL A   1      43.752  23.960  25.346  1.00  0.00     0.338 C 
ATOM     26  O   UNL A   1      43.993  24.472  24.257  1.00  0.00    -0.246 OA
BRANCH  25  27
ATOM     27  C   UNL A   1      43.525  24.769  26.555  1.00  0.00     0.060 A 
ATOM     28  C   UNL A   1      42.647  24.257  27.518  1.00  0.00     0.016 A 
ATOM     29  C   UNL A   1      44.089  26.038  26.713  1.00  0.00     0.016 A 
ATOM     30  C   UNL A   1      42.289  25.032  28.621  1.00  0.00     0.010 A 
ATOM     31  C   UNL A   1      43.721  26.817  27.817  1.00  0.00     0.010 A 
ATOM     32  C   UNL A   1      42.794  26.332  28.758  1.00  0.00    -0.014 A 
BRANCH  32  33
ATOM     33  C   UNL A   1      42.246  27.219  29.815  1.00  0.00     0.031 A 
ATOM     34  C   UNL A   1      42.898  27.238  31.171  1.00  0.00     0.074 A 
ATOM     35  C   UNL A   1      41.205  28.030  29.560  1.00  0.00     0.049 A 
ATOM     36  N   UNL A   1      42.582  27.934  32.233  1.00  0.00    -0.248 NA
ATOM     37  C   UNL A   1      44.062  26.356  31.351  1.00  0.00     0.031 C 
ATOM     38  C   UNL A   1      40.505  28.133  28.282  1.00  0.00     0.029 A 
ATOM     39  N   UNL A   1      40.553  28.923  30.375  1.00  0.00    -0.354 N 
ATOM     40  C   UNL A   1      43.503  27.573  33.208  1.00  0.00     0.074 A 
ATOM     41  C   UNL A   1      44.373  26.577  32.621  1.00  0.00     0.031 C 
ATOM     42  C   UNL A   1      39.516  29.036  28.397  1.00  0.00     0.029 A 
ATOM     43  C   UNL A   1      39.497  29.554  29.765  1.00  0.00     0.049 A 
ATOM     44  H   UNL A   1      40.818  29.097  31.307  1.00  0.00     0.167 HD
ATOM     45  C   UNL A   1      43.619  28.035  34.477  1.00  0.00     0.037 A 
ATOM     46  C   UNL A   1      38.605  30.434  30.258  1.00  0.00     0.037 A 
ATOM     47  C   UNL A   1      42.761  29.029  35.064  1.00  0.00     0.049 A 
ATOM     48  C   UNL A   1      38.715  30.881  31.692  1.00  0.00     0.074 A 
ATOM     49  C   UNL A   1      42.824  29.582  36.332  1.00  0.00     0.029 A 
ATOM     50  N   UNL A   1      41.678  29.612  34.426  1.00  0.00    -0.354 N 
ATOM     51  N   UNL A   1      39.609  30.559  32.594  1.00  0.00    -0.248 NA
ATOM     52  C   UNL A   1      37.686  31.816  32.175  1.00  0.00     0.031 C 
ATOM     53  C   UNL A   1      41.751  30.470  36.476  1.00  0.00     0.029 A 
ATOM     54  C   UNL A   1      41.047  30.499  35.283  1.00  0.00     0.049 A 
ATOM     55  H   UNL A   1      41.398  29.424  33.502  1.00  0.00     0.167 HD
ATOM     56  C   UNL A   1      39.269  31.267  33.740  1.00  0.00     0.074 A 
ATOM     57  C   UNL A   1      38.091  32.045  33.416  1.00  0.00     0.031 C 
ATOM     58  C   UNL A   1      39.879  31.272  34.950  1.00  0.00     0.037 A 
BRANCH  45  59
ATOM     59  C   UNL A   1      44.708  27.451  35.326  1.00  0.00     0.057 A 
ATOM     60  C   UNL A   1      45.986  28.023  35.386  1.00  0.00     0.134 A 
ATOM     61  C   UNL A   1      44.464  26.325  36.123  1.00  0.00     0.134 A 
ATOM     62  F   UNL A   1      46.286  29.095  34.638  1.00  0.00    -0.206 F 
ATOM     63  C   UNL A   1      46.987  27.485  36.196  1.00  0.00     0.040 A 
ATOM     64  C   UNL A   1      45.451  25.792  36.953  1.00  0.00     0.040 A 
ATOM     65  F   UNL A   1      43.261  25.733  36.115  1.00  0.00    -0.206 F 
ATOM     66  C   UNL A   1      46.719  26.369  36.987  1.00  0.00     0.006 A 
ENDBRANCH  45  59
BRANCH  46  67
ATOM     67  C   UNL A   1      37.514  30.949  29.394  1.00  0.00     0.057 A 
ATOM     68  C   UNL A   1      37.572  32.232  28.839  1.00  0.00     0.134 A 
ATOM     69  C   UNL A   1      36.377  30.178  29.122  1.00  0.00     0.134 A 
ATOM     70  F   UNL A   1      38.624  33.027  29.086  1.00  0.00    -0.206 F 
ATOM     71  C   UNL A   1      36.532  32.737  28.057  1.00  0.00     0.040 A 
ATOM     72  C   UNL A   1      35.341  30.661  28.324  1.00  0.00     0.040 A 
ATOM     73  F   UNL A   1      36.261  28.942  29.628  1.00  0.00    -0.206 F 
ATOM     74  C   UNL A   1      35.414  31.948  27.793  1.00  0.00     0.006 A 
ENDBRANCH  46  67
BRANCH  58  75
ATOM     75  C   UNL A   1      39.304  32.168  36.007  1.00  0.00     0.057 A 
ATOM     76  C   UNL A   1      39.750  33.484  36.182  1.00  0.00     0.134 A 
ATOM     77  C   UNL A   1      38.261  31.723  36.831  1.00  0.00     0.134 A 
ATOM     78  F   UNL A   1      40.753  33.966  35.434  1.00  0.00    -0.206 F 
ATOM     79  C   UNL A   1      39.193  34.319  37.152  1.00  0.00     0.040 A 
ATOM     80  C   UNL A   1      37.681  32.556  37.788  1.00  0.00     0.040 A 
ATOM     81  F   UNL A   1      37.781  30.476  36.709  1.00  0.00    -0.206 F 
ATOM     82  C   UNL A   1      38.149  33.857  37.954  1.00  0.00     0.006 A 
ENDBRANCH  58  75
ENDBRANCH  32  33
ENDBRANCH  25  27
ENDBRANCH  24  25
ENDBRANCH  23  24
ENDBRANCH  22  23
ENDBRANCH  21  22
ENDBRANCH  20  21
ENDBRANCH   1  20
TORSDOF 19
ENDMDL
MODEL 2
REMARK VINA RESULT:      -9.5      4.908      9.507
REMARK SMILES CN(CCO)C(=O)N[C@H]1C=C[C@@H](C(=O)OCCOCCOC(=O)c2ccc(-c3c4nc(c(-c5c(F)cccc5F)c5ccc([nH]5)c(-c5c(F)cccc5F)c5nc(c(-c6c(F)cccc6F)c6ccc3[nH]6)C=C5)C=C4)cc2)C1
REMARK SMILES IDX 16 1 15 2 13 3 14 4 12 5 9 6 10 7 78 8 11 9 8 10 6 11 7 12
REMARK SMILES IDX 2 14 1 15 3 16 4 17 5 18 17 20 18 21 19 22 20 23 21 24 22 25
REMARK SMILES IDX 23 26 24 27 25 28 77 29 26 30 76 31 27 32 28 33 29 34 70 35
REMARK SMILES IDX 30 36 75 37 69 38 71 39 31 40 74 41 68 42 67 43 32 45 58 46
REMARK SMILES IDX 41 47 57 48 42 49 45 50 56 51 72 52 43 53 44 54 55 56 73 57
REMARK SMILES IDX 46 58 33 59 34 60 39 61 35 62 36 63 38 64 40 65 37 66 59 67
REMARK SMILES IDX 60 68 65 69 61 70 62 71 64 72 66 73 63 74 47 75 48 76 53 77
REMARK SMILES IDX 49 78 50 79 52 80 54 81 51 82
REMARK H PARENT 8 13 5 19 71 44 45 55
REMARK Flexibility Score: inf
ROOT
ATOM      1  C   UNL A   1      31.681  28.623  26.616  1.00  0.00     0.261 C 
ENDROOT
BRANCH   1   2
ATOM      2  O   UNL A   1      32.113  27.432  25.936  1.00  0.00    -0.463 OA
BRANCH   2   3
ATOM      3  C   UNL A   1      31.160  26.719  25.285  1.00  0.00     0.312 C 
ATOM      4  O   UNL A   1      30.589  25.735  25.743  1.00  0.00    -0.252 OA
BRANCH   3   5
ATOM      5  C   UNL A   1      30.858  27.274  23.897  1.00  0.00     0.124 C 
ATOM      6  C   UNL A   1      29.230  28.768  22.774  1.00  0.00     0.107 C 
ATOM      7  C   UNL A   1      30.567  29.417  23.006  1.00  0.00    -0.006 C 
ATOM      8  C   UNL A   1      29.376  27.466  23.564  1.00  0.00     0.048 C 
ATOM      9  C   UNL A   1      31.435  28.625  23.645  1.00  0.00    -0.014 C 
BRANCH   6  10
ATOM     10  N   UNL A   1      28.218  29.674  23.298  1.00  0.00    -0.332 N 
ATOM     11  C   UNL A   1      27.860  30.961  23.209  1.00  0.00     0.317 C 
ATOM     12  O   UNL A   1      26.880  31.260  23.900  1.00  0.00    -0.249 OA
ATOM     13  H   UNL A   1      27.610  29.191  23.904  1.00  0.00     0.165 HD
BRANCH  11  14
ATOM     14  N   UNL A   1      28.494  31.899  22.443  1.00  0.00    -0.326 N 
ATOM     15  C   UNL A   1      29.045  33.059  23.138  1.00  0.00     0.148 C 
BRANCH  14  16
ATOM     16  C   UNL A   1      28.708  31.911  20.997  1.00  0.00     0.149 C 
BRANCH  16  17
ATOM     17  C   UNL A   1      27.502  32.350  20.163  1.00  0.00     0.177 C 
BRANCH  17  18
ATOM     18  O   UNL A   1      27.246  33.743  20.253  1.00  0.00    -0.395 OA
ATOM     19  H   UNL A   1      26.768  33.932  21.076  1.00  0.00     0.210 HD
ENDBRANCH  17  18
ENDBRANCH  16  17
ENDBRANCH  14  16
ENDBRANCH  11  14
ENDBRANCH   6  10
ENDBRANCH   3   5
ENDBRANCH   2   3
ENDBRANCH   1   2
BRANCH   1  20
ATOM     20  C   UNL A   1      32.904  29.438  27.042  1.00  0.00     0.202 C 
BRANCH  20  21
ATOM     21  O   UNL A   1      32.931  30.775  26.532  1.00  0.00    -0.374 OA
BRANCH  21  22
ATOM     22  C   UNL A   1      31.743  31.548  26.713  1.00  0.00     0.202 C 
BRANCH  22  23
ATOM     23  C   UNL A   1      31.962  33.064  26.782  1.00  0.00     0.261 C 
BRANCH  23  24
ATOM     24  O   UNL A   1      32.245  33.497  28.126  1.00  0.00    -0.460 OA
BRANCH  24  25
ATOM     25  C   UNL A   1      33.345  34.271  28.257  1.00  0.00     0.338 C 
ATOM     26  O   UNL A   1      33.391  35.498  28.265  1.00  0.00    -0.246 OA
BRANCH  25  27
ATOM     27  C   UNL A   1      34.523  33.445  28.569  1.00  0.00     0.060 A 
ATOM     28  C   UNL A   1      34.308  32.256  29.278  1.00  0.00     0.016 A 
ATOM     29  C   UNL A   1      35.820  33.856  28.254  1.00  0.00     0.016 A 
ATOM     30  C   UNL A   1      35.392  31.497  29.717  1.00  0.00     0.010 A 
ATOM     31  C   UNL A   1      36.908  33.097  28.704  1.00  0.00     0.010 A 
ATOM     32  C   UNL A   1      36.700  31.933  29.467  1.00  0.00    -0.014 A 
BRANCH  32  33
ATOM     33  C   UNL A   1      37.838  31.235  30.116  1.00  0.00     0.031 A 
ATOM     34  C   UNL A   1      38.149  31.519  31.560  1.00  0.00     0.074 A 
ATOM     35  C   UNL A   1      38.562  30.325  29.441  1.00  0.00     0.049 A 
ATOM     36  N   UNL A   1      39.093  31.023  32.319  1.00  0.00    -0.248 NA
ATOM     37  C   UNL A   1      37.278  32.491  32.240  1.00  0.00     0.031 C 
ATOM     38  C   UNL A   1      38.343  29.933  28.051  1.00  0.00     0.029 A 
ATOM     39  N   UNL A   1      39.634  29.566  29.841  1.00  0.00    -0.354 N 
ATOM     40  C   UNL A   1      38.934  31.623  33.561  1.00  0.00     0.074 A 
ATOM     41  C   UNL A   1      37.820  32.540  33.449  1.00  0.00     0.031 C 
ATOM     42  C   UNL A   1      39.258  29.008  27.709  1.00  0.00     0.029 A 
ATOM     43  C   UNL A   1      40.141  28.764  28.850  1.00  0.00     0.049 A 
ATOM     44  H   UNL A   1      40.004  29.593  30.754  1.00  0.00     0.167 HD
ATOM     45  C   UNL A   1      39.646  31.423  34.697  1.00  0.00     0.037 A 
ATOM     46  C   UNL A   1      41.207  27.941  28.854  1.00  0.00     0.037 A 
ATOM     47  C   UNL A   1      40.751  30.508  34.816  1.00  0.00     0.049 A 
ATOM     48  C   UNL A   1      42.023  27.787  30.109  1.00  0.00     0.074 A 
ATOM     49  C   UNL A   1      41.510  30.216  35.936  1.00  0.00     0.029 A 
ATOM     50  N   UNL A   1      41.259  29.746  33.776  1.00  0.00    -0.354 N 
ATOM     51  N   UNL A   1      41.843  28.333  31.287  1.00  0.00    -0.248 NA
ATOM     52  C   UNL A   1      43.195  26.899  30.034  1.00  0.00     0.031 C 
ATOM     53  C   UNL A   1      42.507  29.306  35.563  1.00  0.00     0.029 A 
ATOM     54  C   UNL A   1      42.339  29.002  34.222  1.00  0.00     0.049 A 
ATOM     55  H   UNL A   1      40.904  29.733  32.859  1.00  0.00     0.167 HD
ATOM     56  C   UNL A   1      42.859  27.839  32.097  1.00  0.00     0.074 A 
ATOM     57  C   UNL A   1      43.646  26.940  31.280  1.00  0.00     0.031 C 
ATOM     58  C   UNL A   1      43.113  28.107  33.401  1.00  0.00     0.037 A 
BRANCH  45  59
ATOM     59  C   UNL A   1      39.262  32.228  35.902  1.00  0.00     0.057 A 
ATOM     60  C   UNL A   1      39.817  33.488  36.158  1.00  0.00     0.134 A 
ATOM     61  C   UNL A   1      38.297  31.751  36.798  1.00  0.00     0.134 A 
ATOM     62  F   UNL A   1      40.756  33.995  35.344  1.00  0.00    -0.206 F 
ATOM     63  C   UNL A   1      39.438  34.239  37.271  1.00  0.00     0.040 A 
ATOM     64  C   UNL A   1      37.893  32.502  37.903  1.00  0.00     0.040 A 
ATOM     65  F   UNL A   1      37.723  30.553  36.609  1.00  0.00    -0.206 F 
ATOM     66  C   UNL A   1      38.468  33.748  38.144  1.00  0.00     0.006 A 
ENDBRANCH  45  59
BRANCH  46  67
ATOM     67  C   UNL A   1      41.579  27.200  27.623  1.00  0.00     0.057 A 
ATOM     68  C   UNL A   1      42.372  27.790  26.633  1.00  0.00     0.134 A 
ATOM     69  C   UNL A   1      41.129  25.893  27.398  1.00  0.00     0.134 A 
ATOM     70  F   UNL A   1      42.810  29.049  26.781  1.00  0.00    -0.206 F 
ATOM     71  C   UNL A   1      42.694  27.112  25.457  1.00  0.00     0.040 A 
ATOM     72  C   UNL A   1      41.462  25.196  26.236  1.00  0.00     0.040 A 
ATOM     73  F   UNL A   1      40.363  25.275  28.308  1.00  0.00    -0.206 F 
ATOM     74  C   UNL A   1      42.242  25.809  25.258  1.00  0.00     0.006 A 
ENDBRANCH  46  67
BRANCH  58  75
ATOM     75  C   UNL A   1      44.273  27.397  34.036  1.00  0.00     0.057 A 
ATOM     76  C   UNL A   1      45.548  27.972  34.093  1.00  0.00     0.134 A 
ATOM     77  C   UNL A   1      44.101  26.142  34.635  1.00  0.00     0.134 A 
ATOM     78  F   UNL A   1      45.781  29.166  33.528  1.00  0.00    -0.206 F 
ATOM     79  C   UNL A   1      46.617  27.316  34.707  1.00  0.00     0.040 A 
ATOM     80  C   UNL A   1      45.156  25.487  35.271  1.00  0.00     0.040 A 
ATOM     81  F   UNL A   1      42.902  25.539  34.622  1.00  0.00    -0.206 F 
ATOM     82  C   UNL A   1      46.419  26.072  35.305  1.00  0.00     0.006 A 
ENDBRANCH  58  75
ENDBRANCH  32  33
ENDBRANCH  25  27
ENDBRANCH  24  25
ENDBRANCH  23  24
ENDBRANCH  22  23
ENDBRANCH  21  22
ENDBRANCH  20  21
ENDBRANCH   1  20
TORSDOF 19
ENDMDL
MODEL 3
REMARK VINA RESULT:      -9.3      3.631      8.925
REMARK SMILES CN(CCO)C(=O)N[C@H]1C=C[C@@H](C(=O)OCCOCCOC(=O)c2ccc(-c3c4nc(c(-c5c(F)cccc5F)c5ccc([nH]5)c(-c5c(F)cccc5F)c5nc(c(-c6c(F)cccc6F)c6ccc3[nH]6)C=C5)C=C4)cc2)C1
REMARK SMILES IDX 16 1 15 2 13 3 14 4 12 5 9 6 10 7 78 8 11 9 8 10 6 11 7 12
REMARK SMILES IDX 2 14 1 15 3 16 4 17 5 18 17 20 18 21 19 22 20 23 21 24 22 25
REMARK SMILES IDX 23 26 24 27 25 28 77 29 26 30 76 31 27 32 28 33 29 34 70 35
REMARK SMILES IDX 30 36 75 37 69 38 71 39 31 40 74 41 68 42 67 43 32 45 58 46
REMARK SMILES IDX 41 47 57 48 42 49 45 50 56 51 72 52 43 53 44 54 55 56 73 57
REMARK SMILES IDX 46 58 33 59 34 60 39 61 35 62 36 63 38 64 40 65 37 66 59 67
REMARK SMILES IDX 60 68 65 69 61 70 62 71 64 72 66 73 63 74 47 75 48 76 53 77
REMARK SMILES IDX 49 78 50 79 52 80 54 81 51 82
REMARK H PARENT 8 13 5 19 71 44 45 55
REMARK Flexibility Score: inf
ROOT
ATOM      1  C   UNL A   1      31.970  28.590  27.601  1.00  0.00     0.261 C 
ENDROOT
BRANCH   1   2
ATOM      2  O   UNL A   1      32.424  27.580  26.684  1.00  0.00    -0.463 OA
BRANCH   2   3
ATOM      3  C   UNL A   1      31.522  26.634  26.320  1.00  0.00     0.312 C 
ATOM      4  O   UNL A   1      31.403  25.539  26.858  1.00  0.00    -0.252 OA
BRANCH   3   5
ATOM      5  C   UNL A   1      30.648  27.076  25.151  1.00  0.00     0.124 C 
ATOM      6  C   UNL A   1      30.753  27.278  22.683  1.00  0.00     0.107 C 
ATOM      7  C   UNL A   1      29.952  26.091  23.147  1.00  0.00    -0.006 C 
ATOM      8  C   UNL A   1      31.378  27.762  23.994  1.00  0.00     0.048 C 
ATOM      9  C   UNL A   1      29.925  25.961  24.478  1.00  0.00    -0.014 C 
BRANCH   6  10
ATOM     10  N   UNL A   1      31.716  26.789  21.708  1.00  0.00    -0.332 N 
ATOM     11  C   UNL A   1      32.750  25.942  21.635  1.00  0.00     0.317 C 
ATOM     12  O   UNL A   1      33.279  25.886  20.519  1.00  0.00    -0.249 OA
ATOM     13  H   UNL A   1      31.557  27.210  20.832  1.00  0.00     0.165 HD
BRANCH  11  14
ATOM     14  N   UNL A   1      33.222  25.192  22.675  1.00  0.00    -0.326 N 
ATOM     15  C   UNL A   1      32.891  23.769  22.671  1.00  0.00     0.148 C 
BRANCH  14  16
ATOM     16  C   UNL A   1      34.031  25.613  23.818  1.00  0.00     0.149 C 
BRANCH  16  17
ATOM     17  C   UNL A   1      34.376  24.506  24.816  1.00  0.00     0.177 C 
BRANCH  17  18
ATOM     18  O   UNL A   1      35.688  23.994  24.642  1.00  0.00    -0.395 OA
ATOM     19  H   UNL A   1      36.139  24.488  23.939  1.00  0.00     0.210 HD
ENDBRANCH  17  18
ENDBRANCH  16  17
ENDBRANCH  14  16
ENDBRANCH  11  14
ENDBRANCH   6  10
ENDBRANCH   3   5
ENDBRANCH   2   3
ENDBRANCH   1   2
BRANCH   1  20
ATOM     20  C   UNL A   1      32.494  29.957  27.155  1.00  0.00     0.202 C 
BRANCH  20  21
ATOM     21  O   UNL A   1      31.622  30.665  26.269  1.00  0.00    -0.374 OA
BRANCH  21  22
ATOM     22  C   UNL A   1      31.456  32.061  26.522  1.00  0.00     0.202 C 
BRANCH  22  23
ATOM     23  C   UNL A   1      32.607  32.720  27.293  1.00  0.00     0.261 C 
BRANCH  23  24
ATOM     24  O   UNL A   1      32.327  34.103  27.580  1.00  0.00    -0.460 OA
BRANCH  24  25
ATOM     25  C   UNL A   1      33.063  34.640  28.579  1.00  0.00     0.338 C 
ATOM     26  O   UNL A   1      32.769  35.603  29.281  1.00  0.00    -0.246 OA
BRANCH  25  27
ATOM     27  C   UNL A   1      34.241  33.803  28.859  1.00  0.00     0.060 A 
ATOM     28  C   UNL A   1      34.028  32.595  29.536  1.00  0.00     0.016 A 
ATOM     29  C   UNL A   1      35.537  34.219  28.545  1.00  0.00     0.016 A 
ATOM     30  C   UNL A   1      35.114  31.822  29.946  1.00  0.00     0.010 A 
ATOM     31  C   UNL A   1      36.626  33.446  28.965  1.00  0.00     0.010 A 
ATOM     32  C   UNL A   1      36.421  32.262  29.697  1.00  0.00    -0.014 A 
BRANCH  32  33
ATOM     33  C   UNL A   1      37.562  31.543  30.319  1.00  0.00     0.031 A 
ATOM     34  C   UNL A   1      37.907  31.812  31.758  1.00  0.00     0.074 A 
ATOM     35  C   UNL A   1      38.260  30.628  29.622  1.00  0.00     0.049 A 
ATOM     36  N   UNL A   1      38.859  31.297  32.494  1.00  0.00    -0.248 NA
ATOM     37  C   UNL A   1      37.063  32.791  32.462  1.00  0.00     0.031 C 
ATOM     38  C   UNL A   1      38.007  30.250  28.234  1.00  0.00     0.029 A 
ATOM     39  N   UNL A   1      39.329  29.852  29.995  1.00  0.00    -0.354 N 
ATOM     40  C   UNL A   1      38.734  31.891  33.743  1.00  0.00     0.074 A 
ATOM     41  C   UNL A   1      37.630  32.824  33.660  1.00  0.00     0.031 C 
ATOM     42  C   UNL A   1      38.902  29.315  27.867  1.00  0.00     0.029 A 
ATOM     43  C   UNL A   1      39.805  29.051  28.988  1.00  0.00     0.049 A 
ATOM     44  H   UNL A   1      39.717  29.867  30.900  1.00  0.00     0.167 HD
ATOM     45  C   UNL A   1      39.466  31.673  34.863  1.00  0.00     0.037 A 
ATOM     46  C   UNL A   1      40.859  28.213  28.965  1.00  0.00     0.037 A 
ATOM     47  C   UNL A   1      40.559  30.742  34.952  1.00  0.00     0.049 A 
ATOM     48  C   UNL A   1      41.699  28.038  30.202  1.00  0.00     0.074 A 
ATOM     49  C   UNL A   1      41.337  30.431  36.054  1.00  0.00     0.029 A 
ATOM     50  N   UNL A   1      41.035  29.980  33.897  1.00  0.00    -0.354 N 
ATOM     51  N   UNL A   1      41.549  28.578  31.387  1.00  0.00    -0.248 NA
ATOM     52  C   UNL A   1      42.856  27.136  30.096  1.00  0.00     0.031 C 
ATOM     53  C   UNL A   1      42.314  29.511  35.655  1.00  0.00     0.029 A 
ATOM     54  C   UNL A   1      42.115  29.219  34.315  1.00  0.00     0.049 A 
ATOM     55  H   UNL A   1      40.662  29.980  32.987  1.00  0.00     0.167 HD
ATOM     56  C   UNL A   1      42.575  28.065  32.172  1.00  0.00     0.074 A 
ATOM     57  C   UNL A   1      43.332  27.161  31.333  1.00  0.00     0.031 C 
ATOM     58  C   UNL A   1      42.859  28.319  33.473  1.00  0.00     0.037 A 
BRANCH  45  59
ATOM     59  C   UNL A   1      39.117  32.474  36.081  1.00  0.00     0.057 A 
ATOM     60  C   UNL A   1      38.293  31.961  37.092  1.00  0.00     0.134 A 
ATOM     61  C   UNL A   1      39.644  33.758  36.263  1.00  0.00     0.134 A 
ATOM     62  F   UNL A   1      37.747  30.742  36.970  1.00  0.00    -0.206 F 
ATOM     63  C   UNL A   1      37.991  32.706  38.232  1.00  0.00     0.040 A 
ATOM     64  C   UNL A   1      39.367  34.504  37.410  1.00  0.00     0.040 A 
ATOM     65  F   UNL A   1      40.444  34.305  35.336  1.00  0.00    -0.206 F 
ATOM     66  C   UNL A   1      38.534  33.980  38.397  1.00  0.00     0.006 A 
ENDBRANCH  45  59
BRANCH  46  67
ATOM     67  C   UNL A   1      41.195  27.476  27.721  1.00  0.00     0.057 A 
ATOM     68  C   UNL A   1      40.714  26.183  27.490  1.00  0.00     0.134 A 
ATOM     69  C   UNL A   1      42.025  28.041  26.744  1.00  0.00     0.134 A 
ATOM     70  F   UNL A   1      39.936  25.580  28.402  1.00  0.00    -0.206 F 
ATOM     71  C   UNL A   1      41.057  25.471  26.341  1.00  0.00     0.040 A 
ATOM     72  C   UNL A   1      42.359  27.348  25.580  1.00  0.00     0.040 A 
ATOM     73  F   UNL A   1      42.521  29.276  26.909  1.00  0.00    -0.206 F 
ATOM     74  C   UNL A   1      41.878  26.056  25.378  1.00  0.00     0.006 A 
ENDBRANCH  46  67
BRANCH  58  75
ATOM     75  C   UNL A   1      44.022  27.589  34.079  1.00  0.00     0.057 A 
ATOM     76  C   UNL A   1      45.307  28.144  34.109  1.00  0.00     0.134 A 
ATOM     77  C   UNL A   1      43.844  26.335  34.677  1.00  0.00     0.134 A 
ATOM     78  F   UNL A   1      45.546  29.336  33.543  1.00  0.00    -0.206 F 
ATOM     79  C   UNL A   1      46.378  27.469  34.696  1.00  0.00     0.040 A 
ATOM     80  C   UNL A   1      44.902  25.660  35.287  1.00  0.00     0.040 A 
ATOM     81  F   UNL A   1      42.635  25.751  34.690  1.00  0.00    -0.206 F 
ATOM     82  C   UNL A   1      46.175  26.225  35.294  1.00  0.00     0.006 A 
ENDBRANCH  58  75
ENDBRANCH  32  33
ENDBRANCH  25  27
ENDBRANCH  24  25
ENDBRANCH  23  24
ENDBRANCH  22  23
ENDBRANCH  21  22
ENDBRANCH  20  21
ENDBRANCH   1  20
TORSDOF 19
ENDMDL
