MODEL 1
REMARK VINA RESULT:     -11.4      0.000      0.000
REMARK SMILES O=C(C[N@@H+](C[C@@H]1COc2ccccc2O1)CC(F)(F)F)OCCOCCOC(=O)c1ccc(-c2c3nc(c(-c4c(F)cccc4F)c4ccc([nH]4)c(-c4c(F)cccc4F)c4nc(c(-c5c(F)cccc5F)c5ccc2[nH]5)C=C4)C=C3)cc1
REMARK SMILES IDX 23 1 22 2 21 3 2 4 1 5 3 6 4 7 5 9 6 10 7 11 15 12 8 13
REMARK SMILES IDX 14 14 9 15 13 16 10 17 12 18 11 19 16 20 17 21 18 22 19 23
REMARK SMILES IDX 20 24 24 25 25 26 26 27 27 28 28 29 29 30 30 31 31 32 83 33
REMARK SMILES IDX 32 34 82 35 33 36 34 37 35 38 76 39 36 40 81 41 75 42 77 43
REMARK SMILES IDX 37 44 80 45 74 46 73 47 38 49 64 50 47 51 63 52 48 53 51 54
REMARK SMILES IDX 62 55 78 56 49 57 50 58 61 60 79 61 52 62 39 63 40 64 45 65
REMARK SMILES IDX 41 66 42 67 44 68 46 69 43 70 65 71 66 72 71 73 67 74 68 75
REMARK SMILES IDX 70 76 72 77 69 78 53 79 54 80 59 81 55 82 56 83 58 84 60 85
REMARK SMILES IDX 57 86
REMARK H PARENT 4 8 77 48 51 59
REMARK Flexibility Score: inf
ROOT
ATOM      1  C   UNL A   1      40.162  21.762  27.095  1.00  0.00     0.202 C 
ENDROOT
BRANCH   1   2
ATOM      2  C   UNL A   1      39.474  21.406  25.773  1.00  0.00     0.261 C 
BRANCH   2   3
ATOM      3  O   UNL A   1      38.105  21.809  25.707  1.00  0.00    -0.459 OA
BRANCH   3   4
ATOM      4  C   UNL A   1      37.182  21.090  25.027  1.00  0.00     0.361 C 
ATOM      5  O   UNL A   1      37.305  19.867  24.946  1.00  0.00    -0.245 OA
BRANCH   4   6
ATOM      6  C   UNL A   1      36.070  21.838  24.291  1.00  0.00     0.386 C 
BRANCH   6   7
ATOM      7  N   UNL A   1      34.757  21.781  24.941  1.00  0.00    -0.315 N 
ATOM      8  H   UNL A   1      34.969  21.625  25.926  1.00  0.00     0.348 HD
BRANCH   7   9
ATOM      9  C   UNL A   1      34.059  23.085  24.909  1.00  0.00     0.312 C 
BRANCH   9  10
ATOM     10  C   UNL A   1      33.614  23.699  26.273  1.00  0.00     0.265 C 
ATOM     11  C   UNL A   1      32.150  23.348  26.613  1.00  0.00     0.281 C 
ATOM     12  O   UNL A   1      33.782  25.133  26.284  1.00  0.00    -0.477 OA
ATOM     13  O   UNL A   1      31.241  23.491  25.505  1.00  0.00    -0.486 OA
ATOM     14  C   UNL A   1      33.029  25.567  25.222  1.00  0.00     0.162 A 
ATOM     15  C   UNL A   1      31.621  24.546  24.726  1.00  0.00     0.161 A 
ATOM     16  C   UNL A   1      33.752  26.732  24.073  1.00  0.00     0.050 A 
ATOM     17  C   UNL A   1      30.905  24.728  23.103  1.00  0.00     0.050 A 
ATOM     18  C   UNL A   1      33.050  26.908  22.418  1.00  0.00     0.004 A 
ATOM     19  C   UNL A   1      31.660  25.877  21.928  1.00  0.00     0.004 A 
ENDBRANCH   9  10
ENDBRANCH   7   9
BRANCH   7  20
ATOM     20  C   UNL A   1      33.835  20.387  24.752  1.00  0.00     0.379 C 
BRANCH  20  21
ATOM     21  C   UNL A   1      34.071  18.249  24.298  1.00  0.00     0.438 C 
ATOM     22  F   UNL A   1      33.582  17.682  23.082  1.00  0.00    -0.165 F 
ATOM     23  F   UNL A   1      35.354  17.634  24.223  1.00  0.00    -0.165 F 
ATOM     24  F   UNL A   1      33.491  17.259  25.147  1.00  0.00    -0.165 F 
ENDBRANCH  20  21
ENDBRANCH   7  20
ENDBRANCH   6   7
ENDBRANCH   4   6
ENDBRANCH   3   4
ENDBRANCH   2   3
ENDBRANCH   1   2
BRANCH   1  25
ATOM     25  O   UNL A   1      41.553  21.544  27.292  1.00  0.00    -0.374 OA
BRANCH  25  26
ATOM     26  C   UNL A   1      42.406  20.990  26.293  1.00  0.00     0.202 C 
BRANCH  26  27
ATOM     27  C   UNL A   1      43.392  21.817  25.465  1.00  0.00     0.261 C 
BRANCH  27  28
ATOM     28  O   UNL A   1      42.837  22.993  24.889  1.00  0.00    -0.460 OA
BRANCH  28  29
ATOM     29  C   UNL A   1      43.622  24.082  25.039  1.00  0.00     0.338 C 
ATOM     30  O   UNL A   1      44.705  24.304  24.524  1.00  0.00    -0.246 OA
BRANCH  29  31
ATOM     31  C   UNL A   1      42.876  25.090  25.789  1.00  0.00     0.060 A 
ATOM     32  C   UNL A   1      43.448  26.363  25.921  1.00  0.00     0.016 A 
ATOM     33  C   UNL A   1      41.690  24.744  26.435  1.00  0.00     0.016 A 
ATOM     34  C   UNL A   1      42.856  27.290  26.757  1.00  0.00     0.010 A 
ATOM     35  C   UNL A   1      41.115  25.663  27.302  1.00  0.00     0.010 A 
ATOM     36  C   UNL A   1      41.732  26.911  27.496  1.00  0.00    -0.014 A 
BRANCH  36  37
ATOM     37  C   UNL A   1      41.363  27.734  28.655  1.00  0.00     0.031 A 
ATOM     38  C   UNL A   1      42.189  27.593  29.899  1.00  0.00     0.074 A 
ATOM     39  C   UNL A   1      40.354  28.610  28.557  1.00  0.00     0.049 A 
ATOM     40  N   UNL A   1      42.038  28.165  31.061  1.00  0.00    -0.248 NA
ATOM     41  C   UNL A   1      43.349  26.684  29.820  1.00  0.00     0.031 C 
ATOM     42  C   UNL A   1      39.555  28.843  27.354  1.00  0.00     0.029 A 
ATOM     43  N   UNL A   1      39.828  29.459  29.488  1.00  0.00    -0.354 N 
ATOM     44  C   UNL A   1      43.070  27.678  31.853  1.00  0.00     0.074 A 
ATOM     45  C   UNL A   1      43.832  26.751  31.050  1.00  0.00     0.031 C 
ATOM     46  C   UNL A   1      38.619  29.767  27.630  1.00  0.00     0.029 A 
ATOM     47  C   UNL A   1      38.736  30.151  29.034  1.00  0.00     0.049 A 
ATOM     48  H   UNL A   1      40.197  29.563  30.395  1.00  0.00     0.167 HD
ATOM     49  C   UNL A   1      43.349  27.988  33.138  1.00  0.00     0.037 A 
ATOM     50  C   UNL A   1      37.910  30.974  29.705  1.00  0.00     0.037 A 
ATOM     51  C   UNL A   1      42.564  28.912  33.911  1.00  0.00     0.049 A 
ATOM     52  C   UNL A   1      38.197  31.240  31.158  1.00  0.00     0.074 A 
ATOM     53  C   UNL A   1      42.739  29.309  35.223  1.00  0.00     0.029 A 
ATOM     54  N   UNL A   1      41.442  29.577  33.432  1.00  0.00    -0.354 N 
ATOM     55  N   UNL A   1      39.175  30.783  31.905  1.00  0.00    -0.248 NA
ATOM     56  C   UNL A   1      37.271  32.136  31.858  1.00  0.00     0.031 C 
ATOM     57  C   UNL A   1      41.692  30.176  35.553  1.00  0.00     0.029 A 
ATOM     58  C   UNL A   1      40.900  30.365  34.429  1.00  0.00     0.049 A 
ATOM     59  H   UNL A   1      41.087  29.498  32.517  1.00  0.00     0.167 HD
ATOM     60  C   UNL A   1      39.000  31.358  33.156  1.00  0.00     0.074 A 
ATOM     61  C   UNL A   1      37.829  32.207  33.059  1.00  0.00     0.031 C 
ATOM     62  C   UNL A   1      39.736  31.203  34.286  1.00  0.00     0.037 A 
BRANCH  49  63
ATOM     63  C   UNL A   1      44.512  27.297  33.787  1.00  0.00     0.057 A 
ATOM     64  C   UNL A   1      45.800  27.847  33.789  1.00  0.00     0.134 A 
ATOM     65  C   UNL A   1      44.334  26.067  34.434  1.00  0.00     0.134 A 
ATOM     66  F   UNL A   1      46.045  29.010  33.167  1.00  0.00    -0.206 F 
ATOM     67  C   UNL A   1      46.872  27.193  34.401  1.00  0.00     0.040 A 
ATOM     68  C   UNL A   1      45.393  25.416  35.071  1.00  0.00     0.040 A 
ATOM     69  F   UNL A   1      43.129  25.481  34.464  1.00  0.00    -0.206 F 
ATOM     70  C   UNL A   1      46.668  25.977  35.051  1.00  0.00     0.006 A 
ENDBRANCH  49  63
BRANCH  50  71
ATOM     71  C   UNL A   1      36.738  31.572  29.019  1.00  0.00     0.057 A 
ATOM     72  C   UNL A   1      35.589  30.820  28.754  1.00  0.00     0.134 A 
ATOM     73  C   UNL A   1      36.741  32.911  28.609  1.00  0.00     0.134 A 
ATOM     74  F   UNL A   1      35.530  29.529  29.110  1.00  0.00    -0.206 F 
ATOM     75  C   UNL A   1      34.494  31.370  28.085  1.00  0.00     0.040 A 
ATOM     76  C   UNL A   1      35.643  33.483  27.966  1.00  0.00     0.040 A 
ATOM     77  F   UNL A   1      37.809  33.690  28.841  1.00  0.00    -0.206 F 
ATOM     78  C   UNL A   1      34.518  32.708  27.693  1.00  0.00     0.006 A 
ENDBRANCH  50  71
BRANCH  62  79
ATOM     79  C   UNL A   1      39.316  32.004  35.482  1.00  0.00     0.057 A 
ATOM     80  C   UNL A   1      39.716  33.335  35.659  1.00  0.00     0.134 A 
ATOM     81  C   UNL A   1      38.463  31.448  36.443  1.00  0.00     0.134 A 
ATOM     82  F   UNL A   1      40.542  33.920  34.778  1.00  0.00    -0.206 F 
ATOM     83  C   UNL A   1      39.305  34.075  36.768  1.00  0.00     0.040 A 
ATOM     84  C   UNL A   1      38.020  32.187  37.539  1.00  0.00     0.040 A 
ATOM     85  F   UNL A   1      38.033  30.182  36.322  1.00  0.00    -0.206 F 
ATOM     86  C   UNL A   1      38.448  33.503  37.707  1.00  0.00     0.006 A 
ENDBRANCH  62  79
ENDBRANCH  36  37
ENDBRANCH  29  31
ENDBRANCH  28  29
ENDBRANCH  27  28
ENDBRANCH  26  27
ENDBRANCH  25  26
ENDBRANCH   1  25
TORSDOF 19
ENDMDL
MODEL 2
REMARK VINA RESULT:     -11.0      3.637      8.491
REMARK SMILES O=C(C[N@@H+](C[C@@H]1COc2ccccc2O1)CC(F)(F)F)OCCOCCOC(=O)c1ccc(-c2c3nc(c(-c4c(F)cccc4F)c4ccc([nH]4)c(-c4c(F)cccc4F)c4nc(c(-c5c(F)cccc5F)c5ccc2[nH]5)C=C4)C=C3)cc1
REMARK SMILES IDX 23 1 22 2 21 3 2 4 1 5 3 6 4 7 5 9 6 10 7 11 15 12 8 13
REMARK SMILES IDX 14 14 9 15 13 16 10 17 12 18 11 19 16 20 17 21 18 22 19 23
REMARK SMILES IDX 20 24 24 25 25 26 26 27 27 28 28 29 29 30 30 31 31 32 83 33
REMARK SMILES IDX 32 34 82 35 33 36 34 37 35 38 76 39 36 40 81 41 75 42 77 43
REMARK SMILES IDX 37 44 80 45 74 46 73 47 38 49 64 50 47 51 63 52 48 53 51 54
REMARK SMILES IDX 62 55 78 56 49 57 50 58 61 60 79 61 52 62 39 63 40 64 45 65
REMARK SMILES IDX 41 66 42 67 44 68 46 69 43 70 65 71 66 72 71 73 67 74 68 75
REMARK SMILES IDX 70 76 72 77 69 78 53 79 54 80 59 81 55 82 56 83 58 84 60 85
REMARK SMILES IDX 57 86
REMARK H PARENT 4 8 77 48 51 59
REMARK Flexibility Score: inf
ROOT
ATOM      1  C   UNL A   1      33.241  30.358  26.956  1.00  0.00     0.202 C 
ENDROOT
BRANCH   1   2
ATOM      2  C   UNL A   1      33.826  29.052  26.405  1.00  0.00     0.261 C 
BRANCH   2   3
ATOM      3  O   UNL A   1      32.896  28.279  25.644  1.00  0.00    -0.459 OA
BRANCH   3   4
ATOM      4  C   UNL A   1      33.035  28.110  24.309  1.00  0.00     0.361 C 
ATOM      5  O   UNL A   1      33.265  29.086  23.594  1.00  0.00    -0.245 OA
BRANCH   4   6
ATOM      6  C   UNL A   1      32.796  26.719  23.720  1.00  0.00     0.386 C 
BRANCH   6   7
ATOM      7  N   UNL A   1      31.494  26.130  24.047  1.00  0.00    -0.315 N 
ATOM      8  H   UNL A   1      31.305  25.490  23.275  1.00  0.00     0.348 HD
BRANCH   7   9
ATOM      9  C   UNL A   1      31.555  25.265  25.246  1.00  0.00     0.312 C 
BRANCH   9  10
ATOM     10  C   UNL A   1      30.712  23.951  25.232  1.00  0.00     0.265 C 
ATOM     11  C   UNL A   1      30.682  23.271  26.617  1.00  0.00     0.281 C 
ATOM     12  O   UNL A   1      31.209  23.019  24.246  1.00  0.00    -0.477 OA
ATOM     13  O   UNL A   1      31.963  23.219  27.272  1.00  0.00    -0.486 OA
ATOM     14  C   UNL A   1      32.518  22.820  24.603  1.00  0.00     0.162 A 
ATOM     15  C   UNL A   1      32.951  23.040  26.346  1.00  0.00     0.161 A 
ATOM     16  C   UNL A   1      33.780  22.919  23.338  1.00  0.00     0.050 A 
ATOM     17  C   UNL A   1      34.648  23.304  26.825  1.00  0.00     0.050 A 
ATOM     18  C   UNL A   1      35.499  23.210  23.811  1.00  0.00     0.004 A 
ATOM     19  C   UNL A   1      35.917  23.443  25.545  1.00  0.00     0.004 A 
ENDBRANCH   9  10
ENDBRANCH   7   9
BRANCH   7  20
ATOM     20  C   UNL A   1      30.116  27.067  23.819  1.00  0.00     0.379 C 
BRANCH  20  21
ATOM     21  C   UNL A   1      29.482  28.940  22.857  1.00  0.00     0.438 C 
ATOM     22  F   UNL A   1      28.232  29.047  22.174  1.00  0.00    -0.165 F 
ATOM     23  F   UNL A   1      29.333  30.150  23.594  1.00  0.00    -0.165 F 
ATOM     24  F   UNL A   1      30.256  29.513  21.804  1.00  0.00    -0.165 F 
ENDBRANCH  20  21
ENDBRANCH   7  20
ENDBRANCH   6   7
ENDBRANCH   4   6
ENDBRANCH   3   4
ENDBRANCH   2   3
ENDBRANCH   1   2
BRANCH   1  25
ATOM     25  O   UNL A   1      32.072  30.942  26.397  1.00  0.00    -0.374 OA
BRANCH  25  26
ATOM     26  C   UNL A   1      31.482  32.141  26.896  1.00  0.00     0.202 C 
BRANCH  26  27
ATOM     27  C   UNL A   1      32.252  33.447  27.095  1.00  0.00     0.261 C 
BRANCH  27  28
ATOM     28  O   UNL A   1      32.435  33.822  28.455  1.00  0.00    -0.460 OA
BRANCH  28  29
ATOM     29  C   UNL A   1      33.577  34.510  28.670  1.00  0.00     0.338 C 
ATOM     30  O   UNL A   1      33.707  35.703  28.886  1.00  0.00    -0.246 OA
BRANCH  29  31
ATOM     31  C   UNL A   1      34.675  33.553  28.804  1.00  0.00     0.060 A 
ATOM     32  C   UNL A   1      34.408  32.337  29.446  1.00  0.00     0.016 A 
ATOM     33  C   UNL A   1      35.960  33.906  28.396  1.00  0.00     0.016 A 
ATOM     34  C   UNL A   1      35.451  31.480  29.738  1.00  0.00     0.010 A 
ATOM     35  C   UNL A   1      37.013  33.061  28.720  1.00  0.00     0.010 A 
ATOM     36  C   UNL A   1      36.756  31.878  29.435  1.00  0.00    -0.014 A 
BRANCH  36  37
ATOM     37  C   UNL A   1      37.861  31.173  30.098  1.00  0.00     0.031 A 
ATOM     38  C   UNL A   1      38.119  31.487  31.542  1.00  0.00     0.074 A 
ATOM     39  C   UNL A   1      38.558  30.247  29.427  1.00  0.00     0.049 A 
ATOM     40  N   UNL A   1      39.057  31.042  32.330  1.00  0.00    -0.248 NA
ATOM     41  C   UNL A   1      37.188  32.433  32.187  1.00  0.00     0.031 C 
ATOM     42  C   UNL A   1      38.313  29.846  28.042  1.00  0.00     0.029 A 
ATOM     43  N   UNL A   1      39.620  29.484  29.822  1.00  0.00    -0.354 N 
ATOM     44  C   UNL A   1      38.840  31.659  33.555  1.00  0.00     0.074 A 
ATOM     45  C   UNL A   1      37.694  32.525  33.406  1.00  0.00     0.031 C 
ATOM     46  C   UNL A   1      39.219  28.918  27.694  1.00  0.00     0.029 A 
ATOM     47  C   UNL A   1      40.124  28.697  28.819  1.00  0.00     0.049 A 
ATOM     48  H   UNL A   1      39.986  29.498  30.736  1.00  0.00     0.167 HD
ATOM     49  C   UNL A   1      39.542  31.506  34.699  1.00  0.00     0.037 A 
ATOM     50  C   UNL A   1      41.219  27.918  28.818  1.00  0.00     0.037 A 
ATOM     51  C   UNL A   1      40.683  30.639  34.810  1.00  0.00     0.049 A 
ATOM     52  C   UNL A   1      42.029  27.827  30.082  1.00  0.00     0.074 A 
ATOM     53  C   UNL A   1      41.483  30.397  35.911  1.00  0.00     0.029 A 
ATOM     54  N   UNL A   1      41.190  29.876  33.766  1.00  0.00    -0.354 N 
ATOM     55  N   UNL A   1      41.821  28.407  31.242  1.00  0.00    -0.248 NA
ATOM     56  C   UNL A   1      43.222  26.974  30.041  1.00  0.00     0.031 C 
ATOM     57  C   UNL A   1      42.504  29.527  35.518  1.00  0.00     0.029 A 
ATOM     58  C   UNL A   1      42.306  29.179  34.190  1.00  0.00     0.049 A 
ATOM     59  H   UNL A   1      40.809  29.836  32.858  1.00  0.00     0.167 HD
ATOM     60  C   UNL A   1      42.838  27.967  32.076  1.00  0.00     0.074 A 
ATOM     61  C   UNL A   1      43.654  27.061  31.291  1.00  0.00     0.031 C 
ATOM     62  C   UNL A   1      43.083  28.279  33.375  1.00  0.00     0.037 A 
BRANCH  49  63
ATOM     63  C   UNL A   1      39.122  32.316  35.890  1.00  0.00     0.057 A 
ATOM     64  C   UNL A   1      39.568  33.628  36.094  1.00  0.00     0.134 A 
ATOM     65  C   UNL A   1      38.243  31.779  36.839  1.00  0.00     0.134 A 
ATOM     66  F   UNL A   1      40.430  34.195  35.237  1.00  0.00    -0.206 F 
ATOM     67  C   UNL A   1      39.165  34.372  37.205  1.00  0.00     0.040 A 
ATOM     68  C   UNL A   1      37.812  32.521  37.940  1.00  0.00     0.040 A 
ATOM     69  F   UNL A   1      37.782  30.526  36.708  1.00  0.00    -0.206 F 
ATOM     70  C   UNL A   1      38.277  33.821  38.129  1.00  0.00     0.006 A 
ENDBRANCH  49  63
BRANCH  50  71
ATOM     71  C   UNL A   1      41.617  27.195  27.584  1.00  0.00     0.057 A 
ATOM     72  C   UNL A   1      42.367  27.822  26.584  1.00  0.00     0.134 A 
ATOM     73  C   UNL A   1      41.251  25.860  27.374  1.00  0.00     0.134 A 
ATOM     74  F   UNL A   1      42.737  29.104  26.720  1.00  0.00    -0.206 F 
ATOM     75  C   UNL A   1      42.721  27.156  25.409  1.00  0.00     0.040 A 
ATOM     76  C   UNL A   1      41.621  25.172  26.218  1.00  0.00     0.040 A 
ATOM     77  F   UNL A   1      40.538  25.198  28.298  1.00  0.00    -0.206 F 
ATOM     78  C   UNL A   1      42.351  25.824  25.226  1.00  0.00     0.006 A 
ENDBRANCH  50  71
BRANCH  62  79
ATOM     79  C   UNL A   1      44.249  27.597  34.026  1.00  0.00     0.057 A 
ATOM     80  C   UNL A   1      44.130  26.334  34.620  1.00  0.00     0.134 A 
ATOM     81  C   UNL A   1      45.515  28.195  34.017  1.00  0.00     0.134 A 
ATOM     82  F   UNL A   1      42.941  25.716  34.671  1.00  0.00    -0.206 F 
ATOM     83  C   UNL A   1      45.226  25.703  35.209  1.00  0.00     0.040 A 
ATOM     84  C   UNL A   1      46.624  27.561  34.574  1.00  0.00     0.040 A 
ATOM     85  F   UNL A   1      45.696  29.398  33.450  1.00  0.00    -0.206 F 
ATOM     86  C   UNL A   1      46.479  26.314  35.179  1.00  0.00     0.006 A 
ENDBRANCH  62  79
ENDBRANCH  36  37
ENDBRANCH  29  31
ENDBRANCH  28  29
ENDBRANCH  27  28
ENDBRANCH  26  27
ENDBRANCH  25  26
ENDBRANCH   1  25
TORSDOF 19
ENDMDL
MODEL 3
REMARK VINA RESULT:     -10.9      3.652      8.427
REMARK SMILES O=C(C[N@@H+](C[C@@H]1COc2ccccc2O1)CC(F)(F)F)OCCOCCOC(=O)c1ccc(-c2c3nc(c(-c4c(F)cccc4F)c4ccc([nH]4)c(-c4c(F)cccc4F)c4nc(c(-c5c(F)cccc5F)c5ccc2[nH]5)C=C4)C=C3)cc1
REMARK SMILES IDX 23 1 22 2 21 3 2 4 1 5 3 6 4 7 5 9 6 10 7 11 15 12 8 13
REMARK SMILES IDX 14 14 9 15 13 16 10 17 12 18 11 19 16 20 17 21 18 22 19 23
REMARK SMILES IDX 20 24 24 25 25 26 26 27 27 28 28 29 29 30 30 31 31 32 83 33
REMARK SMILES IDX 32 34 82 35 33 36 34 37 35 38 76 39 36 40 81 41 75 42 77 43
REMARK SMILES IDX 37 44 80 45 74 46 73 47 38 49 64 50 47 51 63 52 48 53 51 54
REMARK SMILES IDX 62 55 78 56 49 57 50 58 61 60 79 61 52 62 39 63 40 64 45 65
REMARK SMILES IDX 41 66 42 67 44 68 46 69 43 70 65 71 66 72 71 73 67 74 68 75
REMARK SMILES IDX 70 76 72 77 69 78 53 79 54 80 59 81 55 82 56 83 58 84 60 85
REMARK SMILES IDX 57 86
REMARK H PARENT 4 8 77 48 51 59
REMARK Flexibility Score: inf
ROOT
ATOM      1  C   UNL A   1      33.206  30.350  27.070  1.00  0.00     0.202 C 
ENDROOT
BRANCH   1   2
ATOM      2  C   UNL A   1      33.820  29.015  26.637  1.00  0.00     0.261 C 
BRANCH   2   3
ATOM      3  O   UNL A   1      32.962  28.224  25.812  1.00  0.00    -0.459 OA
BRANCH   3   4
ATOM      4  C   UNL A   1      33.163  28.110  24.478  1.00  0.00     0.361 C 
ATOM      5  O   UNL A   1      33.312  29.126  23.798  1.00  0.00    -0.245 OA
BRANCH   4   6
ATOM      6  C   UNL A   1      33.092  26.720  23.846  1.00  0.00     0.386 C 
BRANCH   6   7
ATOM      7  N   UNL A   1      31.791  26.055  23.970  1.00  0.00    -0.315 N 
ATOM      8  H   UNL A   1      31.695  25.523  23.105  1.00  0.00     0.348 HD
BRANCH   7   9
ATOM      9  C   UNL A   1      31.783  25.033  25.041  1.00  0.00     0.312 C 
BRANCH   9  10
ATOM     10  C   UNL A   1      31.015  23.704  24.765  1.00  0.00     0.265 C 
ATOM     11  C   UNL A   1      30.869  22.847  26.040  1.00  0.00     0.281 C 
ATOM     12  O   UNL A   1      31.661  22.928  23.732  1.00  0.00    -0.477 OA
ATOM     13  O   UNL A   1      32.073  22.755  26.824  1.00  0.00    -0.486 OA
ATOM     14  C   UNL A   1      32.933  22.732  24.207  1.00  0.00     0.162 A 
ATOM     15  C   UNL A   1      33.163  22.735  26.002  1.00  0.00     0.161 A 
ATOM     16  C   UNL A   1      34.317  23.042  23.117  1.00  0.00     0.050 A 
ATOM     17  C   UNL A   1      34.783  22.995  26.701  1.00  0.00     0.050 A 
ATOM     18  C   UNL A   1      35.958  23.330  23.815  1.00  0.00     0.004 A 
ATOM     19  C   UNL A   1      36.174  23.347  25.601  1.00  0.00     0.004 A 
ENDBRANCH   9  10
ENDBRANCH   7   9
BRANCH   7  20
ATOM     20  C   UNL A   1      30.401  26.976  23.747  1.00  0.00     0.379 C 
BRANCH  20  21
ATOM     21  C   UNL A   1      29.790  29.003  23.154  1.00  0.00     0.438 C 
ATOM     22  F   UNL A   1      30.172  29.563  21.896  1.00  0.00    -0.165 F 
ATOM     23  F   UNL A   1      28.419  29.375  23.054  1.00  0.00    -0.165 F 
ATOM     24  F   UNL A   1      30.186  30.135  23.927  1.00  0.00    -0.165 F 
ENDBRANCH  20  21
ENDBRANCH   7  20
ENDBRANCH   6   7
ENDBRANCH   4   6
ENDBRANCH   3   4
ENDBRANCH   2   3
ENDBRANCH   1   2
BRANCH   1  25
ATOM     25  O   UNL A   1      32.062  30.888  26.419  1.00  0.00    -0.374 OA
BRANCH  25  26
ATOM     26  C   UNL A   1      31.417  32.089  26.836  1.00  0.00     0.202 C 
BRANCH  26  27
ATOM     27  C   UNL A   1      32.142  33.424  27.013  1.00  0.00     0.261 C 
BRANCH  27  28
ATOM     28  O   UNL A   1      32.323  33.823  28.367  1.00  0.00    -0.460 OA
BRANCH  28  29
ATOM     29  C   UNL A   1      33.432  34.568  28.561  1.00  0.00     0.338 C 
ATOM     30  O   UNL A   1      33.514  35.778  28.677  1.00  0.00    -0.246 OA
BRANCH  29  31
ATOM     31  C   UNL A   1      34.556  33.667  28.813  1.00  0.00     0.060 A 
ATOM     32  C   UNL A   1      34.317  32.525  29.588  1.00  0.00     0.016 A 
ATOM     33  C   UNL A   1      35.836  34.010  28.378  1.00  0.00     0.016 A 
ATOM     34  C   UNL A   1      35.382  31.739  29.985  1.00  0.00     0.010 A 
ATOM     35  C   UNL A   1      36.909  33.241  28.807  1.00  0.00     0.010 A 
ATOM     36  C   UNL A   1      36.678  32.140  29.650  1.00  0.00    -0.014 A 
BRANCH  36  37
ATOM     37  C   UNL A   1      37.795  31.550  30.400  1.00  0.00     0.031 A 
ATOM     38  C   UNL A   1      38.649  30.539  29.694  1.00  0.00     0.074 A 
ATOM     39  C   UNL A   1      38.050  31.962  31.649  1.00  0.00     0.049 A 
ATOM     40  N   UNL A   1      39.653  29.843  30.150  1.00  0.00    -0.248 NA
ATOM     41  C   UNL A   1      38.327  30.278  28.278  1.00  0.00     0.031 C 
ATOM     42  C   UNL A   1      37.299  32.991  32.367  1.00  0.00     0.029 A 
ATOM     43  N   UNL A   1      39.009  31.556  32.533  1.00  0.00    -0.354 N 
ATOM     44  C   UNL A   1      40.074  29.056  29.086  1.00  0.00     0.074 A 
ATOM     45  C   UNL A   1      39.209  29.343  27.965  1.00  0.00     0.031 C 
ATOM     46  C   UNL A   1      37.818  33.122  33.600  1.00  0.00     0.029 A 
ATOM     47  C   UNL A   1      38.904  32.160  33.759  1.00  0.00     0.049 A 
ATOM     48  H   UNL A   1      39.705  30.897  32.311  1.00  0.00     0.167 HD
ATOM     49  C   UNL A   1      41.099  28.175  29.057  1.00  0.00     0.037 A 
ATOM     50  C   UNL A   1      39.596  31.921  34.887  1.00  0.00     0.037 A 
ATOM     51  C   UNL A   1      41.937  27.909  30.195  1.00  0.00     0.049 A 
ATOM     52  C   UNL A   1      40.679  30.877  34.850  1.00  0.00     0.074 A 
ATOM     53  C   UNL A   1      43.005  27.038  30.297  1.00  0.00     0.029 A 
ATOM     54  N   UNL A   1      41.787  28.515  31.435  1.00  0.00    -0.354 N 
ATOM     55  N   UNL A   1      41.080  30.136  33.843  1.00  0.00    -0.248 NA
ATOM     56  C   UNL A   1      41.406  30.638  36.101  1.00  0.00     0.031 C 
ATOM     57  C   UNL A   1      43.468  27.080  31.616  1.00  0.00     0.029 A 
ATOM     58  C   UNL A   1      42.728  28.020  32.318  1.00  0.00     0.049 A 
ATOM     59  H   UNL A   1      41.110  29.196  31.653  1.00  0.00     0.167 HD
ATOM     60  C   UNL A   1      42.125  29.365  34.330  1.00  0.00     0.074 A 
ATOM     61  C   UNL A   1      42.303  29.739  35.719  1.00  0.00     0.031 C 
ATOM     62  C   UNL A   1      42.875  28.429  33.693  1.00  0.00     0.037 A 
BRANCH  49  63
ATOM     63  C   UNL A   1      41.334  27.418  27.783  1.00  0.00     0.057 A 
ATOM     64  C   UNL A   1      42.150  27.916  26.760  1.00  0.00     0.134 A 
ATOM     65  C   UNL A   1      40.744  26.163  27.585  1.00  0.00     0.134 A 
ATOM     66  F   UNL A   1      42.726  29.122  26.874  1.00  0.00    -0.206 F 
ATOM     67  C   UNL A   1      42.363  27.198  25.581  1.00  0.00     0.040 A 
ATOM     68  C   UNL A   1      40.969  25.424  26.422  1.00  0.00     0.040 A 
ATOM     69  F   UNL A   1      39.945  25.631  28.521  1.00  0.00    -0.206 F 
ATOM     70  C   UNL A   1      41.777  25.944  25.413  1.00  0.00     0.006 A 
ENDBRANCH  49  63
BRANCH  50  71
ATOM     71  C   UNL A   1      39.266  32.658  36.132  1.00  0.00     0.057 A 
ATOM     72  C   UNL A   1      38.395  32.122  37.086  1.00  0.00     0.134 A 
ATOM     73  C   UNL A   1      39.812  33.921  36.395  1.00  0.00     0.134 A 
ATOM     74  F   UNL A   1      37.830  30.923  36.886  1.00  0.00    -0.206 F 
ATOM     75  C   UNL A   1      38.061  32.823  38.246  1.00  0.00     0.040 A 
ATOM     76  C   UNL A   1      39.510  34.621  37.564  1.00  0.00     0.040 A 
ATOM     77  F   UNL A   1      40.662  34.488  35.525  1.00  0.00    -0.206 F 
ATOM     78  C   UNL A   1      38.624  34.076  38.489  1.00  0.00     0.006 A 
ENDBRANCH  50  71
BRANCH  62  79
ATOM     79  C   UNL A   1      43.976  27.791  34.485  1.00  0.00     0.057 A 
ATOM     80  C   UNL A   1      43.792  26.582  35.167  1.00  0.00     0.134 A 
ATOM     81  C   UNL A   1      45.249  28.373  34.525  1.00  0.00     0.134 A 
ATOM     82  F   UNL A   1      42.593  25.981  35.176  1.00  0.00    -0.206 F 
ATOM     83  C   UNL A   1      44.830  25.990  35.887  1.00  0.00     0.040 A 
ATOM     84  C   UNL A   1      46.303  27.775  35.215  1.00  0.00     0.040 A 
ATOM     85  F   UNL A   1      45.493  29.525  33.880  1.00  0.00    -0.206 F 
ATOM     86  C   UNL A   1      46.091  26.583  35.905  1.00  0.00     0.006 A 
ENDBRANCH  62  79
ENDBRANCH  36  37
ENDBRANCH  29  31
ENDBRANCH  28  29
ENDBRANCH  27  28
ENDBRANCH  26  27
ENDBRANCH  25  26
ENDBRANCH   1  25
TORSDOF 19
ENDMDL
