MODEL 1
REMARK VINA RESULT:     -11.4      0.000      0.000
REMARK SMILES COc1cc(/C=N/c2cccc(F)c2)ccc1OCc1cccc(C(=O)OCCOCCOC(=O)c2ccc(-c3c4nc(c(-c5c(F)cccc5F)c5ccc([nH]5)c(-c5c(F)cccc5F)c5nc(c(-c6c(F)cccc6F)c6ccc3[nH]6)C=C5)C=C4)cc2)c1
REMARK SMILES IDX 28 1 27 2 25 3 26 4 24 5 20 6 21 7 90 8 22 9 23 10 19 11
REMARK SMILES IDX 18 12 17 13 3 14 4 15 5 16 16 17 15 18 2 19 1 20 6 21 7 22
REMARK SMILES IDX 8 23 9 24 14 25 10 26 12 27 11 28 13 29 29 30 30 31 31 32
REMARK SMILES IDX 32 33 33 34 34 35 35 36 36 37 37 38 89 39 38 40 88 41 39 42
REMARK SMILES IDX 40 43 41 44 82 45 42 46 87 47 81 48 83 49 43 50 86 51 80 52
REMARK SMILES IDX 79 53 44 55 70 56 53 57 69 58 54 59 57 60 68 61 84 62 55 63
REMARK SMILES IDX 56 64 67 66 85 67 58 68 45 69 46 70 51 71 47 72 48 73 50 74
REMARK SMILES IDX 52 75 49 76 71 77 72 78 77 79 73 80 74 81 76 82 78 83 75 84
REMARK SMILES IDX 59 85 60 86 65 87 61 88 62 89 64 90 66 91 63 92
REMARK H PARENT 83 54 57 65
REMARK Flexibility Score: inf
ROOT
ATOM      1  C   UNL A   1      33.240  34.767  29.343  1.00  0.00     0.261 C 
ENDROOT
BRANCH   1   2
ATOM      2  O   UNL A   1      33.693  33.452  28.980  1.00  0.00    -0.460 OA
BRANCH   2   3
ATOM      3  C   UNL A   1      33.017  32.876  27.959  1.00  0.00     0.338 C 
ATOM      4  O   UNL A   1      32.176  33.401  27.240  1.00  0.00    -0.246 OA
BRANCH   3   5
ATOM      5  C   UNL A   1      33.583  31.541  27.682  1.00  0.00     0.060 A 
ATOM      6  C   UNL A   1      33.387  29.243  26.935  1.00  0.00    -0.010 A 
ATOM      7  C   UNL A   1      34.766  29.078  27.154  1.00  0.00     0.007 A 
ATOM      8  C   UNL A   1      32.786  30.467  27.276  1.00  0.00     0.023 A 
ATOM      9  C   UNL A   1      35.554  30.146  27.579  1.00  0.00     0.001 A 
ATOM     10  C   UNL A   1      34.968  31.385  27.817  1.00  0.00     0.016 A 
BRANCH   6  11
ATOM     11  C   UNL A   1      32.551  28.159  26.279  1.00  0.00     0.265 C 
BRANCH  11  12
ATOM     12  O   UNL A   1      33.040  27.660  25.026  1.00  0.00    -0.485 OA
BRANCH  12  13
ATOM     13  C   UNL A   1      32.828  26.354  24.668  1.00  0.00     0.161 A 
ATOM     14  C   UNL A   1      31.762  25.816  23.928  1.00  0.00     0.161 A 
ATOM     15  C   UNL A   1      31.778  24.453  23.589  1.00  0.00     0.060 A 
ATOM     16  C   UNL A   1      32.845  23.637  23.978  1.00  0.00    -0.003 A 
ATOM     17  C   UNL A   1      33.871  25.510  25.083  1.00  0.00     0.051 A 
ATOM     18  C   UNL A   1      33.890  24.160  24.735  1.00  0.00     0.014 A 
BRANCH  14  19
ATOM     19  O   UNL A   1      30.689  26.611  23.621  1.00  0.00    -0.493 OA
ATOM     20  C   UNL A   1      30.773  27.263  22.352  1.00  0.00     0.278 C 
ENDBRANCH  14  19
BRANCH  16  21
ATOM     21  C   UNL A   1      32.856  22.197  23.650  1.00  0.00     0.120 C 
ATOM     22  N   UNL A   1      33.230  21.304  24.511  1.00  0.00    -0.256 NA
BRANCH  22  23
ATOM     23  C   UNL A   1      33.317  19.975  24.068  1.00  0.00     0.066 A 
ATOM     24  C   UNL A   1      32.391  19.492  23.137  1.00  0.00     0.028 A 
ATOM     25  C   UNL A   1      34.249  19.090  24.618  1.00  0.00     0.067 A 
ATOM     26  C   UNL A   1      32.399  18.147  22.751  1.00  0.00     0.005 A 
ATOM     27  C   UNL A   1      34.254  17.756  24.227  1.00  0.00     0.125 A 
ATOM     28  C   UNL A   1      33.336  17.275  23.300  1.00  0.00     0.039 A 
ATOM     29  F   UNL A   1      35.150  16.918  24.765  1.00  0.00    -0.207 F 
ENDBRANCH  22  23
ENDBRANCH  16  21
ENDBRANCH  12  13
ENDBRANCH  11  12
ENDBRANCH   6  11
ENDBRANCH   3   5
ENDBRANCH   2   3
ENDBRANCH   1   2
BRANCH   1  30
ATOM     30  C   UNL A   1      34.142  35.387  30.415  1.00  0.00     0.202 C 
BRANCH  30  31
ATOM     31  O   UNL A   1      33.594  35.535  31.725  1.00  0.00    -0.374 OA
BRANCH  31  32
ATOM     32  C   UNL A   1      34.444  35.271  32.840  1.00  0.00     0.202 C 
BRANCH  32  33
ATOM     33  C   UNL A   1      35.866  34.772  32.553  1.00  0.00     0.261 C 
BRANCH  33  34
ATOM     34  O   UNL A   1      36.112  33.441  33.032  1.00  0.00    -0.460 OA
BRANCH  34  35
ATOM     35  C   UNL A   1      35.665  32.454  32.219  1.00  0.00     0.338 C 
ATOM     36  O   UNL A   1      34.505  32.193  31.929  1.00  0.00    -0.246 OA
BRANCH  35  37
ATOM     37  C   UNL A   1      36.807  31.795  31.565  1.00  0.00     0.060 A 
ATOM     38  C   UNL A   1      37.578  30.908  32.326  1.00  0.00     0.016 A 
ATOM     39  C   UNL A   1      37.151  32.084  30.243  1.00  0.00     0.016 A 
ATOM     40  C   UNL A   1      38.706  30.309  31.770  1.00  0.00     0.010 A 
ATOM     41  C   UNL A   1      38.293  31.494  29.691  1.00  0.00     0.010 A 
ATOM     42  C   UNL A   1      39.083  30.617  30.455  1.00  0.00    -0.014 A 
BRANCH  42  43
ATOM     43  C   UNL A   1      40.347  30.081  29.900  1.00  0.00     0.031 A 
ATOM     44  C   UNL A   1      41.534  30.987  29.755  1.00  0.00     0.074 A 
ATOM     45  C   UNL A   1      40.426  28.793  29.520  1.00  0.00     0.049 A 
ATOM     46  N   UNL A   1      42.702  30.742  29.219  1.00  0.00    -0.248 NA
ATOM     47  C   UNL A   1      41.386  32.352  30.285  1.00  0.00     0.031 C 
ATOM     48  C   UNL A   1      39.354  27.809  29.651  1.00  0.00     0.029 A 
ATOM     49  N   UNL A   1      41.453  28.100  28.932  1.00  0.00    -0.354 N 
ATOM     50  C   UNL A   1      43.427  31.920  29.342  1.00  0.00     0.074 A 
ATOM     51  C   UNL A   1      42.560  32.886  29.982  1.00  0.00     0.031 C 
ATOM     52  C   UNL A   1      39.774  26.639  29.140  1.00  0.00     0.029 A 
ATOM     53  C   UNL A   1      41.127  26.806  28.613  1.00  0.00     0.049 A 
ATOM     54  H   UNL A   1      42.338  28.493  28.755  1.00  0.00     0.167 HD
ATOM     55  C   UNL A   1      44.703  32.168  28.962  1.00  0.00     0.037 A 
ATOM     56  C   UNL A   1      41.828  25.873  27.940  1.00  0.00     0.037 A 
ATOM     57  C   UNL A   1      45.559  31.205  28.320  1.00  0.00     0.049 A 
ATOM     58  C   UNL A   1      43.206  26.206  27.434  1.00  0.00     0.074 A 
ATOM     59  C   UNL A   1      46.878  31.351  27.925  1.00  0.00     0.029 A 
ATOM     60  N   UNL A   1      45.175  29.922  27.963  1.00  0.00    -0.354 N 
ATOM     61  N   UNL A   1      43.895  27.311  27.581  1.00  0.00    -0.248 NA
ATOM     62  C   UNL A   1      43.898  25.166  26.659  1.00  0.00     0.031 C 
ATOM     63  C   UNL A   1      47.274  30.174  27.282  1.00  0.00     0.029 A 
ATOM     64  C   UNL A   1      46.218  29.278  27.317  1.00  0.00     0.049 A 
ATOM     65  H   UNL A   1      44.291  29.526  28.143  1.00  0.00     0.167 HD
ATOM     66  C   UNL A   1      45.105  27.096  26.932  1.00  0.00     0.074 A 
ATOM     67  C   UNL A   1      45.061  25.748  26.404  1.00  0.00     0.031 C 
ATOM     68  C   UNL A   1      46.157  27.938  26.789  1.00  0.00     0.037 A 
BRANCH  55  69
ATOM     69  C   UNL A   1      45.239  33.547  29.204  1.00  0.00     0.057 A 
ATOM     70  C   UNL A   1      45.922  33.880  30.382  1.00  0.00     0.134 A 
ATOM     71  C   UNL A   1      45.099  34.548  28.234  1.00  0.00     0.134 A 
ATOM     72  F   UNL A   1      46.080  32.971  31.355  1.00  0.00    -0.206 F 
ATOM     73  C   UNL A   1      46.426  35.165  30.595  1.00  0.00     0.040 A 
ATOM     74  C   UNL A   1      45.618  35.829  28.426  1.00  0.00     0.040 A 
ATOM     75  F   UNL A   1      44.460  34.295  27.082  1.00  0.00    -0.206 F 
ATOM     76  C   UNL A   1      46.279  36.142  29.612  1.00  0.00     0.006 A 
ENDBRANCH  55  69
BRANCH  56  77
ATOM     77  C   UNL A   1      41.228  24.542  27.679  1.00  0.00     0.057 A 
ATOM     78  C   UNL A   1      40.212  24.378  26.732  1.00  0.00     0.134 A 
ATOM     79  C   UNL A   1      41.651  23.402  28.375  1.00  0.00     0.134 A 
ATOM     80  F   UNL A   1      39.748  25.437  26.051  1.00  0.00    -0.206 F 
ATOM     81  C   UNL A   1      39.632  23.131  26.491  1.00  0.00     0.040 A 
ATOM     82  C   UNL A   1      41.096  22.146  28.129  1.00  0.00     0.040 A 
ATOM     83  F   UNL A   1      42.621  23.494  29.298  1.00  0.00    -0.206 F 
ATOM     84  C   UNL A   1      40.079  22.010  27.187  1.00  0.00     0.006 A 
ENDBRANCH  56  77
BRANCH  68  85
ATOM     85  C   UNL A   1      47.350  27.427  26.037  1.00  0.00     0.057 A 
ATOM     86  C   UNL A   1      48.383  26.735  26.680  1.00  0.00     0.134 A 
ATOM     87  C   UNL A   1      47.443  27.583  24.647  1.00  0.00     0.134 A 
ATOM     88  F   UNL A   1      48.360  26.565  28.012  1.00  0.00    -0.206 F 
ATOM     89  C   UNL A   1      49.473  26.228  25.971  1.00  0.00     0.040 A 
ATOM     90  C   UNL A   1      48.515  27.059  23.925  1.00  0.00     0.040 A 
ATOM     91  F   UNL A   1      46.483  28.230  23.968  1.00  0.00    -0.206 F 
ATOM     92  C   UNL A   1      49.537  26.383  24.588  1.00  0.00     0.006 A 
ENDBRANCH  68  85
ENDBRANCH  42  43
ENDBRANCH  35  37
ENDBRANCH  34  35
ENDBRANCH  33  34
ENDBRANCH  32  33
ENDBRANCH  31  32
ENDBRANCH  30  31
ENDBRANCH   1  30
TORSDOF 20
ENDMDL
MODEL 2
REMARK VINA RESULT:     -11.4      4.904     10.358
REMARK SMILES COc1cc(/C=N/c2cccc(F)c2)ccc1OCc1cccc(C(=O)OCCOCCOC(=O)c2ccc(-c3c4nc(c(-c5c(F)cccc5F)c5ccc([nH]5)c(-c5c(F)cccc5F)c5nc(c(-c6c(F)cccc6F)c6ccc3[nH]6)C=C5)C=C4)cc2)c1
REMARK SMILES IDX 28 1 27 2 25 3 26 4 24 5 20 6 21 7 90 8 22 9 23 10 19 11
REMARK SMILES IDX 18 12 17 13 3 14 4 15 5 16 16 17 15 18 2 19 1 20 6 21 7 22
REMARK SMILES IDX 8 23 9 24 14 25 10 26 12 27 11 28 13 29 29 30 30 31 31 32
REMARK SMILES IDX 32 33 33 34 34 35 35 36 36 37 37 38 89 39 38 40 88 41 39 42
REMARK SMILES IDX 40 43 41 44 82 45 42 46 87 47 81 48 83 49 43 50 86 51 80 52
REMARK SMILES IDX 79 53 44 55 70 56 53 57 69 58 54 59 57 60 68 61 84 62 55 63
REMARK SMILES IDX 56 64 67 66 85 67 58 68 45 69 46 70 51 71 47 72 48 73 50 74
REMARK SMILES IDX 52 75 49 76 71 77 72 78 77 79 73 80 74 81 76 82 78 83 75 84
REMARK SMILES IDX 59 85 60 86 65 87 61 88 62 89 64 90 66 91 63 92
REMARK H PARENT 83 54 57 65
REMARK Flexibility Score: inf
ROOT
ATOM      1  C   UNL A   1      40.576  21.410  27.360  1.00  0.00     0.261 C 
ENDROOT
BRANCH   1   2
ATOM      2  O   UNL A   1      39.873  21.922  26.216  1.00  0.00    -0.460 OA
BRANCH   2   3
ATOM      3  C   UNL A   1      38.994  21.061  25.652  1.00  0.00     0.338 C 
ATOM      4  O   UNL A   1      39.132  19.853  25.509  1.00  0.00    -0.246 OA
BRANCH   3   5
ATOM      5  C   UNL A   1      37.717  21.755  25.396  1.00  0.00     0.060 A 
ATOM      6  C   UNL A   1      35.361  21.767  24.826  1.00  0.00    -0.010 A 
ATOM      7  C   UNL A   1      35.354  23.164  24.980  1.00  0.00     0.007 A 
ATOM      8  C   UNL A   1      36.576  21.074  24.965  1.00  0.00     0.023 A 
ATOM      9  C   UNL A   1      36.500  23.843  25.390  1.00  0.00     0.001 A 
ATOM     10  C   UNL A   1      37.675  23.136  25.625  1.00  0.00     0.016 A 
BRANCH   6  11
ATOM     11  C   UNL A   1      34.081  20.988  24.583  1.00  0.00     0.265 C 
BRANCH  11  12
ATOM     12  O   UNL A   1      33.006  21.243  25.498  1.00  0.00    -0.485 OA
BRANCH  12  13
ATOM     13  C   UNL A   1      32.183  22.325  25.318  1.00  0.00     0.161 A 
ATOM     14  C   UNL A   1      31.679  23.207  26.288  1.00  0.00     0.161 A 
ATOM     15  C   UNL A   1      30.916  24.314  25.882  1.00  0.00     0.060 A 
ATOM     16  C   UNL A   1      30.663  24.543  24.526  1.00  0.00    -0.003 A 
ATOM     17  C   UNL A   1      31.884  22.549  23.964  1.00  0.00     0.051 A 
ATOM     18  C   UNL A   1      31.137  23.656  23.563  1.00  0.00     0.014 A 
BRANCH  14  19
ATOM     19  O   UNL A   1      31.871  22.926  27.616  1.00  0.00    -0.493 OA
ATOM     20  C   UNL A   1      33.220  22.616  27.970  1.00  0.00     0.278 C 
ENDBRANCH  14  19
BRANCH  16  21
ATOM     21  C   UNL A   1      29.838  25.689  24.093  1.00  0.00     0.120 C 
ATOM     22  N   UNL A   1      30.342  26.679  23.426  1.00  0.00    -0.256 NA
BRANCH  22  23
ATOM     23  C   UNL A   1      29.504  27.774  23.162  1.00  0.00     0.066 A 
ATOM     24  C   UNL A   1      28.139  27.689  23.456  1.00  0.00     0.028 A 
ATOM     25  C   UNL A   1      29.988  28.913  22.512  1.00  0.00     0.067 A 
ATOM     26  C   UNL A   1      27.268  28.731  23.116  1.00  0.00     0.005 A 
ATOM     27  C   UNL A   1      29.118  29.946  22.182  1.00  0.00     0.125 A 
ATOM     28  C   UNL A   1      27.762  29.865  22.474  1.00  0.00     0.039 A 
ATOM     29  F   UNL A   1      29.595  31.030  21.556  1.00  0.00    -0.207 F 
ENDBRANCH  22  23
ENDBRANCH  16  21
ENDBRANCH  12  13
ENDBRANCH  11  12
ENDBRANCH   6  11
ENDBRANCH   3   5
ENDBRANCH   2   3
ENDBRANCH   1   2
BRANCH   1  30
ATOM     30  C   UNL A   1      42.091  21.414  27.128  1.00  0.00     0.202 C 
BRANCH  30  31
ATOM     31  O   UNL A   1      42.556  20.976  25.851  1.00  0.00    -0.374 OA
BRANCH  31  32
ATOM     32  C   UNL A   1      43.863  21.375  25.443  1.00  0.00     0.202 C 
BRANCH  32  33
ATOM     33  C   UNL A   1      43.976  22.415  24.321  1.00  0.00     0.261 C 
BRANCH  33  34
ATOM     34  O   UNL A   1      43.381  23.679  24.652  1.00  0.00    -0.460 OA
BRANCH  34  35
ATOM     35  C   UNL A   1      44.252  24.622  25.083  1.00  0.00     0.338 C 
ATOM     36  O   UNL A   1      45.368  24.865  24.642  1.00  0.00    -0.246 OA
BRANCH  35  37
ATOM     37  C   UNL A   1      43.604  25.472  26.094  1.00  0.00     0.060 A 
ATOM     38  C   UNL A   1      43.934  26.833  26.118  1.00  0.00     0.016 A 
ATOM     39  C   UNL A   1      42.728  24.935  27.040  1.00  0.00     0.016 A 
ATOM     40  C   UNL A   1      43.395  27.666  27.096  1.00  0.00     0.010 A 
ATOM     41  C   UNL A   1      42.201  25.769  28.031  1.00  0.00     0.010 A 
ATOM     42  C   UNL A   1      42.542  27.132  28.073  1.00  0.00    -0.014 A 
BRANCH  42  43
ATOM     43  C   UNL A   1      42.065  27.983  29.187  1.00  0.00     0.031 A 
ATOM     44  C   UNL A   1      42.800  27.972  30.494  1.00  0.00     0.074 A 
ATOM     45  C   UNL A   1      40.974  28.754  29.029  1.00  0.00     0.049 A 
ATOM     46  N   UNL A   1      42.504  28.576  31.617  1.00  0.00    -0.248 NA
ATOM     47  C   UNL A   1      44.036  27.175  30.545  1.00  0.00     0.031 C 
ATOM     48  C   UNL A   1      40.203  28.880  27.794  1.00  0.00     0.029 A 
ATOM     49  N   UNL A   1      40.319  29.564  29.922  1.00  0.00    -0.354 N 
ATOM     50  C   UNL A   1      43.510  28.229  32.509  1.00  0.00     0.074 A 
ATOM     51  C   UNL A   1      44.413  27.344  31.804  1.00  0.00     0.031 C 
ATOM     52  C   UNL A   1      39.166  29.706  28.012  1.00  0.00     0.029 A 
ATOM     53  C   UNL A   1      39.181  30.134  29.410  1.00  0.00     0.049 A 
ATOM     54  H   UNL A   1      40.635  29.721  30.841  1.00  0.00     0.167 HD
ATOM     55  C   UNL A   1      43.669  28.621  33.795  1.00  0.00     0.037 A 
ATOM     56  C   UNL A   1      38.239  30.887  30.010  1.00  0.00     0.037 A 
ATOM     57  C   UNL A   1      42.764  29.497  34.493  1.00  0.00     0.049 A 
ATOM     58  C   UNL A   1      38.382  31.223  31.470  1.00  0.00     0.074 A 
ATOM     59  C   UNL A   1      42.855  29.978  35.788  1.00  0.00     0.029 A 
ATOM     60  N   UNL A   1      41.592  30.009  33.958  1.00  0.00    -0.354 N 
ATOM     61  N   UNL A   1      39.352  30.916  32.297  1.00  0.00    -0.248 NA
ATOM     62  C   UNL A   1      37.294  32.000  32.082  1.00  0.00     0.031 C 
ATOM     63  C   UNL A   1      41.712  30.738  36.052  1.00  0.00     0.029 A 
ATOM     64  C   UNL A   1      40.930  30.769  34.909  1.00  0.00     0.049 A 
ATOM     65  H   UNL A   1      41.277  29.856  33.037  1.00  0.00     0.167 HD
ATOM     66  C   UNL A   1      39.001  31.474  33.521  1.00  0.00     0.074 A 
ATOM     67  C   UNL A   1      37.735  32.151  33.323  1.00  0.00     0.031 C 
ATOM     68  C   UNL A   1      39.666  31.430  34.700  1.00  0.00     0.037 A 
BRANCH  55  69
ATOM     69  C   UNL A   1      44.851  28.079  34.541  1.00  0.00     0.057 A 
ATOM     70  C   UNL A   1      46.079  28.755  34.574  1.00  0.00     0.134 A 
ATOM     71  C   UNL A   1      44.753  26.882  35.261  1.00  0.00     0.134 A 
ATOM     72  F   UNL A   1      46.242  29.900  33.895  1.00  0.00    -0.206 F 
ATOM     73  C   UNL A   1      47.172  28.247  35.278  1.00  0.00     0.040 A 
ATOM     74  C   UNL A   1      45.832  26.376  35.988  1.00  0.00     0.040 A 
ATOM     75  F   UNL A   1      43.606  26.188  35.275  1.00  0.00    -0.206 F 
ATOM     76  C   UNL A   1      47.048  27.057  35.992  1.00  0.00     0.006 A 
ENDBRANCH  55  69
BRANCH  56  77
ATOM     77  C   UNL A   1      37.060  31.350  29.239  1.00  0.00     0.057 A 
ATOM     78  C   UNL A   1      36.999  32.646  28.718  1.00  0.00     0.134 A 
ATOM     79  C   UNL A   1      35.962  30.510  29.011  1.00  0.00     0.134 A 
ATOM     80  F   UNL A   1      38.008  33.505  28.924  1.00  0.00    -0.206 F 
ATOM     81  C   UNL A   1      35.885  33.094  28.003  1.00  0.00     0.040 A 
ATOM     82  C   UNL A   1      34.853  30.936  28.280  1.00  0.00     0.040 A 
ATOM     83  F   UNL A   1      35.960  29.255  29.487  1.00  0.00    -0.206 F 
ATOM     84  C   UNL A   1      34.811  32.235  27.778  1.00  0.00     0.006 A 
ENDBRANCH  56  77
BRANCH  68  85
ATOM     85  C   UNL A   1      39.045  32.137  35.868  1.00  0.00     0.057 A 
ATOM     86  C   UNL A   1      39.293  33.491  36.124  1.00  0.00     0.134 A 
ATOM     87  C   UNL A   1      38.150  31.472  36.716  1.00  0.00     0.134 A 
ATOM     88  F   UNL A   1      40.151  34.181  35.356  1.00  0.00    -0.206 F 
ATOM     89  C   UNL A   1      38.683  34.156  37.189  1.00  0.00     0.040 A 
ATOM     90  C   UNL A   1      37.516  32.131  37.770  1.00  0.00     0.040 A 
ATOM     91  F   UNL A   1      37.863  30.175  36.522  1.00  0.00    -0.206 F 
ATOM     92  C   UNL A   1      37.786  33.477  38.011  1.00  0.00     0.006 A 
ENDBRANCH  68  85
ENDBRANCH  42  43
ENDBRANCH  35  37
ENDBRANCH  34  35
ENDBRANCH  33  34
ENDBRANCH  32  33
ENDBRANCH  31  32
ENDBRANCH  30  31
ENDBRANCH   1  30
TORSDOF 20
ENDMDL
MODEL 3
REMARK VINA RESULT:     -11.3      4.975     10.681
REMARK SMILES COc1cc(/C=N/c2cccc(F)c2)ccc1OCc1cccc(C(=O)OCCOCCOC(=O)c2ccc(-c3c4nc(c(-c5c(F)cccc5F)c5ccc([nH]5)c(-c5c(F)cccc5F)c5nc(c(-c6c(F)cccc6F)c6ccc3[nH]6)C=C5)C=C4)cc2)c1
REMARK SMILES IDX 28 1 27 2 25 3 26 4 24 5 20 6 21 7 90 8 22 9 23 10 19 11
REMARK SMILES IDX 18 12 17 13 3 14 4 15 5 16 16 17 15 18 2 19 1 20 6 21 7 22
REMARK SMILES IDX 8 23 9 24 14 25 10 26 12 27 11 28 13 29 29 30 30 31 31 32
REMARK SMILES IDX 32 33 33 34 34 35 35 36 36 37 37 38 89 39 38 40 88 41 39 42
REMARK SMILES IDX 40 43 41 44 82 45 42 46 87 47 81 48 83 49 43 50 86 51 80 52
REMARK SMILES IDX 79 53 44 55 70 56 53 57 69 58 54 59 57 60 68 61 84 62 55 63
REMARK SMILES IDX 56 64 67 66 85 67 58 68 45 69 46 70 51 71 47 72 48 73 50 74
REMARK SMILES IDX 52 75 49 76 71 77 72 78 77 79 73 80 74 81 76 82 78 83 75 84
REMARK SMILES IDX 59 85 60 86 65 87 61 88 62 89 64 90 66 91 63 92
REMARK H PARENT 83 54 57 65
REMARK Flexibility Score: inf
ROOT
ATOM      1  C   UNL A   1      39.561  21.136  25.717  1.00  0.00     0.261 C 
ENDROOT
BRANCH   1   2
ATOM      2  O   UNL A   1      38.127  21.184  25.637  1.00  0.00    -0.460 OA
BRANCH   2   3
ATOM      3  C   UNL A   1      37.555  20.141  24.992  1.00  0.00     0.338 C 
ATOM      4  O   UNL A   1      38.102  19.110  24.623  1.00  0.00    -0.246 OA
BRANCH   3   5
ATOM      5  C   UNL A   1      36.090  20.323  24.960  1.00  0.00     0.060 A 
ATOM      6  C   UNL A   1      34.103  21.711  24.959  1.00  0.00    -0.010 A 
ATOM      7  C   UNL A   1      33.319  20.550  24.847  1.00  0.00     0.007 A 
ATOM      8  C   UNL A   1      35.496  21.581  25.091  1.00  0.00     0.023 A 
ATOM      9  C   UNL A   1      33.915  19.294  24.737  1.00  0.00     0.001 A 
ATOM     10  C   UNL A   1      35.301  19.183  24.767  1.00  0.00     0.016 A 
BRANCH   6  11
ATOM     11  C   UNL A   1      33.487  23.096  24.871  1.00  0.00     0.265 C 
BRANCH  11  12
ATOM     12  O   UNL A   1      32.091  23.144  24.549  1.00  0.00    -0.485 OA
BRANCH  12  13
ATOM     13  C   UNL A   1      31.434  24.346  24.483  1.00  0.00     0.161 A 
ATOM     14  C   UNL A   1      30.862  25.085  25.531  1.00  0.00     0.161 A 
ATOM     15  C   UNL A   1      30.308  26.347  25.262  1.00  0.00     0.060 A 
ATOM     16  C   UNL A   1      30.328  26.869  23.965  1.00  0.00    -0.003 A 
ATOM     17  C   UNL A   1      31.410  24.870  23.180  1.00  0.00     0.051 A 
ATOM     18  C   UNL A   1      30.869  26.129  22.917  1.00  0.00     0.014 A 
BRANCH  14  19
ATOM     19  O   UNL A   1      30.782  24.527  26.781  1.00  0.00    -0.493 OA
ATOM     20  C   UNL A   1      30.240  23.205  26.810  1.00  0.00     0.278 C 
ENDBRANCH  14  19
BRANCH  16  21
ATOM     21  C   UNL A   1      29.723  28.183  23.669  1.00  0.00     0.120 C 
ATOM     22  N   UNL A   1      29.748  28.694  22.478  1.00  0.00    -0.256 NA
BRANCH  22  23
ATOM     23  C   UNL A   1      29.250  29.997  22.322  1.00  0.00     0.066 A 
ATOM     24  C   UNL A   1      29.200  30.856  23.424  1.00  0.00     0.028 A 
ATOM     25  C   UNL A   1      28.705  30.421  21.107  1.00  0.00     0.067 A 
ATOM     26  C   UNL A   1      28.623  32.126  23.315  1.00  0.00     0.005 A 
ATOM     27  C   UNL A   1      28.137  31.685  21.004  1.00  0.00     0.125 A 
ATOM     28  C   UNL A   1      28.088  32.542  22.097  1.00  0.00     0.039 A 
ATOM     29  F   UNL A   1      27.614  32.077  19.834  1.00  0.00    -0.207 F 
ENDBRANCH  22  23
ENDBRANCH  16  21
ENDBRANCH  12  13
ENDBRANCH  11  12
ENDBRANCH   6  11
ENDBRANCH   3   5
ENDBRANCH   2   3
ENDBRANCH   1   2
BRANCH   1  30
ATOM     30  C   UNL A   1      40.065  21.761  27.022  1.00  0.00     0.202 C 
BRANCH  30  31
ATOM     31  O   UNL A   1      41.371  21.391  27.462  1.00  0.00    -0.374 OA
BRANCH  31  32
ATOM     32  C   UNL A   1      42.257  20.806  26.510  1.00  0.00     0.202 C 
BRANCH  32  33
ATOM     33  C   UNL A   1      43.264  21.728  25.808  1.00  0.00     0.261 C 
BRANCH  33  34
ATOM     34  O   UNL A   1      42.675  22.934  25.300  1.00  0.00    -0.460 OA
BRANCH  34  35
ATOM     35  C   UNL A   1      43.473  24.027  25.363  1.00  0.00     0.338 C 
ATOM     36  O   UNL A   1      44.433  24.292  24.652  1.00  0.00    -0.246 OA
BRANCH  35  37
ATOM     37  C   UNL A   1      42.926  24.985  26.336  1.00  0.00     0.060 A 
ATOM     38  C   UNL A   1      43.527  26.247  26.424  1.00  0.00     0.016 A 
ATOM     39  C   UNL A   1      41.877  24.635  27.188  1.00  0.00     0.016 A 
ATOM     40  C   UNL A   1      43.086  27.166  27.374  1.00  0.00     0.010 A 
ATOM     41  C   UNL A   1      41.446  25.552  28.151  1.00  0.00     0.010 A 
ATOM     42  C   UNL A   1      42.057  26.815  28.259  1.00  0.00    -0.014 A 
BRANCH  42  43
ATOM     43  C   UNL A   1      41.667  27.738  29.349  1.00  0.00     0.031 A 
ATOM     44  C   UNL A   1      42.402  27.691  30.656  1.00  0.00     0.074 A 
ATOM     45  C   UNL A   1      40.655  28.606  29.170  1.00  0.00     0.049 A 
ATOM     46  N   UNL A   1      42.168  28.351  31.762  1.00  0.00    -0.248 NA
ATOM     47  C   UNL A   1      43.555  26.780  30.728  1.00  0.00     0.031 C 
ATOM     48  C   UNL A   1      39.896  28.772  27.933  1.00  0.00     0.029 A 
ATOM     49  N   UNL A   1      40.085  29.499  30.041  1.00  0.00    -0.354 N 
ATOM     50  C   UNL A   1      43.139  27.933  32.662  1.00  0.00     0.074 A 
ATOM     51  C   UNL A   1      43.950  26.946  31.982  1.00  0.00     0.031 C 
ATOM     52  C   UNL A   1      38.945  29.700  28.128  1.00  0.00     0.029 A 
ATOM     53  C   UNL A   1      39.005  30.163  29.514  1.00  0.00     0.049 A 
ATOM     54  H   UNL A   1      40.417  29.650  30.955  1.00  0.00     0.167 HD
ATOM     55  C   UNL A   1      43.339  28.342  33.937  1.00  0.00     0.037 A 
ATOM     56  C   UNL A   1      38.142  31.019  30.094  1.00  0.00     0.037 A 
ATOM     57  C   UNL A   1      42.525  29.320  34.611  1.00  0.00     0.049 A 
ATOM     58  C   UNL A   1      38.321  31.379  31.544  1.00  0.00     0.074 A 
ATOM     59  C   UNL A   1      42.666  29.825  35.893  1.00  0.00     0.029 A 
ATOM     60  N   UNL A   1      41.406  29.928  34.063  1.00  0.00    -0.354 N 
ATOM     61  N   UNL A   1      39.259  31.003  32.379  1.00  0.00    -0.248 NA
ATOM     62  C   UNL A   1      37.316  32.274  32.135  1.00  0.00     0.031 C 
ATOM     63  C   UNL A   1      41.602  30.699  36.137  1.00  0.00     0.029 A 
ATOM     64  C   UNL A   1      40.824  30.775  34.993  1.00  0.00     0.049 A 
ATOM     65  H   UNL A   1      41.075  29.782  33.147  1.00  0.00     0.167 HD
ATOM     66  C   UNL A   1      38.967  31.624  33.587  1.00  0.00     0.074 A 
ATOM     67  C   UNL A   1      37.773  32.415  33.371  1.00  0.00     0.031 C 
ATOM     68  C   UNL A   1      39.629  31.548  34.767  1.00  0.00     0.037 A 
BRANCH  55  69
ATOM     69  C   UNL A   1      44.466  27.709  34.697  1.00  0.00     0.057 A 
ATOM     70  C   UNL A   1      45.752  28.265  34.713  1.00  0.00     0.134 A 
ATOM     71  C   UNL A   1      44.255  26.545  35.448  1.00  0.00     0.134 A 
ATOM     72  F   UNL A   1      46.023  29.372  34.005  1.00  0.00    -0.206 F 
ATOM     73  C   UNL A   1      46.794  27.673  35.431  1.00  0.00     0.040 A 
ATOM     74  C   UNL A   1      45.282  25.957  36.188  1.00  0.00     0.040 A 
ATOM     75  F   UNL A   1      43.047  25.965  35.480  1.00  0.00    -0.206 F 
ATOM     76  C   UNL A   1      46.558  26.518  36.175  1.00  0.00     0.006 A 
ENDBRANCH  55  69
BRANCH  56  77
ATOM     77  C   UNL A   1      37.011  31.573  29.311  1.00  0.00     0.057 A 
ATOM     78  C   UNL A   1      35.858  30.819  29.070  1.00  0.00     0.134 A 
ATOM     79  C   UNL A   1      37.057  32.869  28.780  1.00  0.00     0.134 A 
ATOM     80  F   UNL A   1      35.765  29.563  29.532  1.00  0.00    -0.206 F 
ATOM     81  C   UNL A   1      34.795  31.328  28.321  1.00  0.00     0.040 A 
ATOM     82  C   UNL A   1      35.994  33.399  28.050  1.00  0.00     0.040 A 
ATOM     83  F   UNL A   1      38.136  33.641  28.976  1.00  0.00    -0.206 F 
ATOM     84  C   UNL A   1      34.860  32.625  27.815  1.00  0.00     0.006 A 
ENDBRANCH  56  77
BRANCH  68  85
ATOM     85  C   UNL A   1      39.083  32.344  35.915  1.00  0.00     0.057 A 
ATOM     86  C   UNL A   1      38.229  31.772  36.866  1.00  0.00     0.134 A 
ATOM     87  C   UNL A   1      39.456  33.682  36.103  1.00  0.00     0.134 A 
ATOM     88  F   UNL A   1      37.824  30.499  36.736  1.00  0.00    -0.206 F 
ATOM     89  C   UNL A   1      37.754  32.505  37.954  1.00  0.00     0.040 A 
ATOM     90  C   UNL A   1      39.007  34.417  37.200  1.00  0.00     0.040 A 
ATOM     91  F   UNL A   1      40.278  34.288  35.233  1.00  0.00    -0.206 F 
ATOM     92  C   UNL A   1      38.149  33.830  38.127  1.00  0.00     0.006 A 
ENDBRANCH  68  85
ENDBRANCH  42  43
ENDBRANCH  35  37
ENDBRANCH  34  35
ENDBRANCH  33  34
ENDBRANCH  32  33
ENDBRANCH  31  32
ENDBRANCH  30  31
ENDBRANCH   1  30
TORSDOF 20
ENDMDL
