MODEL 1
REMARK VINA RESULT:     -11.0      0.000      0.000
REMARK SMILES Nc1nc(Nc2ccc(C(=O)OCCOCCOC(=O)c3ccc(-c4c5nc(c(-c6c(F)cccc6F)c6ccc([nH]6)c(-c6c(F)cccc6F)c6nc(c(-c7c(F)cccc7F)c7ccc4[nH]7)C=C6)C=C5)cc3)cc2)ccc1[N+](=O)[O-]
REMARK SMILES IDX 14 1 13 2 12 3 10 4 11 5 9 6 6 7 7 8 76 9 8 10 75 11 5 12
REMARK SMILES IDX 4 14 2 15 3 16 79 17 78 18 77 19 1 20 80 23 81 24 82 25
REMARK SMILES IDX 15 26 16 27 17 28 18 29 19 30 20 31 21 32 22 33 74 34 23 35
REMARK SMILES IDX 73 36 24 37 25 38 26 39 67 40 27 41 72 42 66 43 68 44 28 45
REMARK SMILES IDX 71 46 65 47 64 48 29 50 55 51 38 52 54 53 39 54 42 55 53 56
REMARK SMILES IDX 69 57 40 58 41 59 52 61 70 62 43 63 30 64 31 65 36 66 32 67
REMARK SMILES IDX 33 68 35 69 37 70 34 71 56 72 57 73 62 74 58 75 59 76 61 77
REMARK SMILES IDX 63 78 60 79 44 80 45 81 50 82 46 83 47 84 49 85 51 86 48 87
REMARK H PARENT 5 13 1 21 1 22 68 49 42 60
REMARK Flexibility Score: inf
ROOT
ATOM      1  C   UNL A   1      33.179  35.398  30.202  1.00  0.00     0.202 C 
ENDROOT
BRANCH   1   2
ATOM      2  C   UNL A   1      33.337  34.706  28.846  1.00  0.00     0.261 C 
BRANCH   2   3
ATOM      3  O   UNL A   1      33.727  33.333  29.010  1.00  0.00    -0.460 OA
BRANCH   3   4
ATOM      4  C   UNL A   1      34.548  32.858  28.044  1.00  0.00     0.338 C 
ATOM      5  O   UNL A   1      35.568  33.387  27.624  1.00  0.00    -0.246 OA
BRANCH   4   6
ATOM      6  C   UNL A   1      34.130  31.501  27.630  1.00  0.00     0.060 A 
ATOM      7  C   UNL A   1      33.136  28.943  27.049  1.00  0.00     0.040 A 
ATOM      8  C   UNL A   1      32.307  30.065  26.931  1.00  0.00     0.027 A 
ATOM      9  C   UNL A   1      34.487  29.129  27.384  1.00  0.00     0.027 A 
ATOM     10  C   UNL A   1      32.799  31.335  27.230  1.00  0.00     0.018 A 
ATOM     11  C   UNL A   1      34.991  30.402  27.662  1.00  0.00     0.018 A 
BRANCH   7  12
ATOM     12  N   UNL A   1      32.551  27.659  27.049  1.00  0.00    -0.340 N 
ATOM     13  H   UNL A   1      32.051  27.374  27.848  1.00  0.00     0.168 HD
BRANCH  12  14
ATOM     14  C   UNL A   1      32.643  26.761  25.966  1.00  0.00     0.133 A 
ATOM     15  C   UNL A   1      31.568  25.384  24.397  1.00  0.00     0.204 A 
ATOM     16  N   UNL A   1      31.516  26.202  25.465  1.00  0.00    -0.207 NA
ATOM     17  C   UNL A   1      32.780  25.081  23.792  1.00  0.00     0.311 A 
ATOM     18  C   UNL A   1      33.961  25.623  24.317  1.00  0.00     0.093 A 
ATOM     19  C   UNL A   1      33.888  26.464  25.427  1.00  0.00     0.054 A 
BRANCH  15  20
ATOM     20  N   UNL A   1      30.347  24.841  24.063  1.00  0.00    -0.378 N 
ATOM     21  H   UNL A   1      29.833  24.335  24.733  1.00  0.00     0.158 HD
ATOM     22  H   UNL A   1      29.988  24.959  23.153  1.00  0.00     0.158 HD
ENDBRANCH  15  20
BRANCH  17  23
ATOM     23  N   UNL A   1      32.846  24.238  22.607  1.00  0.00     0.066 N 
ATOM     24  O   UNL A   1      32.499  23.054  22.731  1.00  0.00    -0.258 OA
ATOM     25  O   UNL A   1      33.283  24.728  21.553  1.00  0.00    -0.258 OA
ENDBRANCH  17  23
ENDBRANCH  12  14
ENDBRANCH   7  12
ENDBRANCH   4   6
ENDBRANCH   3   4
ENDBRANCH   2   3
ENDBRANCH   1   2
BRANCH   1  26
ATOM     26  O   UNL A   1      34.157  35.069  31.189  1.00  0.00    -0.374 OA
BRANCH  26  27
ATOM     27  C   UNL A   1      33.675  34.741  32.493  1.00  0.00     0.202 C 
BRANCH  27  28
ATOM     28  C   UNL A   1      33.813  33.271  32.907  1.00  0.00     0.261 C 
BRANCH  28  29
ATOM     29  O   UNL A   1      34.867  32.613  32.179  1.00  0.00    -0.460 OA
BRANCH  29  30
ATOM     30  C   UNL A   1      35.987  32.366  32.894  1.00  0.00     0.338 C 
ATOM     31  O   UNL A   1      36.173  32.585  34.084  1.00  0.00    -0.246 OA
BRANCH  30  32
ATOM     32  C   UNL A   1      36.950  31.607  32.075  1.00  0.00     0.060 A 
ATOM     33  C   UNL A   1      37.888  30.813  32.749  1.00  0.00     0.016 A 
ATOM     34  C   UNL A   1      36.983  31.717  30.683  1.00  0.00     0.016 A 
ATOM     35  C   UNL A   1      38.896  30.168  32.036  1.00  0.00     0.010 A 
ATOM     36  C   UNL A   1      38.002  31.075  29.970  1.00  0.00     0.010 A 
ATOM     37  C   UNL A   1      38.982  30.326  30.646  1.00  0.00    -0.014 A 
BRANCH  37  38
ATOM     38  C   UNL A   1      40.181  29.832  29.928  1.00  0.00     0.031 A 
ATOM     39  C   UNL A   1      41.335  30.771  29.704  1.00  0.00     0.074 A 
ATOM     40  C   UNL A   1      40.259  28.555  29.513  1.00  0.00     0.049 A 
ATOM     41  N   UNL A   1      42.464  30.565  29.076  1.00  0.00    -0.248 NA
ATOM     42  C   UNL A   1      41.198  32.123  30.269  1.00  0.00     0.031 C 
ATOM     43  C   UNL A   1      39.230  27.536  29.713  1.00  0.00     0.029 A 
ATOM     44  N   UNL A   1      41.255  27.901  28.834  1.00  0.00    -0.354 N 
ATOM     45  C   UNL A   1      43.172  31.755  29.173  1.00  0.00     0.074 A 
ATOM     46  C   UNL A   1      42.332  32.692  29.888  1.00  0.00     0.031 C 
ATOM     47  C   UNL A   1      39.647  26.383  29.160  1.00  0.00     0.029 A 
ATOM     48  C   UNL A   1      40.955  26.592  28.544  1.00  0.00     0.049 A 
ATOM     49  H   UNL A   1      42.105  28.328  28.579  1.00  0.00     0.167 HD
ATOM     50  C   UNL A   1      44.416  32.040  28.717  1.00  0.00     0.037 A 
ATOM     51  C   UNL A   1      41.652  25.676  27.844  1.00  0.00     0.037 A 
ATOM     52  C   UNL A   1      45.249  31.113  27.999  1.00  0.00     0.049 A 
ATOM     53  C   UNL A   1      42.993  26.049  27.268  1.00  0.00     0.074 A 
ATOM     54  C   UNL A   1      46.520  31.312  27.488  1.00  0.00     0.029 A 
ATOM     55  N   UNL A   1      44.892  29.810  27.689  1.00  0.00    -0.354 N 
ATOM     56  N   UNL A   1      43.656  27.175  27.370  1.00  0.00    -0.248 NA
ATOM     57  C   UNL A   1      43.682  25.018  26.476  1.00  0.00     0.031 C 
ATOM     58  C   UNL A   1      46.916  30.140  26.835  1.00  0.00     0.029 A 
ATOM     59  C   UNL A   1      45.911  29.198  26.978  1.00  0.00     0.049 A 
ATOM     60  H   UNL A   1      44.040  29.383  27.938  1.00  0.00     0.167 HD
ATOM     61  C   UNL A   1      44.851  26.977  26.688  1.00  0.00     0.074 A 
ATOM     62  C   UNL A   1      44.826  25.621  26.184  1.00  0.00     0.031 C 
ATOM     63  C   UNL A   1      45.878  27.841  26.499  1.00  0.00     0.037 A 
BRANCH  50  64
ATOM     64  C   UNL A   1      44.945  33.421  28.974  1.00  0.00     0.057 A 
ATOM     65  C   UNL A   1      44.702  34.477  28.086  1.00  0.00     0.134 A 
ATOM     66  C   UNL A   1      45.671  33.705  30.136  1.00  0.00     0.134 A 
ATOM     67  F   UNL A   1      44.025  34.266  26.947  1.00  0.00    -0.206 F 
ATOM     68  C   UNL A   1      45.178  35.764  28.338  1.00  0.00     0.040 A 
ATOM     69  C   UNL A   1      46.132  34.993  30.411  1.00  0.00     0.040 A 
ATOM     70  F   UNL A   1      45.935  32.738  31.028  1.00  0.00    -0.206 F 
ATOM     71  C   UNL A   1      45.889  36.027  29.508  1.00  0.00     0.006 A 
ENDBRANCH  50  64
BRANCH  51  72
ATOM     72  C   UNL A   1      41.098  24.315  27.630  1.00  0.00     0.057 A 
ATOM     73  C   UNL A   1      41.630  23.204  28.293  1.00  0.00     0.134 A 
ATOM     74  C   UNL A   1      40.054  24.088  26.724  1.00  0.00     0.134 A 
ATOM     75  F   UNL A   1      42.649  23.355  29.152  1.00  0.00    -0.206 F 
ATOM     76  C   UNL A   1      41.162  21.912  28.046  1.00  0.00     0.040 A 
ATOM     77  C   UNL A   1      39.559  22.805  26.487  1.00  0.00     0.040 A 
ATOM     78  F   UNL A   1      39.501  25.111  26.056  1.00  0.00    -0.206 F 
ATOM     79  C   UNL A   1      40.120  21.711  27.143  1.00  0.00     0.006 A 
ENDBRANCH  51  72
BRANCH  63  80
ATOM     80  C   UNL A   1      47.077  27.332  25.755  1.00  0.00     0.057 A 
ATOM     81  C   UNL A   1      47.242  27.544  24.381  1.00  0.00     0.134 A 
ATOM     82  C   UNL A   1      48.098  26.653  26.433  1.00  0.00     0.134 A 
ATOM     83  F   UNL A   1      46.294  28.176  23.672  1.00  0.00    -0.206 F 
ATOM     84  C   UNL A   1      48.370  27.080  23.702  1.00  0.00     0.040 A 
ATOM     85  C   UNL A   1      49.242  26.206  25.770  1.00  0.00     0.040 A 
ATOM     86  F   UNL A   1      48.007  26.425  27.751  1.00  0.00    -0.206 F 
ATOM     87  C   UNL A   1      49.377  26.414  24.399  1.00  0.00     0.006 A 
ENDBRANCH  63  80
ENDBRANCH  37  38
ENDBRANCH  30  32
ENDBRANCH  29  30
ENDBRANCH  28  29
ENDBRANCH  27  28
ENDBRANCH  26  27
ENDBRANCH   1  26
TORSDOF 18
ENDMDL
MODEL 2
REMARK VINA RESULT:     -10.9      0.727      6.228
REMARK SMILES Nc1nc(Nc2ccc(C(=O)OCCOCCOC(=O)c3ccc(-c4c5nc(c(-c6c(F)cccc6F)c6ccc([nH]6)c(-c6c(F)cccc6F)c6nc(c(-c7c(F)cccc7F)c7ccc4[nH]7)C=C6)C=C5)cc3)cc2)ccc1[N+](=O)[O-]
REMARK SMILES IDX 14 1 13 2 12 3 10 4 11 5 9 6 6 7 7 8 76 9 8 10 75 11 5 12
REMARK SMILES IDX 4 14 2 15 3 16 79 17 78 18 77 19 1 20 80 23 81 24 82 25
REMARK SMILES IDX 15 26 16 27 17 28 18 29 19 30 20 31 21 32 22 33 74 34 23 35
REMARK SMILES IDX 73 36 24 37 25 38 26 39 67 40 27 41 72 42 66 43 68 44 28 45
REMARK SMILES IDX 71 46 65 47 64 48 29 50 55 51 38 52 54 53 39 54 42 55 53 56
REMARK SMILES IDX 69 57 40 58 41 59 52 61 70 62 43 63 30 64 31 65 36 66 32 67
REMARK SMILES IDX 33 68 35 69 37 70 34 71 56 72 57 73 62 74 58 75 59 76 61 77
REMARK SMILES IDX 63 78 60 79 44 80 45 81 50 82 46 83 47 84 49 85 51 86 48 87
REMARK H PARENT 5 13 1 21 1 22 68 49 42 60
REMARK Flexibility Score: inf
ROOT
ATOM      1  C   UNL A   1      33.617  35.270  30.464  1.00  0.00     0.202 C 
ENDROOT
BRANCH   1   2
ATOM      2  C   UNL A   1      33.658  34.509  29.137  1.00  0.00     0.261 C 
BRANCH   2   3
ATOM      3  O   UNL A   1      34.198  33.189  29.316  1.00  0.00    -0.460 OA
BRANCH   3   4
ATOM      4  C   UNL A   1      35.058  32.792  28.348  1.00  0.00     0.338 C 
ATOM      5  O   UNL A   1      36.102  33.341  28.027  1.00  0.00    -0.246 OA
BRANCH   4   6
ATOM      6  C   UNL A   1      34.643  31.486  27.792  1.00  0.00     0.060 A 
ATOM      7  C   UNL A   1      33.655  29.003  26.939  1.00  0.00     0.040 A 
ATOM      8  C   UNL A   1      32.823  30.129  26.943  1.00  0.00     0.027 A 
ATOM      9  C   UNL A   1      35.006  29.156  27.291  1.00  0.00     0.027 A 
ATOM     10  C   UNL A   1      33.311  31.361  27.377  1.00  0.00     0.018 A 
ATOM     11  C   UNL A   1      35.507  30.393  27.704  1.00  0.00     0.018 A 
BRANCH   7  12
ATOM     12  N   UNL A   1      33.074  27.724  26.801  1.00  0.00    -0.340 N 
ATOM     13  H   UNL A   1      32.614  27.335  27.580  1.00  0.00     0.168 HD
BRANCH  12  14
ATOM     14  C   UNL A   1      33.114  26.975  25.608  1.00  0.00     0.133 A 
ATOM     15  C   UNL A   1      32.316  26.619  23.428  1.00  0.00     0.204 A 
ATOM     16  N   UNL A   1      32.264  27.281  24.600  1.00  0.00    -0.207 NA
ATOM     17  C   UNL A   1      33.233  25.596  23.231  1.00  0.00     0.311 A 
ATOM     18  C   UNL A   1      34.098  25.242  24.274  1.00  0.00     0.093 A 
ATOM     19  C   UNL A   1      34.026  25.935  25.482  1.00  0.00     0.054 A 
BRANCH  15  20
ATOM     20  N   UNL A   1      31.335  26.998  22.540  1.00  0.00    -0.378 N 
ATOM     21  H   UNL A   1      31.414  27.851  22.054  1.00  0.00     0.158 HD
ATOM     22  H   UNL A   1      30.554  26.417  22.390  1.00  0.00     0.158 HD
ENDBRANCH  15  20
BRANCH  17  23
ATOM     23  N   UNL A   1      33.335  24.904  21.954  1.00  0.00     0.066 N 
ATOM     24  O   UNL A   1      33.540  23.681  21.984  1.00  0.00    -0.258 OA
ATOM     25  O   UNL A   1      33.255  25.570  20.910  1.00  0.00    -0.258 OA
ENDBRANCH  17  23
ENDBRANCH  12  14
ENDBRANCH   7  12
ENDBRANCH   4   6
ENDBRANCH   3   4
ENDBRANCH   2   3
ENDBRANCH   1   2
BRANCH   1  26
ATOM     26  O   UNL A   1      34.597  34.893  31.432  1.00  0.00    -0.374 OA
BRANCH  26  27
ATOM     27  C   UNL A   1      34.121  34.540  32.732  1.00  0.00     0.202 C 
BRANCH  27  28
ATOM     28  C   UNL A   1      34.384  33.096  33.172  1.00  0.00     0.261 C 
BRANCH  28  29
ATOM     29  O   UNL A   1      35.451  32.497  32.413  1.00  0.00    -0.460 OA
BRANCH  29  30
ATOM     30  C   UNL A   1      36.523  32.111  33.140  1.00  0.00     0.338 C 
ATOM     31  O   UNL A   1      36.649  32.149  34.357  1.00  0.00    -0.246 OA
BRANCH  30  32
ATOM     32  C   UNL A   1      37.510  31.446  32.269  1.00  0.00     0.060 A 
ATOM     33  C   UNL A   1      38.572  30.774  32.889  1.00  0.00     0.016 A 
ATOM     34  C   UNL A   1      37.440  31.530  30.876  1.00  0.00     0.016 A 
ATOM     35  C   UNL A   1      39.597  30.229  32.120  1.00  0.00     0.010 A 
ATOM     36  C   UNL A   1      38.476  30.990  30.105  1.00  0.00     0.010 A 
ATOM     37  C   UNL A   1      39.575  30.367  30.725  1.00  0.00    -0.014 A 
BRANCH  37  38
ATOM     38  C   UNL A   1      40.772  29.994  29.935  1.00  0.00     0.031 A 
ATOM     39  C   UNL A   1      40.866  28.605  29.365  1.00  0.00     0.074 A 
ATOM     40  C   UNL A   1      41.746  30.890  29.694  1.00  0.00     0.049 A 
ATOM     41  N   UNL A   1      41.830  28.054  28.674  1.00  0.00    -0.248 NA
ATOM     42  C   UNL A   1      39.714  27.720  29.604  1.00  0.00     0.031 C 
ATOM     43  C   UNL A   1      41.749  32.279  30.148  1.00  0.00     0.029 A 
ATOM     44  N   UNL A   1      42.925  30.757  29.004  1.00  0.00    -0.354 N 
ATOM     45  C   UNL A   1      41.402  26.763  28.392  1.00  0.00     0.074 A 
ATOM     46  C   UNL A   1      40.107  26.599  29.018  1.00  0.00     0.031 C 
ATOM     47  C   UNL A   1      42.882  32.871  29.730  1.00  0.00     0.029 A 
ATOM     48  C   UNL A   1      43.694  31.895  29.007  1.00  0.00     0.049 A 
ATOM     49  H   UNL A   1      43.194  29.926  28.551  1.00  0.00     0.167 HD
ATOM     50  C   UNL A   1      42.026  25.803  27.667  1.00  0.00     0.037 A 
ATOM     51  C   UNL A   1      44.922  32.114  28.498  1.00  0.00     0.037 A 
ATOM     52  C   UNL A   1      43.316  25.961  27.051  1.00  0.00     0.049 A 
ATOM     53  C   UNL A   1      45.634  30.999  27.776  1.00  0.00     0.074 A 
ATOM     54  C   UNL A   1      44.035  25.044  26.306  1.00  0.00     0.029 A 
ATOM     55  N   UNL A   1      44.081  27.116  27.111  1.00  0.00    -0.354 N 
ATOM     56  N   UNL A   1      45.217  29.785  27.511  1.00  0.00    -0.248 NA
ATOM     57  C   UNL A   1      46.988  31.289  27.284  1.00  0.00     0.031 C 
ATOM     58  C   UNL A   1      45.253  25.630  25.947  1.00  0.00     0.029 A 
ATOM     59  C   UNL A   1      45.273  26.928  26.432  1.00  0.00     0.049 A 
ATOM     60  H   UNL A   1      43.817  27.946  27.570  1.00  0.00     0.167 HD
ATOM     61  C   UNL A   1      46.242  29.179  26.793  1.00  0.00     0.074 A 
ATOM     62  C   UNL A   1      47.296  30.162  26.657  1.00  0.00     0.031 C 
ATOM     63  C   UNL A   1      46.304  27.922  26.290  1.00  0.00     0.037 A 
BRANCH  50  64
ATOM     64  C   UNL A   1      41.320  24.488  27.513  1.00  0.00     0.057 A 
ATOM     65  C   UNL A   1      41.679  23.368  28.275  1.00  0.00     0.134 A 
ATOM     66  C   UNL A   1      40.249  24.350  26.623  1.00  0.00     0.134 A 
ATOM     67  F   UNL A   1      42.707  23.432  29.135  1.00  0.00    -0.206 F 
ATOM     68  C   UNL A   1      41.007  22.152  28.144  1.00  0.00     0.040 A 
ATOM     69  C   UNL A   1      39.554  23.146  26.500  1.00  0.00     0.040 A 
ATOM     70  F   UNL A   1      39.853  25.385  25.866  1.00  0.00    -0.206 F 
ATOM     71  C   UNL A   1      39.935  22.041  27.259  1.00  0.00     0.006 A 
ENDBRANCH  50  64
BRANCH  51  72
ATOM     72  C   UNL A   1      45.575  33.438  28.658  1.00  0.00     0.057 A 
ATOM     73  C   UNL A   1      46.335  33.737  29.795  1.00  0.00     0.134 A 
ATOM     74  C   UNL A   1      45.418  34.449  27.703  1.00  0.00     0.134 A 
ATOM     75  F   UNL A   1      46.499  32.818  30.758  1.00  0.00    -0.206 F 
ATOM     76  C   UNL A   1      46.895  35.002  29.988  1.00  0.00     0.040 A 
ATOM     77  C   UNL A   1      45.993  35.709  27.870  1.00  0.00     0.040 A 
ATOM     78  F   UNL A   1      44.701  34.225  26.592  1.00  0.00    -0.206 F 
ATOM     79  C   UNL A   1      46.727  35.991  29.021  1.00  0.00     0.006 A 
ENDBRANCH  51  72
BRANCH  63  80
ATOM     80  C   UNL A   1      47.529  27.554  25.506  1.00  0.00     0.057 A 
ATOM     81  C   UNL A   1      48.680  27.050  26.124  1.00  0.00     0.134 A 
ATOM     82  C   UNL A   1      47.542  27.671  24.110  1.00  0.00     0.134 A 
ATOM     83  F   UNL A   1      48.736  26.927  27.459  1.00  0.00    -0.206 F 
ATOM     84  C   UNL A   1      49.809  26.695  25.384  1.00  0.00     0.040 A 
ATOM     85  C   UNL A   1      48.655  27.296  23.357  1.00  0.00     0.040 A 
ATOM     86  F   UNL A   1      46.469  28.139  23.456  1.00  0.00    -0.206 F 
ATOM     87  C   UNL A   1      49.795  26.813  23.995  1.00  0.00     0.006 A 
ENDBRANCH  63  80
ENDBRANCH  37  38
ENDBRANCH  30  32
ENDBRANCH  29  30
ENDBRANCH  28  29
ENDBRANCH  27  28
ENDBRANCH  26  27
ENDBRANCH   1  26
TORSDOF 18
ENDMDL
MODEL 3
REMARK VINA RESULT:     -10.8      5.174     10.414
REMARK SMILES Nc1nc(Nc2ccc(C(=O)OCCOCCOC(=O)c3ccc(-c4c5nc(c(-c6c(F)cccc6F)c6ccc([nH]6)c(-c6c(F)cccc6F)c6nc(c(-c7c(F)cccc7F)c7ccc4[nH]7)C=C6)C=C5)cc3)cc2)ccc1[N+](=O)[O-]
REMARK SMILES IDX 14 1 13 2 12 3 10 4 11 5 9 6 6 7 7 8 76 9 8 10 75 11 5 12
REMARK SMILES IDX 4 14 2 15 3 16 79 17 78 18 77 19 1 20 80 23 81 24 82 25
REMARK SMILES IDX 15 26 16 27 17 28 18 29 19 30 20 31 21 32 22 33 74 34 23 35
REMARK SMILES IDX 73 36 24 37 25 38 26 39 67 40 27 41 72 42 66 43 68 44 28 45
REMARK SMILES IDX 71 46 65 47 64 48 29 50 55 51 38 52 54 53 39 54 42 55 53 56
REMARK SMILES IDX 69 57 40 58 41 59 52 61 70 62 43 63 30 64 31 65 36 66 32 67
REMARK SMILES IDX 33 68 35 69 37 70 34 71 56 72 57 73 62 74 58 75 59 76 61 77
REMARK SMILES IDX 63 78 60 79 44 80 45 81 50 82 46 83 47 84 49 85 51 86 48 87
REMARK H PARENT 5 13 1 21 1 22 68 49 42 60
REMARK Flexibility Score: inf
ROOT
ATOM      1  C   UNL A   1      41.173  21.416  26.564  1.00  0.00     0.202 C 
ENDROOT
BRANCH   1   2
ATOM      2  C   UNL A   1      39.760  21.527  25.985  1.00  0.00     0.261 C 
BRANCH   2   3
ATOM      3  O   UNL A   1      38.917  22.322  26.835  1.00  0.00    -0.460 OA
BRANCH   3   4
ATOM      4  C   UNL A   1      38.312  23.364  26.217  1.00  0.00     0.338 C 
ATOM      5  O   UNL A   1      38.776  24.483  26.046  1.00  0.00    -0.246 OA
BRANCH   4   6
ATOM      6  C   UNL A   1      37.024  22.939  25.625  1.00  0.00     0.060 A 
ATOM      7  C   UNL A   1      34.572  21.933  24.708  1.00  0.00     0.040 A 
ATOM      8  C   UNL A   1      34.682  22.448  26.005  1.00  0.00     0.027 A 
ATOM      9  C   UNL A   1      35.684  22.002  23.854  1.00  0.00     0.027 A 
ATOM     10  C   UNL A   1      35.903  22.939  26.464  1.00  0.00     0.018 A 
ATOM     11  C   UNL A   1      36.905  22.514  24.301  1.00  0.00     0.018 A 
BRANCH   7  12
ATOM     12  N   UNL A   1      33.436  21.166  24.372  1.00  0.00    -0.340 N 
ATOM     13  H   UNL A   1      32.672  21.624  23.951  1.00  0.00     0.168 HD
BRANCH  12  14
ATOM     14  C   UNL A   1      33.336  19.779  24.604  1.00  0.00     0.133 A 
ATOM     15  C   UNL A   1      33.711  17.583  23.862  1.00  0.00     0.204 A 
ATOM     16  N   UNL A   1      33.744  18.912  23.648  1.00  0.00    -0.207 NA
ATOM     17  C   UNL A   1      33.243  17.069  25.064  1.00  0.00     0.311 A 
ATOM     18  C   UNL A   1      32.784  17.949  26.052  1.00  0.00     0.093 A 
ATOM     19  C   UNL A   1      32.821  19.322  25.810  1.00  0.00     0.054 A 
BRANCH  15  20
ATOM     20  N   UNL A   1      34.086  16.841  22.765  1.00  0.00    -0.378 N 
ATOM     21  H   UNL A   1      34.961  16.391  22.751  1.00  0.00     0.158 HD
ATOM     22  H   UNL A   1      33.479  16.761  21.994  1.00  0.00     0.158 HD
ENDBRANCH  15  20
BRANCH  17  23
ATOM     23  N   UNL A   1      33.248  15.637  25.329  1.00  0.00     0.066 N 
ATOM     24  O   UNL A   1      34.342  15.054  25.281  1.00  0.00    -0.258 OA
ATOM     25  O   UNL A   1      32.166  15.070  25.545  1.00  0.00    -0.258 OA
ENDBRANCH  17  23
ENDBRANCH  12  14
ENDBRANCH   7  12
ENDBRANCH   4   6
ENDBRANCH   3   4
ENDBRANCH   2   3
ENDBRANCH   1   2
BRANCH   1  26
ATOM     26  O   UNL A   1      42.141  20.777  25.731  1.00  0.00    -0.374 OA
BRANCH  26  27
ATOM     27  C   UNL A   1      43.497  21.205  25.869  1.00  0.00     0.202 C 
BRANCH  27  28
ATOM     28  C   UNL A   1      44.050  22.056  24.721  1.00  0.00     0.261 C 
BRANCH  28  29
ATOM     29  O   UNL A   1      43.387  23.332  24.640  1.00  0.00    -0.460 OA
BRANCH  29  30
ATOM     30  C   UNL A   1      44.132  24.390  25.031  1.00  0.00     0.338 C 
ATOM     31  O   UNL A   1      45.233  24.719  24.609  1.00  0.00    -0.246 OA
BRANCH  30  32
ATOM     32  C   UNL A   1      43.355  25.241  25.950  1.00  0.00     0.060 A 
ATOM     33  C   UNL A   1      43.723  26.589  26.050  1.00  0.00     0.016 A 
ATOM     34  C   UNL A   1      42.331  24.724  26.748  1.00  0.00     0.016 A 
ATOM     35  C   UNL A   1      43.104  27.414  26.986  1.00  0.00     0.010 A 
ATOM     36  C   UNL A   1      41.717  25.552  27.694  1.00  0.00     0.010 A 
ATOM     37  C   UNL A   1      42.125  26.891  27.841  1.00  0.00    -0.014 A 
BRANCH  37  38
ATOM     38  C   UNL A   1      41.639  27.704  28.981  1.00  0.00     0.031 A 
ATOM     39  C   UNL A   1      42.369  27.627  30.294  1.00  0.00     0.074 A 
ATOM     40  C   UNL A   1      40.587  28.530  28.840  1.00  0.00     0.049 A 
ATOM     41  N   UNL A   1      42.103  28.223  31.428  1.00  0.00    -0.248 NA
ATOM     42  C   UNL A   1      43.562  26.765  30.331  1.00  0.00     0.031 C 
ATOM     43  C   UNL A   1      39.827  28.731  27.608  1.00  0.00     0.029 A 
ATOM     44  N   UNL A   1      39.976  29.354  29.752  1.00  0.00    -0.354 N 
ATOM     45  C   UNL A   1      43.095  27.813  32.311  1.00  0.00     0.074 A 
ATOM     46  C   UNL A   1      43.946  26.889  31.593  1.00  0.00     0.031 C 
ATOM     47  C   UNL A   1      38.845  29.619  27.842  1.00  0.00     0.029 A 
ATOM     48  C   UNL A   1      38.889  30.023  29.246  1.00  0.00     0.049 A 
ATOM     49  H   UNL A   1      40.288  29.457  30.680  1.00  0.00     0.167 HD
ATOM     50  C   UNL A   1      43.285  28.181  33.601  1.00  0.00     0.037 A 
ATOM     51  C   UNL A   1      38.019  30.853  29.855  1.00  0.00     0.037 A 
ATOM     52  C   UNL A   1      42.435  29.093  34.319  1.00  0.00     0.049 A 
ATOM     53  C   UNL A   1      38.201  31.173  31.315  1.00  0.00     0.074 A 
ATOM     54  C   UNL A   1      42.540  29.520  35.630  1.00  0.00     0.029 A 
ATOM     55  N   UNL A   1      41.319  29.717  33.782  1.00  0.00    -0.354 N 
ATOM     56  N   UNL A   1      39.144  30.784  32.138  1.00  0.00    -0.248 NA
ATOM     57  C   UNL A   1      37.192  32.048  31.930  1.00  0.00     0.031 C 
ATOM     58  C   UNL A   1      41.466  30.373  35.900  1.00  0.00     0.029 A 
ATOM     59  C   UNL A   1      40.717  30.512  34.742  1.00  0.00     0.049 A 
ATOM     60  H   UNL A   1      41.002  29.611  32.856  1.00  0.00     0.167 HD
ATOM     61  C   UNL A   1      38.863  31.394  33.355  1.00  0.00     0.074 A 
ATOM     62  C   UNL A   1      37.666  32.185  33.161  1.00  0.00     0.031 C 
ATOM     63  C   UNL A   1      39.537  31.308  34.528  1.00  0.00     0.037 A 
BRANCH  50  64
ATOM     64  C   UNL A   1      44.457  27.583  34.322  1.00  0.00     0.057 A 
ATOM     65  C   UNL A   1      44.385  26.318  34.919  1.00  0.00     0.134 A 
ATOM     66  C   UNL A   1      45.679  28.262  34.388  1.00  0.00     0.134 A 
ATOM     67  F   UNL A   1      43.237  25.623  34.903  1.00  0.00    -0.206 F 
ATOM     68  C   UNL A   1      45.483  25.756  35.572  1.00  0.00     0.040 A 
ATOM     69  C   UNL A   1      46.792  27.701  35.017  1.00  0.00     0.040 A 
ATOM     70  F   UNL A   1      45.816  29.476  33.834  1.00  0.00    -0.206 F 
ATOM     71  C   UNL A   1      46.694  26.446  35.615  1.00  0.00     0.006 A 
ENDBRANCH  50  64
BRANCH  51  72
ATOM     72  C   UNL A   1      36.884  31.436  29.096  1.00  0.00     0.057 A 
ATOM     73  C   UNL A   1      36.898  32.775  28.687  1.00  0.00     0.134 A 
ATOM     74  C   UNL A   1      35.740  30.684  28.803  1.00  0.00     0.134 A 
ATOM     75  F   UNL A   1      37.954  33.553  28.962  1.00  0.00    -0.206 F 
ATOM     76  C   UNL A   1      35.806  33.351  28.034  1.00  0.00     0.040 A 
ATOM     77  C   UNL A   1      34.652  31.240  28.129  1.00  0.00     0.040 A 
ATOM     78  F   UNL A   1      35.664  29.396  29.169  1.00  0.00    -0.206 F 
ATOM     79  C   UNL A   1      34.679  32.581  27.751  1.00  0.00     0.006 A 
ENDBRANCH  51  72
BRANCH  63  80
ATOM     80  C   UNL A   1      39.024  32.124  35.678  1.00  0.00     0.057 A 
ATOM     81  C   UNL A   1      38.222  31.568  36.682  1.00  0.00     0.134 A 
ATOM     82  C   UNL A   1      39.369  33.476  35.799  1.00  0.00     0.134 A 
ATOM     83  F   UNL A   1      37.846  30.282  36.617  1.00  0.00    -0.206 F 
ATOM     84  C   UNL A   1      37.764  32.333  37.756  1.00  0.00     0.040 A 
ATOM     85  C   UNL A   1      38.937  34.246  36.881  1.00  0.00     0.040 A 
ATOM     86  F   UNL A   1      40.141  34.069  34.876  1.00  0.00    -0.206 F 
ATOM     87  C   UNL A   1      38.127  33.675  37.860  1.00  0.00     0.006 A 
ENDBRANCH  63  80
ENDBRANCH  37  38
ENDBRANCH  30  32
ENDBRANCH  29  30
ENDBRANCH  28  29
ENDBRANCH  27  28
ENDBRANCH  26  27
ENDBRANCH   1  26
TORSDOF 18
ENDMDL
