MODEL 1
REMARK VINA RESULT:     -11.8      0.000      0.000
REMARK SMILES CCn1cc(S(=O)(=O)N2CCC(CCc3ccc(C(=O)OCCOCCOC(=O)c4ccc(-c5c6nc(c(-c7c(F)cccc7F)c7ccc([nH]7)c(-c7c(F)cccc7F)c7nc(c(-c8c(F)cccc8F)c8ccc5[nH]8)C=C7)C=C6)cc4)cc3)CC2)cn1
REMARK SMILES IDX 22 1 21 2 19 3 20 4 18 5 15 6 16 7 85 8 17 9 84 10 14 11
REMARK SMILES IDX 13 12 12 13 9 14 10 15 87 16 11 17 86 18 6 19 7 20 8 21 5 22
REMARK SMILES IDX 3 23 4 24 89 25 88 26 2 27 1 28 23 29 24 30 25 31 26 32
REMARK SMILES IDX 27 33 28 34 29 35 30 36 31 37 83 38 32 39 82 40 33 41 34 42
REMARK SMILES IDX 35 43 76 44 36 45 81 46 75 47 77 48 37 49 80 50 74 51 73 52
REMARK SMILES IDX 38 54 64 55 47 56 63 57 48 58 51 59 62 60 78 61 49 62 50 63
REMARK SMILES IDX 61 65 79 66 52 67 39 68 40 69 45 70 41 71 42 72 44 73 46 74
REMARK SMILES IDX 43 75 65 76 66 77 71 78 67 79 68 80 70 81 72 82 69 83 53 84
REMARK SMILES IDX 54 85 59 86 55 87 56 88 58 89 60 90 57 91
REMARK H PARENT 77 53 51 64
REMARK Flexibility Score: inf
ROOT
ATOM      1  C   UNL A   1      40.957  21.022  26.256  1.00  0.00     0.261 C 
ENDROOT
BRANCH   1   2
ATOM      2  O   UNL A   1      39.602  20.796  25.827  1.00  0.00    -0.460 OA
BRANCH   2   3
ATOM      3  C   UNL A   1      38.791  21.874  25.987  1.00  0.00     0.338 C 
ATOM      4  O   UNL A   1      39.122  22.980  26.386  1.00  0.00    -0.246 OA
BRANCH   3   5
ATOM      5  C   UNL A   1      37.425  21.615  25.483  1.00  0.00     0.060 A 
ATOM      6  C   UNL A   1      34.706  21.175  24.941  1.00  0.00    -0.048 A 
ATOM      7  C   UNL A   1      35.161  22.454  25.285  1.00  0.00     0.004 A 
ATOM      8  C   UNL A   1      35.643  20.134  24.804  1.00  0.00     0.004 A 
ATOM      9  C   UNL A   1      36.509  22.671  25.559  1.00  0.00     0.016 A 
ATOM     10  C   UNL A   1      37.003  20.352  25.065  1.00  0.00     0.016 A 
BRANCH   6  11
ATOM     11  C   UNL A   1      33.223  20.903  24.840  1.00  0.00     0.036 C 
BRANCH  11  12
ATOM     12  C   UNL A   1      32.604  21.118  23.452  1.00  0.00     0.008 C 
BRANCH  12  13
ATOM     13  C   UNL A   1      31.874  22.458  23.262  1.00  0.00    -0.008 C 
ATOM     14  N   UNL A   1      31.476  25.343  23.532  1.00  0.00    -0.198 NA
ATOM     15  C   UNL A   1      30.685  24.388  24.346  1.00  0.00     0.103 C 
ATOM     16  C   UNL A   1      32.115  24.797  22.304  1.00  0.00     0.103 C 
ATOM     17  C   UNL A   1      31.441  23.089  24.588  1.00  0.00     0.020 C 
ATOM     18  C   UNL A   1      32.794  23.455  22.543  1.00  0.00     0.020 C 
BRANCH  14  19
ATOM     19  S   UNL A   1      30.729  26.883  23.321  1.00  0.00     0.246 S 
ATOM     20  O   UNL A   1      29.462  26.889  23.988  1.00  0.00    -0.207 OA
ATOM     21  O   UNL A   1      30.878  27.274  21.924  1.00  0.00    -0.207 OA
BRANCH  19  22
ATOM     22  C   UNL A   1      31.643  28.061  24.159  1.00  0.00     0.120 A 
ATOM     23  N   UNL A   1      32.243  29.784  25.352  1.00  0.00    -0.272 N 
ATOM     24  C   UNL A   1      31.181  29.225  24.715  1.00  0.00     0.130 A 
ATOM     25  N   UNL A   1      33.385  29.103  25.186  1.00  0.00    -0.180 NA
ATOM     26  C   UNL A   1      33.013  28.036  24.461  1.00  0.00     0.156 A 
BRANCH  23  27
ATOM     27  C   UNL A   1      32.123  30.868  26.300  1.00  0.00     0.141 C 
ATOM     28  C   UNL A   1      33.182  30.720  27.372  1.00  0.00     0.029 C 
ENDBRANCH  23  27
ENDBRANCH  19  22
ENDBRANCH  14  19
ENDBRANCH  12  13
ENDBRANCH  11  12
ENDBRANCH   6  11
ENDBRANCH   3   5
ENDBRANCH   2   3
ENDBRANCH   1   2
BRANCH   1  29
ATOM     29  C   UNL A   1      41.383  20.258  27.516  1.00  0.00     0.202 C 
BRANCH  29  30
ATOM     30  O   UNL A   1      42.420  19.289  27.432  1.00  0.00    -0.374 OA
BRANCH  30  31
ATOM     31  C   UNL A   1      42.529  18.489  26.268  1.00  0.00     0.202 C 
BRANCH  31  32
ATOM     32  C   UNL A   1      43.781  18.587  25.407  1.00  0.00     0.261 C 
BRANCH  32  33
ATOM     33  O   UNL A   1      43.806  19.645  24.445  1.00  0.00    -0.460 OA
BRANCH  33  34
ATOM     34  C   UNL A   1      45.053  20.142  24.225  1.00  0.00     0.338 C 
ATOM     35  O   UNL A   1      46.050  19.485  23.971  1.00  0.00    -0.246 OA
BRANCH  34  36
ATOM     36  C   UNL A   1      45.118  21.564  24.618  1.00  0.00     0.060 A 
ATOM     37  C   UNL A   1      45.881  21.860  25.749  1.00  0.00     0.016 A 
ATOM     38  C   UNL A   1      44.191  22.484  24.125  1.00  0.00     0.016 A 
ATOM     39  C   UNL A   1      45.551  22.964  26.514  1.00  0.00     0.010 A 
ATOM     40  C   UNL A   1      43.792  23.527  24.942  1.00  0.00     0.010 A 
ATOM     41  C   UNL A   1      44.441  23.736  26.158  1.00  0.00    -0.014 A 
BRANCH  41  42
ATOM     42  C   UNL A   1      44.175  24.952  26.911  1.00  0.00     0.031 A 
ATOM     43  C   UNL A   1      45.261  25.937  26.702  1.00  0.00     0.074 A 
ATOM     44  C   UNL A   1      43.061  25.223  27.619  1.00  0.00     0.049 A 
ATOM     45  N   UNL A   1      46.195  26.255  27.536  1.00  0.00    -0.248 NA
ATOM     46  C   UNL A   1      45.480  26.451  25.338  1.00  0.00     0.031 C 
ATOM     47  C   UNL A   1      41.811  24.467  27.637  1.00  0.00     0.029 A 
ATOM     48  N   UNL A   1      42.774  26.301  28.409  1.00  0.00    -0.354 N 
ATOM     49  C   UNL A   1      46.971  27.194  26.866  1.00  0.00     0.074 A 
ATOM     50  C   UNL A   1      46.652  27.069  25.474  1.00  0.00     0.031 C 
ATOM     51  C   UNL A   1      40.838  25.216  28.205  1.00  0.00     0.029 A 
ATOM     52  C   UNL A   1      41.422  26.444  28.715  1.00  0.00     0.049 A 
ATOM     53  H   UNL A   1      43.463  26.924  28.734  1.00  0.00     0.167 HD
ATOM     54  C   UNL A   1      47.525  28.232  27.546  1.00  0.00     0.037 A 
ATOM     55  C   UNL A   1      40.829  27.517  29.299  1.00  0.00     0.037 A 
ATOM     56  C   UNL A   1      47.533  27.955  28.961  1.00  0.00     0.049 A 
ATOM     57  C   UNL A   1      41.888  28.302  29.972  1.00  0.00     0.074 A 
ATOM     58  C   UNL A   1      48.175  27.077  29.807  1.00  0.00     0.029 A 
ATOM     59  N   UNL A   1      46.437  28.434  29.625  1.00  0.00    -0.354 N 
ATOM     60  N   UNL A   1      42.508  27.918  31.051  1.00  0.00    -0.248 NA
ATOM     61  C   UNL A   1      42.511  29.409  29.256  1.00  0.00     0.031 C 
ATOM     62  C   UNL A   1      47.297  26.890  30.917  1.00  0.00     0.029 A 
ATOM     63  C   UNL A   1      46.168  27.687  30.736  1.00  0.00     0.049 A 
ATOM     64  H   UNL A   1      45.909  29.214  29.338  1.00  0.00     0.167 HD
ATOM     65  C   UNL A   1      43.792  28.404  30.897  1.00  0.00     0.074 A 
ATOM     66  C   UNL A   1      43.682  29.456  29.895  1.00  0.00     0.031 C 
ATOM     67  C   UNL A   1      44.857  27.682  31.349  1.00  0.00     0.037 A 
BRANCH  54  68
ATOM     68  C   UNL A   1      47.535  29.663  27.031  1.00  0.00     0.057 A 
ATOM     69  C   UNL A   1      48.718  30.412  27.179  1.00  0.00     0.134 A 
ATOM     70  C   UNL A   1      46.392  30.427  26.709  1.00  0.00     0.134 A 
ATOM     71  F   UNL A   1      49.877  29.813  27.491  1.00  0.00    -0.206 F 
ATOM     72  C   UNL A   1      48.739  31.811  27.106  1.00  0.00     0.040 A 
ATOM     73  C   UNL A   1      46.414  31.819  26.586  1.00  0.00     0.040 A 
ATOM     74  F   UNL A   1      45.168  29.904  26.591  1.00  0.00    -0.206 F 
ATOM     75  C   UNL A   1      47.582  32.521  26.818  1.00  0.00     0.006 A 
ENDBRANCH  54  68
BRANCH  55  76
ATOM     76  C   UNL A   1      39.456  28.062  29.168  1.00  0.00     0.057 A 
ATOM     77  C   UNL A   1      38.592  28.123  30.277  1.00  0.00     0.134 A 
ATOM     78  C   UNL A   1      39.067  28.811  28.048  1.00  0.00     0.134 A 
ATOM     79  F   UNL A   1      38.886  27.468  31.410  1.00  0.00    -0.206 F 
ATOM     80  C   UNL A   1      37.440  28.921  30.287  1.00  0.00     0.040 A 
ATOM     81  C   UNL A   1      37.912  29.605  28.040  1.00  0.00     0.040 A 
ATOM     82  F   UNL A   1      39.842  28.877  26.957  1.00  0.00    -0.206 F 
ATOM     83  C   UNL A   1      37.106  29.679  29.170  1.00  0.00     0.006 A 
ENDBRANCH  55  76
BRANCH  67  84
ATOM     84  C   UNL A   1      44.602  26.701  32.452  1.00  0.00     0.057 A 
ATOM     85  C   UNL A   1      44.356  25.333  32.274  1.00  0.00     0.134 A 
ATOM     86  C   UNL A   1      44.674  27.169  33.770  1.00  0.00     0.134 A 
ATOM     87  F   UNL A   1      44.358  24.776  31.054  1.00  0.00    -0.206 F 
ATOM     88  C   UNL A   1      44.136  24.483  33.362  1.00  0.00     0.040 A 
ATOM     89  C   UNL A   1      44.499  26.325  34.864  1.00  0.00     0.040 A 
ATOM     90  F   UNL A   1      44.947  28.462  34.014  1.00  0.00    -0.206 F 
ATOM     91  C   UNL A   1      44.213  24.978  34.663  1.00  0.00     0.006 A 
ENDBRANCH  67  84
ENDBRANCH  41  42
ENDBRANCH  34  36
ENDBRANCH  33  34
ENDBRANCH  32  33
ENDBRANCH  31  32
ENDBRANCH  30  31
ENDBRANCH  29  30
ENDBRANCH   1  29
TORSDOF 20
ENDMDL
MODEL 2
REMARK VINA RESULT:     -10.9      4.387      9.630
REMARK SMILES CCn1cc(S(=O)(=O)N2CCC(CCc3ccc(C(=O)OCCOCCOC(=O)c4ccc(-c5c6nc(c(-c7c(F)cccc7F)c7ccc([nH]7)c(-c7c(F)cccc7F)c7nc(c(-c8c(F)cccc8F)c8ccc5[nH]8)C=C7)C=C6)cc4)cc3)CC2)cn1
REMARK SMILES IDX 22 1 21 2 19 3 20 4 18 5 15 6 16 7 85 8 17 9 84 10 14 11
REMARK SMILES IDX 13 12 12 13 9 14 10 15 87 16 11 17 86 18 6 19 7 20 8 21 5 22
REMARK SMILES IDX 3 23 4 24 89 25 88 26 2 27 1 28 23 29 24 30 25 31 26 32
REMARK SMILES IDX 27 33 28 34 29 35 30 36 31 37 83 38 32 39 82 40 33 41 34 42
REMARK SMILES IDX 35 43 76 44 36 45 81 46 75 47 77 48 37 49 80 50 74 51 73 52
REMARK SMILES IDX 38 54 64 55 47 56 63 57 48 58 51 59 62 60 78 61 49 62 50 63
REMARK SMILES IDX 61 65 79 66 52 67 39 68 40 69 45 70 41 71 42 72 44 73 46 74
REMARK SMILES IDX 43 75 65 76 66 77 71 78 67 79 68 80 70 81 72 82 69 83 53 84
REMARK SMILES IDX 54 85 59 86 55 87 56 88 58 89 60 90 57 91
REMARK H PARENT 77 53 51 64
REMARK Flexibility Score: inf
ROOT
ATOM      1  C   UNL A   1      33.136  36.481  31.346  1.00  0.00     0.261 C 
ENDROOT
BRANCH   1   2
ATOM      2  O   UNL A   1      33.918  36.069  30.209  1.00  0.00    -0.460 OA
BRANCH   2   3
ATOM      3  C   UNL A   1      33.173  35.591  29.179  1.00  0.00     0.338 C 
ATOM      4  O   UNL A   1      32.151  36.085  28.728  1.00  0.00    -0.246 OA
BRANCH   3   5
ATOM      5  C   UNL A   1      33.815  34.427  28.529  1.00  0.00     0.060 A 
ATOM      6  C   UNL A   1      34.891  31.992  27.641  1.00  0.00    -0.048 A 
ATOM      7  C   UNL A   1      33.506  32.193  27.644  1.00  0.00     0.004 A 
ATOM      8  C   UNL A   1      35.734  33.052  28.023  1.00  0.00     0.004 A 
ATOM      9  C   UNL A   1      32.971  33.400  28.090  1.00  0.00     0.016 A 
ATOM     10  C   UNL A   1      35.200  34.273  28.459  1.00  0.00     0.016 A 
BRANCH   6  11
ATOM     11  C   UNL A   1      35.454  30.620  27.347  1.00  0.00     0.036 C 
BRANCH  11  12
ATOM     12  C   UNL A   1      34.671  29.443  27.942  1.00  0.00     0.008 C 
BRANCH  12  13
ATOM     13  C   UNL A   1      33.754  28.701  26.955  1.00  0.00    -0.008 C 
ATOM     14  N   UNL A   1      31.759  28.462  24.830  1.00  0.00    -0.198 NA
ATOM     15  C   UNL A   1      31.402  28.178  26.242  1.00  0.00     0.103 C 
ATOM     16  C   UNL A   1      33.207  28.422  24.491  1.00  0.00     0.103 C 
ATOM     17  C   UNL A   1      32.269  28.967  27.213  1.00  0.00     0.020 C 
ATOM     18  C   UNL A   1      34.069  29.143  25.519  1.00  0.00     0.020 C 
BRANCH  14  19
ATOM     19  S   UNL A   1      30.736  27.693  23.673  1.00  0.00     0.246 S 
ATOM     20  O   UNL A   1      30.188  26.501  24.245  1.00  0.00    -0.207 OA
ATOM     21  O   UNL A   1      31.421  27.698  22.385  1.00  0.00    -0.207 OA
BRANCH  19  22
ATOM     22  C   UNL A   1      29.370  28.685  23.396  1.00  0.00     0.120 A 
ATOM     23  N   UNL A   1      28.055  30.399  23.100  1.00  0.00    -0.272 N 
ATOM     24  C   UNL A   1      29.303  30.050  23.509  1.00  0.00     0.130 A 
ATOM     25  N   UNL A   1      27.278  29.348  22.800  1.00  0.00    -0.180 NA
ATOM     26  C   UNL A   1      28.092  28.295  22.972  1.00  0.00     0.156 A 
BRANCH  23  27
ATOM     27  C   UNL A   1      27.666  31.756  22.795  1.00  0.00     0.141 C 
ATOM     28  C   UNL A   1      28.385  32.218  21.544  1.00  0.00     0.029 C 
ENDBRANCH  23  27
ENDBRANCH  19  22
ENDBRANCH  14  19
ENDBRANCH  12  13
ENDBRANCH  11  12
ENDBRANCH   6  11
ENDBRANCH   3   5
ENDBRANCH   2   3
ENDBRANCH   1   2
BRANCH   1  29
ATOM     29  C   UNL A   1      33.581  35.899  32.694  1.00  0.00     0.202 C 
BRANCH  29  30
ATOM     30  O   UNL A   1      34.798  35.171  32.775  1.00  0.00    -0.374 OA
BRANCH  30  31
ATOM     31  C   UNL A   1      35.028  34.324  33.887  1.00  0.00     0.202 C 
BRANCH  31  32
ATOM     32  C   UNL A   1      35.614  32.937  33.662  1.00  0.00     0.261 C 
BRANCH  32  33
ATOM     33  O   UNL A   1      36.459  32.785  32.518  1.00  0.00    -0.460 OA
BRANCH  33  34
ATOM     34  C   UNL A   1      35.873  32.090  31.506  1.00  0.00     0.338 C 
ATOM     35  O   UNL A   1      34.673  31.971  31.322  1.00  0.00    -0.246 OA
BRANCH  34  36
ATOM     36  C   UNL A   1      36.870  31.248  30.815  1.00  0.00     0.060 A 
ATOM     37  C   UNL A   1      36.753  29.869  31.001  1.00  0.00     0.016 A 
ATOM     38  C   UNL A   1      38.055  31.800  30.324  1.00  0.00     0.016 A 
ATOM     39  C   UNL A   1      37.886  29.079  30.922  1.00  0.00     0.010 A 
ATOM     40  C   UNL A   1      39.205  31.032  30.346  1.00  0.00     0.010 A 
ATOM     41  C   UNL A   1      39.125  29.684  30.692  1.00  0.00    -0.014 A 
BRANCH  41  42
ATOM     42  C   UNL A   1      40.287  28.828  30.505  1.00  0.00     0.031 A 
ATOM     43  C   UNL A   1      40.983  28.613  31.795  1.00  0.00     0.074 A 
ATOM     44  C   UNL A   1      40.648  28.214  29.361  1.00  0.00     0.049 A 
ATOM     45  N   UNL A   1      42.096  29.144  32.178  1.00  0.00    -0.248 NA
ATOM     46  C   UNL A   1      40.251  27.921  32.871  1.00  0.00     0.031 C 
ATOM     47  C   UNL A   1      39.875  28.104  28.127  1.00  0.00     0.029 A 
ATOM     48  N   UNL A   1      41.759  27.464  29.090  1.00  0.00    -0.354 N 
ATOM     49  C   UNL A   1      42.308  28.649  33.459  1.00  0.00     0.074 A 
ATOM     50  C   UNL A   1      41.048  28.141  33.915  1.00  0.00     0.031 C 
ATOM     51  C   UNL A   1      40.424  27.156  27.332  1.00  0.00     0.029 A 
ATOM     52  C   UNL A   1      41.661  26.692  27.934  1.00  0.00     0.049 A 
ATOM     53  H   UNL A   1      42.560  27.469  29.663  1.00  0.00     0.167 HD
ATOM     54  C   UNL A   1      43.569  28.367  33.882  1.00  0.00     0.037 A 
ATOM     55  C   UNL A   1      42.514  25.713  27.536  1.00  0.00     0.037 A 
ATOM     56  C   UNL A   1      44.537  29.018  33.034  1.00  0.00     0.049 A 
ATOM     57  C   UNL A   1      43.788  25.905  28.263  1.00  0.00     0.074 A 
ATOM     58  C   UNL A   1      44.930  30.312  32.772  1.00  0.00     0.029 A 
ATOM     59  N   UNL A   1      44.980  28.240  32.000  1.00  0.00    -0.354 N 
ATOM     60  N   UNL A   1      44.622  26.878  28.031  1.00  0.00    -0.248 NA
ATOM     61  C   UNL A   1      44.008  25.181  29.510  1.00  0.00     0.031 C 
ATOM     62  C   UNL A   1      45.435  30.306  31.437  1.00  0.00     0.029 A 
ATOM     63  C   UNL A   1      45.373  29.005  30.940  1.00  0.00     0.049 A 
ATOM     64  H   UNL A   1      45.009  27.256  32.017  1.00  0.00     0.167 HD
ATOM     65  C   UNL A   1      45.154  27.173  29.271  1.00  0.00     0.074 A 
ATOM     66  C   UNL A   1      44.895  25.995  30.087  1.00  0.00     0.031 C 
ATOM     67  C   UNL A   1      45.451  28.464  29.600  1.00  0.00     0.037 A 
BRANCH  54  68
ATOM     68  C   UNL A   1      43.932  27.112  34.660  1.00  0.00     0.057 A 
ATOM     69  C   UNL A   1      43.660  25.863  34.069  1.00  0.00     0.134 A 
ATOM     70  C   UNL A   1      44.220  27.058  36.041  1.00  0.00     0.134 A 
ATOM     71  F   UNL A   1      43.364  25.770  32.763  1.00  0.00    -0.206 F 
ATOM     72  C   UNL A   1      43.588  24.677  34.811  1.00  0.00     0.040 A 
ATOM     73  C   UNL A   1      44.199  25.872  36.780  1.00  0.00     0.040 A 
ATOM     74  F   UNL A   1      44.442  28.144  36.789  1.00  0.00    -0.206 F 
ATOM     75  C   UNL A   1      43.848  24.680  36.174  1.00  0.00     0.006 A 
ENDBRANCH  54  68
BRANCH  55  76
ATOM     76  C   UNL A   1      42.281  24.485  26.737  1.00  0.00     0.057 A 
ATOM     77  C   UNL A   1      43.036  24.221  25.580  1.00  0.00     0.134 A 
ATOM     78  C   UNL A   1      41.543  23.406  27.246  1.00  0.00     0.134 A 
ATOM     79  F   UNL A   1      43.801  25.175  25.029  1.00  0.00    -0.206 F 
ATOM     80  C   UNL A   1      43.093  22.947  24.997  1.00  0.00     0.040 A 
ATOM     81  C   UNL A   1      41.584  22.131  26.667  1.00  0.00     0.040 A 
ATOM     82  F   UNL A   1      40.837  23.525  28.378  1.00  0.00    -0.206 F 
ATOM     83  C   UNL A   1      42.377  21.893  25.551  1.00  0.00     0.006 A 
ENDBRANCH  55  76
BRANCH  67  84
ATOM     84  C   UNL A   1      45.716  29.415  28.474  1.00  0.00     0.057 A 
ATOM     85  C   UNL A   1      46.953  29.586  27.836  1.00  0.00     0.134 A 
ATOM     86  C   UNL A   1      44.635  30.152  27.974  1.00  0.00     0.134 A 
ATOM     87  F   UNL A   1      48.024  28.859  28.186  1.00  0.00    -0.206 F 
ATOM     88  C   UNL A   1      47.112  30.492  26.783  1.00  0.00     0.040 A 
ATOM     89  C   UNL A   1      44.771  31.026  26.898  1.00  0.00     0.040 A 
ATOM     90  F   UNL A   1      43.412  30.007  28.512  1.00  0.00    -0.206 F 
ATOM     91  C   UNL A   1      46.017  31.211  26.308  1.00  0.00     0.006 A 
ENDBRANCH  67  84
ENDBRANCH  41  42
ENDBRANCH  34  36
ENDBRANCH  33  34
ENDBRANCH  32  33
ENDBRANCH  31  32
ENDBRANCH  30  31
ENDBRANCH  29  30
ENDBRANCH   1  29
TORSDOF 20
ENDMDL
MODEL 3
REMARK VINA RESULT:     -10.8      4.940     11.113
REMARK SMILES CCn1cc(S(=O)(=O)N2CCC(CCc3ccc(C(=O)OCCOCCOC(=O)c4ccc(-c5c6nc(c(-c7c(F)cccc7F)c7ccc([nH]7)c(-c7c(F)cccc7F)c7nc(c(-c8c(F)cccc8F)c8ccc5[nH]8)C=C7)C=C6)cc4)cc3)CC2)cn1
REMARK SMILES IDX 22 1 21 2 19 3 20 4 18 5 15 6 16 7 85 8 17 9 84 10 14 11
REMARK SMILES IDX 13 12 12 13 9 14 10 15 87 16 11 17 86 18 6 19 7 20 8 21 5 22
REMARK SMILES IDX 3 23 4 24 89 25 88 26 2 27 1 28 23 29 24 30 25 31 26 32
REMARK SMILES IDX 27 33 28 34 29 35 30 36 31 37 83 38 32 39 82 40 33 41 34 42
REMARK SMILES IDX 35 43 76 44 36 45 81 46 75 47 77 48 37 49 80 50 74 51 73 52
REMARK SMILES IDX 38 54 64 55 47 56 63 57 48 58 51 59 62 60 78 61 49 62 50 63
REMARK SMILES IDX 61 65 79 66 52 67 39 68 40 69 45 70 41 71 42 72 44 73 46 74
REMARK SMILES IDX 43 75 65 76 66 77 71 78 67 79 68 80 70 81 72 82 69 83 53 84
REMARK SMILES IDX 54 85 59 86 55 87 56 88 58 89 60 90 57 91
REMARK H PARENT 77 53 51 64
REMARK Flexibility Score: inf
ROOT
ATOM      1  C   UNL A   1      34.366  33.904  27.844  1.00  0.00     0.261 C 
ENDROOT
BRANCH   1   2
ATOM      2  O   UNL A   1      35.413  33.010  28.263  1.00  0.00    -0.460 OA
BRANCH   2   3
ATOM      3  C   UNL A   1      35.137  31.699  28.037  1.00  0.00     0.338 C 
ATOM      4  O   UNL A   1      34.205  31.255  27.384  1.00  0.00    -0.246 OA
BRANCH   3   5
ATOM      5  C   UNL A   1      36.194  30.813  28.570  1.00  0.00     0.060 A 
ATOM      6  C   UNL A   1      38.059  28.841  29.286  1.00  0.00    -0.048 A 
ATOM      7  C   UNL A   1      38.175  29.514  28.063  1.00  0.00     0.004 A 
ATOM      8  C   UNL A   1      37.037  29.219  30.176  1.00  0.00     0.004 A 
ATOM      9  C   UNL A   1      37.246  30.488  27.706  1.00  0.00     0.016 A 
ATOM     10  C   UNL A   1      36.109  30.209  29.825  1.00  0.00     0.016 A 
BRANCH   6  11
ATOM     11  C   UNL A   1      38.946  27.654  29.581  1.00  0.00     0.036 C 
BRANCH  11  12
ATOM     12  C   UNL A   1      39.773  27.135  28.398  1.00  0.00     0.008 C 
BRANCH  12  13
ATOM     13  C   UNL A   1      39.806  25.605  28.243  1.00  0.00    -0.008 C 
ATOM     14  N   UNL A   1      40.579  23.061  27.026  1.00  0.00    -0.198 NA
ATOM     15  C   UNL A   1      39.215  23.611  26.833  1.00  0.00     0.103 C 
ATOM     16  C   UNL A   1      41.352  23.591  28.182  1.00  0.00     0.103 C 
ATOM     17  C   UNL A   1      39.201  25.131  26.920  1.00  0.00     0.020 C 
ATOM     18  C   UNL A   1      41.256  25.106  28.305  1.00  0.00     0.020 C 
BRANCH  14  19
ATOM     19  S   UNL A   1      40.690  21.352  26.821  1.00  0.00     0.246 S 
ATOM     20  O   UNL A   1      39.777  20.939  25.797  1.00  0.00    -0.207 OA
ATOM     21  O   UNL A   1      40.714  20.735  28.142  1.00  0.00    -0.207 OA
BRANCH  19  22
ATOM     22  C   UNL A   1      42.229  20.970  26.180  1.00  0.00     0.120 A 
ATOM     23  N   UNL A   1      43.953  19.911  25.368  1.00  0.00    -0.272 N 
ATOM     24  C   UNL A   1      42.757  19.721  25.983  1.00  0.00     0.130 A 
ATOM     25  N   UNL A   1      44.277  21.203  25.219  1.00  0.00    -0.180 NA
ATOM     26  C   UNL A   1      43.211  21.854  25.708  1.00  0.00     0.156 A 
BRANCH  23  27
ATOM     27  C   UNL A   1      44.699  18.851  24.731  1.00  0.00     0.141 C 
ATOM     28  C   UNL A   1      46.167  18.988  25.079  1.00  0.00     0.029 C 
ENDBRANCH  23  27
ENDBRANCH  19  22
ENDBRANCH  14  19
ENDBRANCH  12  13
ENDBRANCH  11  12
ENDBRANCH   6  11
ENDBRANCH   3   5
ENDBRANCH   2   3
ENDBRANCH   1   2
BRANCH   1  29
ATOM     29  C   UNL A   1      33.353  34.283  28.932  1.00  0.00     0.202 C 
BRANCH  29  30
ATOM     30  O   UNL A   1      32.905  35.628  29.034  1.00  0.00    -0.374 OA
BRANCH  30  31
ATOM     31  C   UNL A   1      33.128  36.345  30.235  1.00  0.00     0.202 C 
BRANCH  31  32
ATOM     32  C   UNL A   1      33.122  35.602  31.563  1.00  0.00     0.261 C 
BRANCH  32  33
ATOM     33  O   UNL A   1      34.374  35.057  31.989  1.00  0.00    -0.460 OA
BRANCH  33  34
ATOM     34  C   UNL A   1      34.271  33.790  32.475  1.00  0.00     0.338 C 
ATOM     35  O   UNL A   1      33.401  33.381  33.226  1.00  0.00    -0.246 OA
BRANCH  34  36
ATOM     36  C   UNL A   1      35.513  33.035  32.213  1.00  0.00     0.060 A 
ATOM     37  C   UNL A   1      35.864  32.071  33.160  1.00  0.00     0.016 A 
ATOM     38  C   UNL A   1      36.454  33.506  31.295  1.00  0.00     0.016 A 
ATOM     39  C   UNL A   1      37.199  31.757  33.338  1.00  0.00     0.010 A 
ATOM     40  C   UNL A   1      37.796  33.272  31.540  1.00  0.00     0.010 A 
ATOM     41  C   UNL A   1      38.167  32.436  32.592  1.00  0.00    -0.014 A 
BRANCH  41  42
ATOM     42  C   UNL A   1      39.555  32.016  32.715  1.00  0.00     0.031 A 
ATOM     43  C   UNL A   1      40.429  33.187  32.954  1.00  0.00     0.074 A 
ATOM     44  C   UNL A   1      40.005  30.746  32.724  1.00  0.00     0.049 A 
ATOM     45  N   UNL A   1      41.227  33.749  32.108  1.00  0.00    -0.248 NA
ATOM     46  C   UNL A   1      40.224  33.966  34.189  1.00  0.00     0.031 C 
ATOM     47  C   UNL A   1      39.214  29.521  32.809  1.00  0.00     0.029 A 
ATOM     48  N   UNL A   1      41.290  30.280  32.757  1.00  0.00    -0.354 N 
ATOM     49  C   UNL A   1      41.797  34.811  32.802  1.00  0.00     0.074 A 
ATOM     50  C   UNL A   1      40.964  35.047  33.944  1.00  0.00     0.031 C 
ATOM     51  C   UNL A   1      40.023  28.480  33.113  1.00  0.00     0.029 A 
ATOM     52  C   UNL A   1      41.403  28.935  33.107  1.00  0.00     0.049 A 
ATOM     53  H   UNL A   1      42.069  30.845  32.552  1.00  0.00     0.167 HD
ATOM     54  C   UNL A   1      43.093  35.154  32.579  1.00  0.00     0.037 A 
ATOM     55  C   UNL A   1      42.545  28.268  33.414  1.00  0.00     0.037 A 
ATOM     56  C   UNL A   1      43.555  34.586  31.337  1.00  0.00     0.049 A 
ATOM     57  C   UNL A   1      43.679  29.052  32.878  1.00  0.00     0.074 A 
ATOM     58  C   UNL A   1      43.293  34.762  29.996  1.00  0.00     0.029 A 
ATOM     59  N   UNL A   1      44.164  33.369  31.478  1.00  0.00    -0.354 N 
ATOM     60  N   UNL A   1      43.955  29.165  31.611  1.00  0.00    -0.248 NA
ATOM     61  C   UNL A   1      44.354  30.007  33.750  1.00  0.00     0.031 C 
ATOM     62  C   UNL A   1      43.576  33.508  29.374  1.00  0.00     0.029 A 
ATOM     63  C   UNL A   1      44.038  32.620  30.344  1.00  0.00     0.049 A 
ATOM     64  H   UNL A   1      44.631  33.072  32.292  1.00  0.00     0.167 HD
ATOM     65  C   UNL A   1      44.451  30.448  31.483  1.00  0.00     0.074 A 
ATOM     66  C   UNL A   1      44.849  30.837  32.829  1.00  0.00     0.031 C 
ATOM     67  C   UNL A   1      44.180  31.180  30.364  1.00  0.00     0.037 A 
BRANCH  54  68
ATOM     68  C   UNL A   1      44.072  35.500  33.690  1.00  0.00     0.057 A 
ATOM     69  C   UNL A   1      44.842  36.671  33.554  1.00  0.00     0.134 A 
ATOM     70  C   UNL A   1      44.525  34.612  34.691  1.00  0.00     0.134 A 
ATOM     71  F   UNL A   1      44.527  37.598  32.636  1.00  0.00    -0.206 F 
ATOM     72  C   UNL A   1      46.015  36.892  34.287  1.00  0.00     0.040 A 
ATOM     73  C   UNL A   1      45.667  34.848  35.461  1.00  0.00     0.040 A 
ATOM     74  F   UNL A   1      43.963  33.423  34.926  1.00  0.00    -0.206 F 
ATOM     75  C   UNL A   1      46.437  35.974  35.238  1.00  0.00     0.006 A 
ENDBRANCH  54  68
BRANCH  55  76
ATOM     76  C   UNL A   1      42.785  27.112  34.312  1.00  0.00     0.057 A 
ATOM     77  C   UNL A   1      42.135  27.013  35.555  1.00  0.00     0.134 A 
ATOM     78  C   UNL A   1      43.406  25.941  33.851  1.00  0.00     0.134 A 
ATOM     79  F   UNL A   1      41.484  28.066  36.072  1.00  0.00    -0.206 F 
ATOM     80  C   UNL A   1      42.064  25.810  36.270  1.00  0.00     0.040 A 
ATOM     81  C   UNL A   1      43.351  24.734  34.561  1.00  0.00     0.040 A 
ATOM     82  F   UNL A   1      44.003  25.901  32.653  1.00  0.00    -0.206 F 
ATOM     83  C   UNL A   1      42.660  24.661  35.764  1.00  0.00     0.006 A 
ENDBRANCH  55  76
BRANCH  67  84
ATOM     84  C   UNL A   1      43.850  30.425  29.114  1.00  0.00     0.057 A 
ATOM     85  C   UNL A   1      44.788  29.951  28.186  1.00  0.00     0.134 A 
ATOM     86  C   UNL A   1      42.505  30.111  28.878  1.00  0.00     0.134 A 
ATOM     87  F   UNL A   1      46.104  30.125  28.374  1.00  0.00    -0.206 F 
ATOM     88  C   UNL A   1      44.393  29.244  27.046  1.00  0.00     0.040 A 
ATOM     89  C   UNL A   1      42.104  29.371  27.768  1.00  0.00     0.040 A 
ATOM     90  F   UNL A   1      41.558  30.498  29.748  1.00  0.00    -0.206 F 
ATOM     91  C   UNL A   1      43.047  28.948  26.838  1.00  0.00     0.006 A 
ENDBRANCH  67  84
ENDBRANCH  41  42
ENDBRANCH  34  36
ENDBRANCH  33  34
ENDBRANCH  32  33
ENDBRANCH  31  32
ENDBRANCH  30  31
ENDBRANCH  29  30
ENDBRANCH   1  29
TORSDOF 20
ENDMDL
