MODEL 1
REMARK VINA RESULT:     -11.2      0.000      0.000
REMARK SMILES N#C/C(=C\c1ccc(Oc2ccccc2)cc1Cl)C(=O)OCCOCCOC(=O)c1ccc(-c2c3nc(c(-c4c(F)cccc4F)c4ccc([nH]4)c(-c4c(F)cccc4F)c4nc(c(-c5c(F)cccc5F)c5ccc2[nH]5)C=C4)C=C3)cc1
REMARK SMILES IDX 23 1 22 2 21 3 19 4 20 5 3 6 4 7 2 8 1 9 5 10 6 11 17 12
REMARK SMILES IDX 7 13 16 14 18 15 8 16 9 17 10 18 11 19 15 20 12 21 14 22
REMARK SMILES IDX 13 23 24 24 25 25 26 26 27 27 28 28 29 29 30 30 31 31 83 32
REMARK SMILES IDX 32 33 82 34 33 35 34 36 35 37 76 38 36 39 81 40 75 41 77 42
REMARK SMILES IDX 37 43 80 44 74 45 73 46 38 48 64 49 47 50 63 51 48 52 51 53
REMARK SMILES IDX 62 54 78 55 49 56 50 57 61 59 79 60 52 61 39 62 40 63 45 64
REMARK SMILES IDX 41 65 42 66 44 67 46 68 43 69 65 70 66 71 71 72 67 73 68 74
REMARK SMILES IDX 70 75 72 76 69 77 53 78 54 79 59 80 55 81 56 82 58 83 60 84
REMARK SMILES IDX 57 85
REMARK H PARENT 77 47 51 58
REMARK Flexibility Score: inf
ROOT
ATOM      1  C   UNL A   1      32.415  30.203  26.361  1.00  0.00     0.202 C 
ENDROOT
BRANCH   1   2
ATOM      2  C   UNL A   1      31.998  29.081  25.409  1.00  0.00     0.261 C 
BRANCH   2   3
ATOM      3  O   UNL A   1      32.953  28.008  25.426  1.00  0.00    -0.459 OA
BRANCH   3   4
ATOM      4  C   UNL A   1      33.501  27.741  24.217  1.00  0.00     0.348 C 
ATOM      5  O   UNL A   1      33.717  28.556  23.332  1.00  0.00    -0.245 OA
BRANCH   4   6
ATOM      6  C   UNL A   1      33.927  26.332  24.106  1.00  0.00     0.138 C 
ATOM      7  C   UNL A   1      34.259  25.600  25.191  1.00  0.00     0.036 C 
BRANCH   6   8
ATOM      8  C   UNL A   1      33.572  25.680  22.780  1.00  0.00     0.107 C 
ATOM      9  N   UNL A   1      33.278  25.140  21.679  1.00  0.00    -0.192 NA
ENDBRANCH   6   8
BRANCH   7  10
ATOM     10  C   UNL A   1      34.165  24.123  25.179  1.00  0.00    -0.005 A 
ATOM     11  C   UNL A   1      35.183  23.440  24.496  1.00  0.00     0.013 A 
ATOM     12  C   UNL A   1      33.235  23.368  25.914  1.00  0.00     0.052 A 
ATOM     13  C   UNL A   1      35.304  22.050  24.598  1.00  0.00     0.048 A 
ATOM     14  C   UNL A   1      33.394  21.983  26.060  1.00  0.00     0.068 A 
ATOM     15  Cl  UNL A   1      31.866  24.108  26.675  1.00  0.00    -0.084 Cl
ATOM     16  C   UNL A   1      34.431  21.317  25.403  1.00  0.00     0.128 A 
BRANCH  16  17
ATOM     17  O   UNL A   1      34.703  19.965  25.456  1.00  0.00    -0.457 OA
BRANCH  17  18
ATOM     18  C   UNL A   1      34.068  19.115  24.585  1.00  0.00     0.127 A 
ATOM     19  C   UNL A   1      34.688  17.902  24.282  1.00  0.00     0.047 A 
ATOM     20  C   UNL A   1      32.897  19.490  23.927  1.00  0.00     0.047 A 
ATOM     21  C   UNL A   1      34.095  17.028  23.370  1.00  0.00     0.004 A 
ATOM     22  C   UNL A   1      32.291  18.605  23.034  1.00  0.00     0.004 A 
ATOM     23  C   UNL A   1      32.888  17.374  22.759  1.00  0.00     0.000 A 
ENDBRANCH  17  18
ENDBRANCH  16  17
ENDBRANCH   7  10
ENDBRANCH   4   6
ENDBRANCH   3   4
ENDBRANCH   2   3
ENDBRANCH   1   2
BRANCH   1  24
ATOM     24  O   UNL A   1      31.397  31.067  26.861  1.00  0.00    -0.374 OA
BRANCH  24  25
ATOM     25  C   UNL A   1      31.408  32.445  26.501  1.00  0.00     0.202 C 
BRANCH  25  26
ATOM     26  C   UNL A   1      32.538  33.341  27.028  1.00  0.00     0.261 C 
BRANCH  26  27
ATOM     27  O   UNL A   1      32.180  34.118  28.181  1.00  0.00    -0.460 OA
BRANCH  27  28
ATOM     28  C   UNL A   1      33.213  34.800  28.731  1.00  0.00     0.338 C 
ATOM     29  O   UNL A   1      33.213  35.959  29.130  1.00  0.00    -0.246 OA
BRANCH  28  30
ATOM     30  C   UNL A   1      34.356  33.903  28.964  1.00  0.00     0.060 A 
ATOM     31  C   UNL A   1      34.115  32.714  29.665  1.00  0.00     0.016 A 
ATOM     32  C   UNL A   1      35.654  34.263  28.598  1.00  0.00     0.016 A 
ATOM     33  C   UNL A   1      35.177  31.900  30.042  1.00  0.00     0.010 A 
ATOM     34  C   UNL A   1      36.723  33.451  28.991  1.00  0.00     0.010 A 
ATOM     35  C   UNL A   1      36.489  32.285  29.744  1.00  0.00    -0.014 A 
BRANCH  35  36
ATOM     36  C   UNL A   1      37.617  31.545  30.356  1.00  0.00     0.031 A 
ATOM     37  C   UNL A   1      37.962  31.803  31.797  1.00  0.00     0.074 A 
ATOM     38  C   UNL A   1      38.300  30.629  29.650  1.00  0.00     0.049 A 
ATOM     39  N   UNL A   1      38.906  31.274  32.531  1.00  0.00    -0.248 NA
ATOM     40  C   UNL A   1      37.128  32.789  32.503  1.00  0.00     0.031 C 
ATOM     41  C   UNL A   1      38.032  30.260  28.261  1.00  0.00     0.029 A 
ATOM     42  N   UNL A   1      39.362  29.839  30.011  1.00  0.00    -0.354 N 
ATOM     43  C   UNL A   1      38.787  31.866  33.782  1.00  0.00     0.074 A 
ATOM     44  C   UNL A   1      37.694  32.812  33.701  1.00  0.00     0.031 C 
ATOM     45  C   UNL A   1      38.911  29.316  27.885  1.00  0.00     0.029 A 
ATOM     46  C   UNL A   1      39.818  29.035  28.997  1.00  0.00     0.049 A 
ATOM     47  H   UNL A   1      39.759  29.849  30.912  1.00  0.00     0.167 HD
ATOM     48  C   UNL A   1      39.516  31.636  34.899  1.00  0.00     0.037 A 
ATOM     49  C   UNL A   1      40.859  28.181  28.968  1.00  0.00     0.037 A 
ATOM     50  C   UNL A   1      40.597  30.691  34.981  1.00  0.00     0.049 A 
ATOM     51  C   UNL A   1      41.699  27.996  30.202  1.00  0.00     0.074 A 
ATOM     52  C   UNL A   1      41.374  30.361  36.078  1.00  0.00     0.029 A 
ATOM     53  N   UNL A   1      41.060  29.930  33.918  1.00  0.00    -0.354 N 
ATOM     54  N   UNL A   1      41.558  28.536  31.388  1.00  0.00    -0.248 NA
ATOM     55  C   UNL A   1      42.845  27.081  30.092  1.00  0.00     0.031 C 
ATOM     56  C   UNL A   1      42.338  29.433  35.667  1.00  0.00     0.029 A 
ATOM     57  C   UNL A   1      42.132  29.153  34.326  1.00  0.00     0.049 A 
ATOM     58  H   UNL A   1      40.683  29.939  33.010  1.00  0.00     0.167 HD
ATOM     59  C   UNL A   1      42.576  28.008  32.172  1.00  0.00     0.074 A 
ATOM     60  C   UNL A   1      43.324  27.099  31.327  1.00  0.00     0.031 C 
ATOM     61  C   UNL A   1      42.864  28.250  33.474  1.00  0.00     0.037 A 
BRANCH  48  62
ATOM     62  C   UNL A   1      39.184  32.447  36.116  1.00  0.00     0.057 A 
ATOM     63  C   UNL A   1      39.734  33.717  36.334  1.00  0.00     0.134 A 
ATOM     64  C   UNL A   1      38.286  31.957  37.073  1.00  0.00     0.134 A 
ATOM     65  F   UNL A   1      40.613  34.235  35.462  1.00  0.00    -0.206 F 
ATOM     66  C   UNL A   1      39.418  34.462  37.472  1.00  0.00     0.040 A 
ATOM     67  C   UNL A   1      37.945  32.703  38.202  1.00  0.00     0.040 A 
ATOM     68  F   UNL A   1      37.723  30.749  36.922  1.00  0.00    -0.206 F 
ATOM     69  C   UNL A   1      38.517  33.957  38.406  1.00  0.00     0.006 A 
ENDBRANCH  48  62
BRANCH  49  70
ATOM     70  C   UNL A   1      41.170  27.434  27.725  1.00  0.00     0.057 A 
ATOM     71  C   UNL A   1      40.666  26.145  27.511  1.00  0.00     0.134 A 
ATOM     72  C   UNL A   1      41.987  27.982  26.729  1.00  0.00     0.134 A 
ATOM     73  F   UNL A   1      39.896  25.560  28.439  1.00  0.00    -0.206 F 
ATOM     74  C   UNL A   1      40.974  25.424  26.357  1.00  0.00     0.040 A 
ATOM     75  C   UNL A   1      42.287  27.280  25.562  1.00  0.00     0.040 A 
ATOM     76  F   UNL A   1      42.501  29.212  26.876  1.00  0.00    -0.206 F 
ATOM     77  C   UNL A   1      41.783  25.994  25.375  1.00  0.00     0.006 A 
ENDBRANCH  49  70
BRANCH  61  78
ATOM     78  C   UNL A   1      44.015  27.499  34.075  1.00  0.00     0.057 A 
ATOM     79  C   UNL A   1      43.849  26.235  34.653  1.00  0.00     0.134 A 
ATOM     80  C   UNL A   1      45.310  28.030  34.036  1.00  0.00     0.134 A 
ATOM     81  F   UNL A   1      42.631  25.678  34.733  1.00  0.00    -0.206 F 
ATOM     82  C   UNL A   1      44.931  25.534  35.191  1.00  0.00     0.040 A 
ATOM     83  C   UNL A   1      46.401  27.328  34.548  1.00  0.00     0.040 A 
ATOM     84  F   UNL A   1      45.537  29.233  33.488  1.00  0.00    -0.206 F 
ATOM     85  C   UNL A   1      46.212  26.077  35.133  1.00  0.00     0.006 A 
ENDBRANCH  61  78
ENDBRANCH  35  36
ENDBRANCH  28  30
ENDBRANCH  27  28
ENDBRANCH  26  27
ENDBRANCH  25  26
ENDBRANCH  24  25
ENDBRANCH   1  24
TORSDOF 18
ENDMDL
MODEL 2
REMARK VINA RESULT:     -11.1      0.478      6.190
REMARK SMILES N#C/C(=C\c1ccc(Oc2ccccc2)cc1Cl)C(=O)OCCOCCOC(=O)c1ccc(-c2c3nc(c(-c4c(F)cccc4F)c4ccc([nH]4)c(-c4c(F)cccc4F)c4nc(c(-c5c(F)cccc5F)c5ccc2[nH]5)C=C4)C=C3)cc1
REMARK SMILES IDX 23 1 22 2 21 3 19 4 20 5 3 6 4 7 2 8 1 9 5 10 6 11 17 12
REMARK SMILES IDX 7 13 16 14 18 15 8 16 9 17 10 18 11 19 15 20 12 21 14 22
REMARK SMILES IDX 13 23 24 24 25 25 26 26 27 27 28 28 29 29 30 30 31 31 83 32
REMARK SMILES IDX 32 33 82 34 33 35 34 36 35 37 76 38 36 39 81 40 75 41 77 42
REMARK SMILES IDX 37 43 80 44 74 45 73 46 38 48 64 49 47 50 63 51 48 52 51 53
REMARK SMILES IDX 62 54 78 55 49 56 50 57 61 59 79 60 52 61 39 62 40 63 45 64
REMARK SMILES IDX 41 65 42 66 44 67 46 68 43 69 65 70 66 71 71 72 67 73 68 74
REMARK SMILES IDX 70 75 72 76 69 77 53 78 54 79 59 80 55 81 56 82 58 83 60 84
REMARK SMILES IDX 57 85
REMARK H PARENT 77 47 51 58
REMARK Flexibility Score: inf
ROOT
ATOM      1  C   UNL A   1      31.780  29.999  25.935  1.00  0.00     0.202 C 
ENDROOT
BRANCH   1   2
ATOM      2  C   UNL A   1      33.005  29.544  25.140  1.00  0.00     0.261 C 
BRANCH   2   3
ATOM      3  O   UNL A   1      33.024  28.115  24.994  1.00  0.00    -0.459 OA
BRANCH   3   4
ATOM      4  C   UNL A   1      33.606  27.687  23.849  1.00  0.00     0.348 C 
ATOM      5  O   UNL A   1      33.973  28.397  22.923  1.00  0.00    -0.245 OA
BRANCH   4   6
ATOM      6  C   UNL A   1      33.862  26.234  23.872  1.00  0.00     0.138 C 
ATOM      7  C   UNL A   1      34.053  25.562  25.027  1.00  0.00     0.036 C 
BRANCH   6   8
ATOM      8  C   UNL A   1      33.492  25.520  22.583  1.00  0.00     0.107 C 
ATOM      9  N   UNL A   1      33.184  24.927  21.513  1.00  0.00    -0.192 NA
ENDBRANCH   6   8
BRANCH   7  10
ATOM     10  C   UNL A   1      33.781  24.111  25.125  1.00  0.00    -0.005 A 
ATOM     11  C   UNL A   1      34.766  23.256  24.606  1.00  0.00     0.013 A 
ATOM     12  C   UNL A   1      32.702  23.538  25.820  1.00  0.00     0.052 A 
ATOM     13  C   UNL A   1      34.707  21.877  24.832  1.00  0.00     0.048 A 
ATOM     14  C   UNL A   1      32.676  22.163  26.093  1.00  0.00     0.068 A 
ATOM     15  Cl  UNL A   1      31.370  24.495  26.375  1.00  0.00    -0.084 Cl
ATOM     16  C   UNL A   1      33.680  21.325  25.601  1.00  0.00     0.128 A 
BRANCH  16  17
ATOM     17  O   UNL A   1      33.779  19.962  25.791  1.00  0.00    -0.457 OA
BRANCH  17  18
ATOM     18  C   UNL A   1      33.609  19.118  24.721  1.00  0.00     0.127 A 
ATOM     19  C   UNL A   1      32.463  19.273  23.938  1.00  0.00     0.047 A 
ATOM     20  C   UNL A   1      34.488  18.063  24.480  1.00  0.00     0.047 A 
ATOM     21  C   UNL A   1      32.234  18.409  22.866  1.00  0.00     0.004 A 
ATOM     22  C   UNL A   1      34.271  17.216  23.394  1.00  0.00     0.004 A 
ATOM     23  C   UNL A   1      33.147  17.391  22.585  1.00  0.00     0.000 A 
ENDBRANCH  17  18
ENDBRANCH  16  17
ENDBRANCH   7  10
ENDBRANCH   4   6
ENDBRANCH   3   4
ENDBRANCH   2   3
ENDBRANCH   1   2
BRANCH   1  24
ATOM     24  O   UNL A   1      31.149  31.218  25.552  1.00  0.00    -0.374 OA
BRANCH  24  25
ATOM     25  C   UNL A   1      31.053  32.284  26.491  1.00  0.00     0.202 C 
BRANCH  25  26
ATOM     26  C   UNL A   1      32.334  33.015  26.917  1.00  0.00     0.261 C 
BRANCH  26  27
ATOM     27  O   UNL A   1      32.179  33.839  28.083  1.00  0.00    -0.460 OA
BRANCH  27  28
ATOM     28  C   UNL A   1      33.259  34.605  28.366  1.00  0.00     0.338 C 
ATOM     29  O   UNL A   1      33.304  35.827  28.452  1.00  0.00    -0.246 OA
BRANCH  28  30
ATOM     30  C   UNL A   1      34.404  33.761  28.744  1.00  0.00     0.060 A 
ATOM     31  C   UNL A   1      34.159  32.683  29.605  1.00  0.00     0.016 A 
ATOM     32  C   UNL A   1      35.705  34.077  28.350  1.00  0.00     0.016 A 
ATOM     33  C   UNL A   1      35.220  31.941  30.112  1.00  0.00     0.010 A 
ATOM     34  C   UNL A   1      36.773  33.339  28.874  1.00  0.00     0.010 A 
ATOM     35  C   UNL A   1      36.535  32.292  29.782  1.00  0.00    -0.014 A 
BRANCH  35  36
ATOM     36  C   UNL A   1      37.657  31.658  30.512  1.00  0.00     0.031 A 
ATOM     37  C   UNL A   1      38.492  30.623  29.810  1.00  0.00     0.074 A 
ATOM     38  C   UNL A   1      37.953  32.027  31.770  1.00  0.00     0.049 A 
ATOM     39  N   UNL A   1      39.515  29.942  30.255  1.00  0.00    -0.248 NA
ATOM     40  C   UNL A   1      38.123  30.319  28.418  1.00  0.00     0.031 C 
ATOM     41  C   UNL A   1      37.245  33.049  32.539  1.00  0.00     0.029 A 
ATOM     42  N   UNL A   1      38.933  31.581  32.620  1.00  0.00    -0.354 N 
ATOM     43  C   UNL A   1      39.909  29.123  29.204  1.00  0.00     0.074 A 
ATOM     44  C   UNL A   1      38.999  29.375  28.106  1.00  0.00     0.031 C 
ATOM     45  C   UNL A   1      37.813  33.149  33.753  1.00  0.00     0.029 A 
ATOM     46  C   UNL A   1      38.905  32.182  33.853  1.00  0.00     0.049 A 
ATOM     47  H   UNL A   1      39.593  30.895  32.369  1.00  0.00     0.167 HD
ATOM     48  C   UNL A   1      40.939  28.246  29.155  1.00  0.00     0.037 A 
ATOM     49  C   UNL A   1      39.666  31.962  34.942  1.00  0.00     0.037 A 
ATOM     50  C   UNL A   1      41.847  28.001  30.244  1.00  0.00     0.049 A 
ATOM     51  C   UNL A   1      40.760  30.932  34.886  1.00  0.00     0.074 A 
ATOM     52  C   UNL A   1      42.944  27.158  30.279  1.00  0.00     0.029 A 
ATOM     53  N   UNL A   1      41.757  28.595  31.494  1.00  0.00    -0.354 N 
ATOM     54  N   UNL A   1      41.144  30.186  33.878  1.00  0.00    -0.248 NA
ATOM     55  C   UNL A   1      41.527  30.712  36.121  1.00  0.00     0.031 C 
ATOM     56  C   UNL A   1      43.490  27.207  31.567  1.00  0.00     0.029 A 
ATOM     57  C   UNL A   1      42.760  28.113  32.318  1.00  0.00     0.049 A 
ATOM     58  H   UNL A   1      41.081  29.260  31.756  1.00  0.00     0.167 HD
ATOM     59  C   UNL A   1      42.211  29.431  34.346  1.00  0.00     0.074 A 
ATOM     60  C   UNL A   1      42.419  29.813  35.728  1.00  0.00     0.031 C 
ATOM     61  C   UNL A   1      42.955  28.507  33.691  1.00  0.00     0.037 A 
BRANCH  48  62
ATOM     62  C   UNL A   1      41.118  27.465  27.888  1.00  0.00     0.057 A 
ATOM     63  C   UNL A   1      41.910  27.936  26.832  1.00  0.00     0.134 A 
ATOM     64  C   UNL A   1      40.506  26.215  27.731  1.00  0.00     0.134 A 
ATOM     65  F   UNL A   1      42.510  29.133  26.915  1.00  0.00    -0.206 F 
ATOM     66  C   UNL A   1      42.068  27.200  25.656  1.00  0.00     0.040 A 
ATOM     67  C   UNL A   1      40.676  25.461  26.569  1.00  0.00     0.040 A 
ATOM     68  F   UNL A   1      39.737  25.707  28.705  1.00  0.00    -0.206 F 
ATOM     69  C   UNL A   1      41.455  25.956  25.526  1.00  0.00     0.006 A 
ENDBRANCH  48  62
BRANCH  49  70
ATOM     70  C   UNL A   1      39.420  32.734  36.185  1.00  0.00     0.057 A 
ATOM     71  C   UNL A   1      40.074  33.949  36.423  1.00  0.00     0.134 A 
ATOM     72  C   UNL A   1      38.540  32.271  37.169  1.00  0.00     0.134 A 
ATOM     73  F   UNL A   1      40.946  34.432  35.526  1.00  0.00    -0.206 F 
ATOM     74  C   UNL A   1      39.870  34.669  37.600  1.00  0.00     0.040 A 
ATOM     75  C   UNL A   1      38.311  32.991  38.342  1.00  0.00     0.040 A 
ATOM     76  F   UNL A   1      37.883  31.113  37.000  1.00  0.00    -0.206 F 
ATOM     77  C   UNL A   1      38.982  34.193  38.562  1.00  0.00     0.006 A 
ENDBRANCH  49  70
BRANCH  61  78
ATOM     78  C   UNL A   1      44.082  27.869  34.448  1.00  0.00     0.057 A 
ATOM     79  C   UNL A   1      45.356  28.448  34.502  1.00  0.00     0.134 A 
ATOM     80  C   UNL A   1      43.879  26.683  35.165  1.00  0.00     0.134 A 
ATOM     81  F   UNL A   1      45.619  29.577  33.826  1.00  0.00    -0.206 F 
ATOM     82  C   UNL A   1      46.393  27.859  35.228  1.00  0.00     0.040 A 
ATOM     83  C   UNL A   1      44.901  26.098  35.912  1.00  0.00     0.040 A 
ATOM     84  F   UNL A   1      42.679  26.083  35.160  1.00  0.00    -0.206 F 
ATOM     85  C   UNL A   1      46.165  26.684  35.941  1.00  0.00     0.006 A 
ENDBRANCH  61  78
ENDBRANCH  35  36
ENDBRANCH  28  30
ENDBRANCH  27  28
ENDBRANCH  26  27
ENDBRANCH  25  26
ENDBRANCH  24  25
ENDBRANCH   1  24
TORSDOF 18
ENDMDL
MODEL 3
REMARK VINA RESULT:     -11.0      4.375      6.379
REMARK SMILES N#C/C(=C\c1ccc(Oc2ccccc2)cc1Cl)C(=O)OCCOCCOC(=O)c1ccc(-c2c3nc(c(-c4c(F)cccc4F)c4ccc([nH]4)c(-c4c(F)cccc4F)c4nc(c(-c5c(F)cccc5F)c5ccc2[nH]5)C=C4)C=C3)cc1
REMARK SMILES IDX 23 1 22 2 21 3 19 4 20 5 3 6 4 7 2 8 1 9 5 10 6 11 17 12
REMARK SMILES IDX 7 13 16 14 18 15 8 16 9 17 10 18 11 19 15 20 12 21 14 22
REMARK SMILES IDX 13 23 24 24 25 25 26 26 27 27 28 28 29 29 30 30 31 31 83 32
REMARK SMILES IDX 32 33 82 34 33 35 34 36 35 37 76 38 36 39 81 40 75 41 77 42
REMARK SMILES IDX 37 43 80 44 74 45 73 46 38 48 64 49 47 50 63 51 48 52 51 53
REMARK SMILES IDX 62 54 78 55 49 56 50 57 61 59 79 60 52 61 39 62 40 63 45 64
REMARK SMILES IDX 41 65 42 66 44 67 46 68 43 69 65 70 66 71 71 72 67 73 68 74
REMARK SMILES IDX 70 75 72 76 69 77 53 78 54 79 59 80 55 81 56 82 58 83 60 84
REMARK SMILES IDX 57 85
REMARK H PARENT 77 47 51 58
REMARK Flexibility Score: inf
ROOT
ATOM      1  C   UNL A   1      34.769  29.507  27.278  1.00  0.00     0.202 C 
ENDROOT
BRANCH   1   2
ATOM      2  C   UNL A   1      33.463  28.791  26.935  1.00  0.00     0.261 C 
BRANCH   2   3
ATOM      3  O   UNL A   1      33.706  27.428  26.549  1.00  0.00    -0.459 OA
BRANCH   3   4
ATOM      4  C   UNL A   1      33.494  27.183  25.235  1.00  0.00     0.348 C 
ATOM      5  O   UNL A   1      33.188  28.013  24.391  1.00  0.00    -0.245 OA
BRANCH   4   6
ATOM      6  C   UNL A   1      33.786  25.779  24.884  1.00  0.00     0.138 C 
ATOM      7  C   UNL A   1      33.685  24.782  25.788  1.00  0.00     0.036 C 
BRANCH   6   8
ATOM      8  C   UNL A   1      33.798  25.505  23.389  1.00  0.00     0.107 C 
ATOM      9  N   UNL A   1      33.809  25.277  22.149  1.00  0.00    -0.192 NA
ENDBRANCH   6   8
BRANCH   7  10
ATOM     10  C   UNL A   1      33.447  23.384  25.367  1.00  0.00    -0.005 A 
ATOM     11  C   UNL A   1      32.114  23.032  25.100  1.00  0.00     0.013 A 
ATOM     12  C   UNL A   1      34.453  22.446  25.076  1.00  0.00     0.052 A 
ATOM     13  C   UNL A   1      31.805  21.807  24.502  1.00  0.00     0.048 A 
ATOM     14  C   UNL A   1      34.144  21.244  24.424  1.00  0.00     0.068 A 
ATOM     15  Cl  UNL A   1      36.108  22.732  25.497  1.00  0.00    -0.084 Cl
ATOM     16  C   UNL A   1      32.817  20.919  24.132  1.00  0.00     0.128 A 
BRANCH  16  17
ATOM     17  O   UNL A   1      32.372  19.777  23.499  1.00  0.00    -0.457 OA
BRANCH  17  18
ATOM     18  C   UNL A   1      32.776  18.548  23.961  1.00  0.00     0.127 A 
ATOM     19  C   UNL A   1      32.535  18.238  25.300  1.00  0.00     0.047 A 
ATOM     20  C   UNL A   1      33.507  17.674  23.157  1.00  0.00     0.047 A 
ATOM     21  C   UNL A   1      32.967  17.016  25.818  1.00  0.00     0.004 A 
ATOM     22  C   UNL A   1      33.916  16.443  23.668  1.00  0.00     0.004 A 
ATOM     23  C   UNL A   1      33.643  16.112  24.996  1.00  0.00     0.000 A 
ENDBRANCH  17  18
ENDBRANCH  16  17
ENDBRANCH   7  10
ENDBRANCH   4   6
ENDBRANCH   3   4
ENDBRANCH   2   3
ENDBRANCH   1   2
BRANCH   1  24
ATOM     24  O   UNL A   1      34.771  30.933  27.276  1.00  0.00    -0.374 OA
BRANCH  24  25
ATOM     25  C   UNL A   1      33.936  31.636  28.189  1.00  0.00     0.202 C 
BRANCH  25  26
ATOM     26  C   UNL A   1      34.587  32.397  29.353  1.00  0.00     0.261 C 
BRANCH  26  27
ATOM     27  O   UNL A   1      36.002  32.182  29.476  1.00  0.00    -0.460 OA
BRANCH  27  28
ATOM     28  C   UNL A   1      36.343  31.272  30.419  1.00  0.00     0.338 C 
ATOM     29  O   UNL A   1      35.741  31.012  31.455  1.00  0.00    -0.246 OA
BRANCH  28  30
ATOM     30  C   UNL A   1      37.489  30.467  29.968  1.00  0.00     0.060 A 
ATOM     31  C   UNL A   1      38.301  29.886  30.951  1.00  0.00     0.016 A 
ATOM     32  C   UNL A   1      37.824  30.368  28.617  1.00  0.00     0.016 A 
ATOM     33  C   UNL A   1      39.477  29.239  30.590  1.00  0.00     0.010 A 
ATOM     34  C   UNL A   1      39.017  29.730  28.257  1.00  0.00     0.010 A 
ATOM     35  C   UNL A   1      39.862  29.194  29.245  1.00  0.00    -0.014 A 
BRANCH  35  36
ATOM     36  C   UNL A   1      41.224  28.723  28.897  1.00  0.00     0.031 A 
ATOM     37  C   UNL A   1      42.370  29.693  28.965  1.00  0.00     0.074 A 
ATOM     38  C   UNL A   1      41.441  27.440  28.564  1.00  0.00     0.049 A 
ATOM     39  N   UNL A   1      43.636  29.500  28.703  1.00  0.00    -0.248 NA
ATOM     40  C   UNL A   1      42.043  31.065  29.387  1.00  0.00     0.031 C 
ATOM     41  C   UNL A   1      40.419  26.397  28.506  1.00  0.00     0.029 A 
ATOM     42  N   UNL A   1      42.600  26.798  28.211  1.00  0.00    -0.354 N 
ATOM     43  C   UNL A   1      44.257  30.724  28.919  1.00  0.00     0.074 A 
ATOM     44  C   UNL A   1      43.225  31.660  29.311  1.00  0.00     0.031 C 
ATOM     45  C   UNL A   1      40.997  25.242  28.135  1.00  0.00     0.029 A 
ATOM     46  C   UNL A   1      42.422  25.472  27.905  1.00  0.00     0.049 A 
ATOM     47  H   UNL A   1      43.477  27.245  28.181  1.00  0.00     0.167 HD
ATOM     48  C   UNL A   1      45.570  31.037  28.808  1.00  0.00     0.037 A 
ATOM     49  C   UNL A   1      43.309  24.555  27.473  1.00  0.00     0.037 A 
ATOM     50  C   UNL A   1      46.596  30.106  28.425  1.00  0.00     0.049 A 
ATOM     51  C   UNL A   1      44.750  24.946  27.290  1.00  0.00     0.074 A 
ATOM     52  C   UNL A   1      47.960  30.319  28.319  1.00  0.00     0.029 A 
ATOM     53  N   UNL A   1      46.369  28.783  28.077  1.00  0.00    -0.354 N 
ATOM     54  N   UNL A   1      45.331  26.096  27.528  1.00  0.00    -0.248 NA
ATOM     55  C   UNL A   1      45.657  23.910  26.777  1.00  0.00     0.031 C 
ATOM     56  C   UNL A   1      48.551  29.137  27.861  1.00  0.00     0.029 A 
ATOM     57  C   UNL A   1      47.563  28.176  27.725  1.00  0.00     0.049 A 
ATOM     58  H   UNL A   1      45.490  28.341  28.079  1.00  0.00     0.167 HD
ATOM     59  C   UNL A   1      46.674  25.916  27.222  1.00  0.00     0.074 A 
ATOM     60  C   UNL A   1      46.822  24.542  26.786  1.00  0.00     0.031 C 
ATOM     61  C   UNL A   1      47.694  26.806  27.297  1.00  0.00     0.037 A 
BRANCH  48  62
ATOM     62  C   UNL A   1      45.962  32.459  29.078  1.00  0.00     0.057 A 
ATOM     63  C   UNL A   1      46.033  33.415  28.057  1.00  0.00     0.134 A 
ATOM     64  C   UNL A   1      46.253  32.881  30.382  1.00  0.00     0.134 A 
ATOM     65  F   UNL A   1      45.781  33.070  26.785  1.00  0.00    -0.206 F 
ATOM     66  C   UNL A   1      46.401  34.736  28.320  1.00  0.00     0.040 A 
ATOM     67  C   UNL A   1      46.599  34.204  30.660  1.00  0.00     0.040 A 
ATOM     68  F   UNL A   1      46.202  32.015  31.405  1.00  0.00    -0.206 F 
ATOM     69  C   UNL A   1      46.679  35.135  29.626  1.00  0.00     0.006 A 
ENDBRANCH  48  62
BRANCH  49  70
ATOM     70  C   UNL A   1      42.860  23.171  27.181  1.00  0.00     0.057 A 
ATOM     71  C   UNL A   1      42.622  22.255  28.212  1.00  0.00     0.134 A 
ATOM     72  C   UNL A   1      42.674  22.727  25.867  1.00  0.00     0.134 A 
ATOM     73  F   UNL A   1      42.805  22.617  29.491  1.00  0.00    -0.206 F 
ATOM     74  C   UNL A   1      42.225  20.945  27.947  1.00  0.00     0.040 A 
ATOM     75  C   UNL A   1      42.258  21.425  25.588  1.00  0.00     0.040 A 
ATOM     76  F   UNL A   1      42.887  23.558  24.835  1.00  0.00    -0.206 F 
ATOM     77  C   UNL A   1      42.037  20.527  26.631  1.00  0.00     0.006 A 
ENDBRANCH  49  70
BRANCH  61  78
ATOM     78  C   UNL A   1      49.064  26.315  26.933  1.00  0.00     0.057 A 
ATOM     79  C   UNL A   1      49.581  26.467  25.640  1.00  0.00     0.134 A 
ATOM     80  C   UNL A   1      49.889  25.722  27.896  1.00  0.00     0.134 A 
ATOM     81  F   UNL A   1      48.836  27.015  24.669  1.00  0.00    -0.206 F 
ATOM     82  C   UNL A   1      50.866  26.026  25.315  1.00  0.00     0.040 A 
ATOM     83  C   UNL A   1      51.182  25.300  27.588  1.00  0.00     0.040 A 
ATOM     84  F   UNL A   1      49.454  25.555  29.155  1.00  0.00    -0.206 F 
ATOM     85  C   UNL A   1      51.672  25.447  26.293  1.00  0.00     0.006 A 
ENDBRANCH  61  78
ENDBRANCH  35  36
ENDBRANCH  28  30
ENDBRANCH  27  28
ENDBRANCH  26  27
ENDBRANCH  25  26
ENDBRANCH  24  25
ENDBRANCH   1  24
TORSDOF 18
ENDMDL
