MODEL 1
REMARK VINA RESULT:     -11.4      0.000      0.000
REMARK SMILES CC(C)[C@H](NC(=O)c1cc2cc(Cl)ccc2n1C)C(=O)N[C@@H](C(=O)OCCOCCOC(=O)c1ccc(-c2c3nc(c(-c4c(F)cccc4F)c4ccc([nH]4)c(-c4c(F)cccc4F)c4nc(c(-c5c(F)cccc5F)c5ccc2[nH]5)C=C4)C=C3)cc1)c1ccccc1
REMARK SMILES IDX 27 1 26 2 25 3 23 4 24 5 22 6 21 7 19 8 20 9 4 11 2 12 1 13
REMARK SMILES IDX 3 14 5 15 6 16 7 18 8 19 9 20 17 21 10 22 16 23 18 24 11 25
REMARK SMILES IDX 15 26 12 27 14 28 13 29 88 30 89 31 93 32 90 33 92 34 91 35
REMARK SMILES IDX 28 36 29 37 30 38 31 39 32 40 33 41 34 42 35 43 87 44 36 45
REMARK SMILES IDX 86 46 37 47 38 48 39 49 80 50 40 51 85 52 79 53 81 54 41 55
REMARK SMILES IDX 84 56 78 57 77 58 42 60 68 61 51 62 67 63 52 64 55 65 66 66
REMARK SMILES IDX 82 67 53 68 54 69 65 71 83 72 56 73 43 74 44 75 49 76 45 77
REMARK SMILES IDX 46 78 48 79 50 80 47 81 69 82 70 83 75 84 71 85 72 86 74 87
REMARK SMILES IDX 76 88 73 89 57 90 58 91 63 92 59 93 60 94 62 95 64 96 61 97
REMARK H PARENT 21 10 5 17 81 59 55 70
REMARK Flexibility Score: inf
ROOT
ATOM      1  C   UNL A   1      33.290  30.463  27.027  1.00  0.00     0.202 C 
ENDROOT
BRANCH   1   2
ATOM      2  C   UNL A   1      33.423  28.955  27.277  1.00  0.00     0.261 C 
BRANCH   2   3
ATOM      3  O   UNL A   1      32.851  28.168  26.230  1.00  0.00    -0.461 OA
BRANCH   3   4
ATOM      4  C   UNL A   1      31.760  27.447  26.615  1.00  0.00     0.333 C 
ATOM      5  O   UNL A   1      31.107  27.667  27.631  1.00  0.00    -0.249 OA
BRANCH   4   6
ATOM      6  C   UNL A   1      31.416  26.323  25.613  1.00  0.00     0.223 C 
BRANCH   6   7
ATOM      7  N   UNL A   1      30.114  26.432  24.958  1.00  0.00    -0.337 N 
ATOM      8  C   UNL A   1      29.774  27.065  23.809  1.00  0.00     0.243 C 
ATOM      9  O   UNL A   1      28.577  27.080  23.501  1.00  0.00    -0.273 OA
ATOM     10  H   UNL A   1      29.373  25.976  25.421  1.00  0.00     0.164 HD
BRANCH   8  11
ATOM     11  C   UNL A   1      30.816  27.783  22.921  1.00  0.00     0.174 C 
BRANCH  11  12
ATOM     12  C   UNL A   1      30.672  29.322  22.830  1.00  0.00     0.015 C 
ATOM     13  C   UNL A   1      29.486  29.828  21.994  1.00  0.00     0.010 C 
ATOM     14  C   UNL A   1      30.499  29.930  24.231  1.00  0.00     0.010 C 
ENDBRANCH  11  12
BRANCH  11  15
ATOM     15  N   UNL A   1      31.027  26.953  21.698  1.00  0.00    -0.339 N 
ATOM     16  C   UNL A   1      31.832  25.912  21.304  1.00  0.00     0.268 C 
ATOM     17  H   UNL A   1      30.422  27.228  20.973  1.00  0.00     0.164 HD
ATOM     18  O   UNL A   1      32.089  25.830  20.105  1.00  0.00    -0.268 OA
BRANCH  16  19
ATOM     19  C   UNL A   1      32.353  24.979  22.265  1.00  0.00     0.107 A 
ATOM     20  C   UNL A   1      31.771  23.815  22.750  1.00  0.00     0.042 A 
ATOM     21  N   UNL A   1      33.484  25.140  23.035  1.00  0.00    -0.340 N 
ATOM     22  C   UNL A   1      32.796  23.069  23.396  1.00  0.00     0.002 A 
ATOM     23  C   UNL A   1      33.911  23.905  23.477  1.00  0.00     0.048 A 
ATOM     24  C   UNL A   1      34.092  26.413  23.353  1.00  0.00     0.150 C 
ATOM     25  C   UNL A   1      32.900  21.738  23.843  1.00  0.00     0.030 A 
ATOM     26  C   UNL A   1      35.157  23.451  23.929  1.00  0.00     0.028 A 
ATOM     27  C   UNL A   1      34.153  21.261  24.236  1.00  0.00     0.041 A 
ATOM     28  C   UNL A   1      35.267  22.099  24.267  1.00  0.00     0.023 A 
ATOM     29  Cl  UNL A   1      34.338  19.593  24.625  1.00  0.00    -0.084 Cl
ENDBRANCH  16  19
ENDBRANCH  11  15
ENDBRANCH   8  11
ENDBRANCH   6   7
BRANCH   6  30
ATOM     30  C   UNL A   1      31.653  24.961  26.252  1.00  0.00    -0.014 A 
ATOM     31  C   UNL A   1      30.564  24.075  26.322  1.00  0.00     0.006 A 
ATOM     32  C   UNL A   1      32.897  24.512  26.710  1.00  0.00     0.006 A 
ATOM     33  C   UNL A   1      30.699  22.787  26.825  1.00  0.00     0.000 A 
ATOM     34  C   UNL A   1      33.038  23.214  27.212  1.00  0.00     0.000 A 
ATOM     35  C   UNL A   1      31.940  22.354  27.268  1.00  0.00     0.000 A 
ENDBRANCH   6  30
ENDBRANCH   4   6
ENDBRANCH   3   4
ENDBRANCH   2   3
ENDBRANCH   1   2
BRANCH   1  36
ATOM     36  O   UNL A   1      33.729  31.371  28.032  1.00  0.00    -0.374 OA
BRANCH  36  37
ATOM     37  C   UNL A   1      33.734  32.769  27.730  1.00  0.00     0.202 C 
BRANCH  37  38
ATOM     38  C   UNL A   1      35.002  33.599  28.000  1.00  0.00     0.261 C 
BRANCH  38  39
ATOM     39  O   UNL A   1      36.156  32.755  28.089  1.00  0.00    -0.460 OA
BRANCH  39  40
ATOM     40  C   UNL A   1      36.615  32.554  29.351  1.00  0.00     0.338 C 
ATOM     41  O   UNL A   1      36.085  32.893  30.401  1.00  0.00    -0.246 OA
BRANCH  40  42
ATOM     42  C   UNL A   1      37.616  31.485  29.225  1.00  0.00     0.060 A 
ATOM     43  C   UNL A   1      37.224  30.164  29.004  1.00  0.00     0.016 A 
ATOM     44  C   UNL A   1      38.918  31.799  29.651  1.00  0.00     0.016 A 
ATOM     45  C   UNL A   1      38.134  29.149  29.266  1.00  0.00     0.010 A 
ATOM     46  C   UNL A   1      39.807  30.777  29.964  1.00  0.00     0.010 A 
ATOM     47  C   UNL A   1      39.410  29.451  29.782  1.00  0.00    -0.014 A 
BRANCH  47  48
ATOM     48  C   UNL A   1      40.387  28.363  29.828  1.00  0.00     0.031 A 
ATOM     49  C   UNL A   1      40.956  28.197  31.190  1.00  0.00     0.074 A 
ATOM     50  C   UNL A   1      40.692  27.470  28.865  1.00  0.00     0.049 A 
ATOM     51  N   UNL A   1      42.180  28.362  31.565  1.00  0.00    -0.248 NA
ATOM     52  C   UNL A   1      40.011  27.954  32.292  1.00  0.00     0.031 C 
ATOM     53  C   UNL A   1      40.023  27.264  27.582  1.00  0.00     0.029 A 
ATOM     54  N   UNL A   1      41.643  26.481  28.887  1.00  0.00    -0.354 N 
ATOM     55  C   UNL A   1      42.194  28.075  32.925  1.00  0.00     0.074 A 
ATOM     56  C   UNL A   1      40.823  27.988  33.346  1.00  0.00     0.031 C 
ATOM     57  C   UNL A   1      40.461  26.106  27.033  1.00  0.00     0.029 A 
ATOM     58  C   UNL A   1      41.523  25.550  27.862  1.00  0.00     0.049 A 
ATOM     59  H   UNL A   1      42.351  26.434  29.569  1.00  0.00     0.167 HD
ATOM     60  C   UNL A   1      43.336  27.682  33.546  1.00  0.00     0.037 A 
ATOM     61  C   UNL A   1      42.215  24.393  27.717  1.00  0.00     0.037 A 
ATOM     62  C   UNL A   1      44.499  28.004  32.763  1.00  0.00     0.049 A 
ATOM     63  C   UNL A   1      43.455  24.478  28.520  1.00  0.00     0.074 A 
ATOM     64  C   UNL A   1      45.175  29.144  32.391  1.00  0.00     0.029 A 
ATOM     65  N   UNL A   1      44.950  26.989  31.963  1.00  0.00    -0.354 N 
ATOM     66  N   UNL A   1      44.483  25.212  28.205  1.00  0.00    -0.248 NA
ATOM     67  C   UNL A   1      43.491  23.902  29.859  1.00  0.00     0.031 C 
ATOM     68  C   UNL A   1      45.856  28.822  31.179  1.00  0.00     0.029 A 
ATOM     69  C   UNL A   1      45.568  27.497  30.854  1.00  0.00     0.049 A 
ATOM     70  H   UNL A   1      44.845  26.030  32.159  1.00  0.00     0.167 HD
ATOM     71  C   UNL A   1      45.052  25.543  29.419  1.00  0.00     0.074 A 
ATOM     72  C   UNL A   1      44.538  24.560  30.360  1.00  0.00     0.031 C 
ATOM     73  C   UNL A   1      45.611  26.772  29.605  1.00  0.00     0.037 A 
BRANCH  60  74
ATOM     74  C   UNL A   1      43.385  26.602  34.607  1.00  0.00     0.057 A 
ATOM     75  C   UNL A   1      43.412  25.217  34.339  1.00  0.00     0.134 A 
ATOM     76  C   UNL A   1      43.765  26.960  35.915  1.00  0.00     0.134 A 
ATOM     77  F   UNL A   1      43.146  24.709  33.131  1.00  0.00    -0.206 F 
ATOM     78  C   UNL A   1      43.823  24.270  35.280  1.00  0.00     0.040 A 
ATOM     79  C   UNL A   1      44.229  26.024  36.847  1.00  0.00     0.040 A 
ATOM     80  F   UNL A   1      43.785  28.246  36.298  1.00  0.00    -0.206 F 
ATOM     81  C   UNL A   1      44.271  24.674  36.526  1.00  0.00     0.006 A 
ENDBRANCH  60  74
BRANCH  61  82
ATOM     82  C   UNL A   1      41.862  23.138  27.013  1.00  0.00     0.057 A 
ATOM     83  C   UNL A   1      40.647  22.478  27.257  1.00  0.00     0.134 A 
ATOM     84  C   UNL A   1      42.820  22.409  26.287  1.00  0.00     0.134 A 
ATOM     85  F   UNL A   1      39.688  23.050  28.000  1.00  0.00    -0.206 F 
ATOM     86  C   UNL A   1      40.405  21.170  26.824  1.00  0.00     0.040 A 
ATOM     87  C   UNL A   1      42.596  21.096  25.858  1.00  0.00     0.040 A 
ATOM     88  F   UNL A   1      44.028  22.932  26.030  1.00  0.00    -0.206 F 
ATOM     89  C   UNL A   1      41.388  20.467  26.137  1.00  0.00     0.006 A 
ENDBRANCH  61  82
BRANCH  73  90
ATOM     90  C   UNL A   1      46.090  27.492  28.383  1.00  0.00     0.057 A 
ATOM     91  C   UNL A   1      45.201  28.354  27.728  1.00  0.00     0.134 A 
ATOM     92  C   UNL A   1      47.359  27.327  27.811  1.00  0.00     0.134 A 
ATOM     93  F   UNL A   1      43.954  28.524  28.197  1.00  0.00    -0.206 F 
ATOM     94  C   UNL A   1      45.561  29.040  26.568  1.00  0.00     0.040 A 
ATOM     95  C   UNL A   1      47.744  28.036  26.671  1.00  0.00     0.040 A 
ATOM     96  F   UNL A   1      48.244  26.458  28.321  1.00  0.00    -0.206 F 
ATOM     97  C   UNL A   1      46.842  28.894  26.044  1.00  0.00     0.006 A 
ENDBRANCH  73  90
ENDBRANCH  47  48
ENDBRANCH  40  42
ENDBRANCH  39  40
ENDBRANCH  38  39
ENDBRANCH  37  38
ENDBRANCH  36  37
ENDBRANCH   1  36
TORSDOF 20
ENDMDL
MODEL 2
REMARK VINA RESULT:     -11.0      3.757      8.287
REMARK SMILES CC(C)[C@H](NC(=O)c1cc2cc(Cl)ccc2n1C)C(=O)N[C@@H](C(=O)OCCOCCOC(=O)c1ccc(-c2c3nc(c(-c4c(F)cccc4F)c4ccc([nH]4)c(-c4c(F)cccc4F)c4nc(c(-c5c(F)cccc5F)c5ccc2[nH]5)C=C4)C=C3)cc1)c1ccccc1
REMARK SMILES IDX 27 1 26 2 25 3 23 4 24 5 22 6 21 7 19 8 20 9 4 11 2 12 1 13
REMARK SMILES IDX 3 14 5 15 6 16 7 18 8 19 9 20 17 21 10 22 16 23 18 24 11 25
REMARK SMILES IDX 15 26 12 27 14 28 13 29 88 30 89 31 93 32 90 33 92 34 91 35
REMARK SMILES IDX 28 36 29 37 30 38 31 39 32 40 33 41 34 42 35 43 87 44 36 45
REMARK SMILES IDX 86 46 37 47 38 48 39 49 80 50 40 51 85 52 79 53 81 54 41 55
REMARK SMILES IDX 84 56 78 57 77 58 42 60 68 61 51 62 67 63 52 64 55 65 66 66
REMARK SMILES IDX 82 67 53 68 54 69 65 71 83 72 56 73 43 74 44 75 49 76 45 77
REMARK SMILES IDX 46 78 48 79 50 80 47 81 69 82 70 83 75 84 71 85 72 86 74 87
REMARK SMILES IDX 76 88 73 89 57 90 58 91 63 92 59 93 60 94 62 95 64 96 61 97
REMARK H PARENT 21 10 5 17 81 59 55 70
REMARK Flexibility Score: inf
ROOT
ATOM      1  C   UNL A   1      39.725  21.424  25.782  1.00  0.00     0.202 C 
ENDROOT
BRANCH   1   2
ATOM      2  C   UNL A   1      38.241  21.720  26.034  1.00  0.00     0.261 C 
BRANCH   2   3
ATOM      3  O   UNL A   1      37.427  21.490  24.883  1.00  0.00    -0.461 OA
BRANCH   3   4
ATOM      4  C   UNL A   1      36.709  20.332  24.938  1.00  0.00     0.333 C 
ATOM      5  O   UNL A   1      37.202  19.209  24.920  1.00  0.00    -0.249 OA
BRANCH   4   6
ATOM      6  C   UNL A   1      35.189  20.589  25.047  1.00  0.00     0.223 C 
BRANCH   6   7
ATOM      7  N   UNL A   1      34.713  21.042  26.352  1.00  0.00    -0.337 N 
ATOM      8  C   UNL A   1      33.818  22.014  26.656  1.00  0.00     0.243 C 
ATOM      9  O   UNL A   1      33.638  22.267  27.853  1.00  0.00    -0.273 OA
ATOM     10  H   UNL A   1      35.099  20.570  27.126  1.00  0.00     0.164 HD
BRANCH   8  11
ATOM     11  C   UNL A   1      33.069  22.818  25.570  1.00  0.00     0.174 C 
BRANCH  11  12
ATOM     12  C   UNL A   1      33.900  23.910  24.852  1.00  0.00     0.015 C 
ATOM     13  C   UNL A   1      35.252  24.247  25.500  1.00  0.00     0.010 C 
ATOM     14  C   UNL A   1      34.210  23.487  23.408  1.00  0.00     0.010 C 
ENDBRANCH  11  12
BRANCH  11  15
ATOM     15  N   UNL A   1      31.693  23.102  26.075  1.00  0.00    -0.339 N 
ATOM     16  C   UNL A   1      30.876  24.193  26.238  1.00  0.00     0.268 C 
ATOM     17  H   UNL A   1      31.247  22.277  26.374  1.00  0.00     0.164 HD
ATOM     18  O   UNL A   1      30.038  24.133  27.135  1.00  0.00    -0.268 OA
BRANCH  16  19
ATOM     19  C   UNL A   1      31.018  25.351  25.398  1.00  0.00     0.107 A 
ATOM     20  C   UNL A   1      30.698  25.495  24.055  1.00  0.00     0.042 A 
ATOM     21  N   UNL A   1      31.663  26.525  25.723  1.00  0.00    -0.340 N 
ATOM     22  C   UNL A   1      30.687  26.889  23.771  1.00  0.00     0.002 A 
ATOM     23  C   UNL A   1      31.216  27.531  24.891  1.00  0.00     0.048 A 
ATOM     24  C   UNL A   1      32.675  26.655  26.747  1.00  0.00     0.150 C 
ATOM     25  C   UNL A   1      30.199  27.663  22.700  1.00  0.00     0.030 A 
ATOM     26  C   UNL A   1      31.224  28.926  25.022  1.00  0.00     0.028 A 
ATOM     27  C   UNL A   1      30.147  29.051  22.849  1.00  0.00     0.041 A 
ATOM     28  C   UNL A   1      30.639  29.673  23.995  1.00  0.00     0.023 A 
ATOM     29  Cl  UNL A   1      29.401  30.004  21.623  1.00  0.00    -0.084 Cl
ENDBRANCH  16  19
ENDBRANCH  11  15
ENDBRANCH   8  11
ENDBRANCH   6   7
BRANCH   6  30
ATOM     30  C   UNL A   1      34.415  19.391  24.510  1.00  0.00    -0.014 A 
ATOM     31  C   UNL A   1      33.175  19.639  23.898  1.00  0.00     0.006 A 
ATOM     32  C   UNL A   1      34.890  18.075  24.529  1.00  0.00     0.006 A 
ATOM     33  C   UNL A   1      32.428  18.619  23.319  1.00  0.00     0.000 A 
ATOM     34  C   UNL A   1      34.144  17.048  23.942  1.00  0.00     0.000 A 
ATOM     35  C   UNL A   1      32.916  17.321  23.338  1.00  0.00     0.000 A 
ENDBRANCH   6  30
ENDBRANCH   4   6
ENDBRANCH   3   4
ENDBRANCH   2   3
ENDBRANCH   1   2
BRANCH   1  36
ATOM     36  O   UNL A   1      40.205  20.097  25.968  1.00  0.00    -0.374 OA
BRANCH  36  37
ATOM     37  C   UNL A   1      41.372  19.902  26.772  1.00  0.00     0.202 C 
BRANCH  37  38
ATOM     38  C   UNL A   1      42.649  19.332  26.130  1.00  0.00     0.261 C 
BRANCH  38  39
ATOM     39  O   UNL A   1      43.062  20.132  25.016  1.00  0.00    -0.460 OA
BRANCH  39  40
ATOM     40  C   UNL A   1      44.210  20.830  25.214  1.00  0.00     0.338 C 
ATOM     41  O   UNL A   1      45.283  20.680  24.645  1.00  0.00    -0.246 OA
BRANCH  40  42
ATOM     42  C   UNL A   1      43.793  22.058  25.905  1.00  0.00     0.060 A 
ATOM     43  C   UNL A   1      42.924  22.961  25.290  1.00  0.00     0.016 A 
ATOM     44  C   UNL A   1      44.544  22.422  27.036  1.00  0.00     0.016 A 
ATOM     45  C   UNL A   1      42.852  24.256  25.786  1.00  0.00     0.010 A 
ATOM     46  C   UNL A   1      44.509  23.734  27.495  1.00  0.00     0.010 A 
ATOM     47  C   UNL A   1      43.671  24.654  26.861  1.00  0.00    -0.014 A 
BRANCH  47  48
ATOM     48  C   UNL A   1      43.390  25.954  27.470  1.00  0.00     0.031 A 
ATOM     49  C   UNL A   1      44.455  26.944  27.161  1.00  0.00     0.074 A 
ATOM     50  C   UNL A   1      42.275  26.355  28.113  1.00  0.00     0.049 A 
ATOM     51  N   UNL A   1      45.259  27.527  27.985  1.00  0.00    -0.248 NA
ATOM     52  C   UNL A   1      44.745  27.203  25.742  1.00  0.00     0.031 C 
ATOM     53  C   UNL A   1      41.003  25.645  28.239  1.00  0.00     0.029 A 
ATOM     54  N   UNL A   1      42.028  27.556  28.729  1.00  0.00    -0.354 N 
ATOM     55  C   UNL A   1      46.049  28.363  27.203  1.00  0.00     0.074 A 
ATOM     56  C   UNL A   1      45.802  28.008  25.833  1.00  0.00     0.031 C 
ATOM     57  C   UNL A   1      40.066  26.495  28.722  1.00  0.00     0.029 A 
ATOM     58  C   UNL A   1      40.693  27.769  29.051  1.00  0.00     0.049 A 
ATOM     59  H   UNL A   1      42.735  28.211  28.926  1.00  0.00     0.167 HD
ATOM     60  C   UNL A   1      46.658  29.453  27.737  1.00  0.00     0.037 A 
ATOM     61  C   UNL A   1      40.133  28.911  29.521  1.00  0.00     0.037 A 
ATOM     62  C   UNL A   1      46.719  29.371  29.172  1.00  0.00     0.049 A 
ATOM     63  C   UNL A   1      41.196  29.754  30.109  1.00  0.00     0.074 A 
ATOM     64  C   UNL A   1      47.396  28.620  30.108  1.00  0.00     0.029 A 
ATOM     65  N   UNL A   1      45.697  30.003  29.826  1.00  0.00    -0.354 N 
ATOM     66  N   UNL A   1      41.792  29.501  31.239  1.00  0.00    -0.248 NA
ATOM     67  C   UNL A   1      41.803  30.815  29.312  1.00  0.00     0.031 C 
ATOM     68  C   UNL A   1      46.588  28.633  31.284  1.00  0.00     0.029 A 
ATOM     69  C   UNL A   1      45.447  29.390  31.022  1.00  0.00     0.049 A 
ATOM     70  H   UNL A   1      45.212  30.789  29.484  1.00  0.00     0.167 HD
ATOM     71  C   UNL A   1      43.055  30.038  31.088  1.00  0.00     0.074 A 
ATOM     72  C   UNL A   1      42.934  30.993  29.997  1.00  0.00     0.031 C 
ATOM     73  C   UNL A   1      44.137  29.416  31.634  1.00  0.00     0.037 A 
BRANCH  60  74
ATOM     74  C   UNL A   1      46.765  30.787  27.027  1.00  0.00     0.057 A 
ATOM     75  C   UNL A   1      45.663  31.588  26.659  1.00  0.00     0.134 A 
ATOM     76  C   UNL A   1      48.008  31.448  27.022  1.00  0.00     0.134 A 
ATOM     77  F   UNL A   1      44.405  31.139  26.675  1.00  0.00    -0.206 F 
ATOM     78  C   UNL A   1      45.783  32.946  26.352  1.00  0.00     0.040 A 
ATOM     79  C   UNL A   1      48.130  32.819  26.767  1.00  0.00     0.040 A 
ATOM     80  F   UNL A   1      49.135  30.799  27.355  1.00  0.00    -0.206 F 
ATOM     81  C   UNL A   1      47.012  33.576  26.443  1.00  0.00     0.006 A 
ENDBRANCH  60  74
BRANCH  61  82
ATOM     82  C   UNL A   1      38.742  29.415  29.425  1.00  0.00     0.057 A 
ATOM     83  C   UNL A   1      37.878  29.397  30.531  1.00  0.00     0.134 A 
ATOM     84  C   UNL A   1      38.141  29.675  28.181  1.00  0.00     0.134 A 
ATOM     85  F   UNL A   1      38.330  29.089  31.755  1.00  0.00    -0.206 F 
ATOM     86  C   UNL A   1      36.500  29.605  30.408  1.00  0.00     0.040 A 
ATOM     87  C   UNL A   1      36.762  29.874  28.042  1.00  0.00     0.040 A 
ATOM     88  F   UNL A   1      38.870  29.680  27.056  1.00  0.00    -0.206 F 
ATOM     89  C   UNL A   1      35.934  29.827  29.158  1.00  0.00     0.006 A 
ENDBRANCH  61  82
BRANCH  73  90
ATOM     90  C   UNL A   1      43.887  28.525  32.811  1.00  0.00     0.057 A 
ATOM     91  C   UNL A   1      43.680  27.160  32.578  1.00  0.00     0.134 A 
ATOM     92  C   UNL A   1      43.792  28.970  34.136  1.00  0.00     0.134 A 
ATOM     93  F   UNL A   1      43.712  26.673  31.327  1.00  0.00    -0.206 F 
ATOM     94  C   UNL A   1      43.412  26.268  33.617  1.00  0.00     0.040 A 
ATOM     95  C   UNL A   1      43.561  28.081  35.189  1.00  0.00     0.040 A 
ATOM     96  F   UNL A   1      43.890  30.272  34.442  1.00  0.00    -0.206 F 
ATOM     97  C   UNL A   1      43.367  26.726  34.931  1.00  0.00     0.006 A 
ENDBRANCH  73  90
ENDBRANCH  47  48
ENDBRANCH  40  42
ENDBRANCH  39  40
ENDBRANCH  38  39
ENDBRANCH  37  38
ENDBRANCH  36  37
ENDBRANCH   1  36
TORSDOF 20
ENDMDL
MODEL 3
REMARK VINA RESULT:     -11.0      1.404      3.455
REMARK SMILES CC(C)[C@H](NC(=O)c1cc2cc(Cl)ccc2n1C)C(=O)N[C@@H](C(=O)OCCOCCOC(=O)c1ccc(-c2c3nc(c(-c4c(F)cccc4F)c4ccc([nH]4)c(-c4c(F)cccc4F)c4nc(c(-c5c(F)cccc5F)c5ccc2[nH]5)C=C4)C=C3)cc1)c1ccccc1
REMARK SMILES IDX 27 1 26 2 25 3 23 4 24 5 22 6 21 7 19 8 20 9 4 11 2 12 1 13
REMARK SMILES IDX 3 14 5 15 6 16 7 18 8 19 9 20 17 21 10 22 16 23 18 24 11 25
REMARK SMILES IDX 15 26 12 27 14 28 13 29 88 30 89 31 93 32 90 33 92 34 91 35
REMARK SMILES IDX 28 36 29 37 30 38 31 39 32 40 33 41 34 42 35 43 87 44 36 45
REMARK SMILES IDX 86 46 37 47 38 48 39 49 80 50 40 51 85 52 79 53 81 54 41 55
REMARK SMILES IDX 84 56 78 57 77 58 42 60 68 61 51 62 67 63 52 64 55 65 66 66
REMARK SMILES IDX 82 67 53 68 54 69 65 71 83 72 56 73 43 74 44 75 49 76 45 77
REMARK SMILES IDX 46 78 48 79 50 80 47 81 69 82 70 83 75 84 71 85 72 86 74 87
REMARK SMILES IDX 76 88 73 89 57 90 58 91 63 92 59 93 60 94 62 95 64 96 61 97
REMARK H PARENT 21 10 5 17 81 59 55 70
REMARK Flexibility Score: inf
ROOT
ATOM      1  C   UNL A   1      32.549  29.766  26.672  1.00  0.00     0.202 C 
ENDROOT
BRANCH   1   2
ATOM      2  C   UNL A   1      32.773  28.735  25.559  1.00  0.00     0.261 C 
BRANCH   2   3
ATOM      3  O   UNL A   1      32.803  29.323  24.257  1.00  0.00    -0.461 OA
BRANCH   3   4
ATOM      4  C   UNL A   1      32.565  28.439  23.246  1.00  0.00     0.333 C 
ATOM      5  O   UNL A   1      33.335  28.226  22.315  1.00  0.00    -0.249 OA
BRANCH   4   6
ATOM      6  C   UNL A   1      31.213  27.709  23.413  1.00  0.00     0.223 C 
BRANCH   6   7
ATOM      7  N   UNL A   1      31.180  26.321  22.956  1.00  0.00    -0.337 N 
ATOM      8  C   UNL A   1      31.960  25.273  23.318  1.00  0.00     0.243 C 
ATOM      9  O   UNL A   1      31.786  24.204  22.725  1.00  0.00    -0.273 OA
ATOM     10  H   UNL A   1      30.487  26.117  22.287  1.00  0.00     0.164 HD
BRANCH   8  11
ATOM     11  C   UNL A   1      33.059  25.395  24.397  1.00  0.00     0.174 C 
BRANCH  11  12
ATOM     12  C   UNL A   1      34.422  24.752  24.041  1.00  0.00     0.015 C 
ATOM     13  C   UNL A   1      35.346  24.453  25.233  1.00  0.00     0.010 C 
ATOM     14  C   UNL A   1      34.213  23.414  23.315  1.00  0.00     0.010 C 
ENDBRANCH  11  12
BRANCH  11  15
ATOM     15  N   UNL A   1      32.423  25.169  25.729  1.00  0.00    -0.339 N 
ATOM     16  C   UNL A   1      31.803  24.142  26.397  1.00  0.00     0.268 C 
ATOM     17  H   UNL A   1      32.459  25.982  26.282  1.00  0.00     0.164 HD
ATOM     18  O   UNL A   1      30.968  24.453  27.244  1.00  0.00    -0.268 OA
BRANCH  16  19
ATOM     19  C   UNL A   1      32.116  22.772  26.096  1.00  0.00     0.107 A 
ATOM     20  C   UNL A   1      31.369  21.847  25.380  1.00  0.00     0.042 A 
ATOM     21  N   UNL A   1      33.166  22.040  26.608  1.00  0.00    -0.340 N 
ATOM     22  C   UNL A   1      32.235  20.764  25.059  1.00  0.00     0.002 A 
ATOM     23  C   UNL A   1      33.413  20.964  25.781  1.00  0.00     0.048 A 
ATOM     24  C   UNL A   1      33.859  22.342  27.840  1.00  0.00     0.150 C 
ATOM     25  C   UNL A   1      32.153  19.683  24.161  1.00  0.00     0.030 A 
ATOM     26  C   UNL A   1      34.548  20.164  25.599  1.00  0.00     0.028 A 
ATOM     27  C   UNL A   1      33.301  18.919  23.929  1.00  0.00     0.041 A 
ATOM     28  C   UNL A   1      34.483  19.162  24.626  1.00  0.00     0.023 A 
ATOM     29  Cl  UNL A   1      33.270  17.699  22.713  1.00  0.00    -0.084 Cl
ENDBRANCH  16  19
ENDBRANCH  11  15
ENDBRANCH   8  11
ENDBRANCH   6   7
BRANCH   6  30
ATOM     30  C   UNL A   1      30.086  28.556  22.836  1.00  0.00    -0.014 A 
ATOM     31  C   UNL A   1      28.768  28.204  23.173  1.00  0.00     0.006 A 
ATOM     32  C   UNL A   1      30.282  29.697  22.050  1.00  0.00     0.006 A 
ATOM     33  C   UNL A   1      27.678  28.956  22.750  1.00  0.00     0.000 A 
ATOM     34  C   UNL A   1      29.188  30.460  21.628  1.00  0.00     0.000 A 
ATOM     35  C   UNL A   1      27.889  30.089  21.979  1.00  0.00     0.000 A 
ENDBRANCH   6  30
ENDBRANCH   4   6
ENDBRANCH   3   4
ENDBRANCH   2   3
ENDBRANCH   1   2
BRANCH   1  36
ATOM     36  O   UNL A   1      33.632  30.602  27.067  1.00  0.00    -0.374 OA
BRANCH  36  37
ATOM     37  C   UNL A   1      33.336  31.912  27.559  1.00  0.00     0.202 C 
BRANCH  37  38
ATOM     38  C   UNL A   1      34.401  32.678  28.363  1.00  0.00     0.261 C 
BRANCH  38  39
ATOM     39  O   UNL A   1      35.447  31.799  28.795  1.00  0.00    -0.460 OA
BRANCH  39  40
ATOM     40  C   UNL A   1      36.696  32.326  28.718  1.00  0.00     0.338 C 
ATOM     41  O   UNL A   1      37.007  33.509  28.690  1.00  0.00    -0.246 OA
BRANCH  40  42
ATOM     42  C   UNL A   1      37.594  31.234  29.120  1.00  0.00     0.060 A 
ATOM     43  C   UNL A   1      38.888  31.504  29.569  1.00  0.00     0.016 A 
ATOM     44  C   UNL A   1      37.211  29.938  28.732  1.00  0.00     0.016 A 
ATOM     45  C   UNL A   1      39.817  30.473  29.574  1.00  0.00     0.010 A 
ATOM     46  C   UNL A   1      38.159  28.922  28.688  1.00  0.00     0.010 A 
ATOM     47  C   UNL A   1      39.466  29.194  29.099  1.00  0.00    -0.014 A 
BRANCH  47  48
ATOM     48  C   UNL A   1      40.417  28.108  29.334  1.00  0.00     0.031 A 
ATOM     49  C   UNL A   1      40.798  28.016  30.767  1.00  0.00     0.074 A 
ATOM     50  C   UNL A   1      40.840  27.162  28.472  1.00  0.00     0.049 A 
ATOM     51  N   UNL A   1      41.963  28.199  31.293  1.00  0.00    -0.248 NA
ATOM     52  C   UNL A   1      39.712  27.837  31.745  1.00  0.00     0.031 C 
ATOM     53  C   UNL A   1      40.346  26.887  27.123  1.00  0.00     0.029 A 
ATOM     54  N   UNL A   1      41.770  26.173  28.674  1.00  0.00    -0.354 N 
ATOM     55  C   UNL A   1      41.792  27.988  32.657  1.00  0.00     0.074 A 
ATOM     56  C   UNL A   1      40.376  27.928  32.895  1.00  0.00     0.031 C 
ATOM     57  C   UNL A   1      40.842  25.699  26.703  1.00  0.00     0.029 A 
ATOM     58  C   UNL A   1      41.778  25.187  27.696  1.00  0.00     0.049 A 
ATOM     59  H   UNL A   1      42.379  26.163  29.447  1.00  0.00     0.167 HD
ATOM     60  C   UNL A   1      42.837  27.628  33.446  1.00  0.00     0.037 A 
ATOM     61  C   UNL A   1      42.472  24.022  27.707  1.00  0.00     0.037 A 
ATOM     62  C   UNL A   1      44.097  27.902  32.809  1.00  0.00     0.049 A 
ATOM     63  C   UNL A   1      43.594  24.149  28.663  1.00  0.00     0.074 A 
ATOM     64  C   UNL A   1      44.828  29.019  32.469  1.00  0.00     0.029 A 
ATOM     65  N   UNL A   1      44.640  26.844  32.133  1.00  0.00    -0.354 N 
ATOM     66  N   UNL A   1      44.662  24.862  28.449  1.00  0.00    -0.248 NA
ATOM     67  C   UNL A   1      43.445  23.648  30.025  1.00  0.00     0.031 C 
ATOM     68  C   UNL A   1      45.661  28.628  31.378  1.00  0.00     0.029 A 
ATOM     69  C   UNL A   1      45.407  27.288  31.091  1.00  0.00     0.049 A 
ATOM     70  H   UNL A   1      44.501  25.897  32.365  1.00  0.00     0.167 HD
ATOM     71  C   UNL A   1      45.067  25.258  29.708  1.00  0.00     0.074 A 
ATOM     72  C   UNL A   1      44.423  24.331  30.624  1.00  0.00     0.031 C 
ATOM     73  C   UNL A   1      45.609  26.494  29.900  1.00  0.00     0.037 A 
BRANCH  60  74
ATOM     74  C   UNL A   1      42.733  26.608  34.561  1.00  0.00     0.057 A 
ATOM     75  C   UNL A   1      42.041  26.815  35.773  1.00  0.00     0.134 A 
ATOM     76  C   UNL A   1      43.038  25.264  34.274  1.00  0.00     0.134 A 
ATOM     77  F   UNL A   1      41.616  28.019  36.167  1.00  0.00    -0.206 F 
ATOM     78  C   UNL A   1      41.647  25.767  36.609  1.00  0.00     0.040 A 
ATOM     79  C   UNL A   1      42.602  24.204  35.079  1.00  0.00     0.040 A 
ATOM     80  F   UNL A   1      43.692  24.931  33.150  1.00  0.00    -0.206 F 
ATOM     81  C   UNL A   1      41.892  24.454  36.245  1.00  0.00     0.006 A 
ENDBRANCH  60  74
BRANCH  61  82
ATOM     82  C   UNL A   1      42.203  22.731  27.033  1.00  0.00     0.057 A 
ATOM     83  C   UNL A   1      41.028  22.004  27.282  1.00  0.00     0.134 A 
ATOM     84  C   UNL A   1      43.212  22.044  26.334  1.00  0.00     0.134 A 
ATOM     85  F   UNL A   1      40.028  22.534  28.001  1.00  0.00    -0.206 F 
ATOM     86  C   UNL A   1      40.871  20.673  26.881  1.00  0.00     0.040 A 
ATOM     87  C   UNL A   1      43.073  20.709  25.937  1.00  0.00     0.040 A 
ATOM     88  F   UNL A   1      44.389  22.634  26.075  1.00  0.00    -0.206 F 
ATOM     89  C   UNL A   1      41.902  20.015  26.220  1.00  0.00     0.006 A 
ENDBRANCH  61  82
BRANCH  73  90
ATOM     90  C   UNL A   1      46.254  27.144  28.716  1.00  0.00     0.057 A 
ATOM     91  C   UNL A   1      47.639  27.010  28.557  1.00  0.00     0.134 A 
ATOM     92  C   UNL A   1      45.574  27.928  27.774  1.00  0.00     0.134 A 
ATOM     93  F   UNL A   1      48.359  26.310  29.448  1.00  0.00    -0.206 F 
ATOM     94  C   UNL A   1      48.319  27.610  27.496  1.00  0.00     0.040 A 
ATOM     95  C   UNL A   1      46.238  28.503  26.687  1.00  0.00     0.040 A 
ATOM     96  F   UNL A   1      44.263  28.181  27.895  1.00  0.00    -0.206 F 
ATOM     97  C   UNL A   1      47.616  28.347  26.548  1.00  0.00     0.006 A 
ENDBRANCH  73  90
ENDBRANCH  47  48
ENDBRANCH  40  42
ENDBRANCH  39  40
ENDBRANCH  38  39
ENDBRANCH  37  38
ENDBRANCH  36  37
ENDBRANCH   1  36
TORSDOF 20
ENDMDL
