MODEL 1
REMARK VINA RESULT:     -10.4      0.000      0.000
REMARK SMILES COC(=O)[C@@H](NC(=O)CCC(=O)OCCOCCOC(=O)c1ccc(-c2c3nc(c(-c4c(F)cccc4F)c4ccc([nH]4)c(-c4c(F)cccc4F)c4nc(c(-c5c(F)cccc5F)c5ccc2[nH]5)C=C4)C=C3)cc1)c1cccc2ccccc12
REMARK SMILES IDX 14 1 13 2 11 3 12 4 10 5 9 6 7 7 6 8 8 10 5 11 3 12 4 13
REMARK SMILES IDX 2 14 1 15 76 16 77 17 85 18 78 19 80 20 84 21 79 22 81 23
REMARK SMILES IDX 83 24 82 25 15 26 16 27 17 28 18 29 19 30 20 31 21 32 22 33
REMARK SMILES IDX 23 34 75 35 24 36 74 37 25 38 26 39 27 40 68 41 28 42 73 43
REMARK SMILES IDX 67 44 69 45 29 46 72 47 66 48 65 49 30 51 56 52 39 53 55 54
REMARK SMILES IDX 40 55 43 56 54 57 70 58 41 59 42 60 53 62 71 63 44 64 31 65
REMARK SMILES IDX 32 66 37 67 33 68 34 69 36 70 38 71 35 72 57 73 58 74 63 75
REMARK SMILES IDX 59 76 60 77 62 78 64 79 61 80 45 81 46 82 51 83 47 84 48 85
REMARK SMILES IDX 50 86 52 87 49 88
REMARK H PARENT 6 9 69 50 43 61
REMARK Flexibility Score: inf
ROOT
ATOM      1  C   UNL A   1      33.441  31.583  27.906  1.00  0.00     0.261 C 
ENDROOT
BRANCH   1   2
ATOM      2  O   UNL A   1      34.093  30.723  26.883  1.00  0.00    -0.463 OA
BRANCH   2   3
ATOM      3  C   UNL A   1      34.439  29.426  27.136  1.00  0.00     0.306 C 
ATOM      4  O   UNL A   1      35.296  29.153  27.975  1.00  0.00    -0.252 OA
BRANCH   3   5
ATOM      5  C   UNL A   1      33.706  28.268  26.349  1.00  0.00     0.132 C 
BRANCH   5   6
ATOM      6  C   UNL A   1      32.758  28.093  25.119  1.00  0.00     0.112 C 
BRANCH   6   7
ATOM      7  C   UNL A   1      31.884  26.907  24.681  1.00  0.00     0.221 C 
ATOM      8  N   UNL A   1      32.342  26.008  23.764  1.00  0.00    -0.339 N 
ATOM      9  H   UNL A   1      31.681  25.489  23.251  1.00  0.00     0.164 HD
ATOM     10  O   UNL A   1      30.718  26.781  25.059  1.00  0.00    -0.275 OA
BRANCH   8  11
ATOM     11  C   UNL A   1      33.765  25.771  23.501  1.00  0.00     0.224 C 
BRANCH  11  12
ATOM     12  C   UNL A   1      33.706  26.381  22.029  1.00  0.00     0.333 C 
ATOM     13  O   UNL A   1      33.795  27.577  21.772  1.00  0.00    -0.249 OA
BRANCH  12  14
ATOM     14  O   UNL A   1      33.399  25.486  21.031  1.00  0.00    -0.467 OA
ATOM     15  C   UNL A   1      32.223  25.692  20.227  1.00  0.00     0.282 C 
ENDBRANCH  12  14
ENDBRANCH  11  12
BRANCH  11  16
ATOM     16  C   UNL A   1      34.148  24.403  24.291  1.00  0.00    -0.007 A 
ATOM     17  C   UNL A   1      35.237  23.791  23.606  1.00  0.00     0.007 A 
ATOM     18  C   UNL A   1      33.708  23.661  25.520  1.00  0.00    -0.013 A 
ATOM     19  C   UNL A   1      36.024  22.796  24.167  1.00  0.00     0.001 A 
ATOM     20  C   UNL A   1      34.625  22.761  26.131  1.00  0.00    -0.018 A 
ATOM     21  C   UNL A   1      32.450  23.567  26.217  1.00  0.00     0.009 A 
ATOM     22  C   UNL A   1      35.772  22.365  25.455  1.00  0.00     0.009 A 
ATOM     23  C   UNL A   1      34.402  22.162  27.398  1.00  0.00     0.009 A 
ATOM     24  C   UNL A   1      32.175  22.912  27.429  1.00  0.00     0.001 A 
ATOM     25  C   UNL A   1      33.189  22.255  28.064  1.00  0.00     0.001 A 
ENDBRANCH  11  16
ENDBRANCH   8  11
ENDBRANCH   6   7
ENDBRANCH   5   6
ENDBRANCH   3   5
ENDBRANCH   2   3
ENDBRANCH   1   2
BRANCH   1  26
ATOM     26  C   UNL A   1      34.369  32.737  28.502  1.00  0.00     0.202 C 
BRANCH  26  27
ATOM     27  O   UNL A   1      33.852  33.668  29.480  1.00  0.00    -0.374 OA
BRANCH  27  28
ATOM     28  C   UNL A   1      34.723  34.025  30.565  1.00  0.00     0.202 C 
BRANCH  28  29
ATOM     29  C   UNL A   1      34.540  33.454  31.973  1.00  0.00     0.261 C 
BRANCH  29  30
ATOM     30  O   UNL A   1      34.967  32.085  32.009  1.00  0.00    -0.460 OA
BRANCH  30  31
ATOM     31  C   UNL A   1      36.140  31.917  32.639  1.00  0.00     0.338 C 
ATOM     32  O   UNL A   1      36.416  32.267  33.787  1.00  0.00    -0.246 OA
BRANCH  31  33
ATOM     33  C   UNL A   1      37.054  31.105  31.833  1.00  0.00     0.060 A 
ATOM     34  C   UNL A   1      37.982  30.353  32.556  1.00  0.00     0.016 A 
ATOM     35  C   UNL A   1      37.084  31.135  30.432  1.00  0.00     0.016 A 
ATOM     36  C   UNL A   1      39.018  29.719  31.895  1.00  0.00     0.010 A 
ATOM     37  C   UNL A   1      38.125  30.481  29.764  1.00  0.00     0.010 A 
ATOM     38  C   UNL A   1      39.129  29.832  30.504  1.00  0.00    -0.014 A 
BRANCH  38  39
ATOM     39  C   UNL A   1      40.426  29.454  29.898  1.00  0.00     0.031 A 
ATOM     40  C   UNL A   1      40.568  28.079  29.305  1.00  0.00     0.074 A 
ATOM     41  C   UNL A   1      41.397  30.369  29.746  1.00  0.00     0.049 A 
ATOM     42  N   UNL A   1      41.560  27.569  28.622  1.00  0.00    -0.248 NA
ATOM     43  C   UNL A   1      39.436  27.159  29.498  1.00  0.00     0.031 C 
ATOM     44  C   UNL A   1      41.340  31.747  30.229  1.00  0.00     0.029 A 
ATOM     45  N   UNL A   1      42.611  30.277  29.118  1.00  0.00    -0.354 N 
ATOM     46  C   UNL A   1      41.167  26.277  28.296  1.00  0.00     0.074 A 
ATOM     47  C   UNL A   1      39.870  26.063  28.898  1.00  0.00     0.031 C 
ATOM     48  C   UNL A   1      42.474  32.377  29.877  1.00  0.00     0.029 A 
ATOM     49  C   UNL A   1      43.340  31.439  29.166  1.00  0.00     0.049 A 
ATOM     50  H   UNL A   1      42.930  29.458  28.676  1.00  0.00     0.167 HD
ATOM     51  C   UNL A   1      41.819  25.357  27.547  1.00  0.00     0.037 A 
ATOM     52  C   UNL A   1      44.573  31.706  28.696  1.00  0.00     0.037 A 
ATOM     53  C   UNL A   1      43.113  25.573  26.957  1.00  0.00     0.049 A 
ATOM     54  C   UNL A   1      45.317  30.639  27.938  1.00  0.00     0.074 A 
ATOM     55  C   UNL A   1      43.866  24.706  26.186  1.00  0.00     0.029 A 
ATOM     56  N   UNL A   1      43.849  26.742  27.082  1.00  0.00    -0.354 N 
ATOM     57  N   UNL A   1      44.930  29.427  27.621  1.00  0.00    -0.248 NA
ATOM     58  C   UNL A   1      46.665  30.982  27.464  1.00  0.00     0.031 C 
ATOM     59  C   UNL A   1      45.082  25.331  25.891  1.00  0.00     0.029 A 
ATOM     60  C   UNL A   1      45.061  26.609  26.426  1.00  0.00     0.049 A 
ATOM     61  H   UNL A   1      43.553  27.547  27.565  1.00  0.00     0.167 HD
ATOM     62  C   UNL A   1      45.975  28.870  26.893  1.00  0.00     0.074 A 
ATOM     63  C   UNL A   1      47.005  29.886  26.802  1.00  0.00     0.031 C 
ATOM     64  C   UNL A   1      46.074  27.633  26.348  1.00  0.00     0.037 A 
BRANCH  51  65
ATOM     65  C   UNL A   1      41.149  24.027  27.355  1.00  0.00     0.057 A 
ATOM     66  C   UNL A   1      40.057  23.862  26.492  1.00  0.00     0.134 A 
ATOM     67  C   UNL A   1      41.602  22.895  28.044  1.00  0.00     0.134 A 
ATOM     68  F   UNL A   1      39.561  24.909  25.815  1.00  0.00    -0.206 F 
ATOM     69  C   UNL A   1      39.421  22.627  26.344  1.00  0.00     0.040 A 
ATOM     70  C   UNL A   1      40.993  21.649  27.883  1.00  0.00     0.040 A 
ATOM     71  F   UNL A   1      42.643  22.980  28.885  1.00  0.00    -0.206 F 
ATOM     72  C   UNL A   1      39.895  21.515  27.037  1.00  0.00     0.006 A 
ENDBRANCH  51  65
BRANCH  52  73
ATOM     73  C   UNL A   1      45.184  33.035  28.948  1.00  0.00     0.057 A 
ATOM     74  C   UNL A   1      45.957  33.286  30.086  1.00  0.00     0.134 A 
ATOM     75  C   UNL A   1      45.002  34.091  28.046  1.00  0.00     0.134 A 
ATOM     76  F   UNL A   1      46.150  32.322  30.997  1.00  0.00    -0.206 F 
ATOM     77  C   UNL A   1      46.515  34.543  30.326  1.00  0.00     0.040 A 
ATOM     78  C   UNL A   1      45.576  35.345  28.260  1.00  0.00     0.040 A 
ATOM     79  F   UNL A   1      44.273  33.915  26.933  1.00  0.00    -0.206 F 
ATOM     80  C   UNL A   1      46.331  35.575  29.407  1.00  0.00     0.006 A 
ENDBRANCH  52  73
BRANCH  64  81
ATOM     81  C   UNL A   1      47.327  27.315  25.584  1.00  0.00     0.057 A 
ATOM     82  C   UNL A   1      48.424  26.686  26.186  1.00  0.00     0.134 A 
ATOM     83  C   UNL A   1      47.419  27.602  24.215  1.00  0.00     0.134 A 
ATOM     84  F   UNL A   1      48.404  26.393  27.496  1.00  0.00    -0.206 F 
ATOM     85  C   UNL A   1      49.576  26.375  25.462  1.00  0.00     0.040 A 
ATOM     86  C   UNL A   1      48.553  27.271  23.474  1.00  0.00     0.040 A 
ATOM     87  F   UNL A   1      46.400  28.194  23.573  1.00  0.00    -0.206 F 
ATOM     88  C   UNL A   1      49.639  26.661  24.098  1.00  0.00     0.006 A 
ENDBRANCH  64  81
ENDBRANCH  38  39
ENDBRANCH  31  33
ENDBRANCH  30  31
ENDBRANCH  29  30
ENDBRANCH  28  29
ENDBRANCH  27  28
ENDBRANCH  26  27
ENDBRANCH   1  26
TORSDOF 20
ENDMDL
MODEL 2
REMARK VINA RESULT:     -10.0      1.325      6.273
REMARK SMILES COC(=O)[C@@H](NC(=O)CCC(=O)OCCOCCOC(=O)c1ccc(-c2c3nc(c(-c4c(F)cccc4F)c4ccc([nH]4)c(-c4c(F)cccc4F)c4nc(c(-c5c(F)cccc5F)c5ccc2[nH]5)C=C4)C=C3)cc1)c1cccc2ccccc12
REMARK SMILES IDX 14 1 13 2 11 3 12 4 10 5 9 6 7 7 6 8 8 10 5 11 3 12 4 13
REMARK SMILES IDX 2 14 1 15 76 16 77 17 85 18 78 19 80 20 84 21 79 22 81 23
REMARK SMILES IDX 83 24 82 25 15 26 16 27 17 28 18 29 19 30 20 31 21 32 22 33
REMARK SMILES IDX 23 34 75 35 24 36 74 37 25 38 26 39 27 40 68 41 28 42 73 43
REMARK SMILES IDX 67 44 69 45 29 46 72 47 66 48 65 49 30 51 56 52 39 53 55 54
REMARK SMILES IDX 40 55 43 56 54 57 70 58 41 59 42 60 53 62 71 63 44 64 31 65
REMARK SMILES IDX 32 66 37 67 33 68 34 69 36 70 38 71 35 72 57 73 58 74 63 75
REMARK SMILES IDX 59 76 60 77 62 78 64 79 61 80 45 81 46 82 51 83 47 84 48 85
REMARK SMILES IDX 50 86 52 87 49 88
REMARK H PARENT 6 9 69 50 43 61
REMARK Flexibility Score: inf
ROOT
ATOM      1  C   UNL A   1      35.051  32.350  29.108  1.00  0.00     0.261 C 
ENDROOT
BRANCH   1   2
ATOM      2  O   UNL A   1      34.684  32.036  27.702  1.00  0.00    -0.463 OA
BRANCH   2   3
ATOM      3  C   UNL A   1      33.687  31.155  27.389  1.00  0.00     0.306 C 
ATOM      4  O   UNL A   1      32.568  31.555  27.074  1.00  0.00    -0.252 OA
BRANCH   3   5
ATOM      5  C   UNL A   1      33.995  29.605  27.415  1.00  0.00     0.132 C 
BRANCH   5   6
ATOM      6  C   UNL A   1      33.503  28.293  26.723  1.00  0.00     0.112 C 
BRANCH   6   7
ATOM      7  C   UNL A   1      32.123  27.614  26.714  1.00  0.00     0.221 C 
ATOM      8  N   UNL A   1      31.558  27.205  25.544  1.00  0.00    -0.339 N 
ATOM      9  H   UNL A   1      30.578  27.106  25.510  1.00  0.00     0.164 HD
ATOM     10  O   UNL A   1      31.444  27.507  27.736  1.00  0.00    -0.275 OA
BRANCH   8  11
ATOM     11  C   UNL A   1      32.327  26.905  24.333  1.00  0.00     0.224 C 
BRANCH  11  12
ATOM     12  C   UNL A   1      31.529  27.952  23.434  1.00  0.00     0.333 C 
ATOM     13  O   UNL A   1      30.335  27.865  23.166  1.00  0.00    -0.249 OA
BRANCH  12  14
ATOM     14  O   UNL A   1      32.298  28.920  22.832  1.00  0.00    -0.467 OA
ATOM     15  C   UNL A   1      33.706  28.694  22.640  1.00  0.00     0.282 C 
ENDBRANCH  12  14
ENDBRANCH  11  12
BRANCH  11  16
ATOM     16  C   UNL A   1      32.692  25.322  24.411  1.00  0.00    -0.007 A 
ATOM     17  C   UNL A   1      31.493  24.585  24.194  1.00  0.00     0.007 A 
ATOM     18  C   UNL A   1      33.909  24.463  24.603  1.00  0.00    -0.013 A 
ATOM     19  C   UNL A   1      31.479  23.235  23.875  1.00  0.00     0.001 A 
ATOM     20  C   UNL A   1      33.876  23.126  24.116  1.00  0.00    -0.018 A 
ATOM     21  C   UNL A   1      35.154  24.660  25.301  1.00  0.00     0.009 A 
ATOM     22  C   UNL A   1      32.670  22.547  23.743  1.00  0.00     0.009 A 
ATOM     23  C   UNL A   1      35.022  22.291  24.056  1.00  0.00     0.009 A 
ATOM     24  C   UNL A   1      36.276  23.816  25.332  1.00  0.00     0.001 A 
ATOM     25  C   UNL A   1      36.230  22.640  24.639  1.00  0.00     0.001 A 
ENDBRANCH  11  16
ENDBRANCH   8  11
ENDBRANCH   6   7
ENDBRANCH   5   6
ENDBRANCH   3   5
ENDBRANCH   2   3
ENDBRANCH   1   2
BRANCH   1  26
ATOM     26  C   UNL A   1      35.068  33.907  29.463  1.00  0.00     0.202 C 
BRANCH  26  27
ATOM     27  O   UNL A   1      34.995  34.349  30.838  1.00  0.00    -0.374 OA
BRANCH  27  28
ATOM     28  C   UNL A   1      34.252  33.526  31.750  1.00  0.00     0.202 C 
BRANCH  28  29
ATOM     29  C   UNL A   1      34.901  32.891  32.982  1.00  0.00     0.261 C 
BRANCH  29  30
ATOM     30  O   UNL A   1      36.283  33.264  33.060  1.00  0.00    -0.460 OA
BRANCH  30  31
ATOM     31  C   UNL A   1      37.046  32.332  33.651  1.00  0.00     0.338 C 
ATOM     32  O   UNL A   1      37.117  32.095  34.857  1.00  0.00    -0.246 OA
BRANCH  31  33
ATOM     33  C   UNL A   1      37.708  31.489  32.653  1.00  0.00     0.060 A 
ATOM     34  C   UNL A   1      38.756  30.702  33.136  1.00  0.00     0.016 A 
ATOM     35  C   UNL A   1      37.398  31.519  31.287  1.00  0.00     0.016 A 
ATOM     36  C   UNL A   1      39.578  30.031  32.249  1.00  0.00     0.010 A 
ATOM     37  C   UNL A   1      38.223  30.829  30.392  1.00  0.00     0.010 A 
ATOM     38  C   UNL A   1      39.352  30.142  30.871  1.00  0.00    -0.014 A 
BRANCH  38  39
ATOM     39  C   UNL A   1      40.448  29.718  29.972  1.00  0.00     0.031 A 
ATOM     40  C   UNL A   1      41.584  30.672  29.722  1.00  0.00     0.074 A 
ATOM     41  C   UNL A   1      40.502  28.456  29.515  1.00  0.00     0.049 A 
ATOM     42  N   UNL A   1      42.702  30.479  29.072  1.00  0.00    -0.248 NA
ATOM     43  C   UNL A   1      41.445  32.022  30.291  1.00  0.00     0.031 C 
ATOM     44  C   UNL A   1      39.486  27.431  29.747  1.00  0.00     0.029 A 
ATOM     45  N   UNL A   1      41.467  27.819  28.781  1.00  0.00    -0.354 N 
ATOM     46  C   UNL A   1      43.402  31.676  29.163  1.00  0.00     0.074 A 
ATOM     47  C   UNL A   1      42.562  32.605  29.887  1.00  0.00     0.031 C 
ATOM     48  C   UNL A   1      39.883  26.287  29.165  1.00  0.00     0.029 A 
ATOM     49  C   UNL A   1      41.168  26.509  28.504  1.00  0.00     0.049 A 
ATOM     50  H   UNL A   1      42.295  28.258  28.480  1.00  0.00     0.167 HD
ATOM     51  C   UNL A   1      44.641  31.970  28.703  1.00  0.00     0.037 A 
ATOM     52  C   UNL A   1      41.851  25.598  27.786  1.00  0.00     0.037 A 
ATOM     53  C   UNL A   1      45.468  31.044  27.977  1.00  0.00     0.049 A 
ATOM     54  C   UNL A   1      43.191  25.972  27.210  1.00  0.00     0.074 A 
ATOM     55  C   UNL A   1      46.735  31.241  27.459  1.00  0.00     0.029 A 
ATOM     56  N   UNL A   1      45.103  29.744  27.660  1.00  0.00    -0.354 N 
ATOM     57  N   UNL A   1      43.851  27.101  27.316  1.00  0.00    -0.248 NA
ATOM     58  C   UNL A   1      43.884  24.944  26.423  1.00  0.00     0.031 C 
ATOM     59  C   UNL A   1      47.114  30.077  26.780  1.00  0.00     0.029 A 
ATOM     60  C   UNL A   1      46.108  29.136  26.927  1.00  0.00     0.049 A 
ATOM     61  H   UNL A   1      44.253  29.317  27.918  1.00  0.00     0.167 HD
ATOM     62  C   UNL A   1      45.045  26.911  26.630  1.00  0.00     0.074 A 
ATOM     63  C   UNL A   1      45.023  25.553  26.126  1.00  0.00     0.031 C 
ATOM     64  C   UNL A   1      46.066  27.781  26.434  1.00  0.00     0.037 A 
BRANCH  51  65
ATOM     65  C   UNL A   1      45.153  33.360  28.949  1.00  0.00     0.057 A 
ATOM     66  C   UNL A   1      44.898  34.414  28.060  1.00  0.00     0.134 A 
ATOM     67  C   UNL A   1      45.910  33.649  30.091  1.00  0.00     0.134 A 
ATOM     68  F   UNL A   1      44.195  34.202  26.938  1.00  0.00    -0.206 F 
ATOM     69  C   UNL A   1      45.404  35.696  28.283  1.00  0.00     0.040 A 
ATOM     70  C   UNL A   1      46.397  34.933  30.338  1.00  0.00     0.040 A 
ATOM     71  F   UNL A   1      46.190  32.688  30.984  1.00  0.00    -0.206 F 
ATOM     72  C   UNL A   1      46.151  35.959  29.429  1.00  0.00     0.006 A 
ENDBRANCH  51  65
BRANCH  52  73
ATOM     73  C   UNL A   1      41.270  24.252  27.562  1.00  0.00     0.057 A 
ATOM     74  C   UNL A   1      40.233  24.042  26.646  1.00  0.00     0.134 A 
ATOM     75  C   UNL A   1      41.742  23.137  28.267  1.00  0.00     0.134 A 
ATOM     76  F   UNL A   1      39.723  25.071  25.955  1.00  0.00    -0.206 F 
ATOM     77  C   UNL A   1      39.678  22.776  26.450  1.00  0.00     0.040 A 
ATOM     78  C   UNL A   1      41.215  21.862  28.062  1.00  0.00     0.040 A 
ATOM     79  F   UNL A   1      42.737  23.271  29.158  1.00  0.00    -0.206 F 
ATOM     80  C   UNL A   1      40.175  21.680  27.155  1.00  0.00     0.006 A 
ENDBRANCH  52  73
BRANCH  64  81
ATOM     81  C   UNL A   1      47.256  27.284  25.664  1.00  0.00     0.057 A 
ATOM     82  C   UNL A   1      48.295  26.577  26.282  1.00  0.00     0.134 A 
ATOM     83  C   UNL A   1      47.340  27.476  24.279  1.00  0.00     0.134 A 
ATOM     84  F   UNL A   1      48.281  26.367  27.607  1.00  0.00    -0.206 F 
ATOM     85  C   UNL A   1      49.386  26.099  25.554  1.00  0.00     0.040 A 
ATOM     86  C   UNL A   1      48.411  26.978  23.536  1.00  0.00     0.040 A 
ATOM     87  F   UNL A   1      46.372  28.135  23.622  1.00  0.00    -0.206 F 
ATOM     88  C   UNL A   1      49.442  26.294  24.175  1.00  0.00     0.006 A 
ENDBRANCH  64  81
ENDBRANCH  38  39
ENDBRANCH  31  33
ENDBRANCH  30  31
ENDBRANCH  29  30
ENDBRANCH  28  29
ENDBRANCH  27  28
ENDBRANCH  26  27
ENDBRANCH   1  26
TORSDOF 20
ENDMDL
MODEL 3
REMARK VINA RESULT:     -10.0      1.168      2.131
REMARK SMILES COC(=O)[C@@H](NC(=O)CCC(=O)OCCOCCOC(=O)c1ccc(-c2c3nc(c(-c4c(F)cccc4F)c4ccc([nH]4)c(-c4c(F)cccc4F)c4nc(c(-c5c(F)cccc5F)c5ccc2[nH]5)C=C4)C=C3)cc1)c1cccc2ccccc12
REMARK SMILES IDX 14 1 13 2 11 3 12 4 10 5 9 6 7 7 6 8 8 10 5 11 3 12 4 13
REMARK SMILES IDX 2 14 1 15 76 16 77 17 85 18 78 19 80 20 84 21 79 22 81 23
REMARK SMILES IDX 83 24 82 25 15 26 16 27 17 28 18 29 19 30 20 31 21 32 22 33
REMARK SMILES IDX 23 34 75 35 24 36 74 37 25 38 26 39 27 40 68 41 28 42 73 43
REMARK SMILES IDX 67 44 69 45 29 46 72 47 66 48 65 49 30 51 56 52 39 53 55 54
REMARK SMILES IDX 40 55 43 56 54 57 70 58 41 59 42 60 53 62 71 63 44 64 31 65
REMARK SMILES IDX 32 66 37 67 33 68 34 69 36 70 38 71 35 72 57 73 58 74 63 75
REMARK SMILES IDX 59 76 60 77 62 78 64 79 61 80 45 81 46 82 51 83 47 84 48 85
REMARK SMILES IDX 50 86 52 87 49 88
REMARK H PARENT 6 9 69 50 43 61
REMARK Flexibility Score: inf
ROOT
ATOM      1  C   UNL A   1      34.673  31.962  29.019  1.00  0.00     0.261 C 
ENDROOT
BRANCH   1   2
ATOM      2  O   UNL A   1      33.908  31.037  28.141  1.00  0.00    -0.463 OA
BRANCH   2   3
ATOM      3  C   UNL A   1      34.522  30.215  27.239  1.00  0.00     0.306 C 
ATOM      4  O   UNL A   1      35.745  30.079  27.238  1.00  0.00    -0.252 OA
BRANCH   3   5
ATOM      5  C   UNL A   1      33.638  29.417  26.200  1.00  0.00     0.132 C 
BRANCH   5   6
ATOM      6  C   UNL A   1      32.157  28.949  26.026  1.00  0.00     0.112 C 
BRANCH   6   7
ATOM      7  C   UNL A   1      31.390  27.777  26.660  1.00  0.00     0.221 C 
ATOM      8  N   UNL A   1      30.818  26.817  25.879  1.00  0.00    -0.339 N 
ATOM      9  H   UNL A   1      30.068  26.299  26.252  1.00  0.00     0.164 HD
ATOM     10  O   UNL A   1      31.180  27.715  27.872  1.00  0.00    -0.275 OA
BRANCH   8  11
ATOM     11  C   UNL A   1      31.259  26.512  24.514  1.00  0.00     0.224 C 
BRANCH  11  12
ATOM     12  C   UNL A   1      29.830  26.800  23.871  1.00  0.00     0.333 C 
ATOM     13  O   UNL A   1      28.883  26.019  23.913  1.00  0.00    -0.249 OA
BRANCH  12  14
ATOM     14  O   UNL A   1      29.741  27.945  23.116  1.00  0.00    -0.467 OA
ATOM     15  C   UNL A   1      30.938  28.547  22.591  1.00  0.00     0.282 C 
ENDBRANCH  12  14
ENDBRANCH  11  12
BRANCH  11  16
ATOM     16  C   UNL A   1      32.373  25.336  24.652  1.00  0.00    -0.007 A 
ATOM     17  C   UNL A   1      33.210  25.388  23.501  1.00  0.00     0.007 A 
ATOM     18  C   UNL A   1      32.766  24.279  25.644  1.00  0.00    -0.013 A 
ATOM     19  C   UNL A   1      34.443  24.756  23.431  1.00  0.00     0.001 A 
ATOM     20  C   UNL A   1      34.098  23.780  25.609  1.00  0.00    -0.018 A 
ATOM     21  C   UNL A   1      32.028  23.528  26.629  1.00  0.00     0.009 A 
ATOM     22  C   UNL A   1      34.915  24.045  24.518  1.00  0.00     0.009 A 
ATOM     23  C   UNL A   1      34.642  22.938  26.613  1.00  0.00     0.009 A 
ATOM     24  C   UNL A   1      32.524  22.624  27.582  1.00  0.00     0.001 A 
ATOM     25  C   UNL A   1      33.866  22.378  27.617  1.00  0.00     0.001 A 
ENDBRANCH  11  16
ENDBRANCH   8  11
ENDBRANCH   6   7
ENDBRANCH   5   6
ENDBRANCH   3   5
ENDBRANCH   2   3
ENDBRANCH   1   2
BRANCH   1  26
ATOM     26  C   UNL A   1      34.661  33.490  28.554  1.00  0.00     0.202 C 
BRANCH  26  27
ATOM     27  O   UNL A   1      34.785  34.555  29.524  1.00  0.00    -0.374 OA
BRANCH  27  28
ATOM     28  C   UNL A   1      34.205  34.331  30.818  1.00  0.00     0.202 C 
BRANCH  28  29
ATOM     29  C   UNL A   1      35.063  34.164  32.074  1.00  0.00     0.261 C 
BRANCH  29  30
ATOM     30  O   UNL A   1      36.360  33.664  31.723  1.00  0.00    -0.460 OA
BRANCH  30  31
ATOM     31  C   UNL A   1      36.712  32.578  32.427  1.00  0.00     0.338 C 
ATOM     32  O   UNL A   1      36.288  32.250  33.536  1.00  0.00    -0.246 OA
BRANCH  31  33
ATOM     33  C   UNL A   1      37.586  31.705  31.640  1.00  0.00     0.060 A 
ATOM     34  C   UNL A   1      38.493  30.943  32.380  1.00  0.00     0.016 A 
ATOM     35  C   UNL A   1      37.601  31.686  30.239  1.00  0.00     0.016 A 
ATOM     36  C   UNL A   1      39.497  30.247  31.731  1.00  0.00     0.010 A 
ATOM     37  C   UNL A   1      38.610  30.971  29.584  1.00  0.00     0.010 A 
ATOM     38  C   UNL A   1      39.597  30.309  30.335  1.00  0.00    -0.014 A 
BRANCH  38  39
ATOM     39  C   UNL A   1      40.871  29.861  29.730  1.00  0.00     0.031 A 
ATOM     40  C   UNL A   1      40.961  28.456  29.201  1.00  0.00     0.074 A 
ATOM     41  C   UNL A   1      41.868  30.737  29.521  1.00  0.00     0.049 A 
ATOM     42  N   UNL A   1      41.926  27.883  28.529  1.00  0.00    -0.248 NA
ATOM     43  C   UNL A   1      39.803  27.583  29.453  1.00  0.00     0.031 C 
ATOM     44  C   UNL A   1      41.862  32.137  29.939  1.00  0.00     0.029 A 
ATOM     45  N   UNL A   1      43.069  30.576  28.881  1.00  0.00    -0.354 N 
ATOM     46  C   UNL A   1      41.487  26.590  28.271  1.00  0.00     0.074 A 
ATOM     47  C   UNL A   1      40.193  26.446  28.900  1.00  0.00     0.031 C 
ATOM     48  C   UNL A   1      43.009  32.713  29.541  1.00  0.00     0.029 A 
ATOM     49  C   UNL A   1      43.835  31.715  28.863  1.00  0.00     0.049 A 
ATOM     50  H   UNL A   1      43.355  29.727  28.474  1.00  0.00     0.167 HD
ATOM     51  C   UNL A   1      42.098  25.616  27.556  1.00  0.00     0.037 A 
ATOM     52  C   UNL A   1      45.068  31.920  28.365  1.00  0.00     0.037 A 
ATOM     53  C   UNL A   1      43.389  25.762  26.939  1.00  0.00     0.049 A 
ATOM     54  C   UNL A   1      45.766  30.795  27.647  1.00  0.00     0.074 A 
ATOM     55  C   UNL A   1      44.103  24.836  26.200  1.00  0.00     0.029 A 
ATOM     56  N   UNL A   1      44.163  26.911  26.998  1.00  0.00    -0.354 N 
ATOM     57  N   UNL A   1      45.336  29.582  27.393  1.00  0.00    -0.248 NA
ATOM     58  C   UNL A   1      47.117  31.072  27.139  1.00  0.00     0.031 C 
ATOM     59  C   UNL A   1      45.333  25.407  25.858  1.00  0.00     0.029 A 
ATOM     60  C   UNL A   1      45.361  26.709  26.333  1.00  0.00     0.049 A 
ATOM     61  H   UNL A   1      43.900  27.748  27.447  1.00  0.00     0.167 HD
ATOM     62  C   UNL A   1      46.352  28.959  26.678  1.00  0.00     0.074 A 
ATOM     63  C   UNL A   1      47.411  29.936  26.525  1.00  0.00     0.031 C 
ATOM     64  C   UNL A   1      46.404  27.694  26.192  1.00  0.00     0.037 A 
BRANCH  51  65
ATOM     65  C   UNL A   1      41.383  24.300  27.438  1.00  0.00     0.057 A 
ATOM     66  C   UNL A   1      41.771  23.174  28.178  1.00  0.00     0.134 A 
ATOM     67  C   UNL A   1      40.292  24.158  26.572  1.00  0.00     0.134 A 
ATOM     68  F   UNL A   1      42.820  23.237  29.012  1.00  0.00    -0.206 F 
ATOM     69  C   UNL A   1      41.118  21.948  28.038  1.00  0.00     0.040 A 
ATOM     70  C   UNL A   1      39.613  22.944  26.445  1.00  0.00     0.040 A 
ATOM     71  F   UNL A   1      39.866  25.195  25.836  1.00  0.00    -0.206 F 
ATOM     72  C   UNL A   1      40.032  21.834  27.174  1.00  0.00     0.006 A 
ENDBRANCH  51  65
BRANCH  52  73
ATOM     73  C   UNL A   1      45.724  33.239  28.544  1.00  0.00     0.057 A 
ATOM     74  C   UNL A   1      45.594  34.259  27.596  1.00  0.00     0.134 A 
ATOM     75  C   UNL A   1      46.501  33.507  29.678  1.00  0.00     0.134 A 
ATOM     76  F   UNL A   1      44.880  34.058  26.480  1.00  0.00    -0.206 F 
ATOM     77  C   UNL A   1      46.227  35.493  27.762  1.00  0.00     0.040 A 
ATOM     78  C   UNL A   1      47.117  34.744  29.869  1.00  0.00     0.040 A 
ATOM     79  F   UNL A   1      46.662  32.571  30.626  1.00  0.00    -0.206 F 
ATOM     80  C   UNL A   1      46.985  35.740  28.905  1.00  0.00     0.006 A 
ENDBRANCH  52  73
BRANCH  64  81
ATOM     81  C   UNL A   1      47.634  27.301  25.426  1.00  0.00     0.057 A 
ATOM     82  C   UNL A   1      47.750  27.520  24.048  1.00  0.00     0.134 A 
ATOM     83  C   UNL A   1      48.735  26.739  26.086  1.00  0.00     0.134 A 
ATOM     84  F   UNL A   1      46.728  28.045  23.354  1.00  0.00    -0.206 F 
ATOM     85  C   UNL A   1      48.907  27.171  23.348  1.00  0.00     0.040 A 
ATOM     86  C   UNL A   1      49.907  26.412  25.403  1.00  0.00     0.040 A 
ATOM     87  F   UNL A   1      48.695  26.513  27.408  1.00  0.00    -0.206 F 
ATOM     88  C   UNL A   1      49.993  26.622  24.029  1.00  0.00     0.006 A 
ENDBRANCH  64  81
ENDBRANCH  38  39
ENDBRANCH  31  33
ENDBRANCH  30  31
ENDBRANCH  29  30
ENDBRANCH  28  29
ENDBRANCH  27  28
ENDBRANCH  26  27
ENDBRANCH   1  26
TORSDOF 20
ENDMDL
