MODEL 1
REMARK VINA RESULT:     -10.5      0.000      0.000
REMARK SMILES O=C(C[N@@H+](Cc1nc(-c2ccco2)no1)CC(F)(F)F)OCCOCCOC(=O)c1ccc(-c2c3nc(c(-c4c(F)cccc4F)c4ccc([nH]4)c(-c4c(F)cccc4F)c4nc(c(-c5c(F)cccc5F)c5ccc2[nH]5)C=C4)C=C3)cc1
REMARK SMILES IDX 23 1 22 2 21 3 2 4 1 5 3 6 4 7 5 9 6 10 7 11 15 12 8 13
REMARK SMILES IDX 14 14 9 15 10 16 13 17 11 18 12 19 16 20 17 21 18 22 19 23
REMARK SMILES IDX 20 24 24 25 25 26 26 27 27 28 28 29 29 30 30 31 31 32 83 33
REMARK SMILES IDX 32 34 82 35 33 36 34 37 35 38 76 39 36 40 81 41 75 42 77 43
REMARK SMILES IDX 37 44 80 45 74 46 73 47 38 49 64 50 47 51 63 52 48 53 51 54
REMARK SMILES IDX 62 55 78 56 49 57 50 58 61 60 79 61 52 62 39 63 40 64 45 65
REMARK SMILES IDX 41 66 42 67 44 68 46 69 43 70 65 71 66 72 71 73 67 74 68 75
REMARK SMILES IDX 70 76 72 77 69 78 53 79 54 80 59 81 55 82 56 83 58 84 60 85
REMARK SMILES IDX 57 86
REMARK H PARENT 4 8 77 48 51 59
REMARK Flexibility Score: inf
ROOT
ATOM      1  C   UNL A   1      30.498  26.844  24.721  1.00  0.00     0.202 C 
ENDROOT
BRANCH   1   2
ATOM      2  C   UNL A   1      30.565  26.202  26.102  1.00  0.00     0.261 C 
BRANCH   2   3
ATOM      3  O   UNL A   1      30.728  24.776  26.010  1.00  0.00    -0.459 OA
BRANCH   3   4
ATOM      4  C   UNL A   1      31.776  24.103  26.533  1.00  0.00     0.361 C 
ATOM      5  O   UNL A   1      31.583  23.213  27.362  1.00  0.00    -0.245 OA
BRANCH   4   6
ATOM      6  C   UNL A   1      33.183  24.482  26.103  1.00  0.00     0.387 C 
BRANCH   6   7
ATOM      7  N   UNL A   1      33.745  23.579  25.077  1.00  0.00    -0.310 N 
ATOM      8  H   UNL A   1      33.992  22.703  25.538  1.00  0.00     0.349 HD
BRANCH   7   9
ATOM      9  C   UNL A   1      32.731  23.194  24.055  1.00  0.00     0.364 C 
BRANCH   9  10
ATOM     10  C   UNL A   1      32.594  21.735  23.788  1.00  0.00     0.282 A 
ATOM     11  N   UNL A   1      32.941  20.746  24.569  1.00  0.00    -0.183 NA
ATOM     12  O   UNL A   1      32.098  21.321  22.587  1.00  0.00    -0.333 OA
ATOM     13  C   UNL A   1      32.652  19.643  23.820  1.00  0.00     0.238 A 
ATOM     14  N   UNL A   1      32.152  19.913  22.606  1.00  0.00    -0.053 NA
BRANCH  13  15
ATOM     15  C   UNL A   1      32.946  18.300  24.384  1.00  0.00     0.174 A 
ATOM     16  C   UNL A   1      33.087  17.162  23.604  1.00  0.00     0.054 A 
ATOM     17  O   UNL A   1      33.092  17.969  25.699  1.00  0.00    -0.461 OA
ATOM     18  C   UNL A   1      33.316  16.086  24.486  1.00  0.00     0.043 A 
ATOM     19  C   UNL A   1      33.295  16.625  25.750  1.00  0.00     0.196 A 
ENDBRANCH  13  15
ENDBRANCH   9  10
ENDBRANCH   7   9
BRANCH   7  20
ATOM     20  C   UNL A   1      35.028  24.079  24.526  1.00  0.00     0.380 C 
BRANCH  20  21
ATOM     21  C   UNL A   1      36.258  23.173  24.285  1.00  0.00     0.438 C 
ATOM     22  F   UNL A   1      36.048  21.896  24.660  1.00  0.00    -0.165 F 
ATOM     23  F   UNL A   1      36.560  23.157  22.964  1.00  0.00    -0.165 F 
ATOM     24  F   UNL A   1      37.346  23.643  24.932  1.00  0.00    -0.165 F 
ENDBRANCH  20  21
ENDBRANCH   7  20
ENDBRANCH   6   7
ENDBRANCH   4   6
ENDBRANCH   3   4
ENDBRANCH   2   3
ENDBRANCH   1   2
BRANCH   1  25
ATOM     25  O   UNL A   1      30.975  28.186  24.637  1.00  0.00    -0.374 OA
BRANCH  25  26
ATOM     26  C   UNL A   1      31.921  28.584  25.638  1.00  0.00     0.202 C 
BRANCH  26  27
ATOM     27  C   UNL A   1      32.012  30.088  25.910  1.00  0.00     0.261 C 
BRANCH  27  28
ATOM     28  O   UNL A   1      32.583  30.342  27.199  1.00  0.00    -0.460 OA
BRANCH  28  29
ATOM     29  C   UNL A   1      33.251  31.512  27.309  1.00  0.00     0.338 C 
ATOM     30  O   UNL A   1      32.790  32.641  27.257  1.00  0.00    -0.246 OA
BRANCH  29  31
ATOM     31  C   UNL A   1      34.627  31.218  27.748  1.00  0.00     0.060 A 
ATOM     32  C   UNL A   1      34.996  29.873  27.897  1.00  0.00     0.016 A 
ATOM     33  C   UNL A   1      35.540  32.244  27.998  1.00  0.00     0.016 A 
ATOM     34  C   UNL A   1      36.262  29.548  28.371  1.00  0.00     0.010 A 
ATOM     35  C   UNL A   1      36.802  31.921  28.483  1.00  0.00     0.010 A 
ATOM     36  C   UNL A   1      37.141  30.576  28.720  1.00  0.00    -0.014 A 
BRANCH  36  37
ATOM     37  C   UNL A   1      38.310  30.287  29.575  1.00  0.00     0.031 A 
ATOM     38  C   UNL A   1      39.343  29.341  29.036  1.00  0.00     0.074 A 
ATOM     39  C   UNL A   1      38.423  30.821  30.799  1.00  0.00     0.049 A 
ATOM     40  N   UNL A   1      40.363  28.792  29.637  1.00  0.00    -0.248 NA
ATOM     41  C   UNL A   1      39.184  28.942  27.626  1.00  0.00     0.031 C 
ATOM     42  C   UNL A   1      37.499  31.784  31.394  1.00  0.00     0.029 A 
ATOM     43  N   UNL A   1      39.359  30.597  31.775  1.00  0.00    -0.354 N 
ATOM     44  C   UNL A   1      40.950  27.963  28.690  1.00  0.00     0.074 A 
ATOM     45  C   UNL A   1      40.158  28.057  27.485  1.00  0.00     0.031 C 
ATOM     46  C   UNL A   1      37.898  32.047  32.650  1.00  0.00     0.029 A 
ATOM     47  C   UNL A   1      39.077  31.237  32.954  1.00  0.00     0.049 A 
ATOM     48  H   UNL A   1      40.154  30.033  31.642  1.00  0.00     0.167 HD
ATOM     49  C   UNL A   1      42.056  27.194  28.818  1.00  0.00     0.037 A 
ATOM     50  C   UNL A   1      39.684  31.143  34.151  1.00  0.00     0.037 A 
ATOM     51  C   UNL A   1      42.827  27.113  30.028  1.00  0.00     0.049 A 
ATOM     52  C   UNL A   1      40.876  30.232  34.294  1.00  0.00     0.074 A 
ATOM     53  C   UNL A   1      43.977  26.385  30.273  1.00  0.00     0.029 A 
ATOM     54  N   UNL A   1      42.515  27.780  31.205  1.00  0.00    -0.354 N 
ATOM     55  N   UNL A   1      41.440  29.460  33.394  1.00  0.00    -0.248 NA
ATOM     56  C   UNL A   1      41.514  30.179  35.615  1.00  0.00     0.031 C 
ATOM     57  C   UNL A   1      44.326  26.566  31.614  1.00  0.00     0.029 A 
ATOM     58  C   UNL A   1      43.435  27.462  32.187  1.00  0.00     0.049 A 
ATOM     59  H   UNL A   1      41.750  28.389  31.323  1.00  0.00     0.167 HD
ATOM     60  C   UNL A   1      42.523  28.862  34.028  1.00  0.00     0.074 A 
ATOM     61  C   UNL A   1      42.533  29.361  35.389  1.00  0.00     0.031 C 
ATOM     62  C   UNL A   1      43.431  27.986  33.530  1.00  0.00     0.037 A 
BRANCH  49  63
ATOM     63  C   UNL A   1      42.457  26.358  27.637  1.00  0.00     0.057 A 
ATOM     64  C   UNL A   1      43.366  26.813  26.672  1.00  0.00     0.134 A 
ATOM     65  C   UNL A   1      41.919  25.076  27.458  1.00  0.00     0.134 A 
ATOM     66  F   UNL A   1      43.904  28.039  26.769  1.00  0.00    -0.206 F 
ATOM     67  C   UNL A   1      43.699  26.041  25.558  1.00  0.00     0.040 A 
ATOM     68  C   UNL A   1      42.270  24.282  26.367  1.00  0.00     0.040 A 
ATOM     69  F   UNL A   1      41.043  24.576  28.342  1.00  0.00    -0.206 F 
ATOM     70  C   UNL A   1      43.154  24.767  25.407  1.00  0.00     0.006 A 
ENDBRANCH  49  63
BRANCH  50  71
ATOM     71  C   UNL A   1      39.171  31.925  35.303  1.00  0.00     0.057 A 
ATOM     72  C   UNL A   1      39.526  33.267  35.480  1.00  0.00     0.134 A 
ATOM     73  C   UNL A   1      38.303  31.357  36.244  1.00  0.00     0.134 A 
ATOM     74  F   UNL A   1      40.368  33.861  34.621  1.00  0.00    -0.206 F 
ATOM     75  C   UNL A   1      39.047  34.014  36.557  1.00  0.00     0.040 A 
ATOM     76  C   UNL A   1      37.795  32.100  37.311  1.00  0.00     0.040 A 
ATOM     77  F   UNL A   1      37.919  30.078  36.127  1.00  0.00    -0.206 F 
ATOM     78  C   UNL A   1      38.172  33.432  37.473  1.00  0.00     0.006 A 
ENDBRANCH  50  71
BRANCH  62  79
ATOM     79  C   UNL A   1      44.549  27.558  34.437  1.00  0.00     0.057 A 
ATOM     80  C   UNL A   1      44.473  26.404  35.224  1.00  0.00     0.134 A 
ATOM     81  C   UNL A   1      45.747  28.286  34.468  1.00  0.00     0.134 A 
ATOM     82  F   UNL A   1      43.351  25.669  35.247  1.00  0.00    -0.206 F 
ATOM     83  C   UNL A   1      45.541  25.998  36.026  1.00  0.00     0.040 A 
ATOM     84  C   UNL A   1      46.833  27.874  35.241  1.00  0.00     0.040 A 
ATOM     85  F   UNL A   1      45.889  29.396  33.727  1.00  0.00    -0.206 F 
ATOM     86  C   UNL A   1      46.728  26.729  36.028  1.00  0.00     0.006 A 
ENDBRANCH  62  79
ENDBRANCH  36  37
ENDBRANCH  29  31
ENDBRANCH  28  29
ENDBRANCH  27  28
ENDBRANCH  26  27
ENDBRANCH  25  26
ENDBRANCH   1  25
TORSDOF 20
ENDMDL
MODEL 2
REMARK VINA RESULT:     -10.5      2.494      4.952
REMARK SMILES O=C(C[N@@H+](Cc1nc(-c2ccco2)no1)CC(F)(F)F)OCCOCCOC(=O)c1ccc(-c2c3nc(c(-c4c(F)cccc4F)c4ccc([nH]4)c(-c4c(F)cccc4F)c4nc(c(-c5c(F)cccc5F)c5ccc2[nH]5)C=C4)C=C3)cc1
REMARK SMILES IDX 23 1 22 2 21 3 2 4 1 5 3 6 4 7 5 9 6 10 7 11 15 12 8 13
REMARK SMILES IDX 14 14 9 15 10 16 13 17 11 18 12 19 16 20 17 21 18 22 19 23
REMARK SMILES IDX 20 24 24 25 25 26 26 27 27 28 28 29 29 30 30 31 31 32 83 33
REMARK SMILES IDX 32 34 82 35 33 36 34 37 35 38 76 39 36 40 81 41 75 42 77 43
REMARK SMILES IDX 37 44 80 45 74 46 73 47 38 49 64 50 47 51 63 52 48 53 51 54
REMARK SMILES IDX 62 55 78 56 49 57 50 58 61 60 79 61 52 62 39 63 40 64 45 65
REMARK SMILES IDX 41 66 42 67 44 68 46 69 43 70 65 71 66 72 71 73 67 74 68 75
REMARK SMILES IDX 70 76 72 77 69 78 53 79 54 80 59 81 55 82 56 83 58 84 60 85
REMARK SMILES IDX 57 86
REMARK H PARENT 4 8 77 48 51 59
REMARK Flexibility Score: inf
ROOT
ATOM      1  C   UNL A   1      31.715  28.600  26.139  1.00  0.00     0.202 C 
ENDROOT
BRANCH   1   2
ATOM      2  C   UNL A   1      32.442  27.345  26.605  1.00  0.00     0.261 C 
BRANCH   2   3
ATOM      3  O   UNL A   1      31.538  26.232  26.733  1.00  0.00    -0.459 OA
BRANCH   3   4
ATOM      4  C   UNL A   1      31.883  24.950  26.486  1.00  0.00     0.361 C 
ATOM      5  O   UNL A   1      31.489  24.053  27.231  1.00  0.00    -0.245 OA
BRANCH   4   6
ATOM      6  C   UNL A   1      32.782  24.645  25.300  1.00  0.00     0.387 C 
BRANCH   6   7
ATOM      7  N   UNL A   1      32.051  24.559  24.018  1.00  0.00    -0.310 N 
ATOM      8  H   UNL A   1      31.058  24.469  24.234  1.00  0.00     0.349 HD
BRANCH   7   9
ATOM      9  C   UNL A   1      32.152  25.820  23.230  1.00  0.00     0.364 C 
BRANCH   9  10
ATOM     10  C   UNL A   1      30.918  26.652  23.169  1.00  0.00     0.282 A 
ATOM     11  N   UNL A   1      30.783  27.839  22.637  1.00  0.00    -0.183 NA
ATOM     12  O   UNL A   1      29.776  26.197  23.760  1.00  0.00    -0.333 OA
ATOM     13  C   UNL A   1      29.484  28.155  22.909  1.00  0.00     0.238 A 
ATOM     14  N   UNL A   1      28.818  27.216  23.596  1.00  0.00    -0.053 NA
BRANCH  13  15
ATOM     15  C   UNL A   1      28.964  29.476  22.471  1.00  0.00     0.174 A 
ATOM     16  C   UNL A   1      28.715  30.523  23.345  1.00  0.00     0.054 A 
ATOM     17  O   UNL A   1      28.633  29.855  21.203  1.00  0.00    -0.461 OA
ATOM     18  C   UNL A   1      28.195  31.585  22.575  1.00  0.00     0.043 A 
ATOM     19  C   UNL A   1      28.151  31.124  21.281  1.00  0.00     0.196 A 
ENDBRANCH  13  15
ENDBRANCH   9  10
ENDBRANCH   7   9
BRANCH   7  20
ATOM     20  C   UNL A   1      32.376  23.324  23.263  1.00  0.00     0.380 C 
BRANCH  20  21
ATOM     21  C   UNL A   1      32.324  21.910  23.888  1.00  0.00     0.438 C 
ATOM     22  F   UNL A   1      31.372  21.792  24.834  1.00  0.00    -0.165 F 
ATOM     23  F   UNL A   1      32.047  20.997  22.926  1.00  0.00    -0.165 F 
ATOM     24  F   UNL A   1      33.515  21.568  24.424  1.00  0.00    -0.165 F 
ENDBRANCH  20  21
ENDBRANCH   7  20
ENDBRANCH   6   7
ENDBRANCH   4   6
ENDBRANCH   3   4
ENDBRANCH   2   3
ENDBRANCH   1   2
BRANCH   1  25
ATOM     25  O   UNL A   1      32.263  29.838  26.588  1.00  0.00    -0.374 OA
BRANCH  25  26
ATOM     26  C   UNL A   1      31.597  31.025  26.137  1.00  0.00     0.202 C 
BRANCH  26  27
ATOM     27  C   UNL A   1      31.687  32.236  27.069  1.00  0.00     0.261 C 
BRANCH  27  28
ATOM     28  O   UNL A   1      33.042  32.472  27.472  1.00  0.00    -0.460 OA
BRANCH  28  29
ATOM     29  C   UNL A   1      33.250  33.638  28.125  1.00  0.00     0.338 C 
ATOM     30  O   UNL A   1      32.491  34.590  28.209  1.00  0.00    -0.246 OA
BRANCH  29  31
ATOM     31  C   UNL A   1      34.468  33.498  28.944  1.00  0.00     0.060 A 
ATOM     32  C   UNL A   1      35.657  34.061  28.455  1.00  0.00     0.016 A 
ATOM     33  C   UNL A   1      34.440  32.836  30.172  1.00  0.00     0.016 A 
ATOM     34  C   UNL A   1      36.844  33.899  29.160  1.00  0.00     0.010 A 
ATOM     35  C   UNL A   1      35.629  32.663  30.873  1.00  0.00     0.010 A 
ATOM     36  C   UNL A   1      36.837  33.147  30.338  1.00  0.00    -0.014 A 
BRANCH  36  37
ATOM     37  C   UNL A   1      38.105  32.631  30.890  1.00  0.00     0.031 A 
ATOM     38  C   UNL A   1      38.692  31.409  30.243  1.00  0.00     0.074 A 
ATOM     39  C   UNL A   1      38.688  33.208  31.949  1.00  0.00     0.049 A 
ATOM     40  N   UNL A   1      39.689  30.660  30.630  1.00  0.00    -0.248 NA
ATOM     41  C   UNL A   1      38.043  30.958  28.999  1.00  0.00     0.031 C 
ATOM     42  C   UNL A   1      38.222  34.421  32.617  1.00  0.00     0.029 A 
ATOM     43  N   UNL A   1      39.790  32.823  32.667  1.00  0.00    -0.354 N 
ATOM     44  C   UNL A   1      39.770  29.637  29.694  1.00  0.00     0.074 A 
ATOM     45  C   UNL A   1      38.705  29.842  28.739  1.00  0.00     0.031 C 
ATOM     46  C   UNL A   1      39.019  34.667  33.671  1.00  0.00     0.029 A 
ATOM     47  C   UNL A   1      40.017  33.603  33.772  1.00  0.00     0.049 A 
ATOM     48  H   UNL A   1      40.361  32.063  32.415  1.00  0.00     0.167 HD
ATOM     49  C   UNL A   1      40.659  28.619  29.639  1.00  0.00     0.037 A 
ATOM     50  C   UNL A   1      40.908  33.445  34.768  1.00  0.00     0.037 A 
ATOM     51  C   UNL A   1      41.708  28.432  30.603  1.00  0.00     0.049 A 
ATOM     52  C   UNL A   1      41.848  32.269  34.725  1.00  0.00     0.074 A 
ATOM     53  C   UNL A   1      42.681  27.451  30.641  1.00  0.00     0.029 A 
ATOM     54  N   UNL A   1      41.913  29.246  31.709  1.00  0.00    -0.354 N 
ATOM     55  N   UNL A   1      41.935  31.311  33.833  1.00  0.00    -0.248 NA
ATOM     56  C   UNL A   1      42.813  32.153  35.826  1.00  0.00     0.031 C 
ATOM     57  C   UNL A   1      43.437  27.637  31.803  1.00  0.00     0.029 A 
ATOM     58  C   UNL A   1      42.980  28.775  32.451  1.00  0.00     0.049 A 
ATOM     59  H   UNL A   1      41.375  30.040  31.933  1.00  0.00     0.167 HD
ATOM     60  C   UNL A   1      42.989  30.501  34.241  1.00  0.00     0.074 A 
ATOM     61  C   UNL A   1      43.507  31.083  35.463  1.00  0.00     0.031 C 
ATOM     62  C   UNL A   1      43.487  29.384  33.656  1.00  0.00     0.037 A 
BRANCH  49  63
ATOM     63  C   UNL A   1      40.496  27.619  28.530  1.00  0.00     0.057 A 
ATOM     64  C   UNL A   1      39.678  26.488  28.657  1.00  0.00     0.134 A 
ATOM     65  C   UNL A   1      41.175  27.789  27.316  1.00  0.00     0.134 A 
ATOM     66  F   UNL A   1      39.016  26.253  29.800  1.00  0.00    -0.206 F 
ATOM     67  C   UNL A   1      39.568  25.546  27.633  1.00  0.00     0.040 A 
ATOM     68  C   UNL A   1      41.046  26.871  26.273  1.00  0.00     0.040 A 
ATOM     69  F   UNL A   1      41.975  28.848  27.125  1.00  0.00    -0.206 F 
ATOM     70  C   UNL A   1      40.249  25.741  26.433  1.00  0.00     0.006 A 
ENDBRANCH  49  63
BRANCH  50  71
ATOM     71  C   UNL A   1      40.944  34.420  35.886  1.00  0.00     0.057 A 
ATOM     72  C   UNL A   1      40.141  34.249  37.019  1.00  0.00     0.134 A 
ATOM     73  C   UNL A   1      41.791  35.536  35.857  1.00  0.00     0.134 A 
ATOM     74  F   UNL A   1      39.297  33.209  37.097  1.00  0.00    -0.206 F 
ATOM     75  C   UNL A   1      40.169  35.157  38.079  1.00  0.00     0.040 A 
ATOM     76  C   UNL A   1      41.847  36.437  36.921  1.00  0.00     0.040 A 
ATOM     77  F   UNL A   1      42.590  35.753  34.803  1.00  0.00    -0.206 F 
ATOM     78  C   UNL A   1      41.030  36.252  38.034  1.00  0.00     0.006 A 
ENDBRANCH  50  71
BRANCH  62  79
ATOM     79  C   UNL A   1      44.692  28.750  34.291  1.00  0.00     0.057 A 
ATOM     80  C   UNL A   1      45.997  29.141  33.973  1.00  0.00     0.134 A 
ATOM     81  C   UNL A   1      44.531  27.776  35.286  1.00  0.00     0.134 A 
ATOM     82  F   UNL A   1      46.219  30.061  33.022  1.00  0.00    -0.206 F 
ATOM     83  C   UNL A   1      47.102  28.571  34.608  1.00  0.00     0.040 A 
ATOM     84  C   UNL A   1      45.626  27.222  35.950  1.00  0.00     0.040 A 
ATOM     85  F   UNL A   1      43.305  27.365  35.647  1.00  0.00    -0.206 F 
ATOM     86  C   UNL A   1      46.917  27.616  35.606  1.00  0.00     0.006 A 
ENDBRANCH  62  79
ENDBRANCH  36  37
ENDBRANCH  29  31
ENDBRANCH  28  29
ENDBRANCH  27  28
ENDBRANCH  26  27
ENDBRANCH  25  26
ENDBRANCH   1  25
TORSDOF 20
ENDMDL
MODEL 3
REMARK VINA RESULT:     -10.4      4.144      9.445
REMARK SMILES O=C(C[N@@H+](Cc1nc(-c2ccco2)no1)CC(F)(F)F)OCCOCCOC(=O)c1ccc(-c2c3nc(c(-c4c(F)cccc4F)c4ccc([nH]4)c(-c4c(F)cccc4F)c4nc(c(-c5c(F)cccc5F)c5ccc2[nH]5)C=C4)C=C3)cc1
REMARK SMILES IDX 23 1 22 2 21 3 2 4 1 5 3 6 4 7 5 9 6 10 7 11 15 12 8 13
REMARK SMILES IDX 14 14 9 15 10 16 13 17 11 18 12 19 16 20 17 21 18 22 19 23
REMARK SMILES IDX 20 24 24 25 25 26 26 27 27 28 28 29 29 30 30 31 31 32 83 33
REMARK SMILES IDX 32 34 82 35 33 36 34 37 35 38 76 39 36 40 81 41 75 42 77 43
REMARK SMILES IDX 37 44 80 45 74 46 73 47 38 49 64 50 47 51 63 52 48 53 51 54
REMARK SMILES IDX 62 55 78 56 49 57 50 58 61 60 79 61 52 62 39 63 40 64 45 65
REMARK SMILES IDX 41 66 42 67 44 68 46 69 43 70 65 71 66 72 71 73 67 74 68 75
REMARK SMILES IDX 70 76 72 77 69 78 53 79 54 80 59 81 55 82 56 83 58 84 60 85
REMARK SMILES IDX 57 86
REMARK H PARENT 4 8 77 48 51 59
REMARK Flexibility Score: inf
ROOT
ATOM      1  C   UNL A   1      34.439  22.730  23.933  1.00  0.00     0.202 C 
ENDROOT
BRANCH   1   2
ATOM      2  C   UNL A   1      33.287  22.198  24.778  1.00  0.00     0.261 C 
BRANCH   2   3
ATOM      3  O   UNL A   1      33.076  23.010  25.947  1.00  0.00    -0.459 OA
BRANCH   3   4
ATOM      4  C   UNL A   1      32.118  23.957  26.043  1.00  0.00     0.361 C 
ATOM      5  O   UNL A   1      30.939  23.627  26.177  1.00  0.00    -0.245 OA
BRANCH   4   6
ATOM      6  C   UNL A   1      32.516  25.420  25.955  1.00  0.00     0.387 C 
BRANCH   6   7
ATOM      7  N   UNL A   1      31.900  26.127  24.813  1.00  0.00    -0.310 N 
ATOM      8  H   UNL A   1      30.992  25.697  24.637  1.00  0.00     0.349 HD
BRANCH   7   9
ATOM      9  C   UNL A   1      31.586  27.547  25.137  1.00  0.00     0.364 C 
BRANCH   9  10
ATOM     10  C   UNL A   1      30.617  28.226  24.232  1.00  0.00     0.282 A 
ATOM     11  N   UNL A   1      30.503  29.508  24.004  1.00  0.00    -0.183 NA
ATOM     12  O   UNL A   1      29.686  27.479  23.573  1.00  0.00    -0.333 OA
ATOM     13  C   UNL A   1      29.437  29.579  23.156  1.00  0.00     0.238 A 
ATOM     14  N   UNL A   1      28.884  28.394  22.861  1.00  0.00    -0.053 NA
BRANCH  13  15
ATOM     15  C   UNL A   1      28.983  30.915  22.689  1.00  0.00     0.174 A 
ATOM     16  C   UNL A   1      29.099  32.066  23.452  1.00  0.00     0.054 A 
ATOM     17  O   UNL A   1      28.381  31.215  21.503  1.00  0.00    -0.461 OA
ATOM     18  C   UNL A   1      28.528  33.115  22.701  1.00  0.00     0.043 A 
ATOM     19  C   UNL A   1      28.092  32.543  21.530  1.00  0.00     0.196 A 
ENDBRANCH  13  15
ENDBRANCH   9  10
ENDBRANCH   7   9
BRANCH   7  20
ATOM     20  C   UNL A   1      32.653  25.927  23.550  1.00  0.00     0.380 C 
BRANCH  20  21
ATOM     21  C   UNL A   1      32.065  25.201  22.319  1.00  0.00     0.438 C 
ATOM     22  F   UNL A   1      32.983  24.474  21.652  1.00  0.00    -0.165 F 
ATOM     23  F   UNL A   1      31.092  24.346  22.716  1.00  0.00    -0.165 F 
ATOM     24  F   UNL A   1      31.495  26.075  21.461  1.00  0.00    -0.165 F 
ENDBRANCH  20  21
ENDBRANCH   7  20
ENDBRANCH   6   7
ENDBRANCH   4   6
ENDBRANCH   3   4
ENDBRANCH   2   3
ENDBRANCH   1   2
BRANCH   1  25
ATOM     25  O   UNL A   1      35.714  22.139  24.181  1.00  0.00    -0.374 OA
BRANCH  25  26
ATOM     26  C   UNL A   1      35.702  20.836  24.780  1.00  0.00     0.202 C 
BRANCH  26  27
ATOM     27  C   UNL A   1      37.071  20.250  25.130  1.00  0.00     0.261 C 
BRANCH  27  28
ATOM     28  O   UNL A   1      38.061  21.282  25.226  1.00  0.00    -0.460 OA
BRANCH  28  29
ATOM     29  C   UNL A   1      39.163  20.953  25.937  1.00  0.00     0.338 C 
ATOM     30  O   UNL A   1      39.785  19.903  25.905  1.00  0.00    -0.246 OA
BRANCH  29  31
ATOM     31  C   UNL A   1      39.661  22.169  26.606  1.00  0.00     0.060 A 
ATOM     32  C   UNL A   1      39.090  23.399  26.244  1.00  0.00     0.016 A 
ATOM     33  C   UNL A   1      40.659  22.102  27.578  1.00  0.00     0.016 A 
ATOM     34  C   UNL A   1      39.570  24.579  26.800  1.00  0.00     0.010 A 
ATOM     35  C   UNL A   1      41.149  23.282  28.126  1.00  0.00     0.010 A 
ATOM     36  C   UNL A   1      40.641  24.521  27.695  1.00  0.00    -0.014 A 
BRANCH  36  37
ATOM     37  C   UNL A   1      41.419  25.740  27.993  1.00  0.00     0.031 A 
ATOM     38  C   UNL A   1      40.721  26.838  28.744  1.00  0.00     0.074 A 
ATOM     39  C   UNL A   1      42.686  25.874  27.577  1.00  0.00     0.049 A 
ATOM     40  N   UNL A   1      41.111  28.061  28.982  1.00  0.00    -0.248 NA
ATOM     41  C   UNL A   1      39.386  26.512  29.276  1.00  0.00     0.031 C 
ATOM     42  C   UNL A   1      43.464  24.850  26.884  1.00  0.00     0.029 A 
ATOM     43  N   UNL A   1      43.529  26.951  27.655  1.00  0.00    -0.354 N 
ATOM     44  C   UNL A   1      40.060  28.658  29.666  1.00  0.00     0.074 A 
ATOM     45  C   UNL A   1      39.006  27.676  29.779  1.00  0.00     0.031 C 
ATOM     46  C   UNL A   1      44.668  25.360  26.572  1.00  0.00     0.029 A 
ATOM     47  C   UNL A   1      44.720  26.756  27.005  1.00  0.00     0.049 A 
ATOM     48  H   UNL A   1      43.302  27.782  28.132  1.00  0.00     0.167 HD
ATOM     49  C   UNL A   1      39.987  29.916  30.158  1.00  0.00     0.037 A 
ATOM     50  C   UNL A   1      45.718  27.624  26.758  1.00  0.00     0.037 A 
ATOM     51  C   UNL A   1      41.047  30.878  30.031  1.00  0.00     0.049 A 
ATOM     52  C   UNL A   1      45.592  29.040  27.256  1.00  0.00     0.074 A 
ATOM     53  C   UNL A   1      41.097  32.176  30.504  1.00  0.00     0.029 A 
ATOM     54  N   UNL A   1      42.244  30.644  29.368  1.00  0.00    -0.354 N 
ATOM     55  N   UNL A   1      44.606  29.601  27.916  1.00  0.00    -0.248 NA
ATOM     56  C   UNL A   1      46.716  29.943  26.976  1.00  0.00     0.031 C 
ATOM     57  C   UNL A   1      42.300  32.745  30.077  1.00  0.00     0.029 A 
ATOM     58  C   UNL A   1      43.031  31.781  29.398  1.00  0.00     0.049 A 
ATOM     59  H   UNL A   1      42.496  29.794  28.939  1.00  0.00     0.167 HD
ATOM     60  C   UNL A   1      45.006  30.908  28.167  1.00  0.00     0.074 A 
ATOM     61  C   UNL A   1      46.326  31.055  27.584  1.00  0.00     0.031 C 
ATOM     62  C   UNL A   1      44.348  31.895  28.824  1.00  0.00     0.037 A 
BRANCH  49  63
ATOM     63  C   UNL A   1      38.707  30.321  30.831  1.00  0.00     0.057 A 
ATOM     64  C   UNL A   1      38.500  30.153  32.207  1.00  0.00     0.134 A 
ATOM     65  C   UNL A   1      37.661  30.885  30.088  1.00  0.00     0.134 A 
ATOM     66  F   UNL A   1      39.451  29.600  32.975  1.00  0.00    -0.206 F 
ATOM     67  C   UNL A   1      37.290  30.497  32.812  1.00  0.00     0.040 A 
ATOM     68  C   UNL A   1      36.460  31.265  30.688  1.00  0.00     0.040 A 
ATOM     69  F   UNL A   1      37.790  31.075  28.767  1.00  0.00    -0.206 F 
ATOM     70  C   UNL A   1      36.268  31.061  32.052  1.00  0.00     0.006 A 
ENDBRANCH  49  63
BRANCH  50  71
ATOM     71  C   UNL A   1      46.912  27.179  25.997  1.00  0.00     0.057 A 
ATOM     72  C   UNL A   1      46.991  27.352  24.611  1.00  0.00     0.134 A 
ATOM     73  C   UNL A   1      48.007  26.584  26.637  1.00  0.00     0.134 A 
ATOM     74  F   UNL A   1      45.967  27.899  23.940  1.00  0.00    -0.206 F 
ATOM     75  C   UNL A   1      48.110  26.940  23.885  1.00  0.00     0.040 A 
ATOM     76  C   UNL A   1      49.143  26.192  25.928  1.00  0.00     0.040 A 
ATOM     77  F   UNL A   1      47.996  26.396  27.965  1.00  0.00    -0.206 F 
ATOM     78  C   UNL A   1      49.194  26.364  24.546  1.00  0.00     0.006 A 
ENDBRANCH  50  71
BRANCH  62  79
ATOM     79  C   UNL A   1      45.066  33.202  29.007  1.00  0.00     0.057 A 
ATOM     80  C   UNL A   1      44.906  34.273  28.119  1.00  0.00     0.134 A 
ATOM     81  C   UNL A   1      45.879  33.406  30.130  1.00  0.00     0.134 A 
ATOM     82  F   UNL A   1      44.149  34.139  27.020  1.00  0.00    -0.206 F 
ATOM     83  C   UNL A   1      45.547  35.495  28.332  1.00  0.00     0.040 A 
ATOM     84  C   UNL A   1      46.499  34.633  30.370  1.00  0.00     0.040 A 
ATOM     85  F   UNL A   1      46.064  32.424  31.025  1.00  0.00    -0.206 F 
ATOM     86  C   UNL A   1      46.338  35.680  29.465  1.00  0.00     0.006 A 
ENDBRANCH  62  79
ENDBRANCH  36  37
ENDBRANCH  29  31
ENDBRANCH  28  29
ENDBRANCH  27  28
ENDBRANCH  26  27
ENDBRANCH  25  26
ENDBRANCH   1  25
TORSDOF 20
ENDMDL
