MODEL 1
REMARK VINA RESULT:     -10.8      0.000      0.000
REMARK SMILES COc1ccc([C@@H](CC(=O)OCCOCCOC(=O)c2ccc(-c3c4nc(c(-c5c(F)cccc5F)c5ccc([nH]5)c(-c5c(F)cccc5F)c5nc(c(-c6c(F)cccc6F)c6ccc3[nH]6)C=C5)C=C4)cc2)NC(=O)c2ccc(Cl)c([N+](=O)[O-])c2)cc1
REMARK SMILES IDX 13 1 12 2 11 3 9 4 10 5 8 6 7 7 6 8 3 9 4 10 88 11 5 12
REMARK SMILES IDX 87 13 2 14 1 15 74 16 75 17 76 19 77 20 78 21 86 22 79 23
REMARK SMILES IDX 82 24 80 25 81 26 83 27 84 28 85 29 14 30 15 31 16 32 17 33
REMARK SMILES IDX 18 34 19 35 20 36 21 37 73 38 22 39 72 40 23 41 24 42 25 43
REMARK SMILES IDX 66 44 26 45 71 46 65 47 67 48 27 49 70 50 64 51 63 52 28 54
REMARK SMILES IDX 54 55 37 56 53 57 38 58 41 59 52 60 68 61 39 62 40 63 51 65
REMARK SMILES IDX 69 66 42 67 29 68 30 69 35 70 31 71 32 72 34 73 36 74 33 75
REMARK SMILES IDX 55 76 56 77 61 78 57 79 58 80 60 81 62 82 59 83 43 84 44 85
REMARK SMILES IDX 49 86 45 87 46 88 48 89 50 90 47 91
REMARK H PARENT 74 18 67 53 41 64
REMARK Flexibility Score: inf
ROOT
ATOM      1  C   UNL A   1      37.328  21.589  24.737  1.00  0.00     0.202 C 
ENDROOT
BRANCH   1   2
ATOM      2  C   UNL A   1      35.953  21.556  25.416  1.00  0.00     0.261 C 
BRANCH   2   3
ATOM      3  O   UNL A   1      35.471  22.891  25.684  1.00  0.00    -0.463 OA
BRANCH   3   4
ATOM      4  C   UNL A   1      34.405  23.023  26.499  1.00  0.00     0.308 C 
ATOM      5  O   UNL A   1      34.077  22.196  27.342  1.00  0.00    -0.252 OA
BRANCH   4   6
ATOM      6  C   UNL A   1      33.589  24.269  26.234  1.00  0.00     0.152 C 
BRANCH   6   7
ATOM      7  C   UNL A   1      34.149  25.495  25.474  1.00  0.00     0.123 C 
BRANCH   7   8
ATOM      8  C   UNL A   1      33.474  26.835  25.718  1.00  0.00    -0.025 A 
ATOM      9  C   UNL A   1      32.180  29.290  26.209  1.00  0.00     0.118 A 
ATOM     10  C   UNL A   1      33.313  29.245  25.413  1.00  0.00     0.047 A 
ATOM     11  C   UNL A   1      31.668  28.117  26.753  1.00  0.00     0.047 A 
ATOM     12  C   UNL A   1      33.988  28.039  25.227  1.00  0.00     0.010 A 
ATOM     13  C   UNL A   1      32.305  26.897  26.499  1.00  0.00     0.010 A 
BRANCH   9  14
ATOM     14  O   UNL A   1      31.588  30.509  26.374  1.00  0.00    -0.497 OA
ATOM     15  C   UNL A   1      32.367  31.378  27.193  1.00  0.00     0.278 C 
ENDBRANCH   9  14
ENDBRANCH   7   8
BRANCH   7  16
ATOM     16  N   UNL A   1      34.374  25.294  24.042  1.00  0.00    -0.345 N 
ATOM     17  C   UNL A   1      33.502  25.300  22.979  1.00  0.00     0.252 C 
ATOM     18  H   UNL A   1      35.312  25.124  23.796  1.00  0.00     0.164 HD
ATOM     19  O   UNL A   1      33.882  24.897  21.883  1.00  0.00    -0.269 OA
BRANCH  17  20
ATOM     20  C   UNL A   1      32.090  25.721  23.130  1.00  0.00     0.046 A 
ATOM     21  C   UNL A   1      31.167  24.797  23.632  1.00  0.00     0.016 A 
ATOM     22  C   UNL A   1      31.653  26.994  22.767  1.00  0.00     0.101 A 
ATOM     23  C   UNL A   1      29.839  25.179  23.854  1.00  0.00     0.028 A 
ATOM     24  C   UNL A   1      30.327  27.391  23.033  1.00  0.00     0.288 A 
ATOM     25  C   UNL A   1      29.414  26.488  23.589  1.00  0.00     0.118 A 
ATOM     26  Cl  UNL A   1      27.790  26.863  24.036  1.00  0.00    -0.077 Cl
BRANCH  24  27
ATOM     27  N   UNL A   1      29.994  28.790  22.761  1.00  0.00     0.064 N 
ATOM     28  O   UNL A   1      29.892  29.578  23.707  1.00  0.00    -0.258 OA
ATOM     29  O   UNL A   1      29.804  29.092  21.573  1.00  0.00    -0.258 OA
ENDBRANCH  24  27
ENDBRANCH  17  20
ENDBRANCH   7  16
ENDBRANCH   6   7
ENDBRANCH   4   6
ENDBRANCH   3   4
ENDBRANCH   2   3
ENDBRANCH   1   2
BRANCH   1  30
ATOM     30  O   UNL A   1      38.292  20.674  25.259  1.00  0.00    -0.374 OA
BRANCH  30  31
ATOM     31  C   UNL A   1      39.305  21.210  26.107  1.00  0.00     0.202 C 
BRANCH  31  32
ATOM     32  C   UNL A   1      39.296  22.736  26.252  1.00  0.00     0.261 C 
BRANCH  32  33
ATOM     33  O   UNL A   1      40.199  23.161  27.295  1.00  0.00    -0.460 OA
BRANCH  33  34
ATOM     34  C   UNL A   1      40.979  24.213  26.953  1.00  0.00     0.338 C 
ATOM     35  O   UNL A   1      41.820  24.248  26.063  1.00  0.00    -0.246 OA
BRANCH  34  36
ATOM     36  C   UNL A   1      40.579  25.435  27.675  1.00  0.00     0.060 A 
ATOM     37  C   UNL A   1      41.390  26.562  27.497  1.00  0.00     0.016 A 
ATOM     38  C   UNL A   1      39.518  25.468  28.581  1.00  0.00     0.016 A 
ATOM     39  C   UNL A   1      41.207  27.691  28.293  1.00  0.00     0.010 A 
ATOM     40  C   UNL A   1      39.321  26.616  29.365  1.00  0.00     0.010 A 
ATOM     41  C   UNL A   1      40.207  27.708  29.274  1.00  0.00    -0.014 A 
BRANCH  41  42
ATOM     42  C   UNL A   1      40.262  28.760  30.329  1.00  0.00     0.031 A 
ATOM     43  C   UNL A   1      39.244  29.873  30.296  1.00  0.00     0.074 A 
ATOM     44  C   UNL A   1      41.114  28.679  31.368  1.00  0.00     0.049 A 
ATOM     45  N   UNL A   1      39.035  30.841  31.154  1.00  0.00    -0.248 NA
ATOM     46  C   UNL A   1      38.343  29.901  29.135  1.00  0.00     0.031 C 
ATOM     47  C   UNL A   1      42.124  27.640  31.558  1.00  0.00     0.029 A 
ATOM     48  N   UNL A   1      41.243  29.480  32.478  1.00  0.00    -0.354 N 
ATOM     49  C   UNL A   1      37.988  31.591  30.630  1.00  0.00     0.074 A 
ATOM     50  C   UNL A   1      37.651  31.007  29.352  1.00  0.00     0.031 C 
ATOM     51  C   UNL A   1      42.747  27.848  32.732  1.00  0.00     0.029 A 
ATOM     52  C   UNL A   1      42.201  29.049  33.363  1.00  0.00     0.049 A 
ATOM     53  H   UNL A   1      40.700  30.289  32.623  1.00  0.00     0.167 HD
ATOM     54  C   UNL A   1      37.342  32.655  31.166  1.00  0.00     0.037 A 
ATOM     55  C   UNL A   1      42.588  29.558  34.549  1.00  0.00     0.037 A 
ATOM     56  C   UNL A   1      37.662  33.242  32.440  1.00  0.00     0.049 A 
ATOM     57  C   UNL A   1      41.909  30.789  35.095  1.00  0.00     0.074 A 
ATOM     58  C   UNL A   1      37.055  34.312  33.074  1.00  0.00     0.029 A 
ATOM     59  N   UNL A   1      38.684  32.811  33.274  1.00  0.00    -0.354 N 
ATOM     60  N   UNL A   1      40.905  31.473  34.602  1.00  0.00    -0.248 NA
ATOM     61  C   UNL A   1      42.418  31.312  36.373  1.00  0.00     0.031 C 
ATOM     62  C   UNL A   1      37.749  34.567  34.262  1.00  0.00     0.029 A 
ATOM     63  C   UNL A   1      38.742  33.612  34.403  1.00  0.00     0.049 A 
ATOM     64  H   UNL A   1      39.279  32.048  33.090  1.00  0.00     0.167 HD
ATOM     65  C   UNL A   1      40.632  32.474  35.528  1.00  0.00     0.074 A 
ATOM     66  C   UNL A   1      41.577  32.307  36.613  1.00  0.00     0.031 C 
ATOM     67  C   UNL A   1      39.677  33.437  35.487  1.00  0.00     0.037 A 
BRANCH  54  68
ATOM     68  C   UNL A   1      36.244  33.266  30.341  1.00  0.00     0.057 A 
ATOM     69  C   UNL A   1      34.888  33.038  30.615  1.00  0.00     0.134 A 
ATOM     70  C   UNL A   1      36.549  34.069  29.235  1.00  0.00     0.134 A 
ATOM     71  F   UNL A   1      34.524  32.265  31.650  1.00  0.00    -0.206 F 
ATOM     72  C   UNL A   1      33.880  33.538  29.787  1.00  0.00     0.040 A 
ATOM     73  C   UNL A   1      35.549  34.606  28.422  1.00  0.00     0.040 A 
ATOM     74  F   UNL A   1      37.826  34.337  28.918  1.00  0.00    -0.206 F 
ATOM     75  C   UNL A   1      34.211  34.327  28.688  1.00  0.00     0.006 A 
ENDBRANCH  54  68
BRANCH  55  76
ATOM     76  C   UNL A   1      43.658  28.887  35.332  1.00  0.00     0.057 A 
ATOM     77  C   UNL A   1      45.009  29.174  35.101  1.00  0.00     0.134 A 
ATOM     78  C   UNL A   1      43.361  27.933  36.312  1.00  0.00     0.134 A 
ATOM     79  F   UNL A   1      45.359  30.059  34.156  1.00  0.00    -0.206 F 
ATOM     80  C   UNL A   1      46.026  28.528  35.808  1.00  0.00     0.040 A 
ATOM     81  C   UNL A   1      44.366  27.297  37.043  1.00  0.00     0.040 A 
ATOM     82  F   UNL A   1      42.087  27.610  36.577  1.00  0.00    -0.206 F 
ATOM     83  C   UNL A   1      45.704  27.591  36.786  1.00  0.00     0.006 A 
ENDBRANCH  55  76
BRANCH  67  84
ATOM     84  C   UNL A   1      39.557  34.350  36.676  1.00  0.00     0.057 A 
ATOM     85  C   UNL A   1      38.906  33.968  37.856  1.00  0.00     0.134 A 
ATOM     86  C   UNL A   1      40.135  35.628  36.647  1.00  0.00     0.134 A 
ATOM     87  F   UNL A   1      38.324  32.763  37.952  1.00  0.00    -0.206 F 
ATOM     88  C   UNL A   1      38.804  34.833  38.948  1.00  0.00     0.040 A 
ATOM     89  C   UNL A   1      40.067  36.489  37.743  1.00  0.00     0.040 A 
ATOM     90  F   UNL A   1      40.785  36.057  35.556  1.00  0.00    -0.206 F 
ATOM     91  C   UNL A   1      39.392  36.096  38.896  1.00  0.00     0.006 A 
ENDBRANCH  67  84
ENDBRANCH  41  42
ENDBRANCH  34  36
ENDBRANCH  33  34
ENDBRANCH  32  33
ENDBRANCH  31  32
ENDBRANCH  30  31
ENDBRANCH   1  30
TORSDOF 20
ENDMDL
MODEL 2
REMARK VINA RESULT:     -10.6      2.028      6.699
REMARK SMILES COc1ccc([C@@H](CC(=O)OCCOCCOC(=O)c2ccc(-c3c4nc(c(-c5c(F)cccc5F)c5ccc([nH]5)c(-c5c(F)cccc5F)c5nc(c(-c6c(F)cccc6F)c6ccc3[nH]6)C=C5)C=C4)cc2)NC(=O)c2ccc(Cl)c([N+](=O)[O-])c2)cc1
REMARK SMILES IDX 13 1 12 2 11 3 9 4 10 5 8 6 7 7 6 8 3 9 4 10 88 11 5 12
REMARK SMILES IDX 87 13 2 14 1 15 74 16 75 17 76 19 77 20 78 21 86 22 79 23
REMARK SMILES IDX 82 24 80 25 81 26 83 27 84 28 85 29 14 30 15 31 16 32 17 33
REMARK SMILES IDX 18 34 19 35 20 36 21 37 73 38 22 39 72 40 23 41 24 42 25 43
REMARK SMILES IDX 66 44 26 45 71 46 65 47 67 48 27 49 70 50 64 51 63 52 28 54
REMARK SMILES IDX 54 55 37 56 53 57 38 58 41 59 52 60 68 61 39 62 40 63 51 65
REMARK SMILES IDX 69 66 42 67 29 68 30 69 35 70 31 71 32 72 34 73 36 74 33 75
REMARK SMILES IDX 55 76 56 77 61 78 57 79 58 80 60 81 62 82 59 83 43 84 44 85
REMARK SMILES IDX 49 86 45 87 46 88 48 89 50 90 47 91
REMARK H PARENT 74 18 67 53 41 64
REMARK Flexibility Score: inf
ROOT
ATOM      1  C   UNL A   1      40.370  20.390  26.102  1.00  0.00     0.202 C 
ENDROOT
BRANCH   1   2
ATOM      2  C   UNL A   1      39.605  21.719  26.098  1.00  0.00     0.261 C 
BRANCH   2   3
ATOM      3  O   UNL A   1      38.298  21.568  25.499  1.00  0.00    -0.463 OA
BRANCH   3   4
ATOM      4  C   UNL A   1      37.416  22.576  25.652  1.00  0.00     0.308 C 
ATOM      5  O   UNL A   1      37.729  23.759  25.721  1.00  0.00    -0.252 OA
BRANCH   4   6
ATOM      6  C   UNL A   1      35.985  22.111  25.802  1.00  0.00     0.152 C 
BRANCH   6   7
ATOM      7  C   UNL A   1      34.831  22.643  24.920  1.00  0.00     0.123 C 
BRANCH   7   8
ATOM      8  C   UNL A   1      33.949  23.734  25.507  1.00  0.00    -0.025 A 
ATOM      9  C   UNL A   1      32.344  25.799  26.555  1.00  0.00     0.118 A 
ATOM     10  C   UNL A   1      32.170  24.493  26.985  1.00  0.00     0.047 A 
ATOM     11  C   UNL A   1      33.326  26.095  25.617  1.00  0.00     0.047 A 
ATOM     12  C   UNL A   1      32.921  23.465  26.415  1.00  0.00     0.010 A 
ATOM     13  C   UNL A   1      34.131  25.070  25.106  1.00  0.00     0.010 A 
BRANCH   9  14
ATOM     14  O   UNL A   1      31.554  26.751  27.134  1.00  0.00    -0.497 OA
ATOM     15  C   UNL A   1      32.235  27.994  27.287  1.00  0.00     0.278 C 
ENDBRANCH   9  14
ENDBRANCH   7   8
BRANCH   7  16
ATOM     16  N   UNL A   1      34.007  21.616  24.280  1.00  0.00    -0.345 N 
ATOM     17  C   UNL A   1      32.833  21.708  23.572  1.00  0.00     0.252 C 
ATOM     18  H   UNL A   1      34.354  20.699  24.374  1.00  0.00     0.164 HD
ATOM     19  O   UNL A   1      32.206  20.686  23.306  1.00  0.00    -0.269 OA
BRANCH  17  20
ATOM     20  C   UNL A   1      32.264  23.016  23.171  1.00  0.00     0.046 A 
ATOM     21  C   UNL A   1      31.083  23.447  23.783  1.00  0.00     0.016 A 
ATOM     22  C   UNL A   1      32.855  23.812  22.191  1.00  0.00     0.101 A 
ATOM     23  C   UNL A   1      30.552  24.707  23.482  1.00  0.00     0.028 A 
ATOM     24  C   UNL A   1      32.346  25.099  21.922  1.00  0.00     0.288 A 
ATOM     25  C   UNL A   1      31.197  25.558  22.574  1.00  0.00     0.118 A 
ATOM     26  Cl  UNL A   1      30.515  27.134  22.396  1.00  0.00    -0.077 Cl
BRANCH  24  27
ATOM     27  N   UNL A   1      33.115  25.926  20.991  1.00  0.00     0.064 N 
ATOM     28  O   UNL A   1      33.209  25.576  19.811  1.00  0.00    -0.258 OA
ATOM     29  O   UNL A   1      33.659  26.935  21.468  1.00  0.00    -0.258 OA
ENDBRANCH  24  27
ENDBRANCH  17  20
ENDBRANCH   7  16
ENDBRANCH   6   7
ENDBRANCH   4   6
ENDBRANCH   3   4
ENDBRANCH   2   3
ENDBRANCH   1   2
BRANCH   1  30
ATOM     30  O   UNL A   1      41.754  20.478  25.763  1.00  0.00    -0.374 OA
BRANCH  30  31
ATOM     31  C   UNL A   1      42.519  21.490  26.413  1.00  0.00     0.202 C 
BRANCH  31  32
ATOM     32  C   UNL A   1      43.691  22.048  25.597  1.00  0.00     0.261 C 
BRANCH  32  33
ATOM     33  O   UNL A   1      43.258  23.130  24.745  1.00  0.00    -0.460 OA
BRANCH  33  34
ATOM     34  C   UNL A   1      43.938  24.285  24.934  1.00  0.00     0.338 C 
ATOM     35  O   UNL A   1      45.008  24.603  24.428  1.00  0.00    -0.246 OA
BRANCH  34  36
ATOM     36  C   UNL A   1      43.142  25.254  25.712  1.00  0.00     0.060 A 
ATOM     37  C   UNL A   1      43.835  26.345  26.250  1.00  0.00     0.016 A 
ATOM     38  C   UNL A   1      41.792  25.064  26.007  1.00  0.00     0.016 A 
ATOM     39  C   UNL A   1      43.210  27.194  27.160  1.00  0.00     0.010 A 
ATOM     40  C   UNL A   1      41.158  25.934  26.908  1.00  0.00     0.010 A 
ATOM     41  C   UNL A   1      41.882  26.963  27.542  1.00  0.00    -0.014 A 
BRANCH  41  42
ATOM     42  C   UNL A   1      41.361  27.650  28.759  1.00  0.00     0.031 A 
ATOM     43  C   UNL A   1      42.144  27.537  30.045  1.00  0.00     0.074 A 
ATOM     44  C   UNL A   1      40.285  28.457  28.713  1.00  0.00     0.049 A 
ATOM     45  N   UNL A   1      41.942  28.120  31.201  1.00  0.00    -0.248 NA
ATOM     46  C   UNL A   1      43.310  26.641  30.025  1.00  0.00     0.031 C 
ATOM     47  C   UNL A   1      39.455  28.697  27.535  1.00  0.00     0.029 A 
ATOM     48  N   UNL A   1      39.722  29.246  29.688  1.00  0.00    -0.354 N 
ATOM     49  C   UNL A   1      42.947  27.654  32.040  1.00  0.00     0.074 A 
ATOM     50  C   UNL A   1      43.715  26.693  31.282  1.00  0.00     0.031 C 
ATOM     51  C   UNL A   1      38.509  29.601  27.846  1.00  0.00     0.029 A 
ATOM     52  C   UNL A   1      38.648  29.982  29.251  1.00  0.00     0.049 A 
ATOM     53  H   UNL A   1      40.058  29.280  30.613  1.00  0.00     0.167 HD
ATOM     54  C   UNL A   1      43.231  28.006  33.318  1.00  0.00     0.037 A 
ATOM     55  C   UNL A   1      37.870  30.867  29.906  1.00  0.00     0.037 A 
ATOM     56  C   UNL A   1      42.478  28.967  34.081  1.00  0.00     0.049 A 
ATOM     57  C   UNL A   1      38.153  31.189  31.351  1.00  0.00     0.074 A 
ATOM     58  C   UNL A   1      42.697  29.399  35.377  1.00  0.00     0.029 A 
ATOM     59  N   UNL A   1      41.358  29.640  33.619  1.00  0.00    -0.354 N 
ATOM     60  N   UNL A   1      39.121  30.762  32.125  1.00  0.00    -0.248 NA
ATOM     61  C   UNL A   1      37.233  32.129  32.010  1.00  0.00     0.031 C 
ATOM     62  C   UNL A   1      41.672  30.289  35.720  1.00  0.00     0.029 A 
ATOM     63  C   UNL A   1      40.856  30.463  34.614  1.00  0.00     0.049 A 
ATOM     64  H   UNL A   1      40.975  29.547  32.716  1.00  0.00     0.167 HD
ATOM     65  C   UNL A   1      38.955  31.413  33.342  1.00  0.00     0.074 A 
ATOM     66  C   UNL A   1      37.792  32.266  33.203  1.00  0.00     0.031 C 
ATOM     67  C   UNL A   1      39.705  31.321  34.469  1.00  0.00     0.037 A 
BRANCH  54  68
ATOM     68  C   UNL A   1      44.390  27.308  33.971  1.00  0.00     0.057 A 
ATOM     69  C   UNL A   1      45.693  27.825  33.930  1.00  0.00     0.134 A 
ATOM     70  C   UNL A   1      44.206  26.082  34.622  1.00  0.00     0.134 A 
ATOM     71  F   UNL A   1      45.944  28.988  33.309  1.00  0.00    -0.206 F 
ATOM     72  C   UNL A   1      46.776  27.123  34.463  1.00  0.00     0.040 A 
ATOM     73  C   UNL A   1      45.276  25.388  35.191  1.00  0.00     0.040 A 
ATOM     74  F   UNL A   1      42.985  25.531  34.707  1.00  0.00    -0.206 F 
ATOM     75  C   UNL A   1      46.567  25.901  35.098  1.00  0.00     0.006 A 
ENDBRANCH  54  68
BRANCH  55  76
ATOM     76  C   UNL A   1      36.758  31.549  29.193  1.00  0.00     0.057 A 
ATOM     77  C   UNL A   1      35.568  30.872  28.899  1.00  0.00     0.134 A 
ATOM     78  C   UNL A   1      36.864  32.879  28.773  1.00  0.00     0.134 A 
ATOM     79  F   UNL A   1      35.417  29.587  29.251  1.00  0.00    -0.206 F 
ATOM     80  C   UNL A   1      34.528  31.491  28.203  1.00  0.00     0.040 A 
ATOM     81  C   UNL A   1      35.822  33.518  28.097  1.00  0.00     0.040 A 
ATOM     82  F   UNL A   1      37.979  33.580  29.019  1.00  0.00    -0.206 F 
ATOM     83  C   UNL A   1      34.652  32.820  27.805  1.00  0.00     0.006 A 
ENDBRANCH  55  76
BRANCH  67  84
ATOM     84  C   UNL A   1      39.337  32.209  35.626  1.00  0.00     0.057 A 
ATOM     85  C   UNL A   1      39.814  33.520  35.749  1.00  0.00     0.134 A 
ATOM     86  C   UNL A   1      38.462  31.748  36.620  1.00  0.00     0.134 A 
ATOM     87  F   UNL A   1      40.661  34.024  34.839  1.00  0.00    -0.206 F 
ATOM     88  C   UNL A   1      39.462  34.327  36.834  1.00  0.00     0.040 A 
ATOM     89  C   UNL A   1      38.077  32.556  37.691  1.00  0.00     0.040 A 
ATOM     90  F   UNL A   1      37.956  30.507  36.561  1.00  0.00    -0.206 F 
ATOM     91  C   UNL A   1      38.585  33.848  37.805  1.00  0.00     0.006 A 
ENDBRANCH  67  84
ENDBRANCH  41  42
ENDBRANCH  34  36
ENDBRANCH  33  34
ENDBRANCH  32  33
ENDBRANCH  31  32
ENDBRANCH  30  31
ENDBRANCH   1  30
TORSDOF 20
ENDMDL
MODEL 3
REMARK VINA RESULT:     -10.3      3.940      8.729
REMARK SMILES COc1ccc([C@@H](CC(=O)OCCOCCOC(=O)c2ccc(-c3c4nc(c(-c5c(F)cccc5F)c5ccc([nH]5)c(-c5c(F)cccc5F)c5nc(c(-c6c(F)cccc6F)c6ccc3[nH]6)C=C5)C=C4)cc2)NC(=O)c2ccc(Cl)c([N+](=O)[O-])c2)cc1
REMARK SMILES IDX 13 1 12 2 11 3 9 4 10 5 8 6 7 7 6 8 3 9 4 10 88 11 5 12
REMARK SMILES IDX 87 13 2 14 1 15 74 16 75 17 76 19 77 20 78 21 86 22 79 23
REMARK SMILES IDX 82 24 80 25 81 26 83 27 84 28 85 29 14 30 15 31 16 32 17 33
REMARK SMILES IDX 18 34 19 35 20 36 21 37 73 38 22 39 72 40 23 41 24 42 25 43
REMARK SMILES IDX 66 44 26 45 71 46 65 47 67 48 27 49 70 50 64 51 63 52 28 54
REMARK SMILES IDX 54 55 37 56 53 57 38 58 41 59 52 60 68 61 39 62 40 63 51 65
REMARK SMILES IDX 69 66 42 67 29 68 30 69 35 70 31 71 32 72 34 73 36 74 33 75
REMARK SMILES IDX 55 76 56 77 61 78 57 79 58 80 60 81 62 82 59 83 43 84 44 85
REMARK SMILES IDX 49 86 45 87 46 88 48 89 50 90 47 91
REMARK H PARENT 74 18 67 53 41 64
REMARK Flexibility Score: inf
ROOT
ATOM      1  C   UNL A   1      32.256  28.538  26.044  1.00  0.00     0.202 C 
ENDROOT
BRANCH   1   2
ATOM      2  C   UNL A   1      31.515  27.351  26.670  1.00  0.00     0.261 C 
BRANCH   2   3
ATOM      3  O   UNL A   1      31.992  26.096  26.134  1.00  0.00    -0.463 OA
BRANCH   3   4
ATOM      4  C   UNL A   1      31.073  25.191  25.740  1.00  0.00     0.308 C 
ATOM      5  O   UNL A   1      30.468  24.447  26.504  1.00  0.00    -0.252 OA
BRANCH   4   6
ATOM      6  C   UNL A   1      30.897  25.121  24.239  1.00  0.00     0.152 C 
BRANCH   6   7
ATOM      7  C   UNL A   1      31.216  26.306  23.298  1.00  0.00     0.123 C 
BRANCH   7   8
ATOM      8  C   UNL A   1      30.154  27.384  23.149  1.00  0.00    -0.025 A 
ATOM      9  C   UNL A   1      28.229  29.420  22.844  1.00  0.00     0.118 A 
ATOM     10  C   UNL A   1      27.876  28.204  23.406  1.00  0.00     0.047 A 
ATOM     11  C   UNL A   1      29.542  29.644  22.445  1.00  0.00     0.047 A 
ATOM     12  C   UNL A   1      28.815  27.177  23.494  1.00  0.00     0.010 A 
ATOM     13  C   UNL A   1      30.499  28.636  22.608  1.00  0.00     0.010 A 
BRANCH   9  14
ATOM     14  O   UNL A   1      27.251  30.370  22.760  1.00  0.00    -0.497 OA
ATOM     15  C   UNL A   1      27.621  31.579  23.419  1.00  0.00     0.278 C 
ENDBRANCH   9  14
ENDBRANCH   7   8
BRANCH   7  16
ATOM     16  N   UNL A   1      31.751  25.938  21.987  1.00  0.00    -0.345 N 
ATOM     17  C   UNL A   1      32.689  25.001  21.623  1.00  0.00     0.252 C 
ATOM     18  H   UNL A   1      31.376  26.451  21.235  1.00  0.00     0.164 HD
ATOM     19  O   UNL A   1      33.140  25.010  20.481  1.00  0.00    -0.269 OA
BRANCH  17  20
ATOM     20  C   UNL A   1      33.223  24.014  22.590  1.00  0.00     0.046 A 
ATOM     21  C   UNL A   1      32.539  22.806  22.758  1.00  0.00     0.016 A 
ATOM     22  C   UNL A   1      34.365  24.263  23.348  1.00  0.00     0.101 A 
ATOM     23  C   UNL A   1      33.049  21.820  23.611  1.00  0.00     0.028 A 
ATOM     24  C   UNL A   1      34.904  23.254  24.172  1.00  0.00     0.288 A 
ATOM     25  C   UNL A   1      34.254  22.021  24.300  1.00  0.00     0.118 A 
ATOM     26  Cl  UNL A   1      34.841  20.676  25.208  1.00  0.00    -0.077 Cl
BRANCH  24  27
ATOM     27  N   UNL A   1      36.186  23.545  24.813  1.00  0.00     0.064 N 
ATOM     28  O   UNL A   1      37.214  23.031  24.362  1.00  0.00    -0.258 OA
ATOM     29  O   UNL A   1      36.151  24.284  25.810  1.00  0.00    -0.258 OA
ENDBRANCH  24  27
ENDBRANCH  17  20
ENDBRANCH   7  16
ENDBRANCH   6   7
ENDBRANCH   4   6
ENDBRANCH   3   4
ENDBRANCH   2   3
ENDBRANCH   1   2
BRANCH   1  30
ATOM     30  O   UNL A   1      31.575  29.791  26.113  1.00  0.00    -0.374 OA
BRANCH  30  31
ATOM     31  C   UNL A   1      32.235  30.853  26.800  1.00  0.00     0.202 C 
BRANCH  31  32
ATOM     32  C   UNL A   1      33.488  30.444  27.582  1.00  0.00     0.261 C 
BRANCH  32  33
ATOM     33  O   UNL A   1      34.360  31.576  27.790  1.00  0.00    -0.460 OA
BRANCH  33  34
ATOM     34  C   UNL A   1      35.073  31.519  28.938  1.00  0.00     0.338 C 
ATOM     35  O   UNL A   1      34.759  31.989  30.025  1.00  0.00    -0.246 OA
BRANCH  34  36
ATOM     36  C   UNL A   1      36.250  30.641  28.796  1.00  0.00     0.060 A 
ATOM     37  C   UNL A   1      36.738  30.052  29.969  1.00  0.00     0.016 A 
ATOM     38  C   UNL A   1      36.929  30.472  27.589  1.00  0.00     0.016 A 
ATOM     39  C   UNL A   1      37.956  29.377  29.960  1.00  0.00     0.010 A 
ATOM     40  C   UNL A   1      38.146  29.770  27.579  1.00  0.00     0.010 A 
ATOM     41  C   UNL A   1      38.700  29.278  28.778  1.00  0.00    -0.014 A 
BRANCH  41  42
ATOM     42  C   UNL A   1      40.133  28.876  28.868  1.00  0.00     0.031 A 
ATOM     43  C   UNL A   1      41.096  29.788  29.588  1.00  0.00     0.074 A 
ATOM     44  C   UNL A   1      40.563  27.677  28.433  1.00  0.00     0.049 A 
ATOM     45  N   UNL A   1      42.362  29.608  29.875  1.00  0.00    -0.248 NA
ATOM     46  C   UNL A   1      40.561  31.080  30.040  1.00  0.00     0.031 C 
ATOM     47  C   UNL A   1      39.741  26.675  27.758  1.00  0.00     0.029 A 
ATOM     48  N   UNL A   1      41.803  27.091  28.521  1.00  0.00    -0.354 N 
ATOM     49  C   UNL A   1      42.769  30.764  30.531  1.00  0.00     0.074 A 
ATOM     50  C   UNL A   1      41.637  31.663  30.539  1.00  0.00     0.031 C 
ATOM     51  C   UNL A   1      40.491  25.584  27.523  1.00  0.00     0.029 A 
ATOM     52  C   UNL A   1      41.852  25.819  28.004  1.00  0.00     0.049 A 
ATOM     53  H   UNL A   1      42.584  27.542  28.916  1.00  0.00     0.167 HD
ATOM     54  C   UNL A   1      43.964  31.053  31.100  1.00  0.00     0.037 A 
ATOM     55  C   UNL A   1      42.873  24.942  27.934  1.00  0.00     0.037 A 
ATOM     56  C   UNL A   1      45.096  30.164  31.106  1.00  0.00     0.049 A 
ATOM     57  C   UNL A   1      44.219  25.310  28.504  1.00  0.00     0.074 A 
ATOM     58  C   UNL A   1      46.345  30.362  31.669  1.00  0.00     0.029 A 
ATOM     59  N   UNL A   1      45.120  28.911  30.513  1.00  0.00    -0.354 N 
ATOM     60  N   UNL A   1      44.583  26.396  29.144  1.00  0.00    -0.248 NA
ATOM     61  C   UNL A   1      45.295  24.319  28.349  1.00  0.00     0.031 C 
ATOM     62  C   UNL A   1      47.143  29.254  31.364  1.00  0.00     0.029 A 
ATOM     63  C   UNL A   1      46.370  28.336  30.672  1.00  0.00     0.049 A 
ATOM     64  H   UNL A   1      44.359  28.492  30.048  1.00  0.00     0.167 HD
ATOM     65  C   UNL A   1      45.911  26.199  29.506  1.00  0.00     0.074 A 
ATOM     66  C   UNL A   1      46.288  24.890  29.015  1.00  0.00     0.031 C 
ATOM     67  C   UNL A   1      46.739  27.026  30.193  1.00  0.00     0.037 A 
BRANCH  54  68
ATOM     68  C   UNL A   1      44.104  32.410  31.732  1.00  0.00     0.057 A 
ATOM     69  C   UNL A   1      44.569  33.522  31.016  1.00  0.00     0.134 A 
ATOM     70  C   UNL A   1      43.800  32.599  33.085  1.00  0.00     0.134 A 
ATOM     71  F   UNL A   1      44.894  33.409  29.719  1.00  0.00    -0.206 F 
ATOM     72  C   UNL A   1      44.779  34.756  31.636  1.00  0.00     0.040 A 
ATOM     73  C   UNL A   1      43.971  33.837  33.708  1.00  0.00     0.040 A 
ATOM     74  F   UNL A   1      43.342  31.580  33.830  1.00  0.00    -0.206 F 
ATOM     75  C   UNL A   1      44.477  34.915  32.986  1.00  0.00     0.006 A 
ENDBRANCH  54  68
BRANCH  55  76
ATOM     76  C   UNL A   1      42.661  23.602  27.326  1.00  0.00     0.057 A 
ATOM     77  C   UNL A   1      42.283  22.505  28.109  1.00  0.00     0.134 A 
ATOM     78  C   UNL A   1      42.850  23.382  25.957  1.00  0.00     0.134 A 
ATOM     79  F   UNL A   1      42.113  22.647  29.433  1.00  0.00    -0.206 F 
ATOM     80  C   UNL A   1      42.111  21.235  27.556  1.00  0.00     0.040 A 
ATOM     81  C   UNL A   1      42.658  22.123  25.385  1.00  0.00     0.040 A 
ATOM     82  F   UNL A   1      43.218  24.390  25.153  1.00  0.00    -0.206 F 
ATOM     83  C   UNL A   1      42.293  21.043  26.188  1.00  0.00     0.006 A 
ENDBRANCH  55  76
BRANCH  67  84
ATOM     84  C   UNL A   1      48.118  26.520  30.516  1.00  0.00     0.057 A 
ATOM     85  C   UNL A   1      48.400  25.796  31.681  1.00  0.00     0.134 A 
ATOM     86  C   UNL A   1      49.178  26.737  29.623  1.00  0.00     0.134 A 
ATOM     87  F   UNL A   1      47.437  25.558  32.584  1.00  0.00    -0.206 F 
ATOM     88  C   UNL A   1      49.690  25.337  31.963  1.00  0.00     0.040 A 
ATOM     89  C   UNL A   1      50.463  26.256  29.878  1.00  0.00     0.040 A 
ATOM     90  F   UNL A   1      48.980  27.412  28.481  1.00  0.00    -0.206 F 
ATOM     91  C   UNL A   1      50.724  25.561  31.056  1.00  0.00     0.006 A 
ENDBRANCH  67  84
ENDBRANCH  41  42
ENDBRANCH  34  36
ENDBRANCH  33  34
ENDBRANCH  32  33
ENDBRANCH  31  32
ENDBRANCH  30  31
ENDBRANCH   1  30
TORSDOF 20
ENDMDL
