MODEL 1
REMARK VINA RESULT:     -10.9      0.000      0.000
REMARK SMILES C[NH+](C)[C@H]1CCN(C(=O)C(=O)c2ccccc2)C[C@H]1CCC(=O)OCCOCCOC(=O)c1ccc(-c2c3nc(c(-c4c(F)cccc4F)c4ccc([nH]4)c(-c4c(F)cccc4F)c4nc(c(-c5c(F)cccc5F)c5ccc2[nH]5)C=C4)C=C3)cc1
REMARK SMILES IDX 25 1 24 2 22 3 23 4 21 5 20 6 19 7 4 8 5 9 6 10 18 11 7 12
REMARK SMILES IDX 2 13 1 14 3 15 8 17 9 18 10 19 11 20 12 21 13 22 17 23 14 24
REMARK SMILES IDX 16 25 15 26 26 27 27 28 28 29 29 30 30 31 31 32 32 33 33 34
REMARK SMILES IDX 34 35 86 36 35 37 85 38 36 39 37 40 38 41 79 42 39 43 84 44
REMARK SMILES IDX 78 45 80 46 40 47 83 48 77 49 76 50 41 52 67 53 50 54 66 55
REMARK SMILES IDX 51 56 54 57 65 58 81 59 52 60 53 61 64 63 82 64 55 65 42 66
REMARK SMILES IDX 43 67 48 68 44 69 45 70 47 71 49 72 46 73 68 74 69 75 74 76
REMARK SMILES IDX 70 77 71 78 73 79 75 80 72 81 56 82 57 83 62 84 58 85 59 86
REMARK SMILES IDX 61 87 63 88 60 89
REMARK H PARENT 2 16 80 51 54 62
REMARK Flexibility Score: inf
ROOT
ATOM      1  C   UNL A   1      38.170  21.535  25.418  1.00  0.00     0.261 C 
ENDROOT
BRANCH   1   2
ATOM      2  O   UNL A   1      36.913  22.131  25.780  1.00  0.00    -0.463 OA
BRANCH   2   3
ATOM      3  C   UNL A   1      36.466  23.104  24.949  1.00  0.00     0.305 C 
ATOM      4  O   UNL A   1      36.924  23.328  23.833  1.00  0.00    -0.252 OA
BRANCH   3   5
ATOM      5  C   UNL A   1      35.248  23.829  25.484  1.00  0.00     0.123 C 
BRANCH   5   6
ATOM      6  C   UNL A   1      34.293  24.510  24.503  1.00  0.00     0.023 C 
BRANCH   6   7
ATOM      7  C   UNL A   1      33.544  23.662  23.437  1.00  0.00     0.067 C 
ATOM      8  C   UNL A   1      32.338  22.814  23.945  1.00  0.00     0.190 C 
ATOM      9  C   UNL A   1      31.212  23.766  24.399  1.00  0.00     0.087 C 
ATOM     10  C   UNL A   1      30.804  24.705  23.270  1.00  0.00     0.126 C 
ATOM     11  C   UNL A   1      33.078  24.620  22.313  1.00  0.00     0.129 C 
ATOM     12  N   UNL A   1      31.938  25.442  22.727  1.00  0.00    -0.335 N 
BRANCH   8  13
ATOM     13  N   UNL A   1      32.784  21.826  24.955  1.00  0.00    -0.337 N 
ATOM     14  C   UNL A   1      32.505  20.447  24.535  1.00  0.00     0.332 C 
ATOM     15  C   UNL A   1      32.263  22.027  26.306  1.00  0.00     0.332 C 
ATOM     16  H   UNL A   1      33.789  21.986  25.006  1.00  0.00     0.347 HD
ENDBRANCH   8  13
BRANCH  12  17
ATOM     17  C   UNL A   1      31.767  26.811  22.485  1.00  0.00     0.294 C 
ATOM     18  O   UNL A   1      30.859  27.248  21.780  1.00  0.00    -0.265 OA
BRANCH  17  19
ATOM     19  C   UNL A   1      32.755  27.834  23.068  1.00  0.00     0.250 C 
ATOM     20  O   UNL A   1      33.415  28.553  22.326  1.00  0.00    -0.283 OA
BRANCH  19  21
ATOM     21  C   UNL A   1      32.815  28.038  24.546  1.00  0.00     0.028 A 
ATOM     22  C   UNL A   1      31.632  27.869  25.282  1.00  0.00     0.012 A 
ATOM     23  C   UNL A   1      33.999  28.355  25.224  1.00  0.00     0.012 A 
ATOM     24  C   UNL A   1      31.641  27.975  26.675  1.00  0.00     0.001 A 
ATOM     25  C   UNL A   1      34.005  28.463  26.619  1.00  0.00     0.001 A 
ATOM     26  C   UNL A   1      32.830  28.265  27.343  1.00  0.00     0.000 A 
ENDBRANCH  19  21
ENDBRANCH  17  19
ENDBRANCH  12  17
ENDBRANCH   6   7
ENDBRANCH   5   6
ENDBRANCH   3   5
ENDBRANCH   2   3
ENDBRANCH   1   2
BRANCH   1  27
ATOM     27  C   UNL A   1      39.307  22.187  26.206  1.00  0.00     0.202 C 
BRANCH  27  28
ATOM     28  O   UNL A   1      40.241  21.287  26.805  1.00  0.00    -0.374 OA
BRANCH  28  29
ATOM     29  C   UNL A   1      41.361  20.878  26.021  1.00  0.00     0.202 C 
BRANCH  29  30
ATOM     30  C   UNL A   1      42.581  21.807  26.034  1.00  0.00     0.261 C 
BRANCH  30  31
ATOM     31  O   UNL A   1      42.600  22.751  24.945  1.00  0.00    -0.460 OA
BRANCH  31  32
ATOM     32  C   UNL A   1      43.410  23.817  25.141  1.00  0.00     0.338 C 
ATOM     33  O   UNL A   1      44.500  24.029  24.628  1.00  0.00    -0.246 OA
BRANCH  32  34
ATOM     34  C   UNL A   1      42.752  24.827  25.989  1.00  0.00     0.060 A 
ATOM     35  C   UNL A   1      43.355  26.088  26.087  1.00  0.00     0.016 A 
ATOM     36  C   UNL A   1      41.649  24.504  26.784  1.00  0.00     0.016 A 
ATOM     37  C   UNL A   1      42.886  27.017  27.015  1.00  0.00     0.010 A 
ATOM     38  C   UNL A   1      41.185  25.437  27.720  1.00  0.00     0.010 A 
ATOM     39  C   UNL A   1      41.823  26.683  27.864  1.00  0.00    -0.014 A 
BRANCH  39  40
ATOM     40  C   UNL A   1      41.469  27.584  28.989  1.00  0.00     0.031 A 
ATOM     41  C   UNL A   1      42.254  27.508  30.270  1.00  0.00     0.074 A 
ATOM     42  C   UNL A   1      40.474  28.480  28.866  1.00  0.00     0.049 A 
ATOM     43  N   UNL A   1      42.079  28.162  31.391  1.00  0.00    -0.248 NA
ATOM     44  C   UNL A   1      43.387  26.570  30.290  1.00  0.00     0.031 C 
ATOM     45  C   UNL A   1      39.670  28.690  27.664  1.00  0.00     0.029 A 
ATOM     46  N   UNL A   1      39.968  29.378  29.773  1.00  0.00    -0.354 N 
ATOM     47  C   UNL A   1      43.074  27.711  32.250  1.00  0.00     0.074 A 
ATOM     48  C   UNL A   1      43.834  26.713  31.530  1.00  0.00     0.031 C 
ATOM     49  C   UNL A   1      38.759  29.646  27.913  1.00  0.00     0.029 A 
ATOM     50  C   UNL A   1      38.896  30.092  29.298  1.00  0.00     0.049 A 
ATOM     51  H   UNL A   1      40.337  29.498  30.678  1.00  0.00     0.167 HD
ATOM     52  C   UNL A   1      43.334  28.098  33.522  1.00  0.00     0.037 A 
ATOM     53  C   UNL A   1      38.101  30.985  29.918  1.00  0.00     0.037 A 
ATOM     54  C   UNL A   1      42.584  29.093  34.241  1.00  0.00     0.049 A 
ATOM     55  C   UNL A   1      38.362  31.343  31.356  1.00  0.00     0.074 A 
ATOM     56  C   UNL A   1      42.785  29.564  35.527  1.00  0.00     0.029 A 
ATOM     57  N   UNL A   1      41.483  29.768  33.737  1.00  0.00    -0.354 N 
ATOM     58  N   UNL A   1      39.312  30.922  32.154  1.00  0.00    -0.248 NA
ATOM     59  C   UNL A   1      37.436  32.300  31.982  1.00  0.00     0.031 C 
ATOM     60  C   UNL A   1      41.780  30.494  35.816  1.00  0.00     0.029 A 
ATOM     61  C   UNL A   1      40.979  30.632  34.695  1.00  0.00     0.049 A 
ATOM     62  H   UNL A   1      41.113  29.649  32.832  1.00  0.00     0.167 HD
ATOM     63  C   UNL A   1      39.116  31.579  33.363  1.00  0.00     0.074 A 
ATOM     64  C   UNL A   1      37.961  32.434  33.192  1.00  0.00     0.031 C 
ATOM     65  C   UNL A   1      39.832  31.484  34.510  1.00  0.00     0.037 A 
BRANCH  52  66
ATOM     66  C   UNL A   1      44.470  27.422  34.231  1.00  0.00     0.057 A 
ATOM     67  C   UNL A   1      45.762  27.961  34.236  1.00  0.00     0.134 A 
ATOM     68  C   UNL A   1      44.259  26.238  34.947  1.00  0.00     0.134 A 
ATOM     69  F   UNL A   1      46.032  29.088  33.559  1.00  0.00    -0.206 F 
ATOM     70  C   UNL A   1      46.810  27.335  34.914  1.00  0.00     0.040 A 
ATOM     71  C   UNL A   1      45.293  25.614  35.647  1.00  0.00     0.040 A 
ATOM     72  F   UNL A   1      43.042  25.673  34.986  1.00  0.00    -0.206 F 
ATOM     73  C   UNL A   1      46.574  26.161  35.627  1.00  0.00     0.006 A 
ENDBRANCH  52  66
BRANCH  53  74
ATOM     74  C   UNL A   1      36.960  31.593  29.189  1.00  0.00     0.057 A 
ATOM     75  C   UNL A   1      37.042  32.888  28.665  1.00  0.00     0.134 A 
ATOM     76  C   UNL A   1      35.756  30.899  29.014  1.00  0.00     0.134 A 
ATOM     77  F   UNL A   1      38.160  33.610  28.822  1.00  0.00    -0.206 F 
ATOM     78  C   UNL A   1      35.962  33.478  28.005  1.00  0.00     0.040 A 
ATOM     79  C   UNL A   1      34.677  31.469  28.338  1.00  0.00     0.040 A 
ATOM     80  F   UNL A   1      35.617  29.655  29.493  1.00  0.00    -0.206 F 
ATOM     81  C   UNL A   1      34.776  32.765  27.837  1.00  0.00     0.006 A 
ENDBRANCH  53  74
BRANCH  65  82
ATOM     82  C   UNL A   1      39.409  32.347  35.661  1.00  0.00     0.057 A 
ATOM     83  C   UNL A   1      39.900  33.647  35.828  1.00  0.00     0.134 A 
ATOM     84  C   UNL A   1      38.461  31.888  36.586  1.00  0.00     0.134 A 
ATOM     85  F   UNL A   1      40.818  34.141  34.984  1.00  0.00    -0.206 F 
ATOM     86  C   UNL A   1      39.475  34.456  36.884  1.00  0.00     0.040 A 
ATOM     87  C   UNL A   1      38.014  32.695  37.632  1.00  0.00     0.040 A 
ATOM     88  F   UNL A   1      37.945  30.655  36.477  1.00  0.00    -0.206 F 
ATOM     89  C   UNL A   1      38.524  33.983  37.786  1.00  0.00     0.006 A 
ENDBRANCH  65  82
ENDBRANCH  39  40
ENDBRANCH  32  34
ENDBRANCH  31  32
ENDBRANCH  30  31
ENDBRANCH  29  30
ENDBRANCH  28  29
ENDBRANCH  27  28
ENDBRANCH   1  27
TORSDOF 20
ENDMDL
MODEL 2
REMARK VINA RESULT:     -10.9      3.709      5.532
REMARK SMILES C[NH+](C)[C@H]1CCN(C(=O)C(=O)c2ccccc2)C[C@H]1CCC(=O)OCCOCCOC(=O)c1ccc(-c2c3nc(c(-c4c(F)cccc4F)c4ccc([nH]4)c(-c4c(F)cccc4F)c4nc(c(-c5c(F)cccc5F)c5ccc2[nH]5)C=C4)C=C3)cc1
REMARK SMILES IDX 25 1 24 2 22 3 23 4 21 5 20 6 19 7 4 8 5 9 6 10 18 11 7 12
REMARK SMILES IDX 2 13 1 14 3 15 8 17 9 18 10 19 11 20 12 21 13 22 17 23 14 24
REMARK SMILES IDX 16 25 15 26 26 27 27 28 28 29 29 30 30 31 31 32 32 33 33 34
REMARK SMILES IDX 34 35 86 36 35 37 85 38 36 39 37 40 38 41 79 42 39 43 84 44
REMARK SMILES IDX 78 45 80 46 40 47 83 48 77 49 76 50 41 52 67 53 50 54 66 55
REMARK SMILES IDX 51 56 54 57 65 58 81 59 52 60 53 61 64 63 82 64 55 65 42 66
REMARK SMILES IDX 43 67 48 68 44 69 45 70 47 71 49 72 46 73 68 74 69 75 74 76
REMARK SMILES IDX 70 77 71 78 73 79 75 80 72 81 56 82 57 83 62 84 58 85 59 86
REMARK SMILES IDX 61 87 63 88 60 89
REMARK H PARENT 2 16 80 51 54 62
REMARK Flexibility Score: inf
ROOT
ATOM      1  C   UNL A   1      36.717  23.527  25.186  1.00  0.00     0.261 C 
ENDROOT
BRANCH   1   2
ATOM      2  O   UNL A   1      36.372  23.224  23.824  1.00  0.00    -0.463 OA
BRANCH   2   3
ATOM      3  C   UNL A   1      35.153  23.655  23.419  1.00  0.00     0.305 C 
ATOM      4  O   UNL A   1      34.600  23.299  22.383  1.00  0.00    -0.252 OA
BRANCH   3   5
ATOM      5  C   UNL A   1      34.468  24.544  24.436  1.00  0.00     0.123 C 
BRANCH   5   6
ATOM      6  C   UNL A   1      33.178  25.268  24.048  1.00  0.00     0.023 C 
BRANCH   6   7
ATOM      7  C   UNL A   1      32.625  26.404  24.953  1.00  0.00     0.067 C 
ATOM      8  C   UNL A   1      31.371  27.166  24.426  1.00  0.00     0.190 C 
ATOM      9  C   UNL A   1      30.168  26.200  24.408  1.00  0.00     0.087 C 
ATOM     10  C   UNL A   1      29.925  25.606  25.791  1.00  0.00     0.126 C 
ATOM     11  C   UNL A   1      32.324  25.794  26.344  1.00  0.00     0.129 C 
ATOM     12  N   UNL A   1      31.116  24.965  26.333  1.00  0.00    -0.335 N 
BRANCH   8  13
ATOM     13  N   UNL A   1      31.671  27.836  23.139  1.00  0.00    -0.337 N 
ATOM     14  C   UNL A   1      32.660  28.910  23.295  1.00  0.00     0.332 C 
ATOM     15  C   UNL A   1      30.513  28.355  22.414  1.00  0.00     0.332 C 
ATOM     16  H   UNL A   1      32.053  27.081  22.569  1.00  0.00     0.347 HD
ENDBRANCH   8  13
BRANCH  12  17
ATOM     17  C   UNL A   1      30.958  23.715  26.947  1.00  0.00     0.294 C 
ATOM     18  O   UNL A   1      29.869  23.312  27.352  1.00  0.00    -0.265 OA
BRANCH  17  19
ATOM     19  C   UNL A   1      32.173  22.803  27.178  1.00  0.00     0.250 C 
ATOM     20  O   UNL A   1      32.699  22.737  28.285  1.00  0.00    -0.283 OA
BRANCH  19  21
ATOM     21  C   UNL A   1      32.633  21.898  26.083  1.00  0.00     0.028 A 
ATOM     22  C   UNL A   1      31.849  21.821  24.922  1.00  0.00     0.012 A 
ATOM     23  C   UNL A   1      33.820  21.158  26.154  1.00  0.00     0.012 A 
ATOM     24  C   UNL A   1      32.265  21.048  23.834  1.00  0.00     0.001 A 
ATOM     25  C   UNL A   1      34.233  20.384  25.064  1.00  0.00     0.001 A 
ATOM     26  C   UNL A   1      33.461  20.336  23.904  1.00  0.00     0.000 A 
ENDBRANCH  19  21
ENDBRANCH  17  19
ENDBRANCH  12  17
ENDBRANCH   6   7
ENDBRANCH   5   6
ENDBRANCH   3   5
ENDBRANCH   2   3
ENDBRANCH   1   2
BRANCH   1  27
ATOM     27  C   UNL A   1      37.840  22.605  25.661  1.00  0.00     0.202 C 
BRANCH  27  28
ATOM     28  O   UNL A   1      37.482  21.233  25.837  1.00  0.00    -0.374 OA
BRANCH  28  29
ATOM     29  C   UNL A   1      37.946  20.299  24.862  1.00  0.00     0.202 C 
BRANCH  29  30
ATOM     30  C   UNL A   1      38.983  19.273  25.337  1.00  0.00     0.261 C 
BRANCH  30  31
ATOM     31  O   UNL A   1      39.776  19.726  26.452  1.00  0.00    -0.460 OA
BRANCH  31  32
ATOM     32  C   UNL A   1      41.113  19.649  26.258  1.00  0.00     0.338 C 
ATOM     33  O   UNL A   1      41.736  18.744  25.721  1.00  0.00    -0.246 OA
BRANCH  32  34
ATOM     34  C   UNL A   1      41.774  20.901  26.666  1.00  0.00     0.060 A 
ATOM     35  C   UNL A   1      41.798  21.208  28.033  1.00  0.00     0.016 A 
ATOM     36  C   UNL A   1      42.234  21.824  25.723  1.00  0.00     0.016 A 
ATOM     37  C   UNL A   1      42.239  22.460  28.460  1.00  0.00     0.010 A 
ATOM     38  C   UNL A   1      42.670  23.082  26.155  1.00  0.00     0.010 A 
ATOM     39  C   UNL A   1      42.642  23.419  27.521  1.00  0.00    -0.014 A 
BRANCH  39  40
ATOM     40  C   UNL A   1      42.903  24.813  27.959  1.00  0.00     0.031 A 
ATOM     41  C   UNL A   1      44.321  25.256  28.200  1.00  0.00     0.074 A 
ATOM     42  C   UNL A   1      41.893  25.686  28.116  1.00  0.00     0.049 A 
ATOM     43  N   UNL A   1      44.767  26.407  28.635  1.00  0.00    -0.248 NA
ATOM     44  C   UNL A   1      45.374  24.270  27.912  1.00  0.00     0.031 C 
ATOM     45  C   UNL A   1      40.482  25.399  27.867  1.00  0.00     0.029 A 
ATOM     46  N   UNL A   1      41.904  26.994  28.532  1.00  0.00    -0.354 N 
ATOM     47  C   UNL A   1      46.151  26.283  28.680  1.00  0.00     0.074 A 
ATOM     48  C   UNL A   1      46.468  24.938  28.249  1.00  0.00     0.031 C 
ATOM     49  C   UNL A   1      39.759  26.496  28.151  1.00  0.00     0.029 A 
ATOM     50  C   UNL A   1      40.652  27.549  28.630  1.00  0.00     0.049 A 
ATOM     51  H   UNL A   1      42.730  27.487  28.742  1.00  0.00     0.167 HD
ATOM     52  C   UNL A   1      47.074  27.206  29.042  1.00  0.00     0.037 A 
ATOM     53  C   UNL A   1      40.269  28.760  29.078  1.00  0.00     0.037 A 
ATOM     54  C   UNL A   1      46.763  28.545  29.466  1.00  0.00     0.049 A 
ATOM     55  C   UNL A   1      41.307  29.744  29.547  1.00  0.00     0.074 A 
ATOM     56  C   UNL A   1      47.632  29.558  29.834  1.00  0.00     0.029 A 
ATOM     57  N   UNL A   1      45.481  29.058  29.585  1.00  0.00    -0.354 N 
ATOM     58  N   UNL A   1      42.612  29.621  29.572  1.00  0.00    -0.248 NA
ATOM     59  C   UNL A   1      40.818  31.036  30.054  1.00  0.00     0.031 C 
ATOM     60  C   UNL A   1      46.874  30.670  30.215  1.00  0.00     0.029 A 
ATOM     61  C   UNL A   1      45.534  30.363  30.045  1.00  0.00     0.049 A 
ATOM     62  H   UNL A   1      44.654  28.566  29.375  1.00  0.00     0.167 HD
ATOM     63  C   UNL A   1      43.100  30.823  30.070  1.00  0.00     0.074 A 
ATOM     64  C   UNL A   1      41.952  31.666  30.327  1.00  0.00     0.031 C 
ATOM     65  C   UNL A   1      44.384  31.195  30.290  1.00  0.00     0.037 A 
BRANCH  52  66
ATOM     66  C   UNL A   1      48.514  26.789  29.015  1.00  0.00     0.057 A 
ATOM     67  C   UNL A   1      49.328  27.018  27.899  1.00  0.00     0.134 A 
ATOM     68  C   UNL A   1      49.102  26.188  30.135  1.00  0.00     0.134 A 
ATOM     69  F   UNL A   1      48.822  27.580  26.792  1.00  0.00    -0.206 F 
ATOM     70  C   UNL A   1      50.673  26.644  27.890  1.00  0.00     0.040 A 
ATOM     71  C   UNL A   1      50.450  25.830  30.147  1.00  0.00     0.040 A 
ATOM     72  F   UNL A   1      48.377  25.948  31.238  1.00  0.00    -0.206 F 
ATOM     73  C   UNL A   1      51.239  26.053  29.019  1.00  0.00     0.006 A 
ENDBRANCH  52  66
BRANCH  53  74
ATOM     74  C   UNL A   1      38.828  29.110  29.128  1.00  0.00     0.057 A 
ATOM     75  C   UNL A   1      38.159  29.593  27.998  1.00  0.00     0.134 A 
ATOM     76  C   UNL A   1      38.091  28.985  30.313  1.00  0.00     0.134 A 
ATOM     77  F   UNL A   1      38.819  29.757  26.843  1.00  0.00    -0.206 F 
ATOM     78  C   UNL A   1      36.811  29.953  28.046  1.00  0.00     0.040 A 
ATOM     79  C   UNL A   1      36.738  29.321  30.369  1.00  0.00     0.040 A 
ATOM     80  F   UNL A   1      38.675  28.527  31.429  1.00  0.00    -0.206 F 
ATOM     81  C   UNL A   1      36.096  29.813  29.235  1.00  0.00     0.006 A 
ENDBRANCH  53  74
BRANCH  65  82
ATOM     82  C   UNL A   1      44.622  32.583  30.807  1.00  0.00     0.057 A 
ATOM     83  C   UNL A   1      44.803  33.670  29.944  1.00  0.00     0.134 A 
ATOM     84  C   UNL A   1      44.621  32.841  32.184  1.00  0.00     0.134 A 
ATOM     85  F   UNL A   1      44.827  33.488  28.616  1.00  0.00    -0.206 F 
ATOM     86  C   UNL A   1      44.991  34.965  30.434  1.00  0.00     0.040 A 
ATOM     87  C   UNL A   1      44.786  34.133  32.684  1.00  0.00     0.040 A 
ATOM     88  F   UNL A   1      44.444  31.844  33.064  1.00  0.00    -0.206 F 
ATOM     89  C   UNL A   1      44.975  35.199  31.807  1.00  0.00     0.006 A 
ENDBRANCH  65  82
ENDBRANCH  39  40
ENDBRANCH  32  34
ENDBRANCH  31  32
ENDBRANCH  30  31
ENDBRANCH  29  30
ENDBRANCH  28  29
ENDBRANCH  27  28
ENDBRANCH   1  27
TORSDOF 20
ENDMDL
MODEL 3
REMARK VINA RESULT:     -10.7      3.682      5.031
REMARK SMILES C[NH+](C)[C@H]1CCN(C(=O)C(=O)c2ccccc2)C[C@H]1CCC(=O)OCCOCCOC(=O)c1ccc(-c2c3nc(c(-c4c(F)cccc4F)c4ccc([nH]4)c(-c4c(F)cccc4F)c4nc(c(-c5c(F)cccc5F)c5ccc2[nH]5)C=C4)C=C3)cc1
REMARK SMILES IDX 25 1 24 2 22 3 23 4 21 5 20 6 19 7 4 8 5 9 6 10 18 11 7 12
REMARK SMILES IDX 2 13 1 14 3 15 8 17 9 18 10 19 11 20 12 21 13 22 17 23 14 24
REMARK SMILES IDX 16 25 15 26 26 27 27 28 28 29 29 30 30 31 31 32 32 33 33 34
REMARK SMILES IDX 34 35 86 36 35 37 85 38 36 39 37 40 38 41 79 42 39 43 84 44
REMARK SMILES IDX 78 45 80 46 40 47 83 48 77 49 76 50 41 52 67 53 50 54 66 55
REMARK SMILES IDX 51 56 54 57 65 58 81 59 52 60 53 61 64 63 82 64 55 65 42 66
REMARK SMILES IDX 43 67 48 68 44 69 45 70 47 71 49 72 46 73 68 74 69 75 74 76
REMARK SMILES IDX 70 77 71 78 73 79 75 80 72 81 56 82 57 83 62 84 58 85 59 86
REMARK SMILES IDX 61 87 63 88 60 89
REMARK H PARENT 2 16 80 51 54 62
REMARK Flexibility Score: inf
ROOT
ATOM      1  C   UNL A   1      34.517  21.492  24.526  1.00  0.00     0.261 C 
ENDROOT
BRANCH   1   2
ATOM      2  O   UNL A   1      34.784  22.831  24.975  1.00  0.00    -0.463 OA
BRANCH   2   3
ATOM      3  C   UNL A   1      34.870  23.769  24.000  1.00  0.00     0.305 C 
ATOM      4  O   UNL A   1      35.071  23.521  22.815  1.00  0.00    -0.252 OA
BRANCH   3   5
ATOM      5  C   UNL A   1      34.577  25.170  24.494  1.00  0.00     0.123 C 
BRANCH   5   6
ATOM      6  C   UNL A   1      33.133  25.674  24.497  1.00  0.00     0.023 C 
BRANCH   6   7
ATOM      7  C   UNL A   1      32.036  24.884  23.730  1.00  0.00     0.067 C 
ATOM      8  C   UNL A   1      30.904  24.247  24.595  1.00  0.00     0.190 C 
ATOM      9  C   UNL A   1      30.060  25.375  25.224  1.00  0.00     0.087 C 
ATOM     10  C   UNL A   1      29.497  26.298  24.150  1.00  0.00     0.126 C 
ATOM     11  C   UNL A   1      31.420  25.834  22.674  1.00  0.00     0.129 C 
ATOM     12  N   UNL A   1      30.536  26.833  23.280  1.00  0.00    -0.335 N 
BRANCH   8  13
ATOM     13  N   UNL A   1      31.468  23.264  25.548  1.00  0.00    -0.337 N 
ATOM     14  C   UNL A   1      31.258  21.881  25.100  1.00  0.00     0.332 C 
ATOM     15  C   UNL A   1      31.009  23.392  26.931  1.00  0.00     0.332 C 
ATOM     16  H   UNL A   1      32.462  23.489  25.552  1.00  0.00     0.347 HD
ENDBRANCH   8  13
BRANCH  12  17
ATOM     17  C   UNL A   1      30.481  28.197  22.964  1.00  0.00     0.294 C 
ATOM     18  O   UNL A   1      30.274  28.601  21.822  1.00  0.00    -0.265 OA
BRANCH  17  19
ATOM     19  C   UNL A   1      30.724  29.258  24.049  1.00  0.00     0.250 C 
ATOM     20  O   UNL A   1      29.977  30.226  24.150  1.00  0.00    -0.283 OA
BRANCH  19  21
ATOM     21  C   UNL A   1      31.798  29.041  25.064  1.00  0.00     0.028 A 
ATOM     22  C   UNL A   1      31.419  28.582  26.335  1.00  0.00     0.012 A 
ATOM     23  C   UNL A   1      33.157  29.242  24.789  1.00  0.00     0.012 A 
ATOM     24  C   UNL A   1      32.385  28.291  27.302  1.00  0.00     0.001 A 
ATOM     25  C   UNL A   1      34.122  28.952  25.761  1.00  0.00     0.001 A 
ATOM     26  C   UNL A   1      33.737  28.470  27.011  1.00  0.00     0.000 A 
ENDBRANCH  19  21
ENDBRANCH  17  19
ENDBRANCH  12  17
ENDBRANCH   6   7
ENDBRANCH   5   6
ENDBRANCH   3   5
ENDBRANCH   2   3
ENDBRANCH   1   2
BRANCH   1  27
ATOM     27  C   UNL A   1      35.625  20.549  24.997  1.00  0.00     0.202 C 
BRANCH  27  28
ATOM     28  O   UNL A   1      36.885  21.163  25.275  1.00  0.00    -0.374 OA
BRANCH  28  29
ATOM     29  C   UNL A   1      38.063  20.406  25.005  1.00  0.00     0.202 C 
BRANCH  29  30
ATOM     30  C   UNL A   1      39.333  20.824  25.758  1.00  0.00     0.261 C 
BRANCH  30  31
ATOM     31  O   UNL A   1      40.016  19.726  26.394  1.00  0.00    -0.460 OA
BRANCH  31  32
ATOM     32  C   UNL A   1      41.345  19.673  26.145  1.00  0.00     0.338 C 
ATOM     33  O   UNL A   1      41.958  18.792  25.558  1.00  0.00    -0.246 OA
BRANCH  32  34
ATOM     34  C   UNL A   1      42.007  20.920  26.565  1.00  0.00     0.060 A 
ATOM     35  C   UNL A   1      41.989  21.240  27.929  1.00  0.00     0.016 A 
ATOM     36  C   UNL A   1      42.509  21.830  25.630  1.00  0.00     0.016 A 
ATOM     37  C   UNL A   1      42.430  22.490  28.360  1.00  0.00     0.010 A 
ATOM     38  C   UNL A   1      42.946  23.086  26.066  1.00  0.00     0.010 A 
ATOM     39  C   UNL A   1      42.875  23.436  27.428  1.00  0.00    -0.014 A 
BRANCH  39  40
ATOM     40  C   UNL A   1      43.138  24.831  27.862  1.00  0.00     0.031 A 
ATOM     41  C   UNL A   1      44.559  25.286  28.057  1.00  0.00     0.074 A 
ATOM     42  C   UNL A   1      42.126  25.693  28.057  1.00  0.00     0.049 A 
ATOM     43  N   UNL A   1      45.009  26.439  28.482  1.00  0.00    -0.248 NA
ATOM     44  C   UNL A   1      45.611  24.312  27.729  1.00  0.00     0.031 C 
ATOM     45  C   UNL A   1      40.710  25.393  27.855  1.00  0.00     0.029 A 
ATOM     46  N   UNL A   1      42.138  27.000  28.478  1.00  0.00    -0.354 N 
ATOM     47  C   UNL A   1      46.394  26.328  28.479  1.00  0.00     0.074 A 
ATOM     48  C   UNL A   1      46.710  24.988  28.032  1.00  0.00     0.031 C 
ATOM     49  C   UNL A   1      39.986  26.483  28.167  1.00  0.00     0.029 A 
ATOM     50  C   UNL A   1      40.885  27.543  28.621  1.00  0.00     0.049 A 
ATOM     51  H   UNL A   1      42.966  27.500  28.662  1.00  0.00     0.167 HD
ATOM     52  C   UNL A   1      47.320  27.259  28.813  1.00  0.00     0.037 A 
ATOM     53  C   UNL A   1      40.507  28.748  29.087  1.00  0.00     0.037 A 
ATOM     54  C   UNL A   1      47.011  28.594  29.254  1.00  0.00     0.049 A 
ATOM     55  C   UNL A   1      41.551  29.740  29.525  1.00  0.00     0.074 A 
ATOM     56  C   UNL A   1      47.883  29.613  29.596  1.00  0.00     0.029 A 
ATOM     57  N   UNL A   1      45.729  29.093  29.418  1.00  0.00    -0.354 N 
ATOM     58  N   UNL A   1      42.856  29.629  29.504  1.00  0.00    -0.248 NA
ATOM     59  C   UNL A   1      41.067  31.025  30.053  1.00  0.00     0.031 C 
ATOM     60  C   UNL A   1      47.128  30.716  30.008  1.00  0.00     0.029 A 
ATOM     61  C   UNL A   1      45.786  30.398  29.882  1.00  0.00     0.049 A 
ATOM     62  H   UNL A   1      44.900  28.594  29.234  1.00  0.00     0.167 HD
ATOM     63  C   UNL A   1      43.350  30.834  29.991  1.00  0.00     0.074 A 
ATOM     64  C   UNL A   1      42.203  31.665  30.290  1.00  0.00     0.031 C 
ATOM     65  C   UNL A   1      44.637  31.217  30.169  1.00  0.00     0.037 A 
BRANCH  52  66
ATOM     66  C   UNL A   1      48.763  26.856  28.737  1.00  0.00     0.057 A 
ATOM     67  C   UNL A   1      49.524  27.055  27.578  1.00  0.00     0.134 A 
ATOM     68  C   UNL A   1      49.406  26.299  29.848  1.00  0.00     0.134 A 
ATOM     69  F   UNL A   1      48.963  27.576  26.477  1.00  0.00    -0.206 F 
ATOM     70  C   UNL A   1      50.871  26.695  27.522  1.00  0.00     0.040 A 
ATOM     71  C   UNL A   1      50.758  25.954  29.811  1.00  0.00     0.040 A 
ATOM     72  F   UNL A   1      48.733  26.087  30.990  1.00  0.00    -0.206 F 
ATOM     73  C   UNL A   1      51.493  26.148  28.643  1.00  0.00     0.006 A 
ENDBRANCH  52  66
BRANCH  53  74
ATOM     74  C   UNL A   1      39.064  29.083  29.187  1.00  0.00     0.057 A 
ATOM     75  C   UNL A   1      38.371  28.950  30.395  1.00  0.00     0.134 A 
ATOM     76  C   UNL A   1      38.343  29.528  28.072  1.00  0.00     0.134 A 
ATOM     77  F   UNL A   1      39.004  28.505  31.490  1.00  0.00    -0.206 F 
ATOM     78  C   UNL A   1      37.007  29.233  30.489  1.00  0.00     0.040 A 
ATOM     79  C   UNL A   1      36.984  29.836  28.158  1.00  0.00     0.040 A 
ATOM     80  F   UNL A   1      38.951  29.677  26.887  1.00  0.00    -0.206 F 
ATOM     81  C   UNL A   1      36.311  29.682  29.368  1.00  0.00     0.006 A 
ENDBRANCH  53  74
BRANCH  65  82
ATOM     82  C   UNL A   1      44.879  32.606  30.683  1.00  0.00     0.057 A 
ATOM     83  C   UNL A   1      45.045  32.868  32.048  1.00  0.00     0.134 A 
ATOM     84  C   UNL A   1      44.996  33.684  29.796  1.00  0.00     0.134 A 
ATOM     85  F   UNL A   1      44.932  31.882  32.949  1.00  0.00    -0.206 F 
ATOM     86  C   UNL A   1      45.304  34.159  32.515  1.00  0.00     0.040 A 
ATOM     87  C   UNL A   1      45.275  34.973  30.249  1.00  0.00     0.040 A 
ATOM     88  F   UNL A   1      44.856  33.497  28.475  1.00  0.00    -0.206 F 
ATOM     89  C   UNL A   1      45.426  35.214  31.613  1.00  0.00     0.006 A 
ENDBRANCH  65  82
ENDBRANCH  39  40
ENDBRANCH  32  34
ENDBRANCH  31  32
ENDBRANCH  30  31
ENDBRANCH  29  30
ENDBRANCH  28  29
ENDBRANCH  27  28
ENDBRANCH   1  27
TORSDOF 20
ENDMDL
