MODEL 1
REMARK VINA RESULT:     -11.4      0.000      0.000
REMARK SMILES COc1ccc(-c2cnc(N)c(C(=O)OCCOCCOC(=O)c3ccc(-c4c5nc(c(-c6c(F)cccc6F)c6ccc([nH]6)c(-c6c(F)cccc6F)c6nc(c(-c7c(F)cccc7F)c7ccc4[nH]7)C=C6)C=C5)cc3)c2)c(C)c1
REMARK SMILES IDX 18 1 17 2 16 3 15 4 13 5 14 6 12 7 7 8 8 9 78 10 9 11 10 12
REMARK SMILES IDX 6 13 3 14 4 15 81 16 5 17 79 18 80 19 2 20 1 21 11 22 19 25
REMARK SMILES IDX 20 26 21 27 22 28 23 29 24 30 25 31 77 32 26 33 76 34 27 35
REMARK SMILES IDX 28 36 29 37 70 38 30 39 75 40 69 41 71 42 31 43 74 44 68 45
REMARK SMILES IDX 67 46 32 48 58 49 41 50 57 51 42 52 45 53 56 54 72 55 43 56
REMARK SMILES IDX 44 57 55 59 73 60 46 61 33 62 34 63 39 64 35 65 36 66 38 67
REMARK SMILES IDX 40 68 37 69 59 70 60 71 65 72 61 73 62 74 64 75 66 76 63 77
REMARK SMILES IDX 47 78 48 79 53 80 49 81 50 82 52 83 54 84 51 85
REMARK H PARENT 11 23 11 24 71 47 45 58
REMARK Flexibility Score: inf
ROOT
ATOM      1  O   UNL A   1      31.520  29.680  25.877  1.00  0.00    -0.374 OA
ENDROOT
BRANCH   1   2
ATOM      2  C   UNL A   1      31.775  28.381  26.383  1.00  0.00     0.202 C 
BRANCH   2   3
ATOM      3  C   UNL A   1      32.106  27.544  25.191  1.00  0.00     0.261 C 
BRANCH   3   4
ATOM      4  O   UNL A   1      30.931  26.886  24.693  1.00  0.00    -0.460 OA
BRANCH   4   5
ATOM      5  C   UNL A   1      31.021  25.685  24.053  1.00  0.00     0.342 C 
ATOM      6  O   UNL A   1      30.904  25.478  22.872  1.00  0.00    -0.246 OA
BRANCH   5   7
ATOM      7  C   UNL A   1      31.412  24.663  25.046  1.00  0.00     0.102 A 
ATOM      8  C   UNL A   1      33.244  23.347  25.867  1.00  0.00     0.001 A 
ATOM      9  C   UNL A   1      32.521  23.222  27.050  1.00  0.00     0.122 A 
ATOM     10  C   UNL A   1      32.642  24.047  24.829  1.00  0.00     0.030 A 
ATOM     11  N   UNL A   1      31.277  23.714  27.244  1.00  0.00    -0.238 NA
ATOM     12  C   UNL A   1      30.734  24.434  26.247  1.00  0.00     0.138 A 
BRANCH   8  13
ATOM     13  C   UNL A   1      34.591  22.809  25.721  1.00  0.00    -0.014 A 
ATOM     14  C   UNL A   1      37.236  21.880  25.555  1.00  0.00     0.119 A 
ATOM     15  C   UNL A   1      36.987  23.197  25.928  1.00  0.00     0.047 A 
ATOM     16  C   UNL A   1      36.174  21.035  25.232  1.00  0.00     0.050 A 
ATOM     17  C   UNL A   1      35.675  23.653  26.014  1.00  0.00     0.013 A 
ATOM     18  C   UNL A   1      34.844  21.477  25.319  1.00  0.00    -0.040 A 
ATOM     19  C   UNL A   1      33.758  20.476  25.008  1.00  0.00     0.045 C 
BRANCH  14  20
ATOM     20  O   UNL A   1      38.488  21.345  25.436  1.00  0.00    -0.497 OA
ATOM     21  C   UNL A   1      39.494  22.082  26.125  1.00  0.00     0.278 C 
ENDBRANCH  14  20
ENDBRANCH   8  13
BRANCH  12  22
ATOM     22  N   UNL A   1      29.449  24.857  26.497  1.00  0.00    -0.383 N 
ATOM     23  H   UNL A   1      29.286  25.776  26.811  1.00  0.00     0.158 HD
ATOM     24  H   UNL A   1      28.691  24.242  26.361  1.00  0.00     0.158 HD
ENDBRANCH  12  22
ENDBRANCH   5   7
ENDBRANCH   4   5
ENDBRANCH   3   4
ENDBRANCH   2   3
ENDBRANCH   1   2
BRANCH   1  25
ATOM     25  C   UNL A   1      32.176  30.733  26.552  1.00  0.00     0.202 C 
BRANCH  25  26
ATOM     26  C   UNL A   1      33.621  30.376  26.922  1.00  0.00     0.261 C 
BRANCH  26  27
ATOM     27  O   UNL A   1      34.064  31.190  28.034  1.00  0.00    -0.460 OA
BRANCH  27  28
ATOM     28  C   UNL A   1      35.378  31.557  28.036  1.00  0.00     0.338 C 
ATOM     29  O   UNL A   1      35.815  32.628  27.647  1.00  0.00    -0.246 OA
BRANCH  28  30
ATOM     30  C   UNL A   1      36.236  30.358  28.287  1.00  0.00     0.060 A 
ATOM     31  C   UNL A   1      36.257  29.755  29.563  1.00  0.00     0.016 A 
ATOM     32  C   UNL A   1      37.254  30.091  27.377  1.00  0.00     0.016 A 
ATOM     33  C   UNL A   1      37.382  29.024  29.981  1.00  0.00     0.010 A 
ATOM     34  C   UNL A   1      38.405  29.495  27.839  1.00  0.00     0.010 A 
ATOM     35  C   UNL A   1      38.492  28.973  29.143  1.00  0.00    -0.014 A 
BRANCH  35  36
ATOM     36  C   UNL A   1      39.823  28.456  29.475  1.00  0.00     0.031 A 
ATOM     37  C   UNL A   1      40.194  27.139  28.926  1.00  0.00     0.074 A 
ATOM     38  C   UNL A   1      40.789  29.260  29.979  1.00  0.00     0.049 A 
ATOM     39  N   UNL A   1      41.285  26.524  29.210  1.00  0.00    -0.248 NA
ATOM     40  C   UNL A   1      39.326  26.372  28.041  1.00  0.00     0.031 C 
ATOM     41  C   UNL A   1      42.235  29.182  29.770  1.00  0.00     0.029 A 
ATOM     42  N   UNL A   1      40.649  30.380  30.795  1.00  0.00    -0.354 N 
ATOM     43  C   UNL A   1      41.412  25.465  28.343  1.00  0.00     0.074 A 
ATOM     44  C   UNL A   1      40.121  25.353  27.714  1.00  0.00     0.031 C 
ATOM     45  C   UNL A   1      42.854  30.053  30.587  1.00  0.00     0.029 A 
ATOM     46  C   UNL A   1      41.852  30.605  31.481  1.00  0.00     0.049 A 
ATOM     47  H   UNL A   1      39.835  30.927  30.878  1.00  0.00     0.167 HD
ATOM     48  C   UNL A   1      42.647  24.905  28.196  1.00  0.00     0.037 A 
ATOM     49  C   UNL A   1      41.842  30.608  32.841  1.00  0.00     0.037 A 
ATOM     50  C   UNL A   1      43.614  25.555  29.105  1.00  0.00     0.049 A 
ATOM     51  C   UNL A   1      42.531  29.369  33.347  1.00  0.00     0.074 A 
ATOM     52  C   UNL A   1      44.618  26.499  28.948  1.00  0.00     0.029 A 
ATOM     53  N   UNL A   1      43.380  25.501  30.473  1.00  0.00    -0.354 N 
ATOM     54  N   UNL A   1      43.107  28.502  32.558  1.00  0.00    -0.248 NA
ATOM     55  C   UNL A   1      42.571  28.958  34.742  1.00  0.00     0.031 C 
ATOM     56  C   UNL A   1      44.974  26.997  30.245  1.00  0.00     0.029 A 
ATOM     57  C   UNL A   1      44.217  26.334  31.196  1.00  0.00     0.049 A 
ATOM     58  H   UNL A   1      42.692  24.930  30.885  1.00  0.00     0.167 HD
ATOM     59  C   UNL A   1      43.519  27.421  33.262  1.00  0.00     0.074 A 
ATOM     60  C   UNL A   1      43.150  27.748  34.635  1.00  0.00     0.031 C 
ATOM     61  C   UNL A   1      44.103  26.344  32.655  1.00  0.00     0.037 A 
BRANCH  48  62
ATOM     62  C   UNL A   1      43.040  23.918  27.108  1.00  0.00     0.057 A 
ATOM     63  C   UNL A   1      43.383  24.382  25.822  1.00  0.00     0.134 A 
ATOM     64  C   UNL A   1      43.089  22.512  27.225  1.00  0.00     0.134 A 
ATOM     65  F   UNL A   1      43.467  25.689  25.547  1.00  0.00    -0.206 F 
ATOM     66  C   UNL A   1      43.671  23.527  24.745  1.00  0.00     0.040 A 
ATOM     67  C   UNL A   1      43.338  21.646  26.150  1.00  0.00     0.040 A 
ATOM     68  F   UNL A   1      42.966  21.880  28.391  1.00  0.00    -0.206 F 
ATOM     69  C   UNL A   1      43.626  22.151  24.898  1.00  0.00     0.006 A 
ENDBRANCH  48  62
BRANCH  49  70
ATOM     70  C   UNL A   1      40.597  31.250  33.377  1.00  0.00     0.057 A 
ATOM     71  C   UNL A   1      40.484  32.653  33.295  1.00  0.00     0.134 A 
ATOM     72  C   UNL A   1      39.399  30.532  33.475  1.00  0.00     0.134 A 
ATOM     73  F   UNL A   1      41.582  33.414  33.174  1.00  0.00    -0.206 F 
ATOM     74  C   UNL A   1      39.243  33.298  33.197  1.00  0.00     0.040 A 
ATOM     75  C   UNL A   1      38.153  31.164  33.352  1.00  0.00     0.040 A 
ATOM     76  F   UNL A   1      39.414  29.192  33.533  1.00  0.00    -0.206 F 
ATOM     77  C   UNL A   1      38.073  32.545  33.183  1.00  0.00     0.006 A 
ENDBRANCH  49  70
BRANCH  61  78
ATOM     78  C   UNL A   1      44.554  25.161  33.453  1.00  0.00     0.057 A 
ATOM     79  C   UNL A   1      43.651  24.345  34.147  1.00  0.00     0.134 A 
ATOM     80  C   UNL A   1      45.911  24.811  33.580  1.00  0.00     0.134 A 
ATOM     81  F   UNL A   1      42.356  24.677  34.254  1.00  0.00    -0.206 F 
ATOM     82  C   UNL A   1      44.048  23.158  34.762  1.00  0.00     0.040 A 
ATOM     83  C   UNL A   1      46.328  23.663  34.250  1.00  0.00     0.040 A 
ATOM     84  F   UNL A   1      46.897  25.540  33.046  1.00  0.00    -0.206 F 
ATOM     85  C   UNL A   1      45.390  22.805  34.801  1.00  0.00     0.006 A 
ENDBRANCH  61  78
ENDBRANCH  35  36
ENDBRANCH  28  30
ENDBRANCH  27  28
ENDBRANCH  26  27
ENDBRANCH  25  26
ENDBRANCH   1  25
TORSDOF 17
ENDMDL
MODEL 2
REMARK VINA RESULT:     -11.3      1.165      2.071
REMARK SMILES COc1ccc(-c2cnc(N)c(C(=O)OCCOCCOC(=O)c3ccc(-c4c5nc(c(-c6c(F)cccc6F)c6ccc([nH]6)c(-c6c(F)cccc6F)c6nc(c(-c7c(F)cccc7F)c7ccc4[nH]7)C=C6)C=C5)cc3)c2)c(C)c1
REMARK SMILES IDX 18 1 17 2 16 3 15 4 13 5 14 6 12 7 7 8 8 9 78 10 9 11 10 12
REMARK SMILES IDX 6 13 3 14 4 15 81 16 5 17 79 18 80 19 2 20 1 21 11 22 19 25
REMARK SMILES IDX 20 26 21 27 22 28 23 29 24 30 25 31 77 32 26 33 76 34 27 35
REMARK SMILES IDX 28 36 29 37 70 38 30 39 75 40 69 41 71 42 31 43 74 44 68 45
REMARK SMILES IDX 67 46 32 48 58 49 41 50 57 51 42 52 45 53 56 54 72 55 43 56
REMARK SMILES IDX 44 57 55 59 73 60 46 61 33 62 34 63 39 64 35 65 36 66 38 67
REMARK SMILES IDX 40 68 37 69 59 70 60 71 65 72 61 73 62 74 64 75 66 76 63 77
REMARK SMILES IDX 47 78 48 79 53 80 49 81 50 82 52 83 54 84 51 85
REMARK H PARENT 11 23 11 24 71 47 45 58
REMARK Flexibility Score: inf
ROOT
ATOM      1  O   UNL A   1      31.349  30.351  25.462  1.00  0.00    -0.374 OA
ENDROOT
BRANCH   1   2
ATOM      2  C   UNL A   1      30.845  29.581  24.384  1.00  0.00     0.202 C 
BRANCH   2   3
ATOM      3  C   UNL A   1      31.748  28.396  24.279  1.00  0.00     0.261 C 
BRANCH   3   4
ATOM      4  O   UNL A   1      31.083  27.211  24.739  1.00  0.00    -0.460 OA
BRANCH   4   5
ATOM      5  C   UNL A   1      31.168  26.044  24.038  1.00  0.00     0.342 C 
ATOM      6  O   UNL A   1      31.103  25.906  22.842  1.00  0.00    -0.246 OA
BRANCH   5   7
ATOM      7  C   UNL A   1      31.479  24.957  24.989  1.00  0.00     0.102 A 
ATOM      8  C   UNL A   1      33.217  23.505  25.786  1.00  0.00     0.001 A 
ATOM      9  C   UNL A   1      32.460  23.366  26.945  1.00  0.00     0.122 A 
ATOM     10  C   UNL A   1      32.678  24.284  24.769  1.00  0.00     0.030 A 
ATOM     11  N   UNL A   1      31.240  23.918  27.137  1.00  0.00    -0.238 NA
ATOM     12  C   UNL A   1      30.761  24.712  26.163  1.00  0.00     0.138 A 
BRANCH   8  13
ATOM     13  C   UNL A   1      34.535  22.900  25.642  1.00  0.00    -0.014 A 
ATOM     14  C   UNL A   1      37.125  21.825  25.496  1.00  0.00     0.119 A 
ATOM     15  C   UNL A   1      36.935  23.104  26.008  1.00  0.00     0.047 A 
ATOM     16  C   UNL A   1      36.035  21.093  25.027  1.00  0.00     0.050 A 
ATOM     17  C   UNL A   1      35.650  23.633  26.083  1.00  0.00     0.013 A 
ATOM     18  C   UNL A   1      34.730  21.608  25.101  1.00  0.00    -0.040 A 
ATOM     19  C   UNL A   1      33.606  20.722  24.623  1.00  0.00     0.045 C 
BRANCH  14  20
ATOM     20  O   UNL A   1      38.348  21.226  25.376  1.00  0.00    -0.497 OA
ATOM     21  C   UNL A   1      39.397  21.926  26.039  1.00  0.00     0.278 C 
ENDBRANCH  14  20
ENDBRANCH   8  13
BRANCH  12  22
ATOM     22  N   UNL A   1      29.496  25.194  26.406  1.00  0.00    -0.383 N 
ATOM     23  H   UNL A   1      28.746  24.921  25.828  1.00  0.00     0.158 HD
ATOM     24  H   UNL A   1      29.339  25.813  27.156  1.00  0.00     0.158 HD
ENDBRANCH  12  22
ENDBRANCH   5   7
ENDBRANCH   4   5
ENDBRANCH   3   4
ENDBRANCH   2   3
ENDBRANCH   1   2
BRANCH   1  25
ATOM     25  C   UNL A   1      32.621  29.967  25.939  1.00  0.00     0.202 C 
BRANCH  25  26
ATOM     26  C   UNL A   1      32.947  30.597  27.299  1.00  0.00     0.261 C 
BRANCH  26  27
ATOM     27  O   UNL A   1      34.289  31.139  27.287  1.00  0.00    -0.460 OA
BRANCH  27  28
ATOM     28  C   UNL A   1      34.920  31.236  28.493  1.00  0.00     0.338 C 
ATOM     29  O   UNL A   1      34.852  32.189  29.253  1.00  0.00    -0.246 OA
BRANCH  28  30
ATOM     30  C   UNL A   1      35.950  30.158  28.610  1.00  0.00     0.060 A 
ATOM     31  C   UNL A   1      36.300  29.646  29.878  1.00  0.00     0.016 A 
ATOM     32  C   UNL A   1      36.788  29.944  27.521  1.00  0.00     0.016 A 
ATOM     33  C   UNL A   1      37.566  29.073  30.085  1.00  0.00     0.010 A 
ATOM     34  C   UNL A   1      38.073  29.510  27.759  1.00  0.00     0.010 A 
ATOM     35  C   UNL A   1      38.482  29.089  29.038  1.00  0.00    -0.014 A 
BRANCH  35  36
ATOM     36  C   UNL A   1      39.906  28.744  29.108  1.00  0.00     0.031 A 
ATOM     37  C   UNL A   1      40.290  27.373  28.725  1.00  0.00     0.074 A 
ATOM     38  C   UNL A   1      40.861  29.699  29.201  1.00  0.00     0.049 A 
ATOM     39  N   UNL A   1      41.482  26.906  28.828  1.00  0.00    -0.248 NA
ATOM     40  C   UNL A   1      39.335  26.385  28.239  1.00  0.00     0.031 C 
ATOM     41  C   UNL A   1      42.217  29.682  28.649  1.00  0.00     0.029 A 
ATOM     42  N   UNL A   1      40.786  30.947  29.814  1.00  0.00    -0.354 N 
ATOM     43  C   UNL A   1      41.526  25.706  28.159  1.00  0.00     0.074 A 
ATOM     44  C   UNL A   1      40.145  25.380  27.907  1.00  0.00     0.031 C 
ATOM     45  C   UNL A   1      42.903  30.742  29.115  1.00  0.00     0.029 A 
ATOM     46  C   UNL A   1      42.081  31.390  30.121  1.00  0.00     0.049 A 
ATOM     47  H   UNL A   1      39.955  31.441  30.002  1.00  0.00     0.167 HD
ATOM     48  C   UNL A   1      42.748  25.217  27.805  1.00  0.00     0.037 A 
ATOM     49  C   UNL A   1      42.390  31.665  31.417  1.00  0.00     0.037 A 
ATOM     50  C   UNL A   1      43.819  26.102  28.310  1.00  0.00     0.049 A 
ATOM     51  C   UNL A   1      43.320  30.604  31.943  1.00  0.00     0.074 A 
ATOM     52  C   UNL A   1      44.639  27.064  27.739  1.00  0.00     0.029 A 
ATOM     53  N   UNL A   1      43.921  26.308  29.680  1.00  0.00    -0.354 N 
ATOM     54  N   UNL A   1      43.793  29.640  31.201  1.00  0.00    -0.248 NA
ATOM     55  C   UNL A   1      43.735  30.486  33.333  1.00  0.00     0.031 C 
ATOM     56  C   UNL A   1      45.229  27.836  28.794  1.00  0.00     0.029 A 
ATOM     57  C   UNL A   1      44.799  27.326  30.008  1.00  0.00     0.049 A 
ATOM     58  H   UNL A   1      43.421  25.785  30.347  1.00  0.00     0.167 HD
ATOM     59  C   UNL A   1      44.483  28.754  31.957  1.00  0.00     0.074 A 
ATOM     60  C   UNL A   1      44.411  29.323  33.299  1.00  0.00     0.031 C 
ATOM     61  C   UNL A   1      45.031  27.621  31.423  1.00  0.00     0.037 A 
BRANCH  48  62
ATOM     62  C   UNL A   1      42.989  24.061  26.846  1.00  0.00     0.057 A 
ATOM     63  C   UNL A   1      42.816  22.732  27.282  1.00  0.00     0.134 A 
ATOM     64  C   UNL A   1      43.408  24.156  25.502  1.00  0.00     0.134 A 
ATOM     65  F   UNL A   1      42.347  22.450  28.504  1.00  0.00    -0.206 F 
ATOM     66  C   UNL A   1      43.104  21.614  26.482  1.00  0.00     0.040 A 
ATOM     67  C   UNL A   1      43.735  23.050  24.704  1.00  0.00     0.040 A 
ATOM     68  F   UNL A   1      43.469  25.314  24.845  1.00  0.00    -0.206 F 
ATOM     69  C   UNL A   1      43.589  21.768  25.194  1.00  0.00     0.006 A 
ENDBRANCH  48  62
BRANCH  49  70
ATOM     70  C   UNL A   1      41.240  32.312  32.128  1.00  0.00     0.057 A 
ATOM     71  C   UNL A   1      40.450  31.513  32.980  1.00  0.00     0.134 A 
ATOM     72  C   UNL A   1      41.227  33.691  32.375  1.00  0.00     0.134 A 
ATOM     73  F   UNL A   1      40.425  30.181  32.827  1.00  0.00    -0.206 F 
ATOM     74  C   UNL A   1      39.778  32.044  34.090  1.00  0.00     0.040 A 
ATOM     75  C   UNL A   1      40.579  34.228  33.498  1.00  0.00     0.040 A 
ATOM     76  F   UNL A   1      41.968  34.521  31.628  1.00  0.00    -0.206 F 
ATOM     77  C   UNL A   1      39.878  33.402  34.375  1.00  0.00     0.006 A 
ENDBRANCH  49  70
BRANCH  61  78
ATOM     78  C   UNL A   1      45.794  26.656  32.277  1.00  0.00     0.057 A 
ATOM     79  C   UNL A   1      47.192  26.579  32.243  1.00  0.00     0.134 A 
ATOM     80  C   UNL A   1      45.156  25.751  33.144  1.00  0.00     0.134 A 
ATOM     81  F   UNL A   1      47.903  27.259  31.331  1.00  0.00    -0.206 F 
ATOM     82  C   UNL A   1      47.912  25.795  33.144  1.00  0.00     0.040 A 
ATOM     83  C   UNL A   1      45.863  24.913  34.003  1.00  0.00     0.040 A 
ATOM     84  F   UNL A   1      43.824  25.646  33.226  1.00  0.00    -0.206 F 
ATOM     85  C   UNL A   1      47.246  24.970  34.040  1.00  0.00     0.006 A 
ENDBRANCH  61  78
ENDBRANCH  35  36
ENDBRANCH  28  30
ENDBRANCH  27  28
ENDBRANCH  26  27
ENDBRANCH  25  26
ENDBRANCH   1  25
TORSDOF 17
ENDMDL
MODEL 3
REMARK VINA RESULT:     -11.0      4.911     10.625
REMARK SMILES COc1ccc(-c2cnc(N)c(C(=O)OCCOCCOC(=O)c3ccc(-c4c5nc(c(-c6c(F)cccc6F)c6ccc([nH]6)c(-c6c(F)cccc6F)c6nc(c(-c7c(F)cccc7F)c7ccc4[nH]7)C=C6)C=C5)cc3)c2)c(C)c1
REMARK SMILES IDX 18 1 17 2 16 3 15 4 13 5 14 6 12 7 7 8 8 9 78 10 9 11 10 12
REMARK SMILES IDX 6 13 3 14 4 15 81 16 5 17 79 18 80 19 2 20 1 21 11 22 19 25
REMARK SMILES IDX 20 26 21 27 22 28 23 29 24 30 25 31 77 32 26 33 76 34 27 35
REMARK SMILES IDX 28 36 29 37 70 38 30 39 75 40 69 41 71 42 31 43 74 44 68 45
REMARK SMILES IDX 67 46 32 48 58 49 41 50 57 51 42 52 45 53 56 54 72 55 43 56
REMARK SMILES IDX 44 57 55 59 73 60 46 61 33 62 34 63 39 64 35 65 36 66 38 67
REMARK SMILES IDX 40 68 37 69 59 70 60 71 65 72 61 73 62 74 64 75 66 76 63 77
REMARK SMILES IDX 47 78 48 79 53 80 49 81 50 82 52 83 54 84 51 85
REMARK H PARENT 11 23 11 24 71 47 45 58
REMARK Flexibility Score: inf
ROOT
ATOM      1  O   UNL A   1      40.509  19.579  26.381  1.00  0.00    -0.374 OA
ENDROOT
BRANCH   1   2
ATOM      2  C   UNL A   1      41.822  19.841  26.845  1.00  0.00     0.202 C 
BRANCH   2   3
ATOM      3  C   UNL A   1      42.729  19.068  25.943  1.00  0.00     0.261 C 
BRANCH   3   4
ATOM      4  O   UNL A   1      43.371  19.942  25.003  1.00  0.00    -0.460 OA
BRANCH   4   5
ATOM      5  C   UNL A   1      44.601  20.470  25.266  1.00  0.00     0.342 C 
ATOM      6  O   UNL A   1      45.636  19.870  25.413  1.00  0.00    -0.246 OA
BRANCH   5   7
ATOM      7  C   UNL A   1      44.487  21.942  25.227  1.00  0.00     0.102 A 
ATOM      8  C   UNL A   1      44.668  23.945  26.540  1.00  0.00     0.001 A 
ATOM      9  C   UNL A   1      44.863  24.620  25.338  1.00  0.00     0.122 A 
ATOM     10  C   UNL A   1      44.426  22.578  26.464  1.00  0.00     0.030 A 
ATOM     11  N   UNL A   1      44.812  24.043  24.116  1.00  0.00    -0.238 NA
ATOM     12  C   UNL A   1      44.631  22.712  24.068  1.00  0.00     0.138 A 
BRANCH   8  13
ATOM     13  C   UNL A   1      44.751  24.617  27.830  1.00  0.00    -0.014 A 
ATOM     14  C   UNL A   1      44.760  25.855  30.351  1.00  0.00     0.119 A 
ATOM     15  C   UNL A   1      43.554  25.628  29.695  1.00  0.00     0.047 A 
ATOM     16  C   UNL A   1      45.963  25.498  29.740  1.00  0.00     0.050 A 
ATOM     17  C   UNL A   1      43.552  25.011  28.448  1.00  0.00     0.013 A 
ATOM     18  C   UNL A   1      45.979  24.868  28.485  1.00  0.00    -0.040 A 
ATOM     19  C   UNL A   1      47.322  24.465  27.928  1.00  0.00     0.045 C 
BRANCH  14  20
ATOM     20  O   UNL A   1      44.862  26.460  31.572  1.00  0.00    -0.497 OA
ATOM     21  C   UNL A   1      46.193  26.498  32.083  1.00  0.00     0.278 C 
ENDBRANCH  14  20
ENDBRANCH   8  13
BRANCH  12  22
ATOM     22  N   UNL A   1      44.538  22.204  22.793  1.00  0.00    -0.383 N 
ATOM     23  H   UNL A   1      45.242  21.607  22.449  1.00  0.00     0.158 HD
ATOM     24  H   UNL A   1      43.769  22.437  22.224  1.00  0.00     0.158 HD
ENDBRANCH  12  22
ENDBRANCH   5   7
ENDBRANCH   4   5
ENDBRANCH   3   4
ENDBRANCH   2   3
ENDBRANCH   1   2
BRANCH   1  25
ATOM     25  C   UNL A   1      39.717  20.720  26.124  1.00  0.00     0.202 C 
BRANCH  25  26
ATOM     26  C   UNL A   1      40.566  21.964  25.836  1.00  0.00     0.261 C 
BRANCH  26  27
ATOM     27  O   UNL A   1      39.889  23.149  26.318  1.00  0.00    -0.460 OA
BRANCH  27  28
ATOM     28  C   UNL A   1      40.367  23.700  27.472  1.00  0.00     0.338 C 
ATOM     29  O   UNL A   1      40.835  23.079  28.412  1.00  0.00    -0.246 OA
BRANCH  28  30
ATOM     30  C   UNL A   1      39.951  25.134  27.554  1.00  0.00     0.060 A 
ATOM     31  C   UNL A   1      40.427  26.067  26.607  1.00  0.00     0.016 A 
ATOM     32  C   UNL A   1      39.409  25.581  28.755  1.00  0.00     0.016 A 
ATOM     33  C   UNL A   1      40.514  27.429  26.938  1.00  0.00     0.010 A 
ATOM     34  C   UNL A   1      39.624  26.889  29.123  1.00  0.00     0.010 A 
ATOM     35  C   UNL A   1      40.191  27.821  28.234  1.00  0.00    -0.014 A 
BRANCH  35  36
ATOM     36  C   UNL A   1      40.417  29.138  28.838  1.00  0.00     0.031 A 
ATOM     37  C   UNL A   1      39.280  30.076  28.861  1.00  0.00     0.074 A 
ATOM     38  C   UNL A   1      41.493  29.382  29.622  1.00  0.00     0.049 A 
ATOM     39  N   UNL A   1      39.358  31.291  29.270  1.00  0.00    -0.248 NA
ATOM     40  C   UNL A   1      37.953  29.731  28.364  1.00  0.00     0.031 C 
ATOM     41  C   UNL A   1      41.589  30.276  30.778  1.00  0.00     0.029 A 
ATOM     42  N   UNL A   1      42.766  28.822  29.551  1.00  0.00    -0.354 N 
ATOM     43  C   UNL A   1      38.080  31.783  29.385  1.00  0.00     0.074 A 
ATOM     44  C   UNL A   1      37.255  30.814  28.708  1.00  0.00     0.031 C 
ATOM     45  C   UNL A   1      42.874  30.367  31.167  1.00  0.00     0.029 A 
ATOM     46  C   UNL A   1      43.683  29.677  30.179  1.00  0.00     0.049 A 
ATOM     47  H   UNL A   1      42.987  27.962  29.126  1.00  0.00     0.167 HD
ATOM     48  C   UNL A   1      37.890  32.895  30.151  1.00  0.00     0.037 A 
ATOM     49  C   UNL A   1      44.730  30.160  29.457  1.00  0.00     0.037 A 
ATOM     50  C   UNL A   1      39.185  33.392  30.661  1.00  0.00     0.049 A 
ATOM     51  C   UNL A   1      44.519  31.628  29.194  1.00  0.00     0.074 A 
ATOM     52  C   UNL A   1      39.844  33.324  31.879  1.00  0.00     0.029 A 
ATOM     53  N   UNL A   1      40.157  33.774  29.745  1.00  0.00    -0.354 N 
ATOM     54  N   UNL A   1      43.512  32.301  29.681  1.00  0.00    -0.248 NA
ATOM     55  C   UNL A   1      45.355  32.438  28.321  1.00  0.00     0.031 C 
ATOM     56  C   UNL A   1      41.219  33.678  31.667  1.00  0.00     0.029 A 
ATOM     57  C   UNL A   1      41.391  33.995  30.331  1.00  0.00     0.049 A 
ATOM     58  H   UNL A   1      39.986  33.877  28.782  1.00  0.00     0.167 HD
ATOM     59  C   UNL A   1      43.491  33.556  29.173  1.00  0.00     0.074 A 
ATOM     60  C   UNL A   1      44.667  33.594  28.311  1.00  0.00     0.031 C 
ATOM     61  C   UNL A   1      42.498  34.443  29.483  1.00  0.00     0.037 A 
BRANCH  48  62
ATOM     62  C   UNL A   1      36.541  33.427  30.609  1.00  0.00     0.057 A 
ATOM     63  C   UNL A   1      35.612  33.907  29.664  1.00  0.00     0.134 A 
ATOM     64  C   UNL A   1      36.083  33.525  31.940  1.00  0.00     0.134 A 
ATOM     65  F   UNL A   1      35.842  33.822  28.348  1.00  0.00    -0.206 F 
ATOM     66  C   UNL A   1      34.386  34.494  30.018  1.00  0.00     0.040 A 
ATOM     67  C   UNL A   1      34.878  34.141  32.310  1.00  0.00     0.040 A 
ATOM     68  F   UNL A   1      36.729  32.977  32.969  1.00  0.00    -0.206 F 
ATOM     69  C   UNL A   1      34.022  34.635  31.347  1.00  0.00     0.006 A 
ENDBRANCH  48  62
BRANCH  49  70
ATOM     70  C   UNL A   1      45.267  29.126  28.513  1.00  0.00     0.057 A 
ATOM     71  C   UNL A   1      44.733  29.074  27.210  1.00  0.00     0.134 A 
ATOM     72  C   UNL A   1      46.548  28.587  28.685  1.00  0.00     0.134 A 
ATOM     73  F   UNL A   1      43.521  29.590  26.954  1.00  0.00    -0.206 F 
ATOM     74  C   UNL A   1      45.479  28.619  26.114  1.00  0.00     0.040 A 
ATOM     75  C   UNL A   1      47.313  28.153  27.592  1.00  0.00     0.040 A 
ATOM     76  F   UNL A   1      47.141  28.617  29.887  1.00  0.00    -0.206 F 
ATOM     77  C   UNL A   1      46.792  28.196  26.300  1.00  0.00     0.006 A 
ENDBRANCH  49  70
BRANCH  61  78
ATOM     78  C   UNL A   1      42.495  35.827  28.912  1.00  0.00     0.057 A 
ATOM     79  C   UNL A   1      43.255  36.862  29.472  1.00  0.00     0.134 A 
ATOM     80  C   UNL A   1      41.711  36.182  27.800  1.00  0.00     0.134 A 
ATOM     81  F   UNL A   1      43.900  36.699  30.637  1.00  0.00    -0.206 F 
ATOM     82  C   UNL A   1      43.376  38.107  28.857  1.00  0.00     0.040 A 
ATOM     83  C   UNL A   1      41.772  37.444  27.214  1.00  0.00     0.040 A 
ATOM     84  F   UNL A   1      40.870  35.326  27.207  1.00  0.00    -0.206 F 
ATOM     85  C   UNL A   1      42.645  38.396  27.712  1.00  0.00     0.006 A 
ENDBRANCH  61  78
ENDBRANCH  35  36
ENDBRANCH  28  30
ENDBRANCH  27  28
ENDBRANCH  26  27
ENDBRANCH  25  26
ENDBRANCH   1  25
TORSDOF 17
ENDMDL
