MODEL 1
REMARK VINA RESULT:     -11.2      0.000      0.000
REMARK SMILES O=C(C[C@H]1CN(C(=O)c2c(F)cccc2Cl)CCO1)OCCOCCOC(=O)c1ccc(-c2c3nc(c(-c4c(F)cccc4F)c4ccc([nH]4)c(-c4c(F)cccc4F)c4nc(c(-c5c(F)cccc5F)c5ccc2[nH]5)C=C4)C=C3)cc1
REMARK SMILES IDX 22 1 21 2 20 3 2 4 1 5 3 6 4 7 5 8 19 9 6 10 18 11 17 12
REMARK SMILES IDX 7 13 8 14 9 15 10 16 15 17 11 18 12 19 14 20 16 21 13 22
REMARK SMILES IDX 23 23 24 24 25 25 26 26 27 27 28 28 29 29 30 30 82 31 31 32
REMARK SMILES IDX 81 33 32 34 33 35 34 36 75 37 35 38 80 39 74 40 76 41 36 42
REMARK SMILES IDX 79 43 73 44 72 45 37 47 63 48 46 49 62 50 47 51 50 52 61 53
REMARK SMILES IDX 77 54 48 55 49 56 60 58 78 59 51 60 38 61 39 62 44 63 40 64
REMARK SMILES IDX 41 65 43 66 45 67 42 68 64 69 65 70 70 71 66 72 67 73 69 74
REMARK SMILES IDX 71 75 68 76 52 77 53 78 58 79 54 80 55 81 57 82 59 83 56 84
REMARK H PARENT 76 46 50 57
REMARK Flexibility Score: inf
ROOT
ATOM      1  C   UNL A   1      33.275  33.493  28.006  1.00  0.00     0.202 C 
ENDROOT
BRANCH   1   2
ATOM      2  C   UNL A   1      33.925  32.104  27.981  1.00  0.00     0.261 C 
BRANCH   2   3
ATOM      3  O   UNL A   1      33.440  31.169  27.000  1.00  0.00    -0.463 OA
BRANCH   3   4
ATOM      4  C   UNL A   1      33.764  29.866  26.890  1.00  0.00     0.308 C 
ATOM      5  O   UNL A   1      34.526  29.351  27.708  1.00  0.00    -0.252 OA
BRANCH   4   6
ATOM      6  C   UNL A   1      33.194  29.055  25.770  1.00  0.00     0.156 C 
BRANCH   6   7
ATOM      7  C   UNL A   1      32.564  27.683  26.066  1.00  0.00     0.148 C 
ATOM      8  C   UNL A   1      31.312  27.174  25.321  1.00  0.00     0.152 C 
ATOM      9  O   UNL A   1      33.588  26.659  25.958  1.00  0.00    -0.374 OA
ATOM     10  N   UNL A   1      31.593  26.961  23.905  1.00  0.00    -0.334 N 
ATOM     11  C   UNL A   1      33.949  26.375  24.598  1.00  0.00     0.182 C 
ATOM     12  C   UNL A   1      32.747  26.066  23.690  1.00  0.00     0.148 C 
BRANCH  10  13
ATOM     13  C   UNL A   1      30.832  27.344  22.793  1.00  0.00     0.258 C 
ATOM     14  O   UNL A   1      31.019  26.787  21.707  1.00  0.00    -0.269 OA
BRANCH  13  15
ATOM     15  C   UNL A   1      29.767  28.393  22.824  1.00  0.00     0.094 A 
ATOM     16  C   UNL A   1      29.960  29.676  22.314  1.00  0.00     0.137 A 
ATOM     17  C   UNL A   1      28.458  28.073  23.227  1.00  0.00     0.056 A 
ATOM     18  F   UNL A   1      31.143  30.069  21.852  1.00  0.00    -0.206 F 
ATOM     19  C   UNL A   1      28.939  30.625  22.230  1.00  0.00     0.040 A 
ATOM     20  C   UNL A   1      27.414  29.011  23.112  1.00  0.00     0.021 A 
ATOM     21  Cl  UNL A   1      28.023  26.549  23.930  1.00  0.00    -0.083 Cl
ATOM     22  C   UNL A   1      27.654  30.289  22.616  1.00  0.00     0.005 A 
ENDBRANCH  13  15
ENDBRANCH  10  13
ENDBRANCH   6   7
ENDBRANCH   4   6
ENDBRANCH   3   4
ENDBRANCH   2   3
ENDBRANCH   1   2
BRANCH   1  23
ATOM     23  O   UNL A   1      33.715  34.447  28.957  1.00  0.00    -0.374 OA
BRANCH  23  24
ATOM     24  C   UNL A   1      34.833  34.150  29.785  1.00  0.00     0.202 C 
BRANCH  24  25
ATOM     25  C   UNL A   1      34.593  33.913  31.277  1.00  0.00     0.261 C 
BRANCH  25  26
ATOM     26  O   UNL A   1      34.549  32.523  31.640  1.00  0.00    -0.460 OA
BRANCH  26  27
ATOM     27  C   UNL A   1      35.509  32.137  32.508  1.00  0.00     0.338 C 
ATOM     28  O   UNL A   1      35.595  32.420  33.698  1.00  0.00    -0.246 OA
BRANCH  27  29
ATOM     29  C   UNL A   1      36.437  31.187  31.876  1.00  0.00     0.060 A 
ATOM     30  C   UNL A   1      37.573  30.809  32.601  1.00  0.00     0.016 A 
ATOM     31  C   UNL A   1      36.289  30.823  30.536  1.00  0.00     0.016 A 
ATOM     32  C   UNL A   1      38.603  30.122  31.967  1.00  0.00     0.010 A 
ATOM     33  C   UNL A   1      37.332  30.146  29.896  1.00  0.00     0.010 A 
ATOM     34  C   UNL A   1      38.514  29.842  30.597  1.00  0.00    -0.014 A 
BRANCH  34  35
ATOM     35  C   UNL A   1      39.743  29.438  29.873  1.00  0.00     0.031 A 
ATOM     36  C   UNL A   1      40.840  30.452  29.694  1.00  0.00     0.074 A 
ATOM     37  C   UNL A   1      39.911  28.174  29.449  1.00  0.00     0.049 A 
ATOM     38  N   UNL A   1      42.008  30.323  29.116  1.00  0.00    -0.248 NA
ATOM     39  C   UNL A   1      40.588  31.794  30.244  1.00  0.00     0.031 C 
ATOM     40  C   UNL A   1      38.938  27.095  29.599  1.00  0.00     0.029 A 
ATOM     41  N   UNL A   1      40.972  27.591  28.804  1.00  0.00    -0.354 N 
ATOM     42  C   UNL A   1      42.629  31.559  29.242  1.00  0.00     0.074 A 
ATOM     43  C   UNL A   1      41.699  32.437  29.916  1.00  0.00     0.031 C 
ATOM     44  C   UNL A   1      39.444  25.977  29.047  1.00  0.00     0.029 A 
ATOM     45  C   UNL A   1      40.765  26.270  28.493  1.00  0.00     0.049 A 
ATOM     46  H   UNL A   1      41.802  28.073  28.586  1.00  0.00     0.167 HD
ATOM     47  C   UNL A   1      43.871  31.927  28.844  1.00  0.00     0.037 A 
ATOM     48  C   UNL A   1      41.549  25.404  27.823  1.00  0.00     0.037 A 
ATOM     49  C   UNL A   1      44.793  31.060  28.161  1.00  0.00     0.049 A 
ATOM     50  C   UNL A   1      42.902  25.853  27.339  1.00  0.00     0.074 A 
ATOM     51  C   UNL A   1      46.065  31.344  27.697  1.00  0.00     0.029 A 
ATOM     52  N   UNL A   1      44.537  29.735  27.844  1.00  0.00    -0.354 N 
ATOM     53  N   UNL A   1      43.482  27.023  27.466  1.00  0.00    -0.248 NA
ATOM     54  C   UNL A   1      43.713  24.858  26.623  1.00  0.00     0.031 C 
ATOM     55  C   UNL A   1      46.567  30.199  27.068  1.00  0.00     0.029 A 
ATOM     56  C   UNL A   1      45.623  29.190  27.178  1.00  0.00     0.049 A 
ATOM     57  H   UNL A   1      43.707  29.253  28.058  1.00  0.00     0.167 HD
ATOM     58  C   UNL A   1      44.729  26.898  26.866  1.00  0.00     0.074 A 
ATOM     59  C   UNL A   1      44.831  25.533  26.394  1.00  0.00     0.031 C 
ATOM     60  C   UNL A   1      45.704  27.829  26.716  1.00  0.00     0.037 A 
BRANCH  47  61
ATOM     61  C   UNL A   1      44.291  33.339  29.127  1.00  0.00     0.057 A 
ATOM     62  C   UNL A   1      44.937  33.688  30.321  1.00  0.00     0.134 A 
ATOM     63  C   UNL A   1      44.065  34.356  28.193  1.00  0.00     0.134 A 
ATOM     64  F   UNL A   1      45.167  32.763  31.265  1.00  0.00    -0.206 F 
ATOM     65  C   UNL A   1      45.326  35.003  30.582  1.00  0.00     0.040 A 
ATOM     66  C   UNL A   1      44.469  35.671  28.433  1.00  0.00     0.040 A 
ATOM     67  F   UNL A   1      43.453  34.089  27.030  1.00  0.00    -0.206 F 
ATOM     68  C   UNL A   1      45.098  35.998  29.634  1.00  0.00     0.006 A 
ENDBRANCH  47  61
BRANCH  48  69
ATOM     69  C   UNL A   1      41.071  24.026  27.554  1.00  0.00     0.057 A 
ATOM     70  C   UNL A   1      40.079  23.768  26.603  1.00  0.00     0.134 A 
ATOM     71  C   UNL A   1      41.581  22.934  28.269  1.00  0.00     0.134 A 
ATOM     72  F   UNL A   1      39.534  24.776  25.905  1.00  0.00    -0.206 F 
ATOM     73  C   UNL A   1      39.596  22.477  26.383  1.00  0.00     0.040 A 
ATOM     74  C   UNL A   1      41.124  21.635  28.041  1.00  0.00     0.040 A 
ATOM     75  F   UNL A   1      42.530  23.116  29.197  1.00  0.00    -0.206 F 
ATOM     76  C   UNL A   1      40.123  21.405  27.100  1.00  0.00     0.006 A 
ENDBRANCH  48  69
BRANCH  60  77
ATOM     77  C   UNL A   1      46.967  27.391  26.033  1.00  0.00     0.057 A 
ATOM     78  C   UNL A   1      48.045  26.859  26.750  1.00  0.00     0.134 A 
ATOM     79  C   UNL A   1      47.095  27.484  24.642  1.00  0.00     0.134 A 
ATOM     80  F   UNL A   1      47.989  26.754  28.087  1.00  0.00    -0.206 F 
ATOM     81  C   UNL A   1      49.220  26.462  26.110  1.00  0.00     0.040 A 
ATOM     82  C   UNL A   1      48.256  27.069  23.988  1.00  0.00     0.040 A 
ATOM     83  F   UNL A   1      46.095  27.976  23.896  1.00  0.00    -0.206 F 
ATOM     84  C   UNL A   1      49.325  26.563  24.724  1.00  0.00     0.006 A 
ENDBRANCH  60  77
ENDBRANCH  34  35
ENDBRANCH  27  29
ENDBRANCH  26  27
ENDBRANCH  25  26
ENDBRANCH  24  25
ENDBRANCH  23  24
ENDBRANCH   1  23
TORSDOF 17
ENDMDL
MODEL 2
REMARK VINA RESULT:     -11.0      4.063      6.595
REMARK SMILES O=C(C[C@H]1CN(C(=O)c2c(F)cccc2Cl)CCO1)OCCOCCOC(=O)c1ccc(-c2c3nc(c(-c4c(F)cccc4F)c4ccc([nH]4)c(-c4c(F)cccc4F)c4nc(c(-c5c(F)cccc5F)c5ccc2[nH]5)C=C4)C=C3)cc1
REMARK SMILES IDX 22 1 21 2 20 3 2 4 1 5 3 6 4 7 5 8 19 9 6 10 18 11 17 12
REMARK SMILES IDX 7 13 8 14 9 15 10 16 15 17 11 18 12 19 14 20 16 21 13 22
REMARK SMILES IDX 23 23 24 24 25 25 26 26 27 27 28 28 29 29 30 30 82 31 31 32
REMARK SMILES IDX 81 33 32 34 33 35 34 36 75 37 35 38 80 39 74 40 76 41 36 42
REMARK SMILES IDX 79 43 73 44 72 45 37 47 63 48 46 49 62 50 47 51 50 52 61 53
REMARK SMILES IDX 77 54 48 55 49 56 60 58 78 59 51 60 38 61 39 62 44 63 40 64
REMARK SMILES IDX 41 65 43 66 45 67 42 68 64 69 65 70 70 71 66 72 67 73 69 74
REMARK SMILES IDX 71 75 68 76 52 77 53 78 58 79 54 80 55 81 57 82 59 83 56 84
REMARK H PARENT 76 46 50 57
REMARK Flexibility Score: inf
ROOT
ATOM      1  C   UNL A   1      32.747  29.431  27.253  1.00  0.00     0.202 C 
ENDROOT
BRANCH   1   2
ATOM      2  C   UNL A   1      31.457  28.633  27.487  1.00  0.00     0.261 C 
BRANCH   2   3
ATOM      3  O   UNL A   1      31.531  27.204  27.335  1.00  0.00    -0.463 OA
BRANCH   3   4
ATOM      4  C   UNL A   1      30.912  26.453  26.404  1.00  0.00     0.308 C 
ATOM      5  O   UNL A   1      29.918  25.794  26.708  1.00  0.00    -0.252 OA
BRANCH   4   6
ATOM      6  C   UNL A   1      31.441  26.426  25.005  1.00  0.00     0.156 C 
BRANCH   6   7
ATOM      7  C   UNL A   1      32.908  26.807  24.738  1.00  0.00     0.148 C 
ATOM      8  C   UNL A   1      33.968  25.765  24.326  1.00  0.00     0.152 C 
ATOM      9  O   UNL A   1      32.946  27.884  23.765  1.00  0.00    -0.374 OA
ATOM     10  N   UNL A   1      33.668  25.201  23.013  1.00  0.00    -0.334 N 
ATOM     11  C   UNL A   1      32.656  27.439  22.432  1.00  0.00     0.182 C 
ATOM     12  C   UNL A   1      33.507  26.241  21.979  1.00  0.00     0.148 C 
BRANCH  10  13
ATOM     13  C   UNL A   1      33.688  23.859  22.610  1.00  0.00     0.258 C 
ATOM     14  O   UNL A   1      33.591  23.583  21.411  1.00  0.00    -0.269 OA
BRANCH  13  15
ATOM     15  C   UNL A   1      33.838  22.703  23.545  1.00  0.00     0.094 A 
ATOM     16  C   UNL A   1      32.766  21.894  23.921  1.00  0.00     0.137 A 
ATOM     17  C   UNL A   1      35.114  22.280  23.962  1.00  0.00     0.056 A 
ATOM     18  F   UNL A   1      31.524  22.166  23.537  1.00  0.00    -0.206 F 
ATOM     19  C   UNL A   1      32.915  20.743  24.697  1.00  0.00     0.040 A 
ATOM     20  C   UNL A   1      35.277  21.101  24.715  1.00  0.00     0.021 A 
ATOM     21  Cl  UNL A   1      36.566  23.171  23.639  1.00  0.00    -0.083 Cl
ATOM     22  C   UNL A   1      34.178  20.332  25.086  1.00  0.00     0.005 A 
ENDBRANCH  13  15
ENDBRANCH  10  13
ENDBRANCH   6   7
ENDBRANCH   4   6
ENDBRANCH   3   4
ENDBRANCH   2   3
ENDBRANCH   1   2
BRANCH   1  23
ATOM     23  O   UNL A   1      32.692  30.632  26.503  1.00  0.00    -0.374 OA
BRANCH  23  24
ATOM     24  C   UNL A   1      31.661  31.577  26.765  1.00  0.00     0.202 C 
BRANCH  24  25
ATOM     25  C   UNL A   1      32.037  33.056  26.868  1.00  0.00     0.261 C 
BRANCH  25  26
ATOM     26  O   UNL A   1      32.262  33.500  28.217  1.00  0.00    -0.460 OA
BRANCH  26  27
ATOM     27  C   UNL A   1      33.395  34.213  28.394  1.00  0.00     0.338 C 
ATOM     28  O   UNL A   1      33.495  35.423  28.568  1.00  0.00    -0.246 OA
BRANCH  27  29
ATOM     29  C   UNL A   1      34.564  33.326  28.482  1.00  0.00     0.060 A 
ATOM     30  C   UNL A   1      34.390  32.080  29.095  1.00  0.00     0.016 A 
ATOM     31  C   UNL A   1      35.839  33.782  28.139  1.00  0.00     0.016 A 
ATOM     32  C   UNL A   1      35.500  31.311  29.433  1.00  0.00     0.010 A 
ATOM     33  C   UNL A   1      36.955  33.016  28.493  1.00  0.00     0.010 A 
ATOM     34  C   UNL A   1      36.788  31.804  29.188  1.00  0.00    -0.014 A 
BRANCH  34  35
ATOM     35  C   UNL A   1      37.937  31.152  29.861  1.00  0.00     0.031 A 
ATOM     36  C   UNL A   1      38.205  31.476  31.306  1.00  0.00     0.074 A 
ATOM     37  C   UNL A   1      38.682  30.234  29.222  1.00  0.00     0.049 A 
ATOM     38  N   UNL A   1      39.134  31.015  32.105  1.00  0.00    -0.248 NA
ATOM     39  C   UNL A   1      37.299  32.449  31.938  1.00  0.00     0.031 C 
ATOM     40  C   UNL A   1      38.496  29.809  27.837  1.00  0.00     0.029 A 
ATOM     41  N   UNL A   1      39.748  29.494  29.667  1.00  0.00    -0.354 N 
ATOM     42  C   UNL A   1      38.919  31.633  33.330  1.00  0.00     0.074 A 
ATOM     43  C   UNL A   1      37.797  32.530  33.164  1.00  0.00     0.031 C 
ATOM     44  C   UNL A   1      39.429  28.887  27.538  1.00  0.00     0.029 A 
ATOM     45  C   UNL A   1      40.285  28.674  28.705  1.00  0.00     0.049 A 
ATOM     46  H   UNL A   1      40.095  29.545  30.587  1.00  0.00     0.167 HD
ATOM     47  C   UNL A   1      39.588  31.461  34.496  1.00  0.00     0.037 A 
ATOM     48  C   UNL A   1      41.354  27.858  28.761  1.00  0.00     0.037 A 
ATOM     49  C   UNL A   1      40.713  30.580  34.661  1.00  0.00     0.049 A 
ATOM     50  C   UNL A   1      42.118  27.726  30.052  1.00  0.00     0.074 A 
ATOM     51  C   UNL A   1      41.472  30.350  35.795  1.00  0.00     0.029 A 
ATOM     52  N   UNL A   1      41.241  29.783  33.656  1.00  0.00    -0.354 N 
ATOM     53  N   UNL A   1      41.904  28.311  31.206  1.00  0.00    -0.248 NA
ATOM     54  C   UNL A   1      43.269  26.811  30.050  1.00  0.00     0.031 C 
ATOM     55  C   UNL A   1      42.482  29.438  35.467  1.00  0.00     0.029 A 
ATOM     56  C   UNL A   1      42.324  29.069  34.141  1.00  0.00     0.049 A 
ATOM     57  H   UNL A   1      40.897  29.733  32.736  1.00  0.00     0.167 HD
ATOM     58  C   UNL A   1      42.878  27.824  32.069  1.00  0.00     0.074 A 
ATOM     59  C   UNL A   1      43.670  26.878  31.311  1.00  0.00     0.031 C 
ATOM     60  C   UNL A   1      43.100  28.132  33.370  1.00  0.00     0.037 A 
BRANCH  47  61
ATOM     61  C   UNL A   1      39.122  32.257  35.678  1.00  0.00     0.057 A 
ATOM     62  C   UNL A   1      39.535  33.580  35.882  1.00  0.00     0.134 A 
ATOM     63  C   UNL A   1      38.237  31.705  36.612  1.00  0.00     0.134 A 
ATOM     64  F   UNL A   1      40.396  34.162  35.033  1.00  0.00    -0.206 F 
ATOM     65  C   UNL A   1      39.100  34.319  36.983  1.00  0.00     0.040 A 
ATOM     66  C   UNL A   1      37.777  32.441  37.705  1.00  0.00     0.040 A 
ATOM     67  F   UNL A   1      37.801  30.444  36.474  1.00  0.00    -0.206 F 
ATOM     68  C   UNL A   1      38.213  33.752  37.895  1.00  0.00     0.006 A 
ENDBRANCH  47  61
BRANCH  48  69
ATOM     69  C   UNL A   1      41.780  27.110  27.553  1.00  0.00     0.057 A 
ATOM     70  C   UNL A   1      42.599  27.695  26.581  1.00  0.00     0.134 A 
ATOM     71  C   UNL A   1      41.350  25.796  27.330  1.00  0.00     0.134 A 
ATOM     72  F   UNL A   1      43.021  28.960  26.727  1.00  0.00    -0.206 F 
ATOM     73  C   UNL A   1      42.962  27.008  25.422  1.00  0.00     0.040 A 
ATOM     74  C   UNL A   1      41.726  25.088  26.187  1.00  0.00     0.040 A 
ATOM     75  F   UNL A   1      40.560  25.181  28.221  1.00  0.00    -0.206 F 
ATOM     76  C   UNL A   1      42.529  25.698  25.225  1.00  0.00     0.006 A 
ENDBRANCH  48  69
BRANCH  60  77
ATOM     77  C   UNL A   1      44.230  27.421  34.056  1.00  0.00     0.057 A 
ATOM     78  C   UNL A   1      45.516  27.972  34.121  1.00  0.00     0.134 A 
ATOM     79  C   UNL A   1      44.022  26.183  34.677  1.00  0.00     0.134 A 
ATOM     80  F   UNL A   1      45.782  29.151  33.538  1.00  0.00    -0.206 F 
ATOM     81  C   UNL A   1      46.563  27.301  34.754  1.00  0.00     0.040 A 
ATOM     82  C   UNL A   1      45.057  25.514  35.332  1.00  0.00     0.040 A 
ATOM     83  F   UNL A   1      42.812  25.605  34.659  1.00  0.00    -0.206 F 
ATOM     84  C   UNL A   1      46.334  26.070  35.365  1.00  0.00     0.006 A 
ENDBRANCH  60  77
ENDBRANCH  34  35
ENDBRANCH  27  29
ENDBRANCH  26  27
ENDBRANCH  25  26
ENDBRANCH  24  25
ENDBRANCH  23  24
ENDBRANCH   1  23
TORSDOF 17
ENDMDL
MODEL 3
REMARK VINA RESULT:     -11.0      4.082      8.077
REMARK SMILES O=C(C[C@H]1CN(C(=O)c2c(F)cccc2Cl)CCO1)OCCOCCOC(=O)c1ccc(-c2c3nc(c(-c4c(F)cccc4F)c4ccc([nH]4)c(-c4c(F)cccc4F)c4nc(c(-c5c(F)cccc5F)c5ccc2[nH]5)C=C4)C=C3)cc1
REMARK SMILES IDX 22 1 21 2 20 3 2 4 1 5 3 6 4 7 5 8 19 9 6 10 18 11 17 12
REMARK SMILES IDX 7 13 8 14 9 15 10 16 15 17 11 18 12 19 14 20 16 21 13 22
REMARK SMILES IDX 23 23 24 24 25 25 26 26 27 27 28 28 29 29 30 30 82 31 31 32
REMARK SMILES IDX 81 33 32 34 33 35 34 36 75 37 35 38 80 39 74 40 76 41 36 42
REMARK SMILES IDX 79 43 73 44 72 45 37 47 63 48 46 49 62 50 47 51 50 52 61 53
REMARK SMILES IDX 77 54 48 55 49 56 60 58 78 59 51 60 38 61 39 62 44 63 40 64
REMARK SMILES IDX 41 65 43 66 45 67 42 68 64 69 65 70 70 71 66 72 67 73 69 74
REMARK SMILES IDX 71 75 68 76 52 77 53 78 58 79 54 80 55 81 57 82 59 83 56 84
REMARK H PARENT 76 46 50 57
REMARK Flexibility Score: inf
ROOT
ATOM      1  C   UNL A   1      31.770  29.637  25.429  1.00  0.00     0.202 C 
ENDROOT
BRANCH   1   2
ATOM      2  C   UNL A   1      32.855  28.954  24.587  1.00  0.00     0.261 C 
BRANCH   2   3
ATOM      3  O   UNL A   1      32.511  28.596  23.236  1.00  0.00    -0.463 OA
BRANCH   3   4
ATOM      4  C   UNL A   1      31.665  27.625  22.844  1.00  0.00     0.308 C 
ATOM      5  O   UNL A   1      30.786  27.872  22.019  1.00  0.00    -0.252 OA
BRANCH   4   6
ATOM      6  C   UNL A   1      31.800  26.250  23.419  1.00  0.00     0.156 C 
BRANCH   6   7
ATOM      7  C   UNL A   1      30.559  25.349  23.539  1.00  0.00     0.148 C 
ATOM      8  C   UNL A   1      30.660  23.810  23.593  1.00  0.00     0.152 C 
ATOM      9  O   UNL A   1      29.771  25.779  24.680  1.00  0.00    -0.374 OA
ATOM     10  N   UNL A   1      31.342  23.372  24.807  1.00  0.00    -0.334 N 
ATOM     11  C   UNL A   1      30.358  25.404  25.935  1.00  0.00     0.182 C 
ATOM     12  C   UNL A   1      30.716  23.911  26.029  1.00  0.00     0.148 C 
BRANCH  10  13
ATOM     13  C   UNL A   1      32.354  22.412  24.945  1.00  0.00     0.258 C 
ATOM     14  O   UNL A   1      32.051  21.241  25.193  1.00  0.00    -0.269 OA
BRANCH  13  15
ATOM     15  C   UNL A   1      33.813  22.701  24.795  1.00  0.00     0.094 A 
ATOM     16  C   UNL A   1      34.414  22.919  23.556  1.00  0.00     0.137 A 
ATOM     17  C   UNL A   1      34.618  22.927  25.927  1.00  0.00     0.056 A 
ATOM     18  F   UNL A   1      33.733  22.789  22.423  1.00  0.00    -0.206 F 
ATOM     19  C   UNL A   1      35.747  23.306  23.413  1.00  0.00     0.040 A 
ATOM     20  C   UNL A   1      35.953  23.353  25.793  1.00  0.00     0.021 A 
ATOM     21  Cl  UNL A   1      34.073  22.667  27.552  1.00  0.00    -0.083 Cl
ATOM     22  C   UNL A   1      36.521  23.540  24.536  1.00  0.00     0.005 A 
ENDBRANCH  13  15
ENDBRANCH  10  13
ENDBRANCH   6   7
ENDBRANCH   4   6
ENDBRANCH   3   4
ENDBRANCH   2   3
ENDBRANCH   1   2
BRANCH   1  23
ATOM     23  O   UNL A   1      32.135  30.682  26.315  1.00  0.00    -0.374 OA
BRANCH  23  24
ATOM     24  C   UNL A   1      31.271  31.801  26.474  1.00  0.00     0.202 C 
BRANCH  24  25
ATOM     25  C   UNL A   1      31.898  33.181  26.687  1.00  0.00     0.261 C 
BRANCH  25  26
ATOM     26  O   UNL A   1      32.221  33.460  28.060  1.00  0.00    -0.460 OA
BRANCH  26  27
ATOM     27  C   UNL A   1      33.307  34.244  28.235  1.00  0.00     0.338 C 
ATOM     28  O   UNL A   1      33.338  35.467  28.320  1.00  0.00    -0.246 OA
BRANCH  27  29
ATOM     29  C   UNL A   1      34.513  33.429  28.444  1.00  0.00     0.060 A 
ATOM     30  C   UNL A   1      34.340  32.116  28.897  1.00  0.00     0.016 A 
ATOM     31  C   UNL A   1      35.786  33.999  28.374  1.00  0.00     0.016 A 
ATOM     32  C   UNL A   1      35.435  31.389  29.352  1.00  0.00     0.010 A 
ATOM     33  C   UNL A   1      36.885  33.272  28.845  1.00  0.00     0.010 A 
ATOM     34  C   UNL A   1      36.703  31.986  29.384  1.00  0.00    -0.014 A 
BRANCH  34  35
ATOM     35  C   UNL A   1      37.771  31.341  30.184  1.00  0.00     0.031 A 
ATOM     36  C   UNL A   1      38.668  30.337  29.512  1.00  0.00     0.074 A 
ATOM     37  C   UNL A   1      37.988  31.696  31.462  1.00  0.00     0.049 A 
ATOM     38  N   UNL A   1      39.679  29.663  30.002  1.00  0.00    -0.248 NA
ATOM     39  C   UNL A   1      38.391  30.057  28.094  1.00  0.00     0.031 C 
ATOM     40  C   UNL A   1      37.212  32.683  32.209  1.00  0.00     0.029 A 
ATOM     41  N   UNL A   1      38.933  31.259  32.354  1.00  0.00    -0.354 N 
ATOM     42  C   UNL A   1      40.160  28.890  28.952  1.00  0.00     0.074 A 
ATOM     43  C   UNL A   1      39.311  29.146  27.810  1.00  0.00     0.031 C 
ATOM     44  C   UNL A   1      37.707  32.769  33.456  1.00  0.00     0.029 A 
ATOM     45  C   UNL A   1      38.820  31.831  33.597  1.00  0.00     0.049 A 
ATOM     46  H   UNL A   1      39.627  30.599  32.125  1.00  0.00     0.167 HD
ATOM     47  C   UNL A   1      41.223  28.050  28.937  1.00  0.00     0.037 A 
ATOM     48  C   UNL A   1      39.527  31.607  34.721  1.00  0.00     0.037 A 
ATOM     49  C   UNL A   1      42.060  27.782  30.076  1.00  0.00     0.049 A 
ATOM     50  C   UNL A   1      40.667  30.626  34.695  1.00  0.00     0.074 A 
ATOM     51  C   UNL A   1      43.147  26.932  30.168  1.00  0.00     0.029 A 
ATOM     52  N   UNL A   1      41.898  28.364  31.324  1.00  0.00    -0.354 N 
ATOM     53  N   UNL A   1      41.118  29.903  33.697  1.00  0.00    -0.248 NA
ATOM     54  C   UNL A   1      41.406  30.435  35.953  1.00  0.00     0.031 C 
ATOM     55  C   UNL A   1      43.624  26.974  31.484  1.00  0.00     0.029 A 
ATOM     56  C   UNL A   1      42.859  27.883  32.198  1.00  0.00     0.049 A 
ATOM     57  H   UNL A   1      41.203  29.021  31.555  1.00  0.00     0.167 HD
ATOM     58  C   UNL A   1      42.198  29.188  34.199  1.00  0.00     0.074 A 
ATOM     59  C   UNL A   1      42.351  29.581  35.585  1.00  0.00     0.031 C 
ATOM     60  C   UNL A   1      42.993  28.286  33.573  1.00  0.00     0.037 A 
BRANCH  47  61
ATOM     61  C   UNL A   1      41.524  27.350  27.646  1.00  0.00     0.057 A 
ATOM     62  C   UNL A   1      42.313  27.947  26.653  1.00  0.00     0.134 A 
ATOM     63  C   UNL A   1      41.039  26.061  27.397  1.00  0.00     0.134 A 
ATOM     64  F   UNL A   1      42.794  29.187  26.822  1.00  0.00    -0.206 F 
ATOM     65  C   UNL A   1      42.592  27.293  25.451  1.00  0.00     0.040 A 
ATOM     66  C   UNL A   1      41.329  25.388  26.209  1.00  0.00     0.040 A 
ATOM     67  F   UNL A   1      40.279  25.433  28.307  1.00  0.00    -0.206 F 
ATOM     68  C   UNL A   1      42.104  26.007  25.230  1.00  0.00     0.006 A 
ENDBRANCH  47  61
BRANCH  48  69
ATOM     69  C   UNL A   1      39.168  32.315  35.975  1.00  0.00     0.057 A 
ATOM     70  C   UNL A   1      38.296  31.749  36.910  1.00  0.00     0.134 A 
ATOM     71  C   UNL A   1      39.673  33.592  36.251  1.00  0.00     0.134 A 
ATOM     72  F   UNL A   1      37.760  30.539  36.689  1.00  0.00    -0.206 F 
ATOM     73  C   UNL A   1      37.922  32.434  38.067  1.00  0.00     0.040 A 
ATOM     74  C   UNL A   1      39.326  34.278  37.416  1.00  0.00     0.040 A 
ATOM     75  F   UNL A   1      40.510  34.190  35.392  1.00  0.00    -0.206 F 
ATOM     76  C   UNL A   1      38.442  33.701  38.325  1.00  0.00     0.006 A 
ENDBRANCH  48  69
BRANCH  60  77
ATOM     77  C   UNL A   1      44.108  27.684  34.378  1.00  0.00     0.057 A 
ATOM     78  C   UNL A   1      45.363  28.298  34.473  1.00  0.00     0.134 A 
ATOM     79  C   UNL A   1      43.916  26.488  35.081  1.00  0.00     0.134 A 
ATOM     80  F   UNL A   1      45.614  29.439  33.814  1.00  0.00    -0.206 F 
ATOM     81  C   UNL A   1      46.398  27.727  35.216  1.00  0.00     0.040 A 
ATOM     82  C   UNL A   1      44.936  25.921  35.846  1.00  0.00     0.040 A 
ATOM     83  F   UNL A   1      42.734  25.855  35.039  1.00  0.00    -0.206 F 
ATOM     84  C   UNL A   1      46.183  26.537  35.908  1.00  0.00     0.006 A 
ENDBRANCH  60  77
ENDBRANCH  34  35
ENDBRANCH  27  29
ENDBRANCH  26  27
ENDBRANCH  25  26
ENDBRANCH  24  25
ENDBRANCH  23  24
ENDBRANCH   1  23
TORSDOF 17
ENDMDL
