MODEL 1
REMARK VINA RESULT:      -8.8      0.000      0.000
REMARK SMILES CC1(C)CSC[C@H](Nc2cc(C(=O)OCCOCCOC(=O)c3ccc(-c4c5nc(c(-c6c(F)cccc6F)c6ccc([nH]6)c(-c6c(F)cccc6F)c6nc(c(-c7c(F)cccc7F)c7ccc4[nH]7)C=C6)C=C5)cc3)ccc2F)C1
REMARK SMILES IDX 17 1 16 2 15 3 14 4 12 5 13 6 11 7 9 8 10 9 79 10 78 11
REMARK SMILES IDX 80 12 77 13 8 14 7 16 1 17 2 18 3 19 4 20 81 21 5 22 6 23
REMARK SMILES IDX 18 24 19 25 20 26 21 27 22 28 23 29 24 30 76 31 25 32 75 33
REMARK SMILES IDX 26 34 27 35 28 36 69 37 29 38 74 39 68 40 70 41 30 42 73 43
REMARK SMILES IDX 67 44 66 45 31 47 57 48 40 49 56 50 41 51 44 52 55 53 71 54
REMARK SMILES IDX 42 55 43 56 54 58 72 59 45 60 32 61 33 62 38 63 34 64 35 65
REMARK SMILES IDX 37 66 39 67 36 68 58 69 59 70 64 71 60 72 61 73 63 74 65 75
REMARK SMILES IDX 62 76 46 77 47 78 52 79 48 80 49 81 51 82 53 83 50 84
REMARK H PARENT 8 15 70 46 44 57
REMARK Flexibility Score: inf
ROOT
ATOM      1  O   UNL A   1      34.977  35.739  33.290  1.00  0.00    -0.374 OA
ENDROOT
BRANCH   1   2
ATOM      2  C   UNL A   1      34.827  34.466  33.922  1.00  0.00     0.202 C 
BRANCH   2   3
ATOM      3  C   UNL A   1      36.040  33.950  34.698  1.00  0.00     0.261 C 
BRANCH   3   4
ATOM      4  O   UNL A   1      36.397  32.631  34.254  1.00  0.00    -0.460 OA
BRANCH   4   5
ATOM      5  C   UNL A   1      37.724  32.383  34.262  1.00  0.00     0.338 C 
ATOM      6  O   UNL A   1      38.599  33.056  34.788  1.00  0.00    -0.246 OA
BRANCH   5   7
ATOM      7  C   UNL A   1      37.992  31.044  33.700  1.00  0.00     0.062 A 
ATOM      8  C   UNL A   1      39.700  29.365  33.288  1.00  0.00     0.071 A 
ATOM      9  C   UNL A   1      39.280  30.539  33.913  1.00  0.00     0.044 A 
ATOM     10  C   UNL A   1      38.767  28.669  32.501  1.00  0.00     0.146 A 
ATOM     11  C   UNL A   1      37.455  29.125  32.350  1.00  0.00     0.042 A 
ATOM     12  F   UNL A   1      39.139  27.564  31.837  1.00  0.00    -0.205 F 
ATOM     13  C   UNL A   1      37.064  30.328  32.941  1.00  0.00     0.019 A 
BRANCH   8  14
ATOM     14  N   UNL A   1      41.079  29.114  33.253  1.00  0.00    -0.379 N 
ATOM     15  H   UNL A   1      41.599  29.139  32.418  1.00  0.00     0.160 HD
BRANCH  14  16
ATOM     16  C   UNL A   1      41.697  28.809  34.561  1.00  0.00     0.089 C 
ATOM     17  C   UNL A   1      43.340  30.068  36.969  1.00  0.00     0.012 C 
ATOM     18  C   UNL A   1      43.922  29.136  35.880  1.00  0.00    -0.024 C 
ATOM     19  C   UNL A   1      45.397  29.526  35.650  1.00  0.00     0.012 C 
ATOM     20  C   UNL A   1      43.924  27.661  36.345  1.00  0.00     0.076 C 
ATOM     21  C   UNL A   1      43.153  29.322  34.544  1.00  0.00     0.033 C 
ATOM     22  S   UNL A   1      42.282  26.926  36.526  1.00  0.00    -0.159 SA
ATOM     23  C   UNL A   1      41.667  27.294  34.863  1.00  0.00     0.094 C 
ENDBRANCH  14  16
ENDBRANCH   8  14
ENDBRANCH   5   7
ENDBRANCH   4   5
ENDBRANCH   3   4
ENDBRANCH   2   3
ENDBRANCH   1   2
BRANCH   1  24
ATOM     24  C   UNL A   1      33.785  36.451  32.953  1.00  0.00     0.202 C 
BRANCH  24  25
ATOM     25  C   UNL A   1      32.945  35.886  31.803  1.00  0.00     0.261 C 
BRANCH  25  26
ATOM     26  O   UNL A   1      33.593  36.049  30.530  1.00  0.00    -0.460 OA
BRANCH  26  27
ATOM     27  C   UNL A   1      33.382  35.034  29.659  1.00  0.00     0.338 C 
ATOM     28  O   UNL A   1      32.423  34.883  28.917  1.00  0.00    -0.246 OA
BRANCH  27  29
ATOM     29  C   UNL A   1      34.577  34.175  29.580  1.00  0.00     0.060 A 
ATOM     30  C   UNL A   1      34.785  33.268  30.628  1.00  0.00     0.016 A 
ATOM     31  C   UNL A   1      35.515  34.300  28.553  1.00  0.00     0.016 A 
ATOM     32  C   UNL A   1      35.962  32.531  30.687  1.00  0.00     0.010 A 
ATOM     33  C   UNL A   1      36.702  33.560  28.617  1.00  0.00     0.010 A 
ATOM     34  C   UNL A   1      36.948  32.706  29.707  1.00  0.00    -0.014 A 
BRANCH  34  35
ATOM     35  C   UNL A   1      38.289  32.109  29.917  1.00  0.00     0.031 A 
ATOM     36  C   UNL A   1      39.297  32.856  30.746  1.00  0.00     0.074 A 
ATOM     37  C   UNL A   1      38.583  30.892  29.429  1.00  0.00     0.049 A 
ATOM     38  N   UNL A   1      40.521  32.519  31.065  1.00  0.00    -0.248 NA
ATOM     39  C   UNL A   1      38.870  34.155  31.290  1.00  0.00     0.031 C 
ATOM     40  C   UNL A   1      37.675  30.052  28.652  1.00  0.00     0.029 A 
ATOM     41  N   UNL A   1      39.734  30.149  29.525  1.00  0.00    -0.354 N 
ATOM     42  C   UNL A   1      41.008  33.559  31.846  1.00  0.00     0.074 A 
ATOM     43  C   UNL A   1      39.962  34.556  31.925  1.00  0.00     0.031 C 
ATOM     44  C   UNL A   1      38.302  28.904  28.342  1.00  0.00     0.029 A 
ATOM     45  C   UNL A   1      39.662  28.941  28.877  1.00  0.00     0.049 A 
ATOM     46  H   UNL A   1      40.533  30.454  30.011  1.00  0.00     0.167 HD
ATOM     47  C   UNL A   1      42.212  33.667  32.454  1.00  0.00     0.037 A 
ATOM     48  C   UNL A   1      40.594  27.979  28.724  1.00  0.00     0.037 A 
ATOM     49  C   UNL A   1      43.249  32.672  32.381  1.00  0.00     0.049 A 
ATOM     50  C   UNL A   1      41.948  28.152  29.355  1.00  0.00     0.074 A 
ATOM     51  C   UNL A   1      44.502  32.691  32.969  1.00  0.00     0.029 A 
ATOM     52  N   UNL A   1      43.154  31.482  31.676  1.00  0.00    -0.354 N 
ATOM     53  N   UNL A   1      42.396  29.137  30.094  1.00  0.00    -0.248 NA
ATOM     54  C   UNL A   1      42.928  27.077  29.133  1.00  0.00     0.031 C 
ATOM     55  C   UNL A   1      45.182  31.532  32.583  1.00  0.00     0.029 A 
ATOM     56  C   UNL A   1      44.334  30.768  31.799  1.00  0.00     0.049 A 
ATOM     57  H   UNL A   1      42.367  31.190  31.165  1.00  0.00     0.167 HD
ATOM     58  C   UNL A   1      43.694  28.790  30.448  1.00  0.00     0.074 A 
ATOM     59  C   UNL A   1      43.961  27.499  29.848  1.00  0.00     0.031 C 
ATOM     60  C   UNL A   1      44.584  29.480  31.203  1.00  0.00     0.037 A 
BRANCH  47  61
ATOM     61  C   UNL A   1      42.482  34.910  33.248  1.00  0.00     0.057 A 
ATOM     62  C   UNL A   1      43.098  36.018  32.653  1.00  0.00     0.134 A 
ATOM     63  C   UNL A   1      42.190  34.990  34.615  1.00  0.00     0.134 A 
ATOM     64  F   UNL A   1      43.408  36.005  31.348  1.00  0.00    -0.206 F 
ATOM     65  C   UNL A   1      43.426  37.155  33.392  1.00  0.00     0.040 A 
ATOM     66  C   UNL A   1      42.491  36.131  35.360  1.00  0.00     0.040 A 
ATOM     67  F   UNL A   1      41.586  33.968  35.243  1.00  0.00    -0.206 F 
ATOM     68  C   UNL A   1      43.121  37.215  34.750  1.00  0.00     0.006 A 
ENDBRANCH  47  61
BRANCH  48  69
ATOM     69  C   UNL A   1      40.268  26.759  27.944  1.00  0.00     0.057 A 
ATOM     70  C   UNL A   1      40.722  26.591  26.630  1.00  0.00     0.134 A 
ATOM     71  C   UNL A   1      39.484  25.737  28.492  1.00  0.00     0.134 A 
ATOM     72  F   UNL A   1      41.475  27.537  26.048  1.00  0.00    -0.206 F 
ATOM     73  C   UNL A   1      40.394  25.459  25.882  1.00  0.00     0.040 A 
ATOM     74  C   UNL A   1      39.168  24.589  27.764  1.00  0.00     0.040 A 
ATOM     75  F   UNL A   1      39.039  25.831  29.754  1.00  0.00    -0.206 F 
ATOM     76  C   UNL A   1      39.617  24.452  26.451  1.00  0.00     0.006 A 
ENDBRANCH  48  69
BRANCH  60  77
ATOM     77  C   UNL A   1      45.923  28.848  31.454  1.00  0.00     0.057 A 
ATOM     78  C   UNL A   1      47.048  29.249  30.721  1.00  0.00     0.134 A 
ATOM     79  C   UNL A   1      46.084  27.796  32.363  1.00  0.00     0.134 A 
ATOM     80  F   UNL A   1      46.958  30.243  29.825  1.00  0.00    -0.206 F 
ATOM     81  C   UNL A   1      48.284  28.619  30.877  1.00  0.00     0.040 A 
ATOM     82  C   UNL A   1      47.320  27.175  32.546  1.00  0.00     0.040 A 
ATOM     83  F   UNL A   1      45.048  27.370  33.101  1.00  0.00    -0.206 F 
ATOM     84  C   UNL A   1      48.422  27.580  31.795  1.00  0.00     0.006 A 
ENDBRANCH  60  77
ENDBRANCH  34  35
ENDBRANCH  27  29
ENDBRANCH  26  27
ENDBRANCH  25  26
ENDBRANCH  24  25
ENDBRANCH   1  24
TORSDOF 16
ENDMDL
MODEL 2
REMARK VINA RESULT:      -8.7      0.964      2.111
REMARK SMILES CC1(C)CSC[C@H](Nc2cc(C(=O)OCCOCCOC(=O)c3ccc(-c4c5nc(c(-c6c(F)cccc6F)c6ccc([nH]6)c(-c6c(F)cccc6F)c6nc(c(-c7c(F)cccc7F)c7ccc4[nH]7)C=C6)C=C5)cc3)ccc2F)C1
REMARK SMILES IDX 17 1 16 2 15 3 14 4 12 5 13 6 11 7 9 8 10 9 79 10 78 11
REMARK SMILES IDX 80 12 77 13 8 14 7 16 1 17 2 18 3 19 4 20 81 21 5 22 6 23
REMARK SMILES IDX 18 24 19 25 20 26 21 27 22 28 23 29 24 30 76 31 25 32 75 33
REMARK SMILES IDX 26 34 27 35 28 36 69 37 29 38 74 39 68 40 70 41 30 42 73 43
REMARK SMILES IDX 67 44 66 45 31 47 57 48 40 49 56 50 41 51 44 52 55 53 71 54
REMARK SMILES IDX 42 55 43 56 54 58 72 59 45 60 32 61 33 62 38 63 34 64 35 65
REMARK SMILES IDX 37 66 39 67 36 68 58 69 59 70 64 71 60 72 61 73 63 74 65 75
REMARK SMILES IDX 62 76 46 77 47 78 52 79 48 80 49 81 51 82 53 83 50 84
REMARK H PARENT 8 15 70 46 44 57
REMARK Flexibility Score: inf
ROOT
ATOM      1  O   UNL A   1      34.086  35.115  33.359  1.00  0.00    -0.374 OA
ENDROOT
BRANCH   1   2
ATOM      2  C   UNL A   1      35.454  34.750  33.552  1.00  0.00     0.202 C 
BRANCH   2   3
ATOM      3  C   UNL A   1      35.739  33.782  34.702  1.00  0.00     0.261 C 
BRANCH   3   4
ATOM      4  O   UNL A   1      36.600  32.718  34.262  1.00  0.00    -0.460 OA
BRANCH   4   5
ATOM      5  C   UNL A   1      37.453  32.268  35.206  1.00  0.00     0.338 C 
ATOM      6  O   UNL A   1      37.470  32.569  36.391  1.00  0.00    -0.246 OA
BRANCH   5   7
ATOM      7  C   UNL A   1      38.283  31.177  34.659  1.00  0.00     0.062 A 
ATOM      8  C   UNL A   1      40.434  30.053  34.795  1.00  0.00     0.071 A 
ATOM      9  C   UNL A   1      39.494  30.941  35.320  1.00  0.00     0.044 A 
ATOM     10  C   UNL A   1      40.093  29.350  33.628  1.00  0.00     0.146 A 
ATOM     11  C   UNL A   1      38.853  29.520  33.008  1.00  0.00     0.042 A 
ATOM     12  F   UNL A   1      40.985  28.525  33.056  1.00  0.00    -0.205 F 
ATOM     13  C   UNL A   1      37.942  30.449  33.517  1.00  0.00     0.019 A 
BRANCH   8  14
ATOM     14  N   UNL A   1      41.742  30.132  35.296  1.00  0.00    -0.379 N 
ATOM     15  H   UNL A   1      42.197  30.992  35.447  1.00  0.00     0.160 HD
BRANCH  14  16
ATOM     16  C   UNL A   1      42.387  28.833  35.579  1.00  0.00     0.089 C 
ATOM     17  C   UNL A   1      42.075  25.692  35.235  1.00  0.00     0.012 C 
ATOM     18  C   UNL A   1      41.858  26.473  36.553  1.00  0.00    -0.024 C 
ATOM     19  C   UNL A   1      40.779  25.739  37.376  1.00  0.00     0.012 C 
ATOM     20  C   UNL A   1      43.140  26.484  37.417  1.00  0.00     0.076 C 
ATOM     21  C   UNL A   1      41.349  27.909  36.250  1.00  0.00     0.033 C 
ATOM     22  S   UNL A   1      44.509  27.439  36.722  1.00  0.00    -0.159 SA
ATOM     23  C   UNL A   1      43.623  29.001  36.492  1.00  0.00     0.094 C 
ENDBRANCH  14  16
ENDBRANCH   8  14
ENDBRANCH   5   7
ENDBRANCH   4   5
ENDBRANCH   3   4
ENDBRANCH   2   3
ENDBRANCH   1   2
BRANCH   1  24
ATOM     24  C   UNL A   1      33.823  36.335  32.664  1.00  0.00     0.202 C 
BRANCH  24  25
ATOM     25  C   UNL A   1      32.774  36.283  31.548  1.00  0.00     0.261 C 
BRANCH  25  26
ATOM     26  O   UNL A   1      32.713  34.988  30.925  1.00  0.00    -0.460 OA
BRANCH  26  27
ATOM     27  C   UNL A   1      33.207  34.949  29.665  1.00  0.00     0.338 C 
ATOM     28  O   UNL A   1      32.840  35.612  28.705  1.00  0.00    -0.246 OA
BRANCH  27  29
ATOM     29  C   UNL A   1      34.409  34.097  29.616  1.00  0.00     0.060 A 
ATOM     30  C   UNL A   1      34.541  33.119  30.609  1.00  0.00     0.016 A 
ATOM     31  C   UNL A   1      35.421  34.295  28.674  1.00  0.00     0.016 A 
ATOM     32  C   UNL A   1      35.714  32.378  30.706  1.00  0.00     0.010 A 
ATOM     33  C   UNL A   1      36.603  33.553  28.776  1.00  0.00     0.010 A 
ATOM     34  C   UNL A   1      36.770  32.623  29.818  1.00  0.00    -0.014 A 
BRANCH  34  35
ATOM     35  C   UNL A   1      38.095  32.012  30.086  1.00  0.00     0.031 A 
ATOM     36  C   UNL A   1      39.034  32.699  31.039  1.00  0.00     0.074 A 
ATOM     37  C   UNL A   1      38.432  30.833  29.537  1.00  0.00     0.049 A 
ATOM     38  N   UNL A   1      40.232  32.339  31.426  1.00  0.00    -0.248 NA
ATOM     39  C   UNL A   1      38.561  33.956  31.640  1.00  0.00     0.031 C 
ATOM     40  C   UNL A   1      37.589  30.050  28.637  1.00  0.00     0.029 A 
ATOM     41  N   UNL A   1      39.575  30.085  29.667  1.00  0.00    -0.354 N 
ATOM     42  C   UNL A   1      40.653  33.322  32.313  1.00  0.00     0.074 A 
ATOM     43  C   UNL A   1      39.599  34.311  32.383  1.00  0.00     0.031 C 
ATOM     44  C   UNL A   1      38.243  28.926  28.295  1.00  0.00     0.029 A 
ATOM     45  C   UNL A   1      39.559  28.925  28.932  1.00  0.00     0.049 A 
ATOM     46  H   UNL A   1      40.334  30.354  30.233  1.00  0.00     0.167 HD
ATOM     47  C   UNL A   1      41.807  33.386  33.016  1.00  0.00     0.037 A 
ATOM     48  C   UNL A   1      40.504  27.976  28.783  1.00  0.00     0.037 A 
ATOM     49  C   UNL A   1      42.852  32.398  32.952  1.00  0.00     0.049 A 
ATOM     50  C   UNL A   1      41.806  28.103  29.525  1.00  0.00     0.074 A 
ATOM     51  C   UNL A   1      44.057  32.375  33.633  1.00  0.00     0.029 A 
ATOM     52  N   UNL A   1      42.816  31.261  32.160  1.00  0.00    -0.354 N 
ATOM     53  N   UNL A   1      42.192  29.034  30.364  1.00  0.00    -0.248 NA
ATOM     54  C   UNL A   1      42.805  27.046  29.303  1.00  0.00     0.031 C 
ATOM     55  C   UNL A   1      44.770  31.246  33.219  1.00  0.00     0.029 A 
ATOM     56  C   UNL A   1      43.988  30.540  32.321  1.00  0.00     0.049 A 
ATOM     57  H   UNL A   1      42.071  31.006  31.571  1.00  0.00     0.167 HD
ATOM     58  C   UNL A   1      43.461  28.663  30.789  1.00  0.00     0.074 A 
ATOM     59  C   UNL A   1      43.779  27.417  30.122  1.00  0.00     0.031 C 
ATOM     60  C   UNL A   1      44.288  29.297  31.656  1.00  0.00     0.037 A 
BRANCH  47  61
ATOM     61  C   UNL A   1      42.010  34.570  33.914  1.00  0.00     0.057 A 
ATOM     62  C   UNL A   1      41.576  34.540  35.245  1.00  0.00     0.134 A 
ATOM     63  C   UNL A   1      42.578  35.761  33.446  1.00  0.00     0.134 A 
ATOM     64  F   UNL A   1      41.020  33.430  35.755  1.00  0.00    -0.206 F 
ATOM     65  C   UNL A   1      41.687  35.656  36.075  1.00  0.00     0.040 A 
ATOM     66  C   UNL A   1      42.717  36.877  34.272  1.00  0.00     0.040 A 
ATOM     67  F   UNL A   1      43.028  35.851  32.184  1.00  0.00    -0.206 F 
ATOM     68  C   UNL A   1      42.261  36.829  35.589  1.00  0.00     0.006 A 
ENDBRANCH  47  61
BRANCH  48  69
ATOM     69  C   UNL A   1      40.244  26.814  27.896  1.00  0.00     0.057 A 
ATOM     70  C   UNL A   1      39.454  25.739  28.318  1.00  0.00     0.134 A 
ATOM     71  C   UNL A   1      40.790  26.749  26.609  1.00  0.00     0.134 A 
ATOM     72  F   UNL A   1      38.904  25.741  29.542  1.00  0.00    -0.206 F 
ATOM     73  C   UNL A   1      39.230  24.631  27.500  1.00  0.00     0.040 A 
ATOM     74  C   UNL A   1      40.555  25.658  25.771  1.00  0.00     0.040 A 
ATOM     75  F   UNL A   1      41.537  27.760  26.141  1.00  0.00    -0.206 F 
ATOM     76  C   UNL A   1      39.778  24.590  26.220  1.00  0.00     0.006 A 
ENDBRANCH  48  69
BRANCH  60  77
ATOM     77  C   UNL A   1      45.607  28.649  31.963  1.00  0.00     0.057 A 
ATOM     78  C   UNL A   1      45.693  27.630  32.922  1.00  0.00     0.134 A 
ATOM     79  C   UNL A   1      46.798  29.080  31.368  1.00  0.00     0.134 A 
ATOM     80  F   UNL A   1      44.591  27.180  33.538  1.00  0.00    -0.206 F 
ATOM     81  C   UNL A   1      46.920  27.070  33.284  1.00  0.00     0.040 A 
ATOM     82  C   UNL A   1      48.028  28.511  31.704  1.00  0.00     0.040 A 
ATOM     83  F   UNL A   1      46.783  30.046  30.437  1.00  0.00    -0.206 F 
ATOM     84  C   UNL A   1      48.092  27.509  32.671  1.00  0.00     0.006 A 
ENDBRANCH  60  77
ENDBRANCH  34  35
ENDBRANCH  27  29
ENDBRANCH  26  27
ENDBRANCH  25  26
ENDBRANCH  24  25
ENDBRANCH   1  24
TORSDOF 16
ENDMDL
MODEL 3
REMARK VINA RESULT:      -8.7      5.553     11.106
REMARK SMILES CC1(C)CSC[C@H](Nc2cc(C(=O)OCCOCCOC(=O)c3ccc(-c4c5nc(c(-c6c(F)cccc6F)c6ccc([nH]6)c(-c6c(F)cccc6F)c6nc(c(-c7c(F)cccc7F)c7ccc4[nH]7)C=C6)C=C5)cc3)ccc2F)C1
REMARK SMILES IDX 17 1 16 2 15 3 14 4 12 5 13 6 11 7 9 8 10 9 79 10 78 11
REMARK SMILES IDX 80 12 77 13 8 14 7 16 1 17 2 18 3 19 4 20 81 21 5 22 6 23
REMARK SMILES IDX 18 24 19 25 20 26 21 27 22 28 23 29 24 30 76 31 25 32 75 33
REMARK SMILES IDX 26 34 27 35 28 36 69 37 29 38 74 39 68 40 70 41 30 42 73 43
REMARK SMILES IDX 67 44 66 45 31 47 57 48 40 49 56 50 41 51 44 52 55 53 71 54
REMARK SMILES IDX 42 55 43 56 54 58 72 59 45 60 32 61 33 62 38 63 34 64 35 65
REMARK SMILES IDX 37 66 39 67 36 68 58 69 59 70 64 71 60 72 61 73 63 74 65 75
REMARK SMILES IDX 62 76 46 77 47 78 52 79 48 80 49 81 51 82 53 83 50 84
REMARK H PARENT 8 15 70 46 44 57
REMARK Flexibility Score: inf
ROOT
ATOM      1  O   UNL A   1      45.255  20.312  25.223  1.00  0.00    -0.374 OA
ENDROOT
BRANCH   1   2
ATOM      2  C   UNL A   1      44.453  19.376  24.500  1.00  0.00     0.202 C 
BRANCH   2   3
ATOM      3  C   UNL A   1      43.459  18.557  25.326  1.00  0.00     0.261 C 
BRANCH   3   4
ATOM      4  O   UNL A   1      42.199  19.241  25.420  1.00  0.00    -0.460 OA
BRANCH   4   5
ATOM      5  C   UNL A   1      41.788  19.475  26.685  1.00  0.00     0.338 C 
ATOM      6  O   UNL A   1      42.254  19.007  27.713  1.00  0.00    -0.246 OA
BRANCH   5   7
ATOM      7  C   UNL A   1      40.785  20.559  26.698  1.00  0.00     0.062 A 
ATOM      8  C   UNL A   1      38.716  21.367  25.713  1.00  0.00     0.071 A 
ATOM      9  C   UNL A   1      39.647  20.348  25.912  1.00  0.00     0.044 A 
ATOM     10  C   UNL A   1      38.918  22.583  26.387  1.00  0.00     0.146 A 
ATOM     11  C   UNL A   1      40.010  22.773  27.238  1.00  0.00     0.042 A 
ATOM     12  F   UNL A   1      38.079  23.611  26.186  1.00  0.00    -0.205 F 
ATOM     13  C   UNL A   1      40.960  21.761  27.388  1.00  0.00     0.019 A 
BRANCH   8  14
ATOM     14  N   UNL A   1      37.812  21.213  24.652  1.00  0.00    -0.379 N 
ATOM     15  H   UNL A   1      38.066  20.791  23.800  1.00  0.00     0.160 HD
BRANCH  14  16
ATOM     16  C   UNL A   1      36.450  21.730  24.904  1.00  0.00     0.089 C 
ATOM     17  C   UNL A   1      33.907  21.429  26.783  1.00  0.00     0.012 C 
ATOM     18  C   UNL A   1      34.013  20.906  25.331  1.00  0.00    -0.024 C 
ATOM     19  C   UNL A   1      33.148  19.633  25.213  1.00  0.00     0.012 C 
ATOM     20  C   UNL A   1      33.436  21.926  24.323  1.00  0.00     0.076 C 
ATOM     21  C   UNL A   1      35.483  20.530  24.999  1.00  0.00     0.033 C 
ATOM     22  S   UNL A   1      34.393  23.452  24.164  1.00  0.00    -0.159 SA
ATOM     23  C   UNL A   1      35.994  22.697  23.789  1.00  0.00     0.094 C 
ENDBRANCH  14  16
ENDBRANCH   8  14
ENDBRANCH   5   7
ENDBRANCH   4   5
ENDBRANCH   3   4
ENDBRANCH   2   3
ENDBRANCH   1   2
BRANCH   1  24
ATOM     24  C   UNL A   1      44.703  21.609  25.458  1.00  0.00     0.202 C 
BRANCH  24  25
ATOM     25  C   UNL A   1      44.771  22.609  24.300  1.00  0.00     0.261 C 
BRANCH  25  26
ATOM     26  O   UNL A   1      43.925  23.750  24.522  1.00  0.00    -0.460 OA
BRANCH  26  27
ATOM     27  C   UNL A   1      44.568  24.840  25.002  1.00  0.00     0.338 C 
ATOM     28  O   UNL A   1      45.659  25.270  24.654  1.00  0.00    -0.246 OA
BRANCH  27  29
ATOM     29  C   UNL A   1      43.688  25.587  25.919  1.00  0.00     0.060 A 
ATOM     30  C   UNL A   1      43.915  26.964  26.043  1.00  0.00     0.016 A 
ATOM     31  C   UNL A   1      42.718  24.954  26.699  1.00  0.00     0.016 A 
ATOM     32  C   UNL A   1      43.218  27.701  26.995  1.00  0.00     0.010 A 
ATOM     33  C   UNL A   1      42.021  25.696  27.659  1.00  0.00     0.010 A 
ATOM     34  C   UNL A   1      42.300  27.063  27.839  1.00  0.00    -0.014 A 
BRANCH  34  35
ATOM     35  C   UNL A   1      41.756  27.802  29.004  1.00  0.00     0.031 A 
ATOM     36  C   UNL A   1      42.479  27.722  30.320  1.00  0.00     0.074 A 
ATOM     37  C   UNL A   1      40.670  28.582  28.877  1.00  0.00     0.049 A 
ATOM     38  N   UNL A   1      42.189  28.292  31.462  1.00  0.00    -0.248 NA
ATOM     39  C   UNL A   1      43.694  26.891  30.355  1.00  0.00     0.031 C 
ATOM     40  C   UNL A   1      39.911  28.778  27.643  1.00  0.00     0.029 A 
ATOM     41  N   UNL A   1      40.021  29.363  29.800  1.00  0.00    -0.354 N 
ATOM     42  C   UNL A   1      43.182  27.892  32.347  1.00  0.00     0.074 A 
ATOM     43  C   UNL A   1      44.064  27.003  31.623  1.00  0.00     0.031 C 
ATOM     44  C   UNL A   1      38.899  29.628  27.885  1.00  0.00     0.029 A 
ATOM     45  C   UNL A   1      38.924  30.015  29.295  1.00  0.00     0.049 A 
ATOM     46  H   UNL A   1      40.315  29.448  30.736  1.00  0.00     0.167 HD
ATOM     47  C   UNL A   1      43.350  28.245  33.643  1.00  0.00     0.037 A 
ATOM     48  C   UNL A   1      38.034  30.824  29.904  1.00  0.00     0.037 A 
ATOM     49  C   UNL A   1      42.477  29.134  34.361  1.00  0.00     0.049 A 
ATOM     50  C   UNL A   1      38.206  31.150  31.363  1.00  0.00     0.074 A 
ATOM     51  C   UNL A   1      42.570  29.555  35.676  1.00  0.00     0.029 A 
ATOM     52  N   UNL A   1      41.350  29.738  33.825  1.00  0.00    -0.354 N 
ATOM     53  N   UNL A   1      39.151  30.769  32.189  1.00  0.00    -0.248 NA
ATOM     54  C   UNL A   1      37.191  32.020  31.974  1.00  0.00     0.031 C 
ATOM     55  C   UNL A   1      41.474  30.379  35.950  1.00  0.00     0.029 A 
ATOM     56  C   UNL A   1      40.728  30.512  34.791  1.00  0.00     0.049 A 
ATOM     57  H   UNL A   1      41.038  29.631  32.899  1.00  0.00     0.167 HD
ATOM     58  C   UNL A   1      38.860  31.373  33.406  1.00  0.00     0.074 A 
ATOM     59  C   UNL A   1      37.655  32.152  33.209  1.00  0.00     0.031 C 
ATOM     60  C   UNL A   1      39.533  31.289  34.580  1.00  0.00     0.037 A 
BRANCH  47  61
ATOM     61  C   UNL A   1      44.521  27.662  34.376  1.00  0.00     0.057 A 
ATOM     62  C   UNL A   1      44.402  26.444  35.058  1.00  0.00     0.134 A 
ATOM     63  C   UNL A   1      45.747  28.333  34.460  1.00  0.00     0.134 A 
ATOM     64  F   UNL A   1      43.253  25.753  35.021  1.00  0.00    -0.206 F 
ATOM     65  C   UNL A   1      45.456  25.922  35.809  1.00  0.00     0.040 A 
ATOM     66  C   UNL A   1      46.817  27.809  35.188  1.00  0.00     0.040 A 
ATOM     67  F   UNL A   1      45.931  29.497  33.817  1.00  0.00    -0.206 F 
ATOM     68  C   UNL A   1      46.669  26.604  35.874  1.00  0.00     0.006 A 
ENDBRANCH  47  61
BRANCH  48  69
ATOM     69  C   UNL A   1      36.904  31.390  29.127  1.00  0.00     0.057 A 
ATOM     70  C   UNL A   1      36.914  32.721  28.691  1.00  0.00     0.134 A 
ATOM     71  C   UNL A   1      35.783  30.615  28.810  1.00  0.00     0.134 A 
ATOM     72  F   UNL A   1      37.959  33.516  28.965  1.00  0.00    -0.206 F 
ATOM     73  C   UNL A   1      35.841  33.266  27.984  1.00  0.00     0.040 A 
ATOM     74  C   UNL A   1      34.713  31.141  28.084  1.00  0.00     0.040 A 
ATOM     75  F   UNL A   1      35.726  29.327  29.181  1.00  0.00    -0.206 F 
ATOM     76  C   UNL A   1      34.738  32.474  27.676  1.00  0.00     0.006 A 
ENDBRANCH  48  69
BRANCH  60  77
ATOM     77  C   UNL A   1      39.006  32.080  35.743  1.00  0.00     0.057 A 
ATOM     78  C   UNL A   1      39.360  33.426  35.907  1.00  0.00     0.134 A 
ATOM     79  C   UNL A   1      38.213  31.493  36.736  1.00  0.00     0.134 A 
ATOM     80  F   UNL A   1      40.128  34.044  34.997  1.00  0.00    -0.206 F 
ATOM     81  C   UNL A   1      38.952  34.157  37.024  1.00  0.00     0.040 A 
ATOM     82  C   UNL A   1      37.777  32.222  37.844  1.00  0.00     0.040 A 
ATOM     83  F   UNL A   1      37.833  30.211  36.634  1.00  0.00    -0.206 F 
ATOM     84  C   UNL A   1      38.155  33.555  37.994  1.00  0.00     0.006 A 
ENDBRANCH  60  77
ENDBRANCH  34  35
ENDBRANCH  27  29
ENDBRANCH  26  27
ENDBRANCH  25  26
ENDBRANCH  24  25
ENDBRANCH   1  24
TORSDOF 16
ENDMDL
