MODEL 1
REMARK VINA RESULT:     -12.2      0.000      0.000
REMARK SMILES CC(C)Oc1ccc(-c2ccc(/C(=C\c3ccc(S(C)(=O)=O)cc3)C(=O)OCCOCCOC(=O)c3ccc(-c4c5nc(c(-c6c(F)cccc6F)c6ccc([nH]6)c(-c6c(F)cccc6F)c6nc(c(-c7c(F)cccc7F)c7ccc4[nH]7)C=C6)C=C5)cc3)cc2)cc1
REMARK SMILES IDX 29 1 28 2 27 3 25 4 26 5 13 6 14 7 12 8 9 9 10 10 91 11
REMARK SMILES IDX 11 12 90 13 8 14 5 15 6 16 93 17 7 18 92 19 4 20 2 21 1 22
REMARK SMILES IDX 3 23 15 24 16 25 24 26 17 27 23 28 18 29 19 30 20 31 21 32
REMARK SMILES IDX 22 33 30 34 31 35 32 36 33 37 34 38 35 39 36 40 37 41 89 42
REMARK SMILES IDX 38 43 88 44 39 45 40 46 41 47 82 48 42 49 87 50 81 51 83 52
REMARK SMILES IDX 43 53 86 54 80 55 79 56 44 58 70 59 53 60 69 61 54 62 57 63
REMARK SMILES IDX 68 64 84 65 55 66 56 67 67 69 85 70 58 71 45 72 46 73 51 74
REMARK SMILES IDX 47 75 48 76 50 77 52 78 49 79 71 80 72 81 77 82 73 83 74 84
REMARK SMILES IDX 76 85 78 86 75 87 59 88 60 89 65 90 61 91 62 92 64 93 66 94
REMARK SMILES IDX 63 95
REMARK H PARENT 83 57 57 68
REMARK Flexibility Score: inf
ROOT
ATOM      1  C   UNL A   1      31.164  28.829  23.196  1.00  0.00     0.202 C 
ENDROOT
BRANCH   1   2
ATOM      2  C   UNL A   1      31.278  27.560  22.350  1.00  0.00     0.261 C 
BRANCH   2   3
ATOM      3  O   UNL A   1      31.863  26.501  23.125  1.00  0.00    -0.460 OA
BRANCH   3   4
ATOM      4  C   UNL A   1      32.865  25.819  22.510  1.00  0.00     0.338 C 
ATOM      5  O   UNL A   1      33.642  26.282  21.689  1.00  0.00    -0.246 OA
BRANCH   4   6
ATOM      6  C   UNL A   1      33.000  24.437  23.083  1.00  0.00     0.067 C 
ATOM      7  C   UNL A   1      31.910  23.635  22.999  1.00  0.00     0.024 C 
BRANCH   6   8
ATOM      8  C   UNL A   1      34.312  24.071  23.692  1.00  0.00    -0.011 A 
ATOM      9  C   UNL A   1      36.727  23.257  25.008  1.00  0.00    -0.018 A 
ATOM     10  C   UNL A   1      36.445  22.886  23.685  1.00  0.00     0.009 A 
ATOM     11  C   UNL A   1      35.789  24.084  25.645  1.00  0.00     0.009 A 
ATOM     12  C   UNL A   1      35.284  23.317  23.030  1.00  0.00     0.009 A 
ATOM     13  C   UNL A   1      34.605  24.476  25.004  1.00  0.00     0.009 A 
BRANCH   9  14
ATOM     14  C   UNL A   1      37.970  22.823  25.686  1.00  0.00    -0.018 A 
ATOM     15  C   UNL A   1      40.376  21.993  26.932  1.00  0.00     0.119 A 
ATOM     16  C   UNL A   1      39.661  21.110  26.130  1.00  0.00     0.047 A 
ATOM     17  C   UNL A   1      39.915  23.292  27.100  1.00  0.00     0.047 A 
ATOM     18  C   UNL A   1      38.471  21.519  25.519  1.00  0.00     0.012 A 
ATOM     19  C   UNL A   1      38.715  23.695  26.500  1.00  0.00     0.012 A 
BRANCH  15  20
ATOM     20  O   UNL A   1      41.583  21.561  27.397  1.00  0.00    -0.491 OA
BRANCH  20  21
ATOM     21  C   UNL A   1      42.238  20.487  26.702  1.00  0.00     0.167 C 
ATOM     22  C   UNL A   1      43.537  20.921  26.032  1.00  0.00     0.052 C 
ATOM     23  C   UNL A   1      42.392  19.205  27.518  1.00  0.00     0.052 C 
ENDBRANCH  20  21
ENDBRANCH  15  20
ENDBRANCH   9  14
ENDBRANCH   6   8
BRANCH   7  24
ATOM     24  C   UNL A   1      31.857  22.204  23.338  1.00  0.00    -0.025 A 
ATOM     25  C   UNL A   1      31.893  21.298  22.267  1.00  0.00     0.009 A 
ATOM     26  C   UNL A   1      31.952  21.725  24.651  1.00  0.00     0.009 A 
ATOM     27  C   UNL A   1      32.152  19.948  22.493  1.00  0.00     0.021 A 
ATOM     28  C   UNL A   1      32.219  20.370  24.884  1.00  0.00     0.021 A 
ATOM     29  C   UNL A   1      32.351  19.498  23.801  1.00  0.00     0.067 A 
BRANCH  29  30
ATOM     30  S   UNL A   1      32.973  17.849  24.047  1.00  0.00     0.175 S 
ATOM     31  C   UNL A   1      34.644  18.087  24.578  1.00  0.00     0.163 C 
ATOM     32  O   UNL A   1      32.224  17.280  25.152  1.00  0.00    -0.224 OA
ATOM     33  O   UNL A   1      33.003  17.191  22.755  1.00  0.00    -0.224 OA
ENDBRANCH  29  30
ENDBRANCH   7  24
ENDBRANCH   4   6
ENDBRANCH   3   4
ENDBRANCH   2   3
ENDBRANCH   1   2
BRANCH   1  34
ATOM     34  O   UNL A   1      30.795  28.630  24.562  1.00  0.00    -0.374 OA
BRANCH  34  35
ATOM     35  C   UNL A   1      31.778  28.935  25.554  1.00  0.00     0.202 C 
BRANCH  35  36
ATOM     36  C   UNL A   1      31.940  30.412  25.923  1.00  0.00     0.261 C 
BRANCH  36  37
ATOM     37  O   UNL A   1      32.526  30.576  27.225  1.00  0.00    -0.460 OA
BRANCH  37  38
ATOM     38  C   UNL A   1      33.274  31.692  27.372  1.00  0.00     0.338 C 
ATOM     39  O   UNL A   1      32.893  32.854  27.319  1.00  0.00    -0.246 OA
BRANCH  38  40
ATOM     40  C   UNL A   1      34.639  31.329  27.791  1.00  0.00     0.060 A 
ATOM     41  C   UNL A   1      34.903  29.974  28.025  1.00  0.00     0.016 A 
ATOM     42  C   UNL A   1      35.624  32.294  28.012  1.00  0.00     0.016 A 
ATOM     43  C   UNL A   1      36.139  29.582  28.533  1.00  0.00     0.010 A 
ATOM     44  C   UNL A   1      36.862  31.901  28.529  1.00  0.00     0.010 A 
ATOM     45  C   UNL A   1      37.110  30.548  28.826  1.00  0.00    -0.014 A 
BRANCH  45  46
ATOM     46  C   UNL A   1      38.323  30.156  29.581  1.00  0.00     0.031 A 
ATOM     47  C   UNL A   1      38.486  30.639  30.996  1.00  0.00     0.074 A 
ATOM     48  C   UNL A   1      39.250  29.357  29.028  1.00  0.00     0.049 A 
ATOM     49  N   UNL A   1      39.472  30.443  31.832  1.00  0.00    -0.248 NA
ATOM     50  C   UNL A   1      37.387  31.455  31.539  1.00  0.00     0.031 C 
ATOM     51  C   UNL A   1      39.183  28.792  27.681  1.00  0.00     0.029 A 
ATOM     52  N   UNL A   1      40.434  28.885  29.535  1.00  0.00    -0.354 N 
ATOM     53  C   UNL A   1      39.116  31.110  32.997  1.00  0.00     0.074 A 
ATOM     54  C   UNL A   1      37.840  31.745  32.750  1.00  0.00     0.031 C 
ATOM     55  C   UNL A   1      40.285  28.051  27.466  1.00  0.00     0.029 A 
ATOM     56  C   UNL A   1      41.144  28.116  28.647  1.00  0.00     0.049 A 
ATOM     57  H   UNL A   1      40.744  29.079  30.449  1.00  0.00     0.167 HD
ATOM     58  C   UNL A   1      39.788  31.179  34.171  1.00  0.00     0.037 A 
ATOM     59  C   UNL A   1      42.358  27.546  28.770  1.00  0.00     0.037 A 
ATOM     60  C   UNL A   1      41.058  30.549  34.415  1.00  0.00     0.049 A 
ATOM     61  C   UNL A   1      43.120  27.701  30.059  1.00  0.00     0.074 A 
ATOM     62  C   UNL A   1      41.813  30.548  35.575  1.00  0.00     0.029 A 
ATOM     63  N   UNL A   1      41.765  29.811  33.478  1.00  0.00    -0.354 N 
ATOM     64  N   UNL A   1      42.768  28.317  31.160  1.00  0.00    -0.248 NA
ATOM     65  C   UNL A   1      44.451  27.079  30.119  1.00  0.00     0.031 C 
ATOM     66  C   UNL A   1      42.998  29.848  35.324  1.00  0.00     0.029 A 
ATOM     67  C   UNL A   1      42.959  29.372  34.024  1.00  0.00     0.049 A 
ATOM     68  H   UNL A   1      41.462  29.627  32.559  1.00  0.00     0.167 HD
ATOM     69  C   UNL A   1      43.816  28.133  32.053  1.00  0.00     0.074 A 
ATOM     70  C   UNL A   1      44.815  27.340  31.366  1.00  0.00     0.031 C 
ATOM     71  C   UNL A   1      43.940  28.578  33.329  1.00  0.00     0.037 A 
BRANCH  58  72
ATOM     72  C   UNL A   1      39.165  31.986  35.272  1.00  0.00     0.057 A 
ATOM     73  C   UNL A   1      38.358  31.399  36.255  1.00  0.00     0.134 A 
ATOM     74  C   UNL A   1      39.391  33.365  35.360  1.00  0.00     0.134 A 
ATOM     75  F   UNL A   1      38.090  30.084  36.219  1.00  0.00    -0.206 F 
ATOM     76  C   UNL A   1      37.777  32.158  37.272  1.00  0.00     0.040 A 
ATOM     77  C   UNL A   1      38.835  34.131  36.387  1.00  0.00     0.040 A 
ATOM     78  F   UNL A   1      40.156  33.990  34.453  1.00  0.00    -0.206 F 
ATOM     79  C   UNL A   1      38.020  33.529  37.343  1.00  0.00     0.006 A 
ENDBRANCH  58  72
BRANCH  59  80
ATOM     80  C   UNL A   1      42.935  26.778  27.639  1.00  0.00     0.057 A 
ATOM     81  C   UNL A   1      43.561  27.427  26.569  1.00  0.00     0.134 A 
ATOM     82  C   UNL A   1      42.860  25.381  27.592  1.00  0.00     0.134 A 
ATOM     83  F   UNL A   1      43.643  28.765  26.546  1.00  0.00    -0.206 F 
ATOM     84  C   UNL A   1      44.081  26.715  25.486  1.00  0.00     0.040 A 
ATOM     85  C   UNL A   1      43.395  24.655  26.528  1.00  0.00     0.040 A 
ATOM     86  F   UNL A   1      42.272  24.701  28.588  1.00  0.00    -0.206 F 
ATOM     87  C   UNL A   1      44.003  25.324  25.467  1.00  0.00     0.006 A 
ENDBRANCH  59  80
BRANCH  71  88
ATOM     88  C   UNL A   1      45.182  28.189  34.075  1.00  0.00     0.057 A 
ATOM     89  C   UNL A   1      45.265  26.997  34.804  1.00  0.00     0.134 A 
ATOM     90  C   UNL A   1      46.323  29.002  34.030  1.00  0.00     0.134 A 
ATOM     91  F   UNL A   1      44.205  26.181  34.897  1.00  0.00    -0.206 F 
ATOM     92  C   UNL A   1      46.434  26.634  35.478  1.00  0.00     0.040 A 
ATOM     93  C   UNL A   1      47.504  28.638  34.679  1.00  0.00     0.040 A 
ATOM     94  F   UNL A   1      46.312  30.154  33.342  1.00  0.00    -0.206 F 
ATOM     95  C   UNL A   1      47.560  27.454  35.411  1.00  0.00     0.006 A 
ENDBRANCH  71  88
ENDBRANCH  45  46
ENDBRANCH  38  40
ENDBRANCH  37  38
ENDBRANCH  36  37
ENDBRANCH  35  36
ENDBRANCH  34  35
ENDBRANCH   1  34
TORSDOF 20
ENDMDL
MODEL 2
REMARK VINA RESULT:     -12.2      0.367      5.761
REMARK SMILES CC(C)Oc1ccc(-c2ccc(/C(=C\c3ccc(S(C)(=O)=O)cc3)C(=O)OCCOCCOC(=O)c3ccc(-c4c5nc(c(-c6c(F)cccc6F)c6ccc([nH]6)c(-c6c(F)cccc6F)c6nc(c(-c7c(F)cccc7F)c7ccc4[nH]7)C=C6)C=C5)cc3)cc2)cc1
REMARK SMILES IDX 29 1 28 2 27 3 25 4 26 5 13 6 14 7 12 8 9 9 10 10 91 11
REMARK SMILES IDX 11 12 90 13 8 14 5 15 6 16 93 17 7 18 92 19 4 20 2 21 1 22
REMARK SMILES IDX 3 23 15 24 16 25 24 26 17 27 23 28 18 29 19 30 20 31 21 32
REMARK SMILES IDX 22 33 30 34 31 35 32 36 33 37 34 38 35 39 36 40 37 41 89 42
REMARK SMILES IDX 38 43 88 44 39 45 40 46 41 47 82 48 42 49 87 50 81 51 83 52
REMARK SMILES IDX 43 53 86 54 80 55 79 56 44 58 70 59 53 60 69 61 54 62 57 63
REMARK SMILES IDX 68 64 84 65 55 66 56 67 67 69 85 70 58 71 45 72 46 73 51 74
REMARK SMILES IDX 47 75 48 76 50 77 52 78 49 79 71 80 72 81 77 82 73 83 74 84
REMARK SMILES IDX 76 85 78 86 75 87 59 88 60 89 65 90 61 91 62 92 64 93 66 94
REMARK SMILES IDX 63 95
REMARK H PARENT 83 57 57 68
REMARK Flexibility Score: inf
ROOT
ATOM      1  C   UNL A   1      31.308  28.717  22.937  1.00  0.00     0.202 C 
ENDROOT
BRANCH   1   2
ATOM      2  C   UNL A   1      31.235  27.329  22.297  1.00  0.00     0.261 C 
BRANCH   2   3
ATOM      3  O   UNL A   1      31.951  26.377  23.100  1.00  0.00    -0.460 OA
BRANCH   3   4
ATOM      4  C   UNL A   1      32.920  25.683  22.448  1.00  0.00     0.338 C 
ATOM      5  O   UNL A   1      33.667  26.133  21.593  1.00  0.00    -0.246 OA
BRANCH   4   6
ATOM      6  C   UNL A   1      33.066  24.302  23.023  1.00  0.00     0.067 C 
ATOM      7  C   UNL A   1      31.984  23.489  22.930  1.00  0.00     0.024 C 
BRANCH   6   8
ATOM      8  C   UNL A   1      34.377  23.950  23.642  1.00  0.00    -0.011 A 
ATOM      9  C   UNL A   1      36.789  23.172  24.982  1.00  0.00    -0.018 A 
ATOM     10  C   UNL A   1      36.497  22.743  23.679  1.00  0.00     0.009 A 
ATOM     11  C   UNL A   1      35.864  24.037  25.584  1.00  0.00     0.009 A 
ATOM     12  C   UNL A   1      35.337  23.156  23.010  1.00  0.00     0.009 A 
ATOM     13  C   UNL A   1      34.681  24.412  24.932  1.00  0.00     0.009 A 
BRANCH   9  14
ATOM     14  C   UNL A   1      38.031  22.755  25.674  1.00  0.00    -0.018 A 
ATOM     15  C   UNL A   1      40.436  21.961  26.946  1.00  0.00     0.119 A 
ATOM     16  C   UNL A   1      39.755  21.076  26.118  1.00  0.00     0.047 A 
ATOM     17  C   UNL A   1      39.942  23.247  27.127  1.00  0.00     0.047 A 
ATOM     18  C   UNL A   1      38.566  21.467  25.494  1.00  0.00     0.012 A 
ATOM     19  C   UNL A   1      38.742  23.631  26.514  1.00  0.00     0.012 A 
BRANCH  15  20
ATOM     20  O   UNL A   1      41.645  21.550  27.424  1.00  0.00    -0.491 OA
BRANCH  20  21
ATOM     21  C   UNL A   1      42.318  20.478  26.745  1.00  0.00     0.167 C 
ATOM     22  C   UNL A   1      43.605  20.926  26.061  1.00  0.00     0.052 C 
ATOM     23  C   UNL A   1      42.503  19.214  27.583  1.00  0.00     0.052 C 
ENDBRANCH  20  21
ENDBRANCH  15  20
ENDBRANCH   9  14
ENDBRANCH   6   8
BRANCH   7  24
ATOM     24  C   UNL A   1      31.945  22.057  23.269  1.00  0.00    -0.025 A 
ATOM     25  C   UNL A   1      31.926  21.152  22.197  1.00  0.00     0.009 A 
ATOM     26  C   UNL A   1      32.102  21.576  24.576  1.00  0.00     0.009 A 
ATOM     27  C   UNL A   1      32.192  19.802  22.408  1.00  0.00     0.021 A 
ATOM     28  C   UNL A   1      32.376  20.220  24.794  1.00  0.00     0.021 A 
ATOM     29  C   UNL A   1      32.454  19.349  23.704  1.00  0.00     0.067 A 
BRANCH  29  30
ATOM     30  S   UNL A   1      33.082  17.699  23.917  1.00  0.00     0.175 S 
ATOM     31  C   UNL A   1      34.746  17.932  24.470  1.00  0.00     0.163 C 
ATOM     32  O   UNL A   1      32.325  17.099  25.001  1.00  0.00    -0.224 OA
ATOM     33  O   UNL A   1      33.128  17.071  22.610  1.00  0.00    -0.224 OA
ENDBRANCH  29  30
ENDBRANCH   7  24
ENDBRANCH   4   6
ENDBRANCH   3   4
ENDBRANCH   2   3
ENDBRANCH   1   2
BRANCH   1  34
ATOM     34  O   UNL A   1      30.721  28.831  24.234  1.00  0.00    -0.374 OA
BRANCH  34  35
ATOM     35  C   UNL A   1      31.607  29.032  25.337  1.00  0.00     0.202 C 
BRANCH  35  36
ATOM     36  C   UNL A   1      31.748  30.469  25.846  1.00  0.00     0.261 C 
BRANCH  36  37
ATOM     37  O   UNL A   1      32.472  30.528  27.086  1.00  0.00    -0.460 OA
BRANCH  37  38
ATOM     38  C   UNL A   1      33.129  31.689  27.303  1.00  0.00     0.338 C 
ATOM     39  O   UNL A   1      32.669  32.822  27.261  1.00  0.00    -0.246 OA
BRANCH  38  40
ATOM     40  C   UNL A   1      34.493  31.410  27.786  1.00  0.00     0.060 A 
ATOM     41  C   UNL A   1      34.792  30.091  28.149  1.00  0.00     0.016 A 
ATOM     42  C   UNL A   1      35.443  32.422  27.940  1.00  0.00     0.016 A 
ATOM     43  C   UNL A   1      36.024  29.787  28.720  1.00  0.00     0.010 A 
ATOM     44  C   UNL A   1      36.678  32.118  28.520  1.00  0.00     0.010 A 
ATOM     45  C   UNL A   1      36.958  30.806  28.945  1.00  0.00    -0.014 A 
BRANCH  45  46
ATOM     46  C   UNL A   1      38.162  30.525  29.762  1.00  0.00     0.031 A 
ATOM     47  C   UNL A   1      39.268  29.699  29.165  1.00  0.00     0.074 A 
ATOM     48  C   UNL A   1      38.282  31.022  31.004  1.00  0.00     0.049 A 
ATOM     49  N   UNL A   1      40.395  29.309  29.702  1.00  0.00    -0.248 NA
ATOM     50  C   UNL A   1      39.076  29.254  27.775  1.00  0.00     0.031 C 
ATOM     51  C   UNL A   1      37.297  31.869  31.675  1.00  0.00     0.029 A 
ATOM     52  N   UNL A   1      39.290  30.881  31.924  1.00  0.00    -0.354 N 
ATOM     53  C   UNL A   1      41.044  28.572  28.720  1.00  0.00     0.074 A 
ATOM     54  C   UNL A   1      40.172  28.540  27.566  1.00  0.00     0.031 C 
ATOM     55  C   UNL A   1      37.749  32.169  32.905  1.00  0.00     0.029 A 
ATOM     56  C   UNL A   1      39.036  31.512  33.117  1.00  0.00     0.049 A 
ATOM     57  H   UNL A   1      40.117  30.377  31.745  1.00  0.00     0.167 HD
ATOM     58  C   UNL A   1      42.263  27.983  28.771  1.00  0.00     0.037 A 
ATOM     59  C   UNL A   1      39.757  31.537  34.254  1.00  0.00     0.037 A 
ATOM     60  C   UNL A   1      43.129  28.013  29.920  1.00  0.00     0.049 A 
ATOM     61  C   UNL A   1      41.073  30.810  34.313  1.00  0.00     0.074 A 
ATOM     62  C   UNL A   1      44.388  27.459  30.068  1.00  0.00     0.029 A 
ATOM     63  N   UNL A   1      42.820  28.628  31.124  1.00  0.00    -0.354 N 
ATOM     64  N   UNL A   1      41.688  30.133  33.374  1.00  0.00    -0.248 NA
ATOM     65  C   UNL A   1      41.797  30.853  35.592  1.00  0.00     0.031 C 
ATOM     66  C   UNL A   1      44.821  27.699  31.376  1.00  0.00     0.029 A 
ATOM     67  C   UNL A   1      43.853  28.445  32.027  1.00  0.00     0.049 A 
ATOM     68  H   UNL A   1      41.988  29.122  31.308  1.00  0.00     0.167 HD
ATOM     69  C   UNL A   1      42.880  29.694  33.937  1.00  0.00     0.074 A 
ATOM     70  C   UNL A   1      42.906  30.190  35.297  1.00  0.00     0.031 C 
ATOM     71  C   UNL A   1      43.866  28.951  33.377  1.00  0.00     0.037 A 
BRANCH  58  72
ATOM     72  C   UNL A   1      42.717  27.236  27.552  1.00  0.00     0.057 A 
ATOM     73  C   UNL A   1      43.255  27.893  26.438  1.00  0.00     0.134 A 
ATOM     74  C   UNL A   1      42.631  25.839  27.498  1.00  0.00     0.134 A 
ATOM     75  F   UNL A   1      43.351  29.232  26.420  1.00  0.00    -0.206 F 
ATOM     76  C   UNL A   1      43.669  27.191  25.305  1.00  0.00     0.040 A 
ATOM     77  C   UNL A   1      43.063  25.124  26.380  1.00  0.00     0.040 A 
ATOM     78  F   UNL A   1      42.128  25.148  28.531  1.00  0.00    -0.206 F 
ATOM     79  C   UNL A   1      43.578  25.801  25.276  1.00  0.00     0.006 A 
ENDBRANCH  58  72
BRANCH  59  80
ATOM     80  C   UNL A   1      39.247  32.273  35.438  1.00  0.00     0.057 A 
ATOM     81  C   UNL A   1      39.577  33.616  35.652  1.00  0.00     0.134 A 
ATOM     82  C   UNL A   1      38.431  31.648  36.389  1.00  0.00     0.134 A 
ATOM     83  F   UNL A   1      40.374  34.261  34.788  1.00  0.00    -0.206 F 
ATOM     84  C   UNL A   1      39.127  34.308  36.779  1.00  0.00     0.040 A 
ATOM     85  C   UNL A   1      37.955  32.334  37.507  1.00  0.00     0.040 A 
ATOM     86  F   UNL A   1      38.079  30.363  36.240  1.00  0.00    -0.206 F 
ATOM     87  C   UNL A   1      38.308  33.668  37.707  1.00  0.00     0.006 A 
ENDBRANCH  59  80
BRANCH  71  88
ATOM     88  C   UNL A   1      45.071  28.658  34.222  1.00  0.00     0.057 A 
ATOM     89  C   UNL A   1      45.158  27.507  35.014  1.00  0.00     0.134 A 
ATOM     90  C   UNL A   1      46.175  29.522  34.211  1.00  0.00     0.134 A 
ATOM     91  F   UNL A   1      44.131  26.647  35.078  1.00  0.00    -0.206 F 
ATOM     92  C   UNL A   1      46.293  27.233  35.781  1.00  0.00     0.040 A 
ATOM     93  C   UNL A   1      47.324  29.246  34.954  1.00  0.00     0.040 A 
ATOM     94  F   UNL A   1      46.159  30.638  33.467  1.00  0.00    -0.206 F 
ATOM     95  C   UNL A   1      47.383  28.102  35.747  1.00  0.00     0.006 A 
ENDBRANCH  71  88
ENDBRANCH  45  46
ENDBRANCH  38  40
ENDBRANCH  37  38
ENDBRANCH  36  37
ENDBRANCH  35  36
ENDBRANCH  34  35
ENDBRANCH   1  34
TORSDOF 20
ENDMDL
MODEL 3
REMARK VINA RESULT:     -12.0      3.669      9.468
REMARK SMILES CC(C)Oc1ccc(-c2ccc(/C(=C\c3ccc(S(C)(=O)=O)cc3)C(=O)OCCOCCOC(=O)c3ccc(-c4c5nc(c(-c6c(F)cccc6F)c6ccc([nH]6)c(-c6c(F)cccc6F)c6nc(c(-c7c(F)cccc7F)c7ccc4[nH]7)C=C6)C=C5)cc3)cc2)cc1
REMARK SMILES IDX 29 1 28 2 27 3 25 4 26 5 13 6 14 7 12 8 9 9 10 10 91 11
REMARK SMILES IDX 11 12 90 13 8 14 5 15 6 16 93 17 7 18 92 19 4 20 2 21 1 22
REMARK SMILES IDX 3 23 15 24 16 25 24 26 17 27 23 28 18 29 19 30 20 31 21 32
REMARK SMILES IDX 22 33 30 34 31 35 32 36 33 37 34 38 35 39 36 40 37 41 89 42
REMARK SMILES IDX 38 43 88 44 39 45 40 46 41 47 82 48 42 49 87 50 81 51 83 52
REMARK SMILES IDX 43 53 86 54 80 55 79 56 44 58 70 59 53 60 69 61 54 62 57 63
REMARK SMILES IDX 68 64 84 65 55 66 56 67 67 69 85 70 58 71 45 72 46 73 51 74
REMARK SMILES IDX 47 75 48 76 50 77 52 78 49 79 71 80 72 81 77 82 73 83 74 84
REMARK SMILES IDX 76 85 78 86 75 87 59 88 60 89 65 90 61 91 62 92 64 93 66 94
REMARK SMILES IDX 63 95
REMARK H PARENT 83 57 57 68
REMARK Flexibility Score: inf
ROOT
ATOM      1  C   UNL A   1      34.684  23.388  24.677  1.00  0.00     0.202 C 
ENDROOT
BRANCH   1   2
ATOM      2  C   UNL A   1      33.863  22.579  25.684  1.00  0.00     0.261 C 
BRANCH   2   3
ATOM      3  O   UNL A   1      32.460  22.794  25.464  1.00  0.00    -0.460 OA
BRANCH   3   4
ATOM      4  C   UNL A   1      31.868  23.673  26.314  1.00  0.00     0.338 C 
ATOM      5  O   UNL A   1      31.745  23.525  27.520  1.00  0.00    -0.246 OA
BRANCH   4   6
ATOM      6  C   UNL A   1      31.508  24.945  25.600  1.00  0.00     0.067 C 
ATOM      7  C   UNL A   1      30.669  24.831  24.541  1.00  0.00     0.024 C 
BRANCH   6   8
ATOM      8  C   UNL A   1      32.102  26.214  26.115  1.00  0.00    -0.011 A 
ATOM      9  C   UNL A   1      33.263  28.714  26.904  1.00  0.00    -0.018 A 
ATOM     10  C   UNL A   1      31.954  28.362  27.263  1.00  0.00     0.009 A 
ATOM     11  C   UNL A   1      33.995  27.765  26.175  1.00  0.00     0.009 A 
ATOM     12  C   UNL A   1      31.401  27.123  26.912  1.00  0.00     0.009 A 
ATOM     13  C   UNL A   1      33.425  26.545  25.783  1.00  0.00     0.009 A 
BRANCH   9  14
ATOM     14  C   UNL A   1      33.852  30.013  27.303  1.00  0.00    -0.018 A 
ATOM     15  C   UNL A   1      35.009  32.500  28.015  1.00  0.00     0.119 A 
ATOM     16  C   UNL A   1      35.780  31.343  28.013  1.00  0.00     0.047 A 
ATOM     17  C   UNL A   1      33.673  32.433  27.643  1.00  0.00     0.047 A 
ATOM     18  C   UNL A   1      35.208  30.115  27.665  1.00  0.00     0.012 A 
ATOM     19  C   UNL A   1      33.097  31.200  27.310  1.00  0.00     0.012 A 
BRANCH  15  20
ATOM     20  O   UNL A   1      35.662  33.674  28.251  1.00  0.00    -0.491 OA
BRANCH  20  21
ATOM     21  C   UNL A   1      35.045  34.634  29.123  1.00  0.00     0.167 C 
ATOM     22  C   UNL A   1      34.162  35.630  28.377  1.00  0.00     0.052 C 
ATOM     23  C   UNL A   1      34.354  34.029  30.343  1.00  0.00     0.052 C 
ENDBRANCH  20  21
ENDBRANCH  15  20
ENDBRANCH   9  14
ENDBRANCH   6   8
BRANCH   7  24
ATOM     24  C   UNL A   1      30.052  25.942  23.799  1.00  0.00    -0.025 A 
ATOM     25  C   UNL A   1      28.685  26.169  24.019  1.00  0.00     0.009 A 
ATOM     26  C   UNL A   1      30.793  26.862  23.045  1.00  0.00     0.009 A 
ATOM     27  C   UNL A   1      28.093  27.361  23.609  1.00  0.00     0.021 A 
ATOM     28  C   UNL A   1      30.204  28.064  22.634  1.00  0.00     0.021 A 
ATOM     29  C   UNL A   1      28.867  28.320  22.950  1.00  0.00     0.067 A 
BRANCH  29  30
ATOM     30  S   UNL A   1      28.180  29.942  22.702  1.00  0.00     0.175 S 
ATOM     31  C   UNL A   1      29.302  31.024  23.540  1.00  0.00     0.163 C 
ATOM     32  O   UNL A   1      28.263  30.219  21.279  1.00  0.00    -0.224 OA
ATOM     33  O   UNL A   1      26.907  29.995  23.394  1.00  0.00    -0.224 OA
ENDBRANCH  29  30
ENDBRANCH   7  24
ENDBRANCH   4   6
ENDBRANCH   3   4
ENDBRANCH   2   3
ENDBRANCH   1   2
BRANCH   1  34
ATOM     34  O   UNL A   1      35.298  22.633  23.633  1.00  0.00    -0.374 OA
BRANCH  34  35
ATOM     35  C   UNL A   1      36.719  22.489  23.681  1.00  0.00     0.202 C 
BRANCH  35  36
ATOM     36  C   UNL A   1      37.260  21.335  24.529  1.00  0.00     0.261 C 
BRANCH  36  37
ATOM     37  O   UNL A   1      37.657  21.775  25.838  1.00  0.00    -0.460 OA
BRANCH  37  38
ATOM     38  C   UNL A   1      38.970  21.610  26.116  1.00  0.00     0.338 C 
ATOM     39  O   UNL A   1      39.685  20.671  25.794  1.00  0.00    -0.246 OA
BRANCH  38  40
ATOM     40  C   UNL A   1      39.509  22.833  26.736  1.00  0.00     0.060 A 
ATOM     41  C   UNL A   1      38.990  24.059  26.302  1.00  0.00     0.016 A 
ATOM     42  C   UNL A   1      40.540  22.791  27.677  1.00  0.00     0.016 A 
ATOM     43  C   UNL A   1      39.538  25.252  26.766  1.00  0.00     0.010 A 
ATOM     44  C   UNL A   1      41.095  23.989  28.138  1.00  0.00     0.010 A 
ATOM     45  C   UNL A   1      40.619  25.222  27.656  1.00  0.00    -0.014 A 
BRANCH  45  46
ATOM     46  C   UNL A   1      41.347  26.476  27.960  1.00  0.00     0.031 A 
ATOM     47  C   UNL A   1      42.756  26.638  27.462  1.00  0.00     0.074 A 
ATOM     48  C   UNL A   1      40.752  27.468  28.643  1.00  0.00     0.049 A 
ATOM     49  N   UNL A   1      43.587  27.634  27.630  1.00  0.00    -0.248 NA
ATOM     50  C   UNL A   1      43.301  25.526  26.666  1.00  0.00     0.031 C 
ATOM     51  C   UNL A   1      39.378  27.446  29.142  1.00  0.00     0.029 A 
ATOM     52  N   UNL A   1      41.234  28.690  29.037  1.00  0.00    -0.354 N 
ATOM     53  C   UNL A   1      44.751  27.270  26.966  1.00  0.00     0.074 A 
ATOM     54  C   UNL A   1      44.532  25.947  26.420  1.00  0.00     0.031 C 
ATOM     55  C   UNL A   1      39.129  28.601  29.782  1.00  0.00     0.029 A 
ATOM     56  C   UNL A   1      40.333  29.429  29.763  1.00  0.00     0.049 A 
ATOM     57  H   UNL A   1      42.141  29.008  28.818  1.00  0.00     0.167 HD
ATOM     58  C   UNL A   1      45.896  27.977  26.815  1.00  0.00     0.037 A 
ATOM     59  C   UNL A   1      40.475  30.628  30.359  1.00  0.00     0.037 A 
ATOM     60  C   UNL A   1      46.114  29.291  27.361  1.00  0.00     0.049 A 
ATOM     61  C   UNL A   1      41.784  31.362  30.242  1.00  0.00     0.074 A 
ATOM     62  C   UNL A   1      47.234  30.096  27.252  1.00  0.00     0.029 A 
ATOM     63  N   UNL A   1      45.191  29.990  28.124  1.00  0.00    -0.354 N 
ATOM     64  N   UNL A   1      42.872  31.018  29.597  1.00  0.00    -0.248 NA
ATOM     65  C   UNL A   1      41.883  32.653  30.939  1.00  0.00     0.031 C 
ATOM     66  C   UNL A   1      47.006  31.263  27.989  1.00  0.00     0.029 A 
ATOM     67  C   UNL A   1      45.726  31.205  28.516  1.00  0.00     0.049 A 
ATOM     68  H   UNL A   1      44.290  29.668  28.354  1.00  0.00     0.167 HD
ATOM     69  C   UNL A   1      43.772  32.060  29.783  1.00  0.00     0.074 A 
ATOM     70  C   UNL A   1      43.100  33.052  30.596  1.00  0.00     0.031 C 
ATOM     71  C   UNL A   1      45.041  32.185  29.320  1.00  0.00     0.037 A 
BRANCH  58  72
ATOM     72  C   UNL A   1      47.009  27.327  26.047  1.00  0.00     0.057 A 
ATOM     73  C   UNL A   1      47.980  26.537  26.676  1.00  0.00     0.134 A 
ATOM     74  C   UNL A   1      47.100  27.479  24.658  1.00  0.00     0.134 A 
ATOM     75  F   UNL A   1      47.958  26.364  28.006  1.00  0.00    -0.206 F 
ATOM     76  C   UNL A   1      49.016  25.941  25.954  1.00  0.00     0.040 A 
ATOM     77  C   UNL A   1      48.117  26.868  23.922  1.00  0.00     0.040 A 
ATOM     78  F   UNL A   1      46.201  28.220  23.993  1.00  0.00    -0.206 F 
ATOM     79  C   UNL A   1      49.083  26.102  24.572  1.00  0.00     0.006 A 
ENDBRANCH  58  72
BRANCH  59  80
ATOM     80  C   UNL A   1      39.347  31.212  31.126  1.00  0.00     0.057 A 
ATOM     81  C   UNL A   1      38.463  32.122  30.535  1.00  0.00     0.134 A 
ATOM     82  C   UNL A   1      39.135  30.888  32.472  1.00  0.00     0.134 A 
ATOM     83  F   UNL A   1      38.629  32.489  29.256  1.00  0.00    -0.206 F 
ATOM     84  C   UNL A   1      37.417  32.699  31.258  1.00  0.00     0.040 A 
ATOM     85  C   UNL A   1      38.081  31.439  33.200  1.00  0.00     0.040 A 
ATOM     86  F   UNL A   1      39.948  30.022  33.095  1.00  0.00    -0.206 F 
ATOM     87  C   UNL A   1      37.221  32.353  32.593  1.00  0.00     0.006 A 
ENDBRANCH  59  80
BRANCH  71  88
ATOM     88  C   UNL A   1      45.772  33.453  29.652  1.00  0.00     0.057 A 
ATOM     89  C   UNL A   1      46.595  33.559  30.780  1.00  0.00     0.134 A 
ATOM     90  C   UNL A   1      45.681  34.568  28.809  1.00  0.00     0.134 A 
ATOM     91  F   UNL A   1      46.714  32.532  31.634  1.00  0.00    -0.206 F 
ATOM     92  C   UNL A   1      47.287  34.737  31.069  1.00  0.00     0.040 A 
ATOM     93  C   UNL A   1      46.388  35.742  29.073  1.00  0.00     0.040 A 
ATOM     94  F   UNL A   1      44.917  34.529  27.707  1.00  0.00    -0.206 F 
ATOM     95  C   UNL A   1      47.189  35.831  30.210  1.00  0.00     0.006 A 
ENDBRANCH  71  88
ENDBRANCH  45  46
ENDBRANCH  38  40
ENDBRANCH  37  38
ENDBRANCH  36  37
ENDBRANCH  35  36
ENDBRANCH  34  35
ENDBRANCH   1  34
TORSDOF 20
ENDMDL
