MODEL 1
REMARK VINA RESULT:     -11.1      0.000      0.000
REMARK SMILES O=C(OCCOCCOC(=O)c1nccnc1C(=O)Nc1ccc(-n2cncn2)c(Cl)c1)c1ccc(-c2c3nc(c(-c4c(F)cccc4F)c4ccc([nH]4)c(-c4c(F)cccc4F)c4nc(c(-c5c(F)cccc5F)c5ccc2[nH]5)C=C4)C=C3)cc1
REMARK SMILES IDX 7 1 6 2 5 3 4 4 3 5 2 6 1 7 33 8 34 9 86 10 35 11 85 12
REMARK SMILES IDX 36 13 37 14 38 15 79 16 39 17 84 18 78 19 80 20 40 21 83 22
REMARK SMILES IDX 77 23 76 24 41 26 67 27 50 28 66 29 51 30 54 31 65 32 81 33
REMARK SMILES IDX 52 34 53 35 64 37 82 38 55 39 42 40 43 41 48 42 44 43 45 44
REMARK SMILES IDX 47 45 49 46 46 47 68 48 69 49 74 50 70 51 71 52 73 53 75 54
REMARK SMILES IDX 72 55 56 56 57 57 62 58 58 59 59 60 61 61 63 62 60 63 8 64
REMARK SMILES IDX 9 65 10 66 11 67 12 68 13 69 17 70 14 71 16 72 15 73 18 74
REMARK SMILES IDX 19 75 20 76 21 78 22 79 32 80 23 81 30 82 24 83 31 84 25 85
REMARK SMILES IDX 26 86 29 87 27 88 28 89
REMARK H PARENT 80 25 54 36 20 77
REMARK Flexibility Score: inf
ROOT
ATOM      1  C   UNL A   1      31.825  29.158  24.969  1.00  0.00     0.202 C 
ENDROOT
BRANCH   1   2
ATOM      2  O   UNL A   1      32.898  29.997  25.395  1.00  0.00    -0.374 OA
BRANCH   2   3
ATOM      3  C   UNL A   1      33.371  29.975  26.731  1.00  0.00     0.202 C 
BRANCH   3   4
ATOM      4  C   UNL A   1      34.640  29.208  27.116  1.00  0.00     0.261 C 
BRANCH   4   5
ATOM      5  O   UNL A   1      35.302  29.727  28.265  1.00  0.00    -0.460 OA
BRANCH   5   6
ATOM      6  C   UNL A   1      36.581  30.146  28.341  1.00  0.00     0.338 C 
ATOM      7  O   UNL A   1      36.784  31.341  28.558  1.00  0.00    -0.246 OA
BRANCH   6   8
ATOM      8  C   UNL A   1      37.770  29.249  28.201  1.00  0.00     0.060 A 
ATOM      9  C   UNL A   1      38.202  28.286  29.117  1.00  0.00     0.016 A 
ATOM     10  C   UNL A   1      38.558  29.492  27.063  1.00  0.00     0.016 A 
ATOM     11  C   UNL A   1      39.496  27.821  29.079  1.00  0.00     0.010 A 
ATOM     12  C   UNL A   1      39.838  28.987  26.983  1.00  0.00     0.010 A 
ATOM     13  C   UNL A   1      40.325  28.264  28.061  1.00  0.00    -0.014 A 
BRANCH  13  14
ATOM     14  C   UNL A   1      41.724  27.926  28.169  1.00  0.00     0.031 A 
ATOM     15  C   UNL A   1      42.075  26.626  27.551  1.00  0.00     0.074 A 
ATOM     16  C   UNL A   1      42.572  28.795  28.750  1.00  0.00     0.049 A 
ATOM     17  N   UNL A   1      42.610  25.591  28.110  1.00  0.00    -0.248 NA
ATOM     18  C   UNL A   1      41.619  26.393  26.169  1.00  0.00     0.031 C 
ATOM     19  C   UNL A   1      42.295  30.171  29.179  1.00  0.00     0.029 A 
ATOM     20  N   UNL A   1      43.903  28.672  28.972  1.00  0.00    -0.354 N 
ATOM     21  C   UNL A   1      42.759  24.656  27.091  1.00  0.00     0.074 A 
ATOM     22  C   UNL A   1      41.978  25.126  25.979  1.00  0.00     0.031 C 
ATOM     23  C   UNL A   1      43.464  30.824  29.359  1.00  0.00     0.029 A 
ATOM     24  C   UNL A   1      44.551  29.881  29.190  1.00  0.00     0.049 A 
ATOM     25  H   UNL A   1      44.369  27.805  28.979  1.00  0.00     0.167 HD
ATOM     26  C   UNL A   1      43.731  23.708  27.148  1.00  0.00     0.037 A 
ATOM     27  C   UNL A   1      45.890  30.078  29.112  1.00  0.00     0.037 A 
ATOM     28  C   UNL A   1      44.147  23.467  28.505  1.00  0.00     0.049 A 
ATOM     29  C   UNL A   1      46.538  28.742  29.212  1.00  0.00     0.074 A 
ATOM     30  C   UNL A   1      43.499  23.031  29.644  1.00  0.00     0.029 A 
ATOM     31  N   UNL A   1      45.317  24.042  28.935  1.00  0.00    -0.354 N 
ATOM     32  N   UNL A   1      46.539  28.018  30.298  1.00  0.00    -0.248 NA
ATOM     33  C   UNL A   1      46.758  28.006  27.974  1.00  0.00     0.031 C 
ATOM     34  C   UNL A   1      44.067  23.792  30.706  1.00  0.00     0.029 A 
ATOM     35  C   UNL A   1      45.074  24.594  30.167  1.00  0.00     0.049 A 
ATOM     36  H   UNL A   1      46.173  24.057  28.449  1.00  0.00     0.167 HD
ATOM     37  C   UNL A   1      46.333  26.718  29.859  1.00  0.00     0.074 A 
ATOM     38  C   UNL A   1      46.550  26.762  28.415  1.00  0.00     0.031 C 
ATOM     39  C   UNL A   1      45.718  25.792  30.652  1.00  0.00     0.037 A 
BRANCH  26  40
ATOM     40  C   UNL A   1      44.561  23.315  25.951  1.00  0.00     0.057 A 
ATOM     41  C   UNL A   1      44.664  21.959  25.602  1.00  0.00     0.134 A 
ATOM     42  C   UNL A   1      45.487  24.168  25.313  1.00  0.00     0.134 A 
ATOM     43  F   UNL A   1      43.853  21.043  26.152  1.00  0.00    -0.206 F 
ATOM     44  C   UNL A   1      45.661  21.479  24.742  1.00  0.00     0.040 A 
ATOM     45  C   UNL A   1      46.452  23.709  24.415  1.00  0.00     0.040 A 
ATOM     46  F   UNL A   1      45.584  25.473  25.595  1.00  0.00    -0.206 F 
ATOM     47  C   UNL A   1      46.564  22.355  24.151  1.00  0.00     0.006 A 
ENDBRANCH  26  40
BRANCH  27  48
ATOM     48  C   UNL A   1      46.598  31.274  28.601  1.00  0.00     0.057 A 
ATOM     49  C   UNL A   1      47.623  31.876  29.342  1.00  0.00     0.134 A 
ATOM     50  C   UNL A   1      46.468  31.704  27.267  1.00  0.00     0.134 A 
ATOM     51  F   UNL A   1      47.855  31.505  30.609  1.00  0.00    -0.206 F 
ATOM     52  C   UNL A   1      48.480  32.835  28.785  1.00  0.00     0.040 A 
ATOM     53  C   UNL A   1      47.309  32.667  26.702  1.00  0.00     0.040 A 
ATOM     54  F   UNL A   1      45.576  31.142  26.438  1.00  0.00    -0.206 F 
ATOM     55  C   UNL A   1      48.330  33.226  27.457  1.00  0.00     0.006 A 
ENDBRANCH  27  48
BRANCH  39  56
ATOM     56  C   UNL A   1      45.473  26.152  32.094  1.00  0.00     0.057 A 
ATOM     57  C   UNL A   1      44.303  26.771  32.561  1.00  0.00     0.134 A 
ATOM     58  C   UNL A   1      46.380  25.707  33.062  1.00  0.00     0.134 A 
ATOM     59  F   UNL A   1      43.327  27.133  31.718  1.00  0.00    -0.206 F 
ATOM     60  C   UNL A   1      44.070  26.978  33.924  1.00  0.00     0.040 A 
ATOM     61  C   UNL A   1      46.142  25.876  34.428  1.00  0.00     0.040 A 
ATOM     62  F   UNL A   1      47.492  25.051  32.694  1.00  0.00    -0.206 F 
ATOM     63  C   UNL A   1      44.989  26.523  34.863  1.00  0.00     0.006 A 
ENDBRANCH  39  56
ENDBRANCH  13  14
ENDBRANCH   6   8
ENDBRANCH   5   6
ENDBRANCH   4   5
ENDBRANCH   3   4
ENDBRANCH   2   3
ENDBRANCH   1   2
BRANCH   1  64
ATOM     64  C   UNL A   1      31.531  27.773  25.568  1.00  0.00     0.261 C 
BRANCH  64  65
ATOM     65  O   UNL A   1      31.770  26.665  24.690  1.00  0.00    -0.458 OA
BRANCH  65  66
ATOM     66  C   UNL A   1      32.801  25.883  25.053  1.00  0.00     0.359 C 
ATOM     67  O   UNL A   1      33.924  26.284  25.361  1.00  0.00    -0.244 OA
BRANCH  66  68
ATOM     68  C   UNL A   1      32.475  24.438  25.033  1.00  0.00     0.179 A 
ATOM     69  N   UNL A   1      31.513  24.147  25.976  1.00  0.00    -0.245 NA
ATOM     70  C   UNL A   1      32.943  23.462  24.153  1.00  0.00     0.161 A 
ATOM     71  C   UNL A   1      31.094  22.872  26.064  1.00  0.00     0.132 A 
ATOM     72  N   UNL A   1      32.480  22.169  24.266  1.00  0.00    -0.247 NA
ATOM     73  C   UNL A   1      31.580  21.895  25.230  1.00  0.00     0.132 A 
BRANCH  70  74
ATOM     74  C   UNL A   1      34.034  23.490  23.134  1.00  0.00     0.276 C 
ATOM     75  O   UNL A   1      33.675  23.689  21.961  1.00  0.00    -0.267 OA
ATOM     76  N   UNL A   1      35.400  23.347  23.282  1.00  0.00    -0.321 N 
ATOM     77  H   UNL A   1      35.898  23.695  22.509  1.00  0.00     0.170 HD
BRANCH  76  78
ATOM     78  C   UNL A   1      36.243  22.826  24.266  1.00  0.00     0.043 A 
ATOM     79  C   UNL A   1      36.606  21.495  24.340  1.00  0.00     0.028 A 
ATOM     80  C   UNL A   1      36.848  23.755  25.137  1.00  0.00     0.049 A 
ATOM     81  C   UNL A   1      37.719  21.125  25.088  1.00  0.00     0.032 A 
ATOM     82  C   UNL A   1      37.957  23.391  25.909  1.00  0.00     0.068 A 
ATOM     83  C   UNL A   1      38.422  22.082  25.831  1.00  0.00     0.085 A 
ATOM     84  Cl  UNL A   1      38.650  24.565  26.966  1.00  0.00    -0.082 Cl
BRANCH  83  85
ATOM     85  N   UNL A   1      39.666  21.694  26.353  1.00  0.00    -0.220 N 
ATOM     86  C   UNL A   1      40.199  22.111  27.550  1.00  0.00     0.226 A 
ATOM     87  N   UNL A   1      40.194  20.488  26.022  1.00  0.00    -0.155 NA
ATOM     88  N   UNL A   1      41.013  21.204  28.032  1.00  0.00    -0.223 NA
ATOM     89  C   UNL A   1      40.955  20.222  27.087  1.00  0.00     0.246 A 
ENDBRANCH  83  85
ENDBRANCH  76  78
ENDBRANCH  70  74
ENDBRANCH  66  68
ENDBRANCH  65  66
ENDBRANCH  64  65
ENDBRANCH   1  64
TORSDOF 17
ENDMDL
MODEL 2
REMARK VINA RESULT:     -11.0      3.209      7.875
REMARK SMILES O=C(OCCOCCOC(=O)c1nccnc1C(=O)Nc1ccc(-n2cncn2)c(Cl)c1)c1ccc(-c2c3nc(c(-c4c(F)cccc4F)c4ccc([nH]4)c(-c4c(F)cccc4F)c4nc(c(-c5c(F)cccc5F)c5ccc2[nH]5)C=C4)C=C3)cc1
REMARK SMILES IDX 7 1 6 2 5 3 4 4 3 5 2 6 1 7 33 8 34 9 86 10 35 11 85 12
REMARK SMILES IDX 36 13 37 14 38 15 79 16 39 17 84 18 78 19 80 20 40 21 83 22
REMARK SMILES IDX 77 23 76 24 41 26 67 27 50 28 66 29 51 30 54 31 65 32 81 33
REMARK SMILES IDX 52 34 53 35 64 37 82 38 55 39 42 40 43 41 48 42 44 43 45 44
REMARK SMILES IDX 47 45 49 46 46 47 68 48 69 49 74 50 70 51 71 52 73 53 75 54
REMARK SMILES IDX 72 55 56 56 57 57 62 58 58 59 59 60 61 61 63 62 60 63 8 64
REMARK SMILES IDX 9 65 10 66 11 67 12 68 13 69 17 70 14 71 16 72 15 73 18 74
REMARK SMILES IDX 19 75 20 76 21 78 22 79 32 80 23 81 30 82 24 83 31 84 25 85
REMARK SMILES IDX 26 86 29 87 27 88 28 89
REMARK H PARENT 80 25 54 36 20 77
REMARK Flexibility Score: inf
ROOT
ATOM      1  C   UNL A   1      33.797  29.124  25.886  1.00  0.00     0.202 C 
ENDROOT
BRANCH   1   2
ATOM      2  O   UNL A   1      33.762  29.569  27.242  1.00  0.00    -0.374 OA
BRANCH   2   3
ATOM      3  C   UNL A   1      33.223  30.832  27.594  1.00  0.00     0.202 C 
BRANCH   3   4
ATOM      4  C   UNL A   1      34.121  32.058  27.780  1.00  0.00     0.261 C 
BRANCH   4   5
ATOM      5  O   UNL A   1      34.363  32.397  29.142  1.00  0.00    -0.460 OA
BRANCH   5   6
ATOM      6  C   UNL A   1      35.254  31.821  29.973  1.00  0.00     0.338 C 
ATOM      7  O   UNL A   1      35.058  31.916  31.185  1.00  0.00    -0.246 OA
BRANCH   6   8
ATOM      8  C   UNL A   1      36.454  31.053  29.517  1.00  0.00     0.060 A 
ATOM      9  C   UNL A   1      36.522  29.679  29.267  1.00  0.00     0.016 A 
ATOM     10  C   UNL A   1      37.636  31.807  29.432  1.00  0.00     0.016 A 
ATOM     11  C   UNL A   1      37.736  29.034  29.250  1.00  0.00     0.010 A 
ATOM     12  C   UNL A   1      38.860  31.177  29.359  1.00  0.00     0.010 A 
ATOM     13  C   UNL A   1      38.886  29.791  29.400  1.00  0.00    -0.014 A 
BRANCH  13  14
ATOM     14  C   UNL A   1      40.120  29.068  29.587  1.00  0.00     0.031 A 
ATOM     15  C   UNL A   1      40.578  29.019  30.995  1.00  0.00     0.074 A 
ATOM     16  C   UNL A   1      40.709  28.479  28.530  1.00  0.00     0.049 A 
ATOM     17  N   UNL A   1      41.692  29.448  31.492  1.00  0.00    -0.248 NA
ATOM     18  C   UNL A   1      39.597  28.585  32.007  1.00  0.00     0.031 C 
ATOM     19  C   UNL A   1      40.176  28.331  27.170  1.00  0.00     0.029 A 
ATOM     20  N   UNL A   1      41.868  27.778  28.477  1.00  0.00    -0.354 N 
ATOM     21  C   UNL A   1      41.638  29.133  32.846  1.00  0.00     0.074 A 
ATOM     22  C   UNL A   1      40.275  28.777  33.136  1.00  0.00     0.031 C 
ATOM     23  C   UNL A   1      40.878  27.378  26.519  1.00  0.00     0.029 A 
ATOM     24  C   UNL A   1      41.978  26.956  27.363  1.00  0.00     0.049 A 
ATOM     25  H   UNL A   1      42.568  27.845  29.166  1.00  0.00     0.167 HD
ATOM     26  C   UNL A   1      42.775  28.927  33.562  1.00  0.00     0.037 A 
ATOM     27  C   UNL A   1      42.853  25.929  27.229  1.00  0.00     0.037 A 
ATOM     28  C   UNL A   1      43.903  29.576  32.949  1.00  0.00     0.049 A 
ATOM     29  C   UNL A   1      43.928  26.133  28.237  1.00  0.00     0.074 A 
ATOM     30  C   UNL A   1      44.204  30.888  32.638  1.00  0.00     0.029 A 
ATOM     31  N   UNL A   1      44.770  28.807  32.212  1.00  0.00    -0.354 N 
ATOM     32  N   UNL A   1      44.799  27.104  28.180  1.00  0.00    -0.248 NA
ATOM     33  C   UNL A   1      43.730  25.553  29.559  1.00  0.00     0.031 C 
ATOM     34  C   UNL A   1      44.884  30.824  31.388  1.00  0.00     0.029 A 
ATOM     35  C   UNL A   1      45.022  29.479  31.044  1.00  0.00     0.049 A 
ATOM     36  H   UNL A   1      45.143  27.934  32.474  1.00  0.00     0.167 HD
ATOM     37  C   UNL A   1      44.937  27.536  29.492  1.00  0.00     0.074 A 
ATOM     38  C   UNL A   1      44.312  26.495  30.306  1.00  0.00     0.031 C 
ATOM     39  C   UNL A   1      45.276  28.827  29.780  1.00  0.00     0.037 A 
BRANCH  26  40
ATOM     40  C   UNL A   1      42.914  27.816  34.574  1.00  0.00     0.057 A 
ATOM     41  C   UNL A   1      43.117  26.501  34.126  1.00  0.00     0.134 A 
ATOM     42  C   UNL A   1      42.565  27.936  35.937  1.00  0.00     0.134 A 
ATOM     43  F   UNL A   1      43.435  26.251  32.847  1.00  0.00    -0.206 F 
ATOM     44  C   UNL A   1      42.917  25.388  34.953  1.00  0.00     0.040 A 
ATOM     45  C   UNL A   1      42.413  26.837  36.783  1.00  0.00     0.040 A 
ATOM     46  F   UNL A   1      42.252  29.107  36.504  1.00  0.00    -0.206 F 
ATOM     47  C   UNL A   1      42.556  25.554  36.284  1.00  0.00     0.006 A 
ENDBRANCH  26  40
BRANCH  27  48
ATOM     48  C   UNL A   1      42.625  24.631  26.555  1.00  0.00     0.057 A 
ATOM     49  C   UNL A   1      43.333  24.286  25.397  1.00  0.00     0.134 A 
ATOM     50  C   UNL A   1      41.900  23.591  27.167  1.00  0.00     0.134 A 
ATOM     51  F   UNL A   1      44.088  25.196  24.765  1.00  0.00    -0.206 F 
ATOM     52  C   UNL A   1      43.336  22.980  24.887  1.00  0.00     0.040 A 
ATOM     53  C   UNL A   1      41.886  22.287  26.663  1.00  0.00     0.040 A 
ATOM     54  F   UNL A   1      41.249  23.782  28.323  1.00  0.00    -0.206 F 
ATOM     55  C   UNL A   1      42.618  21.974  25.526  1.00  0.00     0.006 A 
ENDBRANCH  27  48
BRANCH  39  56
ATOM     56  C   UNL A   1      45.715  29.710  28.642  1.00  0.00     0.057 A 
ATOM     57  C   UNL A   1      44.838  30.472  27.855  1.00  0.00     0.134 A 
ATOM     58  C   UNL A   1      47.084  29.922  28.445  1.00  0.00     0.134 A 
ATOM     59  F   UNL A   1      43.513  30.418  28.044  1.00  0.00    -0.206 F 
ATOM     60  C   UNL A   1      45.302  31.367  26.886  1.00  0.00     0.040 A 
ATOM     61  C   UNL A   1      47.561  30.841  27.507  1.00  0.00     0.040 A 
ATOM     62  F   UNL A   1      47.984  29.276  29.204  1.00  0.00    -0.206 F 
ATOM     63  C   UNL A   1      46.668  31.559  26.716  1.00  0.00     0.006 A 
ENDBRANCH  39  56
ENDBRANCH  13  14
ENDBRANCH   6   8
ENDBRANCH   5   6
ENDBRANCH   4   5
ENDBRANCH   3   4
ENDBRANCH   2   3
ENDBRANCH   1   2
BRANCH   1  64
ATOM     64  C   UNL A   1      33.775  27.643  25.471  1.00  0.00     0.261 C 
BRANCH  64  65
ATOM     65  O   UNL A   1      33.217  26.746  26.439  1.00  0.00    -0.458 OA
BRANCH  65  66
ATOM     66  C   UNL A   1      31.889  26.568  26.330  1.00  0.00     0.359 C 
ATOM     67  O   UNL A   1      31.038  27.439  26.510  1.00  0.00    -0.244 OA
BRANCH  66  68
ATOM     68  C   UNL A   1      31.513  25.178  25.981  1.00  0.00     0.179 A 
ATOM     69  N   UNL A   1      31.182  24.468  27.114  1.00  0.00    -0.245 NA
ATOM     70  C   UNL A   1      31.381  24.616  24.711  1.00  0.00     0.161 A 
ATOM     71  C   UNL A   1      30.794  23.190  26.956  1.00  0.00     0.132 A 
ATOM     72  N   UNL A   1      30.969  23.307  24.589  1.00  0.00    -0.247 NA
ATOM     73  C   UNL A   1      30.702  22.614  25.713  1.00  0.00     0.132 A 
BRANCH  70  74
ATOM     74  C   UNL A   1      31.766  25.121  23.359  1.00  0.00     0.276 C 
ATOM     75  O   UNL A   1      32.591  24.431  22.738  1.00  0.00    -0.267 OA
ATOM     76  N   UNL A   1      31.337  26.236  22.666  1.00  0.00    -0.321 N 
ATOM     77  H   UNL A   1      31.523  26.172  21.702  1.00  0.00     0.170 HD
BRANCH  76  78
ATOM     78  C   UNL A   1      30.703  27.433  23.006  1.00  0.00     0.043 A 
ATOM     79  C   UNL A   1      31.350  28.651  23.079  1.00  0.00     0.028 A 
ATOM     80  C   UNL A   1      29.300  27.389  23.144  1.00  0.00     0.049 A 
ATOM     81  C   UNL A   1      30.610  29.829  23.044  1.00  0.00     0.032 A 
ATOM     82  C   UNL A   1      28.545  28.566  23.129  1.00  0.00     0.068 A 
ATOM     83  C   UNL A   1      29.210  29.783  23.019  1.00  0.00     0.085 A 
ATOM     84  Cl  UNL A   1      26.834  28.453  23.314  1.00  0.00    -0.082 Cl
BRANCH  83  85
ATOM     85  N   UNL A   1      28.540  30.984  22.733  1.00  0.00    -0.220 N 
ATOM     86  C   UNL A   1      28.846  32.217  23.256  1.00  0.00     0.226 A 
ATOM     87  N   UNL A   1      27.917  31.144  21.538  1.00  0.00    -0.155 NA
ATOM     88  N   UNL A   1      28.491  33.169  22.427  1.00  0.00    -0.223 NA
ATOM     89  C   UNL A   1      27.961  32.470  21.383  1.00  0.00     0.246 A 
ENDBRANCH  83  85
ENDBRANCH  76  78
ENDBRANCH  70  74
ENDBRANCH  66  68
ENDBRANCH  65  66
ENDBRANCH  64  65
ENDBRANCH   1  64
TORSDOF 17
ENDMDL
MODEL 3
REMARK VINA RESULT:     -11.0      4.148      6.953
REMARK SMILES O=C(OCCOCCOC(=O)c1nccnc1C(=O)Nc1ccc(-n2cncn2)c(Cl)c1)c1ccc(-c2c3nc(c(-c4c(F)cccc4F)c4ccc([nH]4)c(-c4c(F)cccc4F)c4nc(c(-c5c(F)cccc5F)c5ccc2[nH]5)C=C4)C=C3)cc1
REMARK SMILES IDX 7 1 6 2 5 3 4 4 3 5 2 6 1 7 33 8 34 9 86 10 35 11 85 12
REMARK SMILES IDX 36 13 37 14 38 15 79 16 39 17 84 18 78 19 80 20 40 21 83 22
REMARK SMILES IDX 77 23 76 24 41 26 67 27 50 28 66 29 51 30 54 31 65 32 81 33
REMARK SMILES IDX 52 34 53 35 64 37 82 38 55 39 42 40 43 41 48 42 44 43 45 44
REMARK SMILES IDX 47 45 49 46 46 47 68 48 69 49 74 50 70 51 71 52 73 53 75 54
REMARK SMILES IDX 72 55 56 56 57 57 62 58 58 59 59 60 61 61 63 62 60 63 8 64
REMARK SMILES IDX 9 65 10 66 11 67 12 68 13 69 17 70 14 71 16 72 15 73 18 74
REMARK SMILES IDX 19 75 20 76 21 78 22 79 32 80 23 81 30 82 24 83 31 84 25 85
REMARK SMILES IDX 26 86 29 87 27 88 28 89
REMARK H PARENT 80 25 54 36 20 77
REMARK Flexibility Score: inf
ROOT
ATOM      1  C   UNL A   1      34.027  29.093  26.825  1.00  0.00     0.202 C 
ENDROOT
BRANCH   1   2
ATOM      2  O   UNL A   1      33.104  30.104  27.230  1.00  0.00    -0.374 OA
BRANCH   2   3
ATOM      3  C   UNL A   1      33.543  31.385  27.646  1.00  0.00     0.202 C 
BRANCH   3   4
ATOM      4  C   UNL A   1      32.774  32.654  27.264  1.00  0.00     0.261 C 
BRANCH   4   5
ATOM      5  O   UNL A   1      32.393  33.456  28.377  1.00  0.00    -0.460 OA
BRANCH   5   6
ATOM      6  C   UNL A   1      33.140  34.392  28.994  1.00  0.00     0.338 C 
ATOM      7  O   UNL A   1      32.597  35.453  29.302  1.00  0.00    -0.246 OA
BRANCH   6   8
ATOM      8  C   UNL A   1      34.583  34.217  29.348  1.00  0.00     0.060 A 
ATOM      9  C   UNL A   1      35.684  34.684  28.623  1.00  0.00     0.016 A 
ATOM     10  C   UNL A   1      34.817  33.419  30.480  1.00  0.00     0.016 A 
ATOM     11  C   UNL A   1      36.928  34.132  28.815  1.00  0.00     0.010 A 
ATOM     12  C   UNL A   1      36.073  32.901  30.719  1.00  0.00     0.010 A 
ATOM     13  C   UNL A   1      37.077  33.169  29.800  1.00  0.00    -0.014 A 
BRANCH  13  14
ATOM     14  C   UNL A   1      38.335  32.463  29.835  1.00  0.00     0.031 A 
ATOM     15  C   UNL A   1      38.254  31.069  29.342  1.00  0.00     0.074 A 
ATOM     16  C   UNL A   1      39.443  33.107  30.246  1.00  0.00     0.049 A 
ATOM     17  N   UNL A   1      38.545  29.978  29.970  1.00  0.00    -0.248 NA
ATOM     18  C   UNL A   1      37.607  30.854  28.034  1.00  0.00     0.031 C 
ATOM     19  C   UNL A   1      39.596  34.538  30.538  1.00  0.00     0.029 A 
ATOM     20  N   UNL A   1      40.707  32.636  30.376  1.00  0.00    -0.354 N 
ATOM     21  C   UNL A   1      38.326  28.954  29.053  1.00  0.00     0.074 A 
ATOM     22  C   UNL A   1      37.588  29.526  27.960  1.00  0.00     0.031 C 
ATOM     23  C   UNL A   1      40.910  34.850  30.552  1.00  0.00     0.029 A 
ATOM     24  C   UNL A   1      41.677  33.630  30.405  1.00  0.00     0.049 A 
ATOM     25  H   UNL A   1      40.919  31.677  30.443  1.00  0.00     0.167 HD
ATOM     26  C   UNL A   1      39.006  27.780  29.141  1.00  0.00     0.037 A 
ATOM     27  C   UNL A   1      43.004  33.436  30.201  1.00  0.00     0.037 A 
ATOM     28  C   UNL A   1      39.482  27.551  30.479  1.00  0.00     0.049 A 
ATOM     29  C   UNL A   1      43.273  31.987  30.399  1.00  0.00     0.074 A 
ATOM     30  C   UNL A   1      38.866  27.414  31.707  1.00  0.00     0.029 A 
ATOM     31  N   UNL A   1      40.803  27.811  30.749  1.00  0.00    -0.354 N 
ATOM     32  N   UNL A   1      43.193  31.388  31.556  1.00  0.00    -0.248 NA
ATOM     33  C   UNL A   1      43.152  31.114  29.238  1.00  0.00     0.031 C 
ATOM     34  C   UNL A   1      39.728  28.075  32.629  1.00  0.00     0.029 A 
ATOM     35  C   UNL A   1      40.851  28.512  31.926  1.00  0.00     0.049 A 
ATOM     36  H   UNL A   1      41.575  27.543  30.199  1.00  0.00     0.167 HD
ATOM     37  C   UNL A   1      42.597  30.164  31.284  1.00  0.00     0.074 A 
ATOM     38  C   UNL A   1      42.664  30.021  29.831  1.00  0.00     0.031 C 
ATOM     39  C   UNL A   1      41.843  29.520  32.222  1.00  0.00     0.037 A 
BRANCH  26  40
ATOM     40  C   UNL A   1      39.566  27.069  27.934  1.00  0.00     0.057 A 
ATOM     41  C   UNL A   1      39.448  25.673  27.844  1.00  0.00     0.134 A 
ATOM     42  C   UNL A   1      40.463  27.654  27.014  1.00  0.00     0.134 A 
ATOM     43  F   UNL A   1      38.642  24.995  28.674  1.00  0.00    -0.206 F 
ATOM     44  C   UNL A   1      40.220  24.911  26.956  1.00  0.00     0.040 A 
ATOM     45  C   UNL A   1      41.199  26.910  26.090  1.00  0.00     0.040 A 
ATOM     46  F   UNL A   1      40.758  28.959  27.020  1.00  0.00    -0.206 F 
ATOM     47  C   UNL A   1      41.104  25.529  26.081  1.00  0.00     0.006 A 
ENDBRANCH  26  40
BRANCH  27  48
ATOM     48  C   UNL A   1      43.950  34.338  29.505  1.00  0.00     0.057 A 
ATOM     49  C   UNL A   1      45.083  34.837  30.159  1.00  0.00     0.134 A 
ATOM     50  C   UNL A   1      43.910  34.527  28.111  1.00  0.00     0.134 A 
ATOM     51  F   UNL A   1      45.235  34.669  31.480  1.00  0.00    -0.206 F 
ATOM     52  C   UNL A   1      46.125  35.471  29.467  1.00  0.00     0.040 A 
ATOM     53  C   UNL A   1      44.937  35.167  27.409  1.00  0.00     0.040 A 
ATOM     54  F   UNL A   1      42.915  34.023  27.367  1.00  0.00    -0.206 F 
ATOM     55  C   UNL A   1      46.057  35.628  28.086  1.00  0.00     0.006 A 
ENDBRANCH  27  48
BRANCH  39  56
ATOM     56  C   UNL A   1      41.859  30.057  33.629  1.00  0.00     0.057 A 
ATOM     57  C   UNL A   1      40.994  31.058  34.097  1.00  0.00     0.134 A 
ATOM     58  C   UNL A   1      42.665  29.424  34.581  1.00  0.00     0.134 A 
ATOM     59  F   UNL A   1      40.110  31.646  33.282  1.00  0.00    -0.206 F 
ATOM     60  C   UNL A   1      40.966  31.441  35.442  1.00  0.00     0.040 A 
ATOM     61  C   UNL A   1      42.620  29.772  35.933  1.00  0.00     0.040 A 
ATOM     62  F   UNL A   1      43.472  28.414  34.219  1.00  0.00    -0.206 F 
ATOM     63  C   UNL A   1      41.777  30.792  36.366  1.00  0.00     0.006 A 
ENDBRANCH  39  56
ENDBRANCH  13  14
ENDBRANCH   6   8
ENDBRANCH   5   6
ENDBRANCH   4   5
ENDBRANCH   3   4
ENDBRANCH   2   3
ENDBRANCH   1   2
BRANCH   1  64
ATOM     64  C   UNL A   1      33.707  28.010  25.781  1.00  0.00     0.261 C 
BRANCH  64  65
ATOM     65  O   UNL A   1      33.239  26.765  26.317  1.00  0.00    -0.458 OA
BRANCH  65  66
ATOM     66  C   UNL A   1      31.913  26.575  26.199  1.00  0.00     0.359 C 
ATOM     67  O   UNL A   1      31.055  27.448  26.332  1.00  0.00    -0.244 OA
BRANCH  66  68
ATOM     68  C   UNL A   1      31.548  25.169  25.905  1.00  0.00     0.179 A 
ATOM     69  N   UNL A   1      31.223  24.502  27.066  1.00  0.00    -0.245 NA
ATOM     70  C   UNL A   1      31.421  24.556  24.659  1.00  0.00     0.161 A 
ATOM     71  C   UNL A   1      30.846  23.216  26.959  1.00  0.00     0.132 A 
ATOM     72  N   UNL A   1      31.020  23.239  24.589  1.00  0.00    -0.247 NA
ATOM     73  C   UNL A   1      30.759  22.589  25.740  1.00  0.00     0.132 A 
BRANCH  70  74
ATOM     74  C   UNL A   1      31.801  25.011  23.288  1.00  0.00     0.276 C 
ATOM     75  O   UNL A   1      32.623  24.296  22.689  1.00  0.00    -0.267 OA
ATOM     76  N   UNL A   1      31.372  26.100  22.556  1.00  0.00    -0.321 N 
ATOM     77  H   UNL A   1      31.554  26.000  21.595  1.00  0.00     0.170 HD
BRANCH  76  78
ATOM     78  C   UNL A   1      30.741  27.309  22.853  1.00  0.00     0.043 A 
ATOM     79  C   UNL A   1      31.351  28.543  22.738  1.00  0.00     0.028 A 
ATOM     80  C   UNL A   1      29.365  27.248  23.156  1.00  0.00     0.049 A 
ATOM     81  C   UNL A   1      30.573  29.695  22.679  1.00  0.00     0.032 A 
ATOM     82  C   UNL A   1      28.574  28.401  23.119  1.00  0.00     0.068 A 
ATOM     83  C   UNL A   1      29.182  29.616  22.820  1.00  0.00     0.085 A 
ATOM     84  Cl  UNL A   1      26.899  28.269  23.511  1.00  0.00    -0.082 Cl
BRANCH  83  85
ATOM     85  N   UNL A   1      28.444  30.768  22.503  1.00  0.00    -0.220 N 
ATOM     86  C   UNL A   1      28.443  31.941  23.218  1.00  0.00     0.226 A 
ATOM     87  N   UNL A   1      28.116  31.029  21.212  1.00  0.00    -0.155 NA
ATOM     88  N   UNL A   1      28.175  32.958  22.435  1.00  0.00    -0.223 NA
ATOM     89  C   UNL A   1      28.014  32.361  21.220  1.00  0.00     0.246 A 
ENDBRANCH  83  85
ENDBRANCH  76  78
ENDBRANCH  70  74
ENDBRANCH  66  68
ENDBRANCH  65  66
ENDBRANCH  64  65
ENDBRANCH   1  64
TORSDOF 17
ENDMDL
