MODEL 1
REMARK VINA RESULT:     -11.6      0.000      0.000
REMARK SMILES C[C@H](NC1=[NH+]S(=O)(=O)c2ccccc21)C(=O)OCCOCCOC(=O)c1ccc(-c2c3nc(c(-c4c(F)cccc4F)c4ccc([nH]4)c(-c4c(F)cccc4F)c4nc(c(-c5c(F)cccc5F)c5ccc2[nH]5)C=C4)C=C3)cc1
REMARK SMILES IDX 21 1 20 2 19 3 18 4 17 5 15 6 16 7 2 8 1 9 3 10 4 11 5 13
REMARK SMILES IDX 14 14 6 15 9 17 13 18 7 19 8 20 10 21 12 22 11 23 22 24
REMARK SMILES IDX 23 25 24 26 25 27 26 28 27 29 79 30 28 31 78 32 29 33 30 34
REMARK SMILES IDX 31 35 72 36 32 37 77 38 71 39 73 40 33 41 76 42 70 43 69 44
REMARK SMILES IDX 34 46 60 47 43 48 59 49 44 50 47 51 58 52 74 53 45 54 46 55
REMARK SMILES IDX 57 57 75 58 48 59 35 60 36 61 41 62 37 63 38 64 40 65 42 66
REMARK SMILES IDX 39 67 61 68 62 69 67 70 63 71 64 72 66 73 68 74 65 75 49 76
REMARK SMILES IDX 50 77 55 78 51 79 52 80 54 81 56 82 53 83
REMARK H PARENT 3 12 5 16 73 45 47 56
REMARK Flexibility Score: inf
ROOT
ATOM      1  C   UNL A   1      34.369  34.592  30.988  1.00  0.00     0.202 C 
ENDROOT
BRANCH   1   2
ATOM      2  O   UNL A   1      33.349  34.347  30.018  1.00  0.00    -0.374 OA
BRANCH   2   3
ATOM      3  C   UNL A   1      33.737  34.190  28.659  1.00  0.00     0.202 C 
BRANCH   3   4
ATOM      4  C   UNL A   1      34.237  32.808  28.231  1.00  0.00     0.261 C 
BRANCH   4   5
ATOM      5  O   UNL A   1      33.212  32.002  27.625  1.00  0.00    -0.460 OA
BRANCH   5   6
ATOM      6  C   UNL A   1      33.637  30.766  27.219  1.00  0.00     0.350 C 
ATOM      7  O   UNL A   1      34.743  30.296  27.459  1.00  0.00    -0.247 OA
BRANCH   6   8
ATOM      8  C   UNL A   1      32.603  30.032  26.368  1.00  0.00     0.279 C 
ATOM      9  C   UNL A   1      31.939  28.977  27.248  1.00  0.00     0.071 C 
BRANCH   8  10
ATOM     10  N   UNL A   1      33.146  29.381  25.160  1.00  0.00    -0.260 N 
ATOM     11  C   UNL A   1      32.297  28.990  24.151  1.00  0.00     0.292 C 
ATOM     12  H   UNL A   1      34.115  29.227  25.076  1.00  0.00     0.306 HD
ATOM     13  N   UNL A   1      31.138  29.554  23.959  1.00  0.00    -0.162 N 
ATOM     14  C   UNL A   1      32.586  27.828  23.281  1.00  0.00     0.087 A 
ATOM     15  S   UNL A   1      30.275  28.768  22.810  1.00  0.00     0.329 S 
ATOM     16  H   UNL A   1      30.820  30.351  24.441  1.00  0.00     0.327 HD
ATOM     17  C   UNL A   1      31.475  27.549  22.506  1.00  0.00     0.124 A 
ATOM     18  C   UNL A   1      33.694  27.002  23.231  1.00  0.00     0.018 A 
ATOM     19  O   UNL A   1      30.167  29.570  21.615  1.00  0.00    -0.179 OA
ATOM     20  O   UNL A   1      29.138  28.102  23.416  1.00  0.00    -0.179 OA
ATOM     21  C   UNL A   1      31.368  26.437  21.695  1.00  0.00     0.025 A 
ATOM     22  C   UNL A   1      33.630  25.874  22.399  1.00  0.00     0.001 A 
ATOM     23  C   UNL A   1      32.472  25.587  21.648  1.00  0.00     0.002 A 
ENDBRANCH   8  10
ENDBRANCH   6   8
ENDBRANCH   5   6
ENDBRANCH   4   5
ENDBRANCH   3   4
ENDBRANCH   2   3
ENDBRANCH   1   2
BRANCH   1  24
ATOM     24  C   UNL A   1      34.290  33.802  32.300  1.00  0.00     0.261 C 
BRANCH  24  25
ATOM     25  O   UNL A   1      34.789  32.456  32.163  1.00  0.00    -0.460 OA
BRANCH  25  26
ATOM     26  C   UNL A   1      35.913  32.197  32.879  1.00  0.00     0.338 C 
ATOM     27  O   UNL A   1      36.110  32.430  34.059  1.00  0.00    -0.246 OA
BRANCH  26  28
ATOM     28  C   UNL A   1      36.861  31.409  32.071  1.00  0.00     0.060 A 
ATOM     29  C   UNL A   1      37.829  30.660  32.756  1.00  0.00     0.016 A 
ATOM     30  C   UNL A   1      36.880  31.487  30.677  1.00  0.00     0.016 A 
ATOM     31  C   UNL A   1      38.849  30.026  32.050  1.00  0.00     0.010 A 
ATOM     32  C   UNL A   1      37.912  30.858  29.971  1.00  0.00     0.010 A 
ATOM     33  C   UNL A   1      38.921  30.156  30.657  1.00  0.00    -0.014 A 
BRANCH  33  34
ATOM     34  C   UNL A   1      40.133  29.685  29.944  1.00  0.00     0.031 A 
ATOM     35  C   UNL A   1      41.281  30.636  29.745  1.00  0.00     0.074 A 
ATOM     36  C   UNL A   1      40.229  28.415  29.514  1.00  0.00     0.049 A 
ATOM     37  N   UNL A   1      42.425  30.441  29.141  1.00  0.00    -0.248 NA
ATOM     38  C   UNL A   1      41.119  31.987  30.305  1.00  0.00     0.031 C 
ATOM     39  C   UNL A   1      39.205  27.386  29.681  1.00  0.00     0.029 A 
ATOM     40  N   UNL A   1      41.243  27.777  28.845  1.00  0.00    -0.354 N 
ATOM     41  C   UNL A   1      43.118  31.641  29.248  1.00  0.00     0.074 A 
ATOM     42  C   UNL A   1      42.254  32.568  29.946  1.00  0.00     0.031 C 
ATOM     43  C   UNL A   1      39.640  26.243  29.122  1.00  0.00     0.029 A 
ATOM     44  C   UNL A   1      40.960  26.469  28.535  1.00  0.00     0.049 A 
ATOM     45  H   UNL A   1      42.093  28.215  28.609  1.00  0.00     0.167 HD
ATOM     46  C   UNL A   1      44.367  31.941  28.816  1.00  0.00     0.037 A 
ATOM     47  C   UNL A   1      41.678  25.564  27.844  1.00  0.00     0.037 A 
ATOM     48  C   UNL A   1      45.229  31.021  28.122  1.00  0.00     0.049 A 
ATOM     49  C   UNL A   1      43.034  25.944  27.311  1.00  0.00     0.074 A 
ATOM     50  C   UNL A   1      46.513  31.232  27.650  1.00  0.00     0.029 A 
ATOM     51  N   UNL A   1      44.892  29.717  27.797  1.00  0.00    -0.354 N 
ATOM     52  N   UNL A   1      43.684  27.075  27.432  1.00  0.00    -0.248 NA
ATOM     53  C   UNL A   1      43.757  24.917  26.546  1.00  0.00     0.031 C 
ATOM     54  C   UNL A   1      46.938  30.065  27.004  1.00  0.00     0.029 A 
ATOM     55  C   UNL A   1      45.935  29.116  27.113  1.00  0.00     0.049 A 
ATOM     56  H   UNL A   1      44.038  29.282  28.021  1.00  0.00     0.167 HD
ATOM     57  C   UNL A   1      44.900  26.888  26.786  1.00  0.00     0.074 A 
ATOM     58  C   UNL A   1      44.902  25.530  26.283  1.00  0.00     0.031 C 
ATOM     59  C   UNL A   1      45.925  27.760  26.625  1.00  0.00     0.037 A 
BRANCH  46  60
ATOM     60  C   UNL A   1      44.868  33.331  29.071  1.00  0.00     0.057 A 
ATOM     61  C   UNL A   1      44.646  34.373  28.161  1.00  0.00     0.134 A 
ATOM     62  C   UNL A   1      45.554  33.639  30.252  1.00  0.00     0.134 A 
ATOM     63  F   UNL A   1      44.008  34.140  27.003  1.00  0.00    -0.206 F 
ATOM     64  C   UNL A   1      45.107  35.668  28.407  1.00  0.00     0.040 A 
ATOM     65  C   UNL A   1      45.999  34.935  30.521  1.00  0.00     0.040 A 
ATOM     66  F   UNL A   1      45.796  32.687  31.166  1.00  0.00    -0.206 F 
ATOM     67  C   UNL A   1      45.780  35.952  29.594  1.00  0.00     0.006 A 
ENDBRANCH  46  60
BRANCH  47  68
ATOM     68  C   UNL A   1      41.129  24.206  27.602  1.00  0.00     0.057 A 
ATOM     69  C   UNL A   1      41.615  23.093  28.296  1.00  0.00     0.134 A 
ATOM     70  C   UNL A   1      40.127  23.988  26.650  1.00  0.00     0.134 A 
ATOM     71  F   UNL A   1      42.593  23.235  29.202  1.00  0.00    -0.206 F 
ATOM     72  C   UNL A   1      41.137  21.807  28.039  1.00  0.00     0.040 A 
ATOM     73  C   UNL A   1      39.623  22.711  26.400  1.00  0.00     0.040 A 
ATOM     74  F   UNL A   1      39.619  25.015  25.952  1.00  0.00    -0.206 F 
ATOM     75  C   UNL A   1      40.133  21.615  27.090  1.00  0.00     0.006 A 
ENDBRANCH  47  68
BRANCH  59  76
ATOM     76  C   UNL A   1      47.146  27.264  25.907  1.00  0.00     0.057 A 
ATOM     77  C   UNL A   1      48.162  26.568  26.572  1.00  0.00     0.134 A 
ATOM     78  C   UNL A   1      47.289  27.457  24.527  1.00  0.00     0.134 A 
ATOM     79  F   UNL A   1      48.091  26.363  27.897  1.00  0.00    -0.206 F 
ATOM     80  C   UNL A   1      49.288  26.099  25.894  1.00  0.00     0.040 A 
ATOM     81  C   UNL A   1      48.398  26.971  23.834  1.00  0.00     0.040 A 
ATOM     82  F   UNL A   1      46.347  28.108  23.829  1.00  0.00    -0.206 F 
ATOM     83  C   UNL A   1      49.405  26.295  24.519  1.00  0.00     0.006 A 
ENDBRANCH  59  76
ENDBRANCH  33  34
ENDBRANCH  26  28
ENDBRANCH  25  26
ENDBRANCH  24  25
ENDBRANCH   1  24
TORSDOF 15
ENDMDL
MODEL 2
REMARK VINA RESULT:     -11.5      4.927      9.924
REMARK SMILES C[C@H](NC1=[NH+]S(=O)(=O)c2ccccc21)C(=O)OCCOCCOC(=O)c1ccc(-c2c3nc(c(-c4c(F)cccc4F)c4ccc([nH]4)c(-c4c(F)cccc4F)c4nc(c(-c5c(F)cccc5F)c5ccc2[nH]5)C=C4)C=C3)cc1
REMARK SMILES IDX 21 1 20 2 19 3 18 4 17 5 15 6 16 7 2 8 1 9 3 10 4 11 5 13
REMARK SMILES IDX 14 14 6 15 9 17 13 18 7 19 8 20 10 21 12 22 11 23 22 24
REMARK SMILES IDX 23 25 24 26 25 27 26 28 27 29 79 30 28 31 78 32 29 33 30 34
REMARK SMILES IDX 31 35 72 36 32 37 77 38 71 39 73 40 33 41 76 42 70 43 69 44
REMARK SMILES IDX 34 46 60 47 43 48 59 49 44 50 47 51 58 52 74 53 45 54 46 55
REMARK SMILES IDX 57 57 75 58 48 59 35 60 36 61 41 62 37 63 38 64 40 65 42 66
REMARK SMILES IDX 39 67 61 68 62 69 67 70 63 71 64 72 66 73 68 74 65 75 49 76
REMARK SMILES IDX 50 77 55 78 51 79 52 80 54 81 56 82 53 83
REMARK H PARENT 3 12 5 16 73 45 47 56
REMARK Flexibility Score: inf
ROOT
ATOM      1  C   UNL A   1      42.937  20.443  25.751  1.00  0.00     0.202 C 
ENDROOT
BRANCH   1   2
ATOM      2  O   UNL A   1      41.864  20.746  26.644  1.00  0.00    -0.374 OA
BRANCH   2   3
ATOM      3  C   UNL A   1      40.537  20.716  26.135  1.00  0.00     0.202 C 
BRANCH   3   4
ATOM      4  C   UNL A   1      39.591  21.831  26.586  1.00  0.00     0.261 C 
BRANCH   4   5
ATOM      5  O   UNL A   1      38.464  22.003  25.709  1.00  0.00    -0.460 OA
BRANCH   5   6
ATOM      6  C   UNL A   1      37.844  23.217  25.822  1.00  0.00     0.350 C 
ATOM      7  O   UNL A   1      38.346  24.210  26.337  1.00  0.00    -0.247 OA
BRANCH   6   8
ATOM      8  C   UNL A   1      36.415  23.207  25.287  1.00  0.00     0.279 C 
ATOM      9  C   UNL A   1      36.484  23.045  23.771  1.00  0.00     0.071 C 
BRANCH   8  10
ATOM     10  N   UNL A   1      35.625  24.412  25.609  1.00  0.00    -0.260 N 
ATOM     11  C   UNL A   1      34.280  24.300  25.869  1.00  0.00     0.292 C 
ATOM     12  H   UNL A   1      36.061  25.294  25.636  1.00  0.00     0.306 HD
ATOM     13  N   UNL A   1      33.744  23.198  26.312  1.00  0.00    -0.162 N 
ATOM     14  C   UNL A   1      33.323  25.387  25.560  1.00  0.00     0.087 A 
ATOM     15  S   UNL A   1      32.111  23.303  26.358  1.00  0.00     0.329 S 
ATOM     16  H   UNL A   1      34.256  22.402  26.586  1.00  0.00     0.327 HD
ATOM     17  C   UNL A   1      32.032  24.922  25.732  1.00  0.00     0.124 A 
ATOM     18  C   UNL A   1      33.543  26.659  25.065  1.00  0.00     0.018 A 
ATOM     19  O   UNL A   1      31.640  23.348  27.722  1.00  0.00    -0.179 OA
ATOM     20  O   UNL A   1      31.532  22.432  25.354  1.00  0.00    -0.179 OA
ATOM     21  C   UNL A   1      30.906  25.643  25.386  1.00  0.00     0.025 A 
ATOM     22  C   UNL A   1      32.422  27.431  24.725  1.00  0.00     0.001 A 
ATOM     23  C   UNL A   1      31.115  26.922  24.871  1.00  0.00     0.002 A 
ENDBRANCH   8  10
ENDBRANCH   6   8
ENDBRANCH   5   6
ENDBRANCH   4   5
ENDBRANCH   3   4
ENDBRANCH   2   3
ENDBRANCH   1   2
BRANCH   1  24
ATOM     24  C   UNL A   1      43.875  21.595  25.369  1.00  0.00     0.261 C 
BRANCH  24  25
ATOM     25  O   UNL A   1      43.160  22.743  24.866  1.00  0.00    -0.460 OA
BRANCH  25  26
ATOM     26  C   UNL A   1      43.839  23.914  24.964  1.00  0.00     0.338 C 
ATOM     27  O   UNL A   1      44.826  24.255  24.335  1.00  0.00    -0.246 OA
BRANCH  26  28
ATOM     28  C   UNL A   1      43.115  24.851  25.844  1.00  0.00     0.060 A 
ATOM     29  C   UNL A   1      43.642  26.142  25.988  1.00  0.00     0.016 A 
ATOM     30  C   UNL A   1      42.013  24.445  26.598  1.00  0.00     0.016 A 
ATOM     31  C   UNL A   1      43.097  27.017  26.926  1.00  0.00     0.010 A 
ATOM     32  C   UNL A   1      41.474  25.322  27.547  1.00  0.00     0.010 A 
ATOM     33  C   UNL A   1      42.037  26.598  27.740  1.00  0.00    -0.014 A 
BRANCH  33  34
ATOM     34  C   UNL A   1      41.625  27.439  28.889  1.00  0.00     0.031 A 
ATOM     35  C   UNL A   1      42.396  27.349  30.178  1.00  0.00     0.074 A 
ATOM     36  C   UNL A   1      40.603  28.306  28.777  1.00  0.00     0.049 A 
ATOM     37  N   UNL A   1      42.203  27.979  31.308  1.00  0.00    -0.248 NA
ATOM     38  C   UNL A   1      43.541  26.424  30.193  1.00  0.00     0.031 C 
ATOM     39  C   UNL A   1      39.804  28.519  27.572  1.00  0.00     0.029 A 
ATOM     40  N   UNL A   1      40.064  29.170  29.697  1.00  0.00    -0.354 N 
ATOM     41  C   UNL A   1      43.199  27.530  32.166  1.00  0.00     0.074 A 
ATOM     42  C   UNL A   1      43.974  26.549  31.438  1.00  0.00     0.031 C 
ATOM     43  C   UNL A   1      38.868  29.449  27.829  1.00  0.00     0.029 A 
ATOM     44  C   UNL A   1      38.987  29.877  29.222  1.00  0.00     0.049 A 
ATOM     45  H   UNL A   1      40.415  29.272  30.611  1.00  0.00     0.167 HD
ATOM     46  C   UNL A   1      43.453  27.909  33.442  1.00  0.00     0.037 A 
ATOM     47  C   UNL A   1      38.182  30.757  29.846  1.00  0.00     0.037 A 
ATOM     48  C   UNL A   1      42.684  28.884  34.169  1.00  0.00     0.049 A 
ATOM     49  C   UNL A   1      38.441  31.109  31.286  1.00  0.00     0.074 A 
ATOM     50  C   UNL A   1      42.868  29.338  35.463  1.00  0.00     0.029 A 
ATOM     51  N   UNL A   1      41.580  29.553  33.663  1.00  0.00    -0.354 N 
ATOM     52  N   UNL A   1      39.394  30.689  32.082  1.00  0.00    -0.248 NA
ATOM     53  C   UNL A   1      37.511  32.059  31.915  1.00  0.00     0.031 C 
ATOM     54  C   UNL A   1      41.851  30.254  35.754  1.00  0.00     0.029 A 
ATOM     55  C   UNL A   1      41.060  30.401  34.627  1.00  0.00     0.049 A 
ATOM     56  H   UNL A   1      41.220  29.442  32.754  1.00  0.00     0.167 HD
ATOM     57  C   UNL A   1      39.197  31.344  33.292  1.00  0.00     0.074 A 
ATOM     58  C   UNL A   1      38.039  32.197  33.122  1.00  0.00     0.031 C 
ATOM     59  C   UNL A   1      39.911  31.250  34.440  1.00  0.00     0.037 A 
BRANCH  46  60
ATOM     60  C   UNL A   1      44.607  27.251  34.138  1.00  0.00     0.057 A 
ATOM     61  C   UNL A   1      45.886  27.823  34.149  1.00  0.00     0.134 A 
ATOM     62  C   UNL A   1      44.430  26.047  34.831  1.00  0.00     0.134 A 
ATOM     63  F   UNL A   1      46.124  28.968  33.491  1.00  0.00    -0.206 F 
ATOM     64  C   UNL A   1      46.953  27.210  34.807  1.00  0.00     0.040 A 
ATOM     65  C   UNL A   1      45.485  25.436  35.513  1.00  0.00     0.040 A 
ATOM     66  F   UNL A   1      43.230  25.449  34.863  1.00  0.00    -0.206 F 
ATOM     67  C   UNL A   1      46.752  26.016  35.498  1.00  0.00     0.006 A 
ENDBRANCH  46  60
BRANCH  47  68
ATOM     68  C   UNL A   1      37.040  31.367  29.117  1.00  0.00     0.057 A 
ATOM     69  C   UNL A   1      37.082  32.697  28.685  1.00  0.00     0.134 A 
ATOM     70  C   UNL A   1      35.871  30.641  28.864  1.00  0.00     0.134 A 
ATOM     71  F   UNL A   1      38.167  33.450  28.922  1.00  0.00    -0.206 F 
ATOM     72  C   UNL A   1      35.995  33.290  28.043  1.00  0.00     0.040 A 
ATOM     73  C   UNL A   1      34.785  31.214  28.201  1.00  0.00     0.040 A 
ATOM     74  F   UNL A   1      35.769  29.361  29.252  1.00  0.00    -0.206 F 
ATOM     75  C   UNL A   1      34.843  32.546  27.795  1.00  0.00     0.006 A 
ENDBRANCH  47  68
BRANCH  59  76
ATOM     76  C   UNL A   1      39.484  32.114  35.590  1.00  0.00     0.057 A 
ATOM     77  C   UNL A   1      39.992  33.406  35.771  1.00  0.00     0.134 A 
ATOM     78  C   UNL A   1      38.526  31.660  36.506  1.00  0.00     0.134 A 
ATOM     79  F   UNL A   1      40.922  33.895  34.936  1.00  0.00    -0.206 F 
ATOM     80  C   UNL A   1      39.580  34.208  36.837  1.00  0.00     0.040 A 
ATOM     81  C   UNL A   1      38.088  32.462  37.560  1.00  0.00     0.040 A 
ATOM     82  F   UNL A   1      37.993  30.436  36.384  1.00  0.00    -0.206 F 
ATOM     83  C   UNL A   1      38.620  33.738  37.732  1.00  0.00     0.006 A 
ENDBRANCH  59  76
ENDBRANCH  33  34
ENDBRANCH  26  28
ENDBRANCH  25  26
ENDBRANCH  24  25
ENDBRANCH   1  24
TORSDOF 15
ENDMDL
MODEL 3
REMARK VINA RESULT:     -11.3      5.129     10.129
REMARK SMILES C[C@H](NC1=[NH+]S(=O)(=O)c2ccccc21)C(=O)OCCOCCOC(=O)c1ccc(-c2c3nc(c(-c4c(F)cccc4F)c4ccc([nH]4)c(-c4c(F)cccc4F)c4nc(c(-c5c(F)cccc5F)c5ccc2[nH]5)C=C4)C=C3)cc1
REMARK SMILES IDX 21 1 20 2 19 3 18 4 17 5 15 6 16 7 2 8 1 9 3 10 4 11 5 13
REMARK SMILES IDX 14 14 6 15 9 17 13 18 7 19 8 20 10 21 12 22 11 23 22 24
REMARK SMILES IDX 23 25 24 26 25 27 26 28 27 29 79 30 28 31 78 32 29 33 30 34
REMARK SMILES IDX 31 35 72 36 32 37 77 38 71 39 73 40 33 41 76 42 70 43 69 44
REMARK SMILES IDX 34 46 60 47 43 48 59 49 44 50 47 51 58 52 74 53 45 54 46 55
REMARK SMILES IDX 57 57 75 58 48 59 35 60 36 61 41 62 37 63 38 64 40 65 42 66
REMARK SMILES IDX 39 67 61 68 62 69 67 70 63 71 64 72 66 73 68 74 65 75 49 76
REMARK SMILES IDX 50 77 55 78 51 79 52 80 54 81 56 82 53 83
REMARK H PARENT 3 12 5 16 73 45 47 56
REMARK Flexibility Score: inf
ROOT
ATOM      1  C   UNL A   1      43.807  21.015  25.492  1.00  0.00     0.202 C 
ENDROOT
BRANCH   1   2
ATOM      2  O   UNL A   1      42.384  20.908  25.419  1.00  0.00    -0.374 OA
BRANCH   2   3
ATOM      3  C   UNL A   1      41.639  21.011  26.626  1.00  0.00     0.202 C 
BRANCH   3   4
ATOM      4  C   UNL A   1      40.121  20.842  26.526  1.00  0.00     0.261 C 
BRANCH   4   5
ATOM      5  O   UNL A   1      39.489  21.878  25.755  1.00  0.00    -0.460 OA
BRANCH   5   6
ATOM      6  C   UNL A   1      38.211  21.588  25.366  1.00  0.00     0.350 C 
ATOM      7  O   UNL A   1      37.816  20.473  25.043  1.00  0.00    -0.247 OA
BRANCH   6   8
ATOM      8  C   UNL A   1      37.311  22.820  25.312  1.00  0.00     0.279 C 
ATOM      9  C   UNL A   1      37.913  23.878  26.233  1.00  0.00     0.071 C 
BRANCH   8  10
ATOM     10  N   UNL A   1      35.908  22.581  25.704  1.00  0.00    -0.260 N 
ATOM     11  C   UNL A   1      34.888  22.960  24.863  1.00  0.00     0.292 C 
ATOM     12  H   UNL A   1      35.704  22.149  26.565  1.00  0.00     0.306 HD
ATOM     13  N   UNL A   1      35.052  23.079  23.576  1.00  0.00    -0.162 N 
ATOM     14  C   UNL A   1      33.559  23.369  25.371  1.00  0.00     0.087 A 
ATOM     15  S   UNL A   1      33.723  23.714  22.861  1.00  0.00     0.329 S 
ATOM     16  H   UNL A   1      35.871  22.820  23.094  1.00  0.00     0.327 HD
ATOM     17  C   UNL A   1      32.812  23.889  24.330  1.00  0.00     0.124 A 
ATOM     18  C   UNL A   1      33.060  23.387  26.661  1.00  0.00     0.018 A 
ATOM     19  O   UNL A   1      33.053  22.721  22.056  1.00  0.00    -0.179 OA
ATOM     20  O   UNL A   1      34.013  25.051  22.380  1.00  0.00    -0.179 OA
ATOM     21  C   UNL A   1      31.582  24.493  24.497  1.00  0.00     0.025 A 
ATOM     22  C   UNL A   1      31.802  23.972  26.866  1.00  0.00     0.001 A 
ATOM     23  C   UNL A   1      31.075  24.533  25.796  1.00  0.00     0.002 A 
ENDBRANCH   8  10
ENDBRANCH   6   8
ENDBRANCH   5   6
ENDBRANCH   4   5
ENDBRANCH   3   4
ENDBRANCH   2   3
ENDBRANCH   1   2
BRANCH   1  24
ATOM     24  C   UNL A   1      44.463  22.152  24.700  1.00  0.00     0.261 C 
BRANCH  24  25
ATOM     25  O   UNL A   1      43.658  23.348  24.684  1.00  0.00    -0.460 OA
BRANCH  25  26
ATOM     26  C   UNL A   1      44.325  24.478  25.032  1.00  0.00     0.338 C 
ATOM     27  O   UNL A   1      45.393  24.875  24.596  1.00  0.00    -0.246 OA
BRANCH  26  28
ATOM     28  C   UNL A   1      43.493  25.307  25.924  1.00  0.00     0.060 A 
ATOM     29  C   UNL A   1      43.816  26.667  26.033  1.00  0.00     0.016 A 
ATOM     30  C   UNL A   1      42.492  24.749  26.722  1.00  0.00     0.016 A 
ATOM     31  C   UNL A   1      43.173  27.464  26.978  1.00  0.00     0.010 A 
ATOM     32  C   UNL A   1      41.854  25.549  27.677  1.00  0.00     0.010 A 
ATOM     33  C   UNL A   1      42.218  26.900  27.834  1.00  0.00    -0.014 A 
BRANCH  33  34
ATOM     34  C   UNL A   1      41.717  27.688  28.986  1.00  0.00     0.031 A 
ATOM     35  C   UNL A   1      42.436  27.598  30.304  1.00  0.00     0.074 A 
ATOM     36  C   UNL A   1      40.660  28.508  28.851  1.00  0.00     0.049 A 
ATOM     37  N   UNL A   1      42.164  28.186  31.440  1.00  0.00    -0.248 NA
ATOM     38  C   UNL A   1      43.623  26.728  30.345  1.00  0.00     0.031 C 
ATOM     39  C   UNL A   1      39.903  28.717  27.618  1.00  0.00     0.029 A 
ATOM     40  N   UNL A   1      40.041  29.319  29.769  1.00  0.00    -0.354 N 
ATOM     41  C   UNL A   1      43.143  27.760  32.330  1.00  0.00     0.074 A 
ATOM     42  C   UNL A   1      43.996  26.838  31.611  1.00  0.00     0.031 C 
ATOM     43  C   UNL A   1      38.913  29.595  27.858  1.00  0.00     0.029 A 
ATOM     44  C   UNL A   1      38.952  29.988  29.266  1.00  0.00     0.049 A 
ATOM     45  H   UNL A   1      40.347  29.412  30.701  1.00  0.00     0.167 HD
ATOM     46  C   UNL A   1      43.325  28.115  33.625  1.00  0.00     0.037 A 
ATOM     47  C   UNL A   1      38.079  30.811  29.877  1.00  0.00     0.037 A 
ATOM     48  C   UNL A   1      42.479  29.031  34.343  1.00  0.00     0.049 A 
ATOM     49  C   UNL A   1      38.259  31.133  31.336  1.00  0.00     0.074 A 
ATOM     50  C   UNL A   1      42.586  29.457  35.655  1.00  0.00     0.029 A 
ATOM     51  N   UNL A   1      41.366  29.661  33.807  1.00  0.00    -0.354 N 
ATOM     52  N   UNL A   1      39.197  30.737  32.162  1.00  0.00    -0.248 NA
ATOM     53  C   UNL A   1      37.259  32.021  31.948  1.00  0.00     0.031 C 
ATOM     54  C   UNL A   1      41.514  30.315  35.925  1.00  0.00     0.029 A 
ATOM     55  C   UNL A   1      40.765  30.456  34.768  1.00  0.00     0.049 A 
ATOM     56  H   UNL A   1      41.051  29.559  32.880  1.00  0.00     0.167 HD
ATOM     57  C   UNL A   1      38.917  31.347  33.379  1.00  0.00     0.074 A 
ATOM     58  C   UNL A   1      37.728  32.149  33.181  1.00  0.00     0.031 C 
ATOM     59  C   UNL A   1      39.585  31.255  34.554  1.00  0.00     0.037 A 
BRANCH  46  60
ATOM     60  C   UNL A   1      44.478  27.493  34.354  1.00  0.00     0.057 A 
ATOM     61  C   UNL A   1      44.354  26.267  35.022  1.00  0.00     0.134 A 
ATOM     62  C   UNL A   1      45.735  28.110  34.363  1.00  0.00     0.134 A 
ATOM     63  F   UNL A   1      43.172  25.633  35.063  1.00  0.00    -0.206 F 
ATOM     64  C   UNL A   1      45.434  25.689  35.691  1.00  0.00     0.040 A 
ATOM     65  C   UNL A   1      46.829  27.530  35.008  1.00  0.00     0.040 A 
ATOM     66  F   UNL A   1      45.922  29.283  33.739  1.00  0.00    -0.206 F 
ATOM     67  C   UNL A   1      46.677  26.317  35.680  1.00  0.00     0.006 A 
ENDBRANCH  46  60
BRANCH  47  68
ATOM     68  C   UNL A   1      36.942  31.386  29.115  1.00  0.00     0.057 A 
ATOM     69  C   UNL A   1      36.953  32.719  28.691  1.00  0.00     0.134 A 
ATOM     70  C   UNL A   1      35.806  30.623  28.821  1.00  0.00     0.134 A 
ATOM     71  F   UNL A   1      38.003  33.508  28.966  1.00  0.00    -0.206 F 
ATOM     72  C   UNL A   1      35.866  33.280  28.017  1.00  0.00     0.040 A 
ATOM     73  C   UNL A   1      34.723  31.164  28.127  1.00  0.00     0.040 A 
ATOM     74  F   UNL A   1      35.735  29.339  29.200  1.00  0.00    -0.206 F 
ATOM     75  C   UNL A   1      34.748  32.499  27.729  1.00  0.00     0.006 A 
ENDBRANCH  47  68
BRANCH  59  76
ATOM     76  C   UNL A   1      39.068  32.065  35.706  1.00  0.00     0.057 A 
ATOM     77  C   UNL A   1      38.250  31.505  36.695  1.00  0.00     0.134 A 
ATOM     78  C   UNL A   1      39.421  33.413  35.845  1.00  0.00     0.134 A 
ATOM     79  F   UNL A   1      37.865  30.221  36.612  1.00  0.00    -0.206 F 
ATOM     80  C   UNL A   1      37.784  32.263  37.770  1.00  0.00     0.040 A 
ATOM     81  C   UNL A   1      38.982  34.174  36.929  1.00  0.00     0.040 A 
ATOM     82  F   UNL A   1      40.209  34.008  34.937  1.00  0.00    -0.206 F 
ATOM     83  C   UNL A   1      38.155  33.601  37.892  1.00  0.00     0.006 A 
ENDBRANCH  59  76
ENDBRANCH  33  34
ENDBRANCH  26  28
ENDBRANCH  25  26
ENDBRANCH  24  25
ENDBRANCH   1  24
TORSDOF 15
ENDMDL
