MODEL 1
REMARK VINA RESULT:     -10.8      0.000      0.000
REMARK SMILES O=C(OCCOCCOC(=O)C1([C@@H]2CCCC[C@H]2O)CCOCC1)c1ccc(-c2c3nc(c(-c4c(F)cccc4F)c4ccc([nH]4)c(-c4c(F)cccc4F)c4nc(c(-c5c(F)cccc5F)c5ccc2[nH]5)C=C4)C=C3)cc1
REMARK SMILES IDX 6 1 5 2 4 3 3 4 2 5 1 6 25 7 26 8 78 9 27 10 77 11 28 12
REMARK SMILES IDX 29 13 30 14 71 15 31 16 76 17 70 18 72 19 32 20 75 21 69 22
REMARK SMILES IDX 68 23 33 25 59 26 42 27 58 28 43 29 46 30 57 31 73 32 44 33
REMARK SMILES IDX 45 34 56 36 74 37 47 38 34 39 35 40 40 41 36 42 37 43 39 44
REMARK SMILES IDX 41 45 38 46 60 47 61 48 66 49 62 50 63 51 65 52 67 53 64 54
REMARK SMILES IDX 48 55 49 56 54 57 50 58 51 59 53 60 55 61 52 62 7 63 8 64
REMARK SMILES IDX 9 65 10 66 11 67 12 68 20 69 24 70 21 71 23 72 22 73 13 74
REMARK SMILES IDX 14 75 18 76 15 77 17 78 16 79 19 80
REMARK H PARENT 72 24 46 35 19 81
REMARK Flexibility Score: inf
ROOT
ATOM      1  O   UNL A   1      32.539  28.322  24.145  1.00  0.00    -0.374 OA
ENDROOT
BRANCH   1   2
ATOM      2  C   UNL A   1      32.480  29.669  24.629  1.00  0.00     0.202 C 
BRANCH   2   3
ATOM      3  C   UNL A   1      31.671  29.969  25.918  1.00  0.00     0.261 C 
BRANCH   3   4
ATOM      4  O   UNL A   1      32.507  30.196  27.089  1.00  0.00    -0.460 OA
BRANCH   4   5
ATOM      5  C   UNL A   1      33.298  31.265  27.381  1.00  0.00     0.338 C 
ATOM      6  O   UNL A   1      32.877  32.412  27.278  1.00  0.00    -0.246 OA
BRANCH   5   7
ATOM      7  C   UNL A   1      34.689  31.032  27.816  1.00  0.00     0.060 A 
ATOM      8  C   UNL A   1      35.104  29.741  28.078  1.00  0.00     0.016 A 
ATOM      9  C   UNL A   1      35.606  32.071  27.978  1.00  0.00     0.016 A 
ATOM     10  C   UNL A   1      36.263  29.462  28.729  1.00  0.00     0.010 A 
ATOM     11  C   UNL A   1      36.871  31.788  28.511  1.00  0.00     0.010 A 
ATOM     12  C   UNL A   1      37.170  30.483  28.930  1.00  0.00    -0.014 A 
BRANCH  12  13
ATOM     13  C   UNL A   1      38.337  30.108  29.729  1.00  0.00     0.031 A 
ATOM     14  C   UNL A   1      39.413  29.333  29.053  1.00  0.00     0.074 A 
ATOM     15  C   UNL A   1      38.510  30.686  30.932  1.00  0.00     0.049 A 
ATOM     16  N   UNL A   1      40.457  28.759  29.571  1.00  0.00    -0.248 NA
ATOM     17  C   UNL A   1      39.301  29.184  27.589  1.00  0.00     0.031 C 
ATOM     18  C   UNL A   1      37.589  31.657  31.545  1.00  0.00     0.029 A 
ATOM     19  N   UNL A   1      39.538  30.604  31.822  1.00  0.00    -0.354 N 
ATOM     20  C   UNL A   1      41.067  28.090  28.521  1.00  0.00     0.074 A 
ATOM     21  C   UNL A   1      40.317  28.380  27.322  1.00  0.00     0.031 C 
ATOM     22  C   UNL A   1      38.122  32.112  32.685  1.00  0.00     0.029 A 
ATOM     23  C   UNL A   1      39.332  31.353  32.954  1.00  0.00     0.049 A 
ATOM     24  H   UNL A   1      40.347  30.064  31.668  1.00  0.00     0.167 HD
ATOM     25  C   UNL A   1      42.135  27.267  28.599  1.00  0.00     0.037 A 
ATOM     26  C   UNL A   1      40.003  31.339  34.118  1.00  0.00     0.037 A 
ATOM     27  C   UNL A   1      42.841  27.060  29.833  1.00  0.00     0.049 A 
ATOM     28  C   UNL A   1      41.146  30.377  34.215  1.00  0.00     0.074 A 
ATOM     29  C   UNL A   1      43.870  26.188  30.121  1.00  0.00     0.029 A 
ATOM     30  N   UNL A   1      42.574  27.775  31.001  1.00  0.00    -0.354 N 
ATOM     31  N   UNL A   1      41.629  29.584  33.283  1.00  0.00    -0.248 NA
ATOM     32  C   UNL A   1      41.808  30.259  35.515  1.00  0.00     0.031 C 
ATOM     33  C   UNL A   1      44.201  26.354  31.473  1.00  0.00     0.029 A 
ATOM     34  C   UNL A   1      43.410  27.360  32.016  1.00  0.00     0.049 A 
ATOM     35  H   UNL A   1      41.889  28.476  31.087  1.00  0.00     0.167 HD
ATOM     36  C   UNL A   1      42.644  28.861  33.881  1.00  0.00     0.074 A 
ATOM     37  C   UNL A   1      42.723  29.332  35.256  1.00  0.00     0.031 C 
ATOM     38  C   UNL A   1      43.432  27.887  33.361  1.00  0.00     0.037 A 
BRANCH  25  39
ATOM     39  C   UNL A   1      42.453  26.464  27.374  1.00  0.00     0.057 A 
ATOM     40  C   UNL A   1      41.928  25.187  27.141  1.00  0.00     0.134 A 
ATOM     41  C   UNL A   1      43.403  26.944  26.461  1.00  0.00     0.134 A 
ATOM     42  F   UNL A   1      41.050  24.647  28.000  1.00  0.00    -0.206 F 
ATOM     43  C   UNL A   1      42.364  24.402  26.069  1.00  0.00     0.040 A 
ATOM     44  C   UNL A   1      43.829  26.179  25.373  1.00  0.00     0.040 A 
ATOM     45  F   UNL A   1      43.963  28.151  26.633  1.00  0.00    -0.206 F 
ATOM     46  C   UNL A   1      43.318  24.898  25.182  1.00  0.00     0.006 A 
ENDBRANCH  25  39
BRANCH  26  47
ATOM     47  C   UNL A   1      39.505  32.149  35.259  1.00  0.00     0.057 A 
ATOM     48  C   UNL A   1      39.906  33.473  35.454  1.00  0.00     0.134 A 
ATOM     49  C   UNL A   1      38.533  31.640  36.136  1.00  0.00     0.134 A 
ATOM     50  F   UNL A   1      40.840  34.019  34.661  1.00  0.00    -0.206 F 
ATOM     51  C   UNL A   1      39.350  34.265  36.464  1.00  0.00     0.040 A 
ATOM     52  C   UNL A   1      37.949  32.426  37.129  1.00  0.00     0.040 A 
ATOM     53  F   UNL A   1      38.096  30.378  36.003  1.00  0.00    -0.206 F 
ATOM     54  C   UNL A   1      38.357  33.746  37.295  1.00  0.00     0.006 A 
ENDBRANCH  26  47
BRANCH  38  55
ATOM     55  C   UNL A   1      44.451  27.305  34.282  1.00  0.00     0.057 A 
ATOM     56  C   UNL A   1      44.180  26.163  35.041  1.00  0.00     0.134 A 
ATOM     57  C   UNL A   1      45.736  27.855  34.347  1.00  0.00     0.134 A 
ATOM     58  F   UNL A   1      42.959  25.606  35.022  1.00  0.00    -0.206 F 
ATOM     59  C   UNL A   1      45.160  25.584  35.843  1.00  0.00     0.040 A 
ATOM     60  C   UNL A   1      46.728  27.274  35.130  1.00  0.00     0.040 A 
ATOM     61  F   UNL A   1      46.045  28.947  33.632  1.00  0.00    -0.206 F 
ATOM     62  C   UNL A   1      46.442  26.134  35.881  1.00  0.00     0.006 A 
ENDBRANCH  38  55
ENDBRANCH  12  13
ENDBRANCH   5   7
ENDBRANCH   4   5
ENDBRANCH   3   4
ENDBRANCH   2   3
ENDBRANCH   1   2
BRANCH   1  63
ATOM     63  C   UNL A   1      33.767  27.841  23.579  1.00  0.00     0.202 C 
BRANCH  63  64
ATOM     64  C   UNL A   1      33.636  26.450  22.975  1.00  0.00     0.261 C 
BRANCH  64  65
ATOM     65  O   UNL A   1      33.979  25.475  23.966  1.00  0.00    -0.463 OA
BRANCH  65  66
ATOM     66  C   UNL A   1      33.977  24.202  23.529  1.00  0.00     0.312 C 
ATOM     67  O   UNL A   1      34.281  23.875  22.387  1.00  0.00    -0.252 OA
BRANCH  66  68
ATOM     68  C   UNL A   1      33.487  23.217  24.586  1.00  0.00     0.078 C 
ATOM     69  C   UNL A   1      34.608  23.191  25.677  1.00  0.00     0.047 C 
ATOM     70  C   UNL A   1      33.551  21.841  23.859  1.00  0.00     0.047 C 
ATOM     71  C   UNL A   1      34.547  21.956  26.557  1.00  0.00     0.161 C 
ATOM     72  C   UNL A   1      33.579  20.662  24.821  1.00  0.00     0.161 C 
ATOM     73  O   UNL A   1      34.647  20.783  25.755  1.00  0.00    -0.381 OA
BRANCH  68  74
ATOM     74  C   UNL A   1      32.036  23.462  25.230  1.00  0.00     0.035 C 
ATOM     75  C   UNL A   1      30.862  23.832  24.269  1.00  0.00     0.007 C 
ATOM     76  C   UNL A   1      31.941  24.278  26.545  1.00  0.00     0.118 C 
ATOM     77  C   UNL A   1      30.389  25.292  24.221  1.00  0.00     0.001 C 
ATOM     78  C   UNL A   1      31.575  25.741  26.357  1.00  0.00     0.032 C 
ATOM     79  C   UNL A   1      30.293  25.952  25.583  1.00  0.00     0.003 C 
BRANCH  76  80
ATOM     80  O   UNL A   1      30.920  23.672  27.351  1.00  0.00    -0.393 OA
ATOM     81  H   UNL A   1      30.371  23.096  26.799  1.00  0.00     0.210 HD
ENDBRANCH  76  80
ENDBRANCH  68  74
ENDBRANCH  66  68
ENDBRANCH  65  66
ENDBRANCH  64  65
ENDBRANCH  63  64
ENDBRANCH   1  63
TORSDOF 16
ENDMDL
MODEL 2
REMARK VINA RESULT:     -10.7      1.442      6.657
REMARK SMILES O=C(OCCOCCOC(=O)C1([C@@H]2CCCC[C@H]2O)CCOCC1)c1ccc(-c2c3nc(c(-c4c(F)cccc4F)c4ccc([nH]4)c(-c4c(F)cccc4F)c4nc(c(-c5c(F)cccc5F)c5ccc2[nH]5)C=C4)C=C3)cc1
REMARK SMILES IDX 6 1 5 2 4 3 3 4 2 5 1 6 25 7 26 8 78 9 27 10 77 11 28 12
REMARK SMILES IDX 29 13 30 14 71 15 31 16 76 17 70 18 72 19 32 20 75 21 69 22
REMARK SMILES IDX 68 23 33 25 59 26 42 27 58 28 43 29 46 30 57 31 73 32 44 33
REMARK SMILES IDX 45 34 56 36 74 37 47 38 34 39 35 40 40 41 36 42 37 43 39 44
REMARK SMILES IDX 41 45 38 46 60 47 61 48 66 49 62 50 63 51 65 52 67 53 64 54
REMARK SMILES IDX 48 55 49 56 54 57 50 58 51 59 53 60 55 61 52 62 7 63 8 64
REMARK SMILES IDX 9 65 10 66 11 67 12 68 20 69 24 70 21 71 23 72 22 73 13 74
REMARK SMILES IDX 14 75 18 76 15 77 17 78 16 79 19 80
REMARK H PARENT 72 24 46 35 19 81
REMARK Flexibility Score: inf
ROOT
ATOM      1  O   UNL A   1      31.625  29.547  26.766  1.00  0.00    -0.374 OA
ENDROOT
BRANCH   1   2
ATOM      2  C   UNL A   1      31.854  30.824  26.159  1.00  0.00     0.202 C 
BRANCH   2   3
ATOM      3  C   UNL A   1      31.411  32.105  26.914  1.00  0.00     0.261 C 
BRANCH   3   4
ATOM      4  O   UNL A   1      32.430  33.146  26.940  1.00  0.00    -0.460 OA
BRANCH   4   5
ATOM      5  C   UNL A   1      33.095  33.664  28.009  1.00  0.00     0.338 C 
ATOM      6  O   UNL A   1      32.622  34.585  28.666  1.00  0.00    -0.246 OA
BRANCH   5   7
ATOM      7  C   UNL A   1      34.415  33.110  28.370  1.00  0.00     0.060 A 
ATOM      8  C   UNL A   1      34.589  31.741  28.385  1.00  0.00     0.016 A 
ATOM      9  C   UNL A   1      35.500  33.922  28.705  1.00  0.00     0.016 A 
ATOM     10  C   UNL A   1      35.669  31.145  28.954  1.00  0.00     0.010 A 
ATOM     11  C   UNL A   1      36.685  33.326  29.156  1.00  0.00     0.010 A 
ATOM     12  C   UNL A   1      36.741  31.934  29.323  1.00  0.00    -0.014 A 
BRANCH  12  13
ATOM     13  C   UNL A   1      37.809  31.217  30.020  1.00  0.00     0.031 A 
ATOM     14  C   UNL A   1      37.877  31.356  31.500  1.00  0.00     0.074 A 
ATOM     15  C   UNL A   1      38.503  30.281  29.350  1.00  0.00     0.049 A 
ATOM     16  N   UNL A   1      38.803  30.955  32.319  1.00  0.00    -0.248 NA
ATOM     17  C   UNL A   1      36.744  32.041  32.154  1.00  0.00     0.031 C 
ATOM     18  C   UNL A   1      38.305  29.930  27.935  1.00  0.00     0.029 A 
ATOM     19  N   UNL A   1      39.460  29.407  29.772  1.00  0.00    -0.354 N 
ATOM     20  C   UNL A   1      38.424  31.429  33.565  1.00  0.00     0.074 A 
ATOM     21  C   UNL A   1      37.151  32.094  33.412  1.00  0.00     0.031 C 
ATOM     22  C   UNL A   1      39.081  28.885  27.625  1.00  0.00     0.029 A 
ATOM     23  C   UNL A   1      39.936  28.601  28.767  1.00  0.00     0.049 A 
ATOM     24  H   UNL A   1      39.778  29.357  30.703  1.00  0.00     0.167 HD
ATOM     25  C   UNL A   1      39.132  31.345  34.711  1.00  0.00     0.037 A 
ATOM     26  C   UNL A   1      41.014  27.799  28.755  1.00  0.00     0.037 A 
ATOM     27  C   UNL A   1      40.379  30.636  34.778  1.00  0.00     0.049 A 
ATOM     28  C   UNL A   1      41.828  27.762  30.012  1.00  0.00     0.074 A 
ATOM     29  C   UNL A   1      41.279  30.536  35.819  1.00  0.00     0.029 A 
ATOM     30  N   UNL A   1      40.891  29.879  33.725  1.00  0.00    -0.354 N 
ATOM     31  N   UNL A   1      41.589  28.362  31.158  1.00  0.00    -0.248 NA
ATOM     32  C   UNL A   1      43.072  26.993  29.976  1.00  0.00     0.031 C 
ATOM     33  C   UNL A   1      42.350  29.746  35.381  1.00  0.00     0.029 A 
ATOM     34  C   UNL A   1      42.098  29.317  34.083  1.00  0.00     0.049 A 
ATOM     35  H   UNL A   1      40.453  29.762  32.852  1.00  0.00     0.167 HD
ATOM     36  C   UNL A   1      42.658  28.056  31.982  1.00  0.00     0.074 A 
ATOM     37  C   UNL A   1      43.534  27.192  31.205  1.00  0.00     0.031 C 
ATOM     38  C   UNL A   1      42.910  28.458  33.252  1.00  0.00     0.037 A 
BRANCH  25  39
ATOM     39  C   UNL A   1      38.630  32.153  35.870  1.00  0.00     0.057 A 
ATOM     40  C   UNL A   1      38.853  33.531  35.992  1.00  0.00     0.134 A 
ATOM     41  C   UNL A   1      38.006  31.506  36.946  1.00  0.00     0.134 A 
ATOM     42  F   UNL A   1      39.486  34.205  35.020  1.00  0.00    -0.206 F 
ATOM     43  C   UNL A   1      38.508  34.226  37.155  1.00  0.00     0.040 A 
ATOM     44  C   UNL A   1      37.636  32.194  38.103  1.00  0.00     0.040 A 
ATOM     45  F   UNL A   1      37.780  30.184  36.906  1.00  0.00    -0.206 F 
ATOM     46  C   UNL A   1      37.899  33.557  38.215  1.00  0.00     0.006 A 
ENDBRANCH  25  39
BRANCH  26  47
ATOM     47  C   UNL A   1      41.410  27.124  27.493  1.00  0.00     0.057 A 
ATOM     48  C   UNL A   1      42.208  27.758  26.538  1.00  0.00     0.134 A 
ATOM     49  C   UNL A   1      41.073  25.782  27.256  1.00  0.00     0.134 A 
ATOM     50  F   UNL A   1      42.557  29.043  26.694  1.00  0.00    -0.206 F 
ATOM     51  C   UNL A   1      42.670  27.081  25.404  1.00  0.00     0.040 A 
ATOM     52  C   UNL A   1      41.550  25.085  26.146  1.00  0.00     0.040 A 
ATOM     53  F   UNL A   1      40.315  25.108  28.135  1.00  0.00    -0.206 F 
ATOM     54  C   UNL A   1      42.353  25.735  25.214  1.00  0.00     0.006 A 
ENDBRANCH  26  47
BRANCH  38  55
ATOM     55  C   UNL A   1      44.164  27.936  33.868  1.00  0.00     0.057 A 
ATOM     56  C   UNL A   1      44.194  26.702  34.526  1.00  0.00     0.134 A 
ATOM     57  C   UNL A   1      45.363  28.644  33.733  1.00  0.00     0.134 A 
ATOM     58  F   UNL A   1      43.068  25.991  34.693  1.00  0.00    -0.206 F 
ATOM     59  C   UNL A   1      45.384  26.189  35.036  1.00  0.00     0.040 A 
ATOM     60  C   UNL A   1      46.560  28.132  34.222  1.00  0.00     0.040 A 
ATOM     61  F   UNL A   1      45.385  29.829  33.105  1.00  0.00    -0.206 F 
ATOM     62  C   UNL A   1      46.573  26.900  34.875  1.00  0.00     0.006 A 
ENDBRANCH  38  55
ENDBRANCH  12  13
ENDBRANCH   5   7
ENDBRANCH   4   5
ENDBRANCH   3   4
ENDBRANCH   2   3
ENDBRANCH   1   2
BRANCH   1  63
ATOM     63  C   UNL A   1      32.748  28.795  27.247  1.00  0.00     0.202 C 
BRANCH  63  64
ATOM     64  C   UNL A   1      33.359  27.896  26.181  1.00  0.00     0.261 C 
BRANCH  64  65
ATOM     65  O   UNL A   1      32.919  26.550  26.397  1.00  0.00    -0.463 OA
BRANCH  65  66
ATOM     66  C   UNL A   1      33.175  25.704  25.382  1.00  0.00     0.312 C 
ATOM     67  O   UNL A   1      34.203  25.733  24.714  1.00  0.00    -0.252 OA
BRANCH  66  68
ATOM     68  C   UNL A   1      32.016  24.749  25.105  1.00  0.00     0.078 C 
ATOM     69  C   UNL A   1      31.424  24.399  26.510  1.00  0.00     0.047 C 
ATOM     70  C   UNL A   1      32.723  23.459  24.593  1.00  0.00     0.047 C 
ATOM     71  C   UNL A   1      30.593  23.130  26.501  1.00  0.00     0.161 C 
ATOM     72  C   UNL A   1      31.848  22.218  24.706  1.00  0.00     0.161 C 
ATOM     73  O   UNL A   1      31.381  22.036  26.039  1.00  0.00    -0.381 OA
BRANCH  68  74
ATOM     74  C   UNL A   1      30.875  25.227  24.080  1.00  0.00     0.035 C 
ATOM     75  C   UNL A   1      31.272  25.428  22.584  1.00  0.00     0.007 C 
ATOM     76  C   UNL A   1      29.892  26.336  24.536  1.00  0.00     0.118 C 
ATOM     77  C   UNL A   1      31.453  26.860  22.061  1.00  0.00     0.001 C 
ATOM     78  C   UNL A   1      30.243  27.732  24.047  1.00  0.00     0.032 C 
ATOM     79  C   UNL A   1      30.392  27.830  22.545  1.00  0.00     0.003 C 
BRANCH  76  80
ATOM     80  O   UNL A   1      28.598  26.003  24.015  1.00  0.00    -0.393 OA
ATOM     81  H   UNL A   1      28.595  25.078  23.723  1.00  0.00     0.210 HD
ENDBRANCH  76  80
ENDBRANCH  68  74
ENDBRANCH  66  68
ENDBRANCH  65  66
ENDBRANCH  64  65
ENDBRANCH  63  64
ENDBRANCH   1  63
TORSDOF 16
ENDMDL
MODEL 3
REMARK VINA RESULT:     -10.6      1.019      1.996
REMARK SMILES O=C(OCCOCCOC(=O)C1([C@@H]2CCCC[C@H]2O)CCOCC1)c1ccc(-c2c3nc(c(-c4c(F)cccc4F)c4ccc([nH]4)c(-c4c(F)cccc4F)c4nc(c(-c5c(F)cccc5F)c5ccc2[nH]5)C=C4)C=C3)cc1
REMARK SMILES IDX 6 1 5 2 4 3 3 4 2 5 1 6 25 7 26 8 78 9 27 10 77 11 28 12
REMARK SMILES IDX 29 13 30 14 71 15 31 16 76 17 70 18 72 19 32 20 75 21 69 22
REMARK SMILES IDX 68 23 33 25 59 26 42 27 58 28 43 29 46 30 57 31 73 32 44 33
REMARK SMILES IDX 45 34 56 36 74 37 47 38 34 39 35 40 40 41 36 42 37 43 39 44
REMARK SMILES IDX 41 45 38 46 60 47 61 48 66 49 62 50 63 51 65 52 67 53 64 54
REMARK SMILES IDX 48 55 49 56 54 57 50 58 51 59 53 60 55 61 52 62 7 63 8 64
REMARK SMILES IDX 9 65 10 66 11 67 12 68 20 69 24 70 21 71 23 72 22 73 13 74
REMARK SMILES IDX 14 75 18 76 15 77 17 78 16 79 19 80
REMARK H PARENT 72 24 46 35 19 81
REMARK Flexibility Score: inf
ROOT
ATOM      1  O   UNL A   1      32.736  27.552  24.644  1.00  0.00    -0.374 OA
ENDROOT
BRANCH   1   2
ATOM      2  C   UNL A   1      32.978  28.963  24.695  1.00  0.00     0.202 C 
BRANCH   2   3
ATOM      3  C   UNL A   1      31.964  29.872  25.438  1.00  0.00     0.261 C 
BRANCH   3   4
ATOM      4  O   UNL A   1      32.371  30.208  26.796  1.00  0.00    -0.460 OA
BRANCH   4   5
ATOM      5  C   UNL A   1      33.096  31.275  27.232  1.00  0.00     0.338 C 
ATOM      6  O   UNL A   1      32.619  32.405  27.242  1.00  0.00    -0.246 OA
BRANCH   5   7
ATOM      7  C   UNL A   1      34.484  31.062  27.688  1.00  0.00     0.060 A 
ATOM      8  C   UNL A   1      34.914  29.778  27.957  1.00  0.00     0.016 A 
ATOM      9  C   UNL A   1      35.383  32.115  27.863  1.00  0.00     0.016 A 
ATOM     10  C   UNL A   1      36.067  29.517  28.626  1.00  0.00     0.010 A 
ATOM     11  C   UNL A   1      36.643  31.852  28.416  1.00  0.00     0.010 A 
ATOM     12  C   UNL A   1      36.956  30.551  28.839  1.00  0.00    -0.014 A 
BRANCH  12  13
ATOM     13  C   UNL A   1      38.116  30.194  29.656  1.00  0.00     0.031 A 
ATOM     14  C   UNL A   1      39.218  29.444  28.994  1.00  0.00     0.074 A 
ATOM     15  C   UNL A   1      38.256  30.767  30.865  1.00  0.00     0.049 A 
ATOM     16  N   UNL A   1      40.265  28.887  29.526  1.00  0.00    -0.248 NA
ATOM     17  C   UNL A   1      39.134  29.302  27.527  1.00  0.00     0.031 C 
ATOM     18  C   UNL A   1      37.307  31.715  31.468  1.00  0.00     0.029 A 
ATOM     19  N   UNL A   1      39.271  30.699  31.772  1.00  0.00    -0.354 N 
ATOM     20  C   UNL A   1      40.905  28.237  28.483  1.00  0.00     0.074 A 
ATOM     21  C   UNL A   1      40.170  28.520  27.273  1.00  0.00     0.031 C 
ATOM     22  C   UNL A   1      37.811  32.173  32.620  1.00  0.00     0.029 A 
ATOM     23  C   UNL A   1      39.031  31.436  32.906  1.00  0.00     0.049 A 
ATOM     24  H   UNL A   1      40.093  30.176  31.629  1.00  0.00     0.167 HD
ATOM     25  C   UNL A   1      41.987  27.434  28.574  1.00  0.00     0.037 A 
ATOM     26  C   UNL A   1      39.682  31.428  34.081  1.00  0.00     0.037 A 
ATOM     27  C   UNL A   1      42.676  27.234  29.818  1.00  0.00     0.049 A 
ATOM     28  C   UNL A   1      40.843  30.487  34.191  1.00  0.00     0.074 A 
ATOM     29  C   UNL A   1      43.717  26.380  30.119  1.00  0.00     0.029 A 
ATOM     30  N   UNL A   1      42.376  27.935  30.986  1.00  0.00    -0.354 N 
ATOM     31  N   UNL A   1      41.356  29.711  33.263  1.00  0.00    -0.248 NA
ATOM     32  C   UNL A   1      41.484  30.374  35.502  1.00  0.00     0.031 C 
ATOM     33  C   UNL A   1      44.022  26.543  31.477  1.00  0.00     0.029 A 
ATOM     34  C   UNL A   1      43.202  27.530  32.012  1.00  0.00     0.049 A 
ATOM     35  H   UNL A   1      41.676  28.622  31.065  1.00  0.00     0.167 HD
ATOM     36  C   UNL A   1      42.376  29.003  33.874  1.00  0.00     0.074 A 
ATOM     37  C   UNL A   1      42.422  29.467  35.252  1.00  0.00     0.031 C 
ATOM     38  C   UNL A   1      43.191  28.048  33.361  1.00  0.00     0.037 A 
BRANCH  25  39
ATOM     39  C   UNL A   1      42.342  26.647  27.349  1.00  0.00     0.057 A 
ATOM     40  C   UNL A   1      41.863  25.352  27.110  1.00  0.00     0.134 A 
ATOM     41  C   UNL A   1      43.281  27.161  26.444  1.00  0.00     0.134 A 
ATOM     42  F   UNL A   1      40.998  24.780  27.961  1.00  0.00    -0.206 F 
ATOM     43  C   UNL A   1      42.333  24.586  26.039  1.00  0.00     0.040 A 
ATOM     44  C   UNL A   1      43.741  26.414  25.358  1.00  0.00     0.040 A 
ATOM     45  F   UNL A   1      43.798  28.386  26.623  1.00  0.00    -0.206 F 
ATOM     46  C   UNL A   1      43.276  25.117  25.160  1.00  0.00     0.006 A 
ENDBRANCH  25  39
BRANCH  26  47
ATOM     47  C   UNL A   1      39.149  32.221  35.218  1.00  0.00     0.057 A 
ATOM     48  C   UNL A   1      38.314  31.653  36.184  1.00  0.00     0.134 A 
ATOM     49  C   UNL A   1      39.543  33.554  35.417  1.00  0.00     0.134 A 
ATOM     50  F   UNL A   1      37.889  30.389  36.050  1.00  0.00    -0.206 F 
ATOM     51  C   UNL A   1      37.905  32.373  37.311  1.00  0.00     0.040 A 
ATOM     52  C   UNL A   1      39.167  34.275  36.551  1.00  0.00     0.040 A 
ATOM     53  F   UNL A   1      40.350  34.161  34.532  1.00  0.00    -0.206 F 
ATOM     54  C   UNL A   1      38.345  33.683  37.504  1.00  0.00     0.006 A 
ENDBRANCH  26  47
BRANCH  38  55
ATOM     55  C   UNL A   1      44.206  27.481  34.295  1.00  0.00     0.057 A 
ATOM     56  C   UNL A   1      43.954  26.312  35.021  1.00  0.00     0.134 A 
ATOM     57  C   UNL A   1      45.469  28.072  34.406  1.00  0.00     0.134 A 
ATOM     58  F   UNL A   1      42.754  25.715  34.959  1.00  0.00    -0.206 F 
ATOM     59  C   UNL A   1      44.933  25.749  35.837  1.00  0.00     0.040 A 
ATOM     60  C   UNL A   1      46.459  27.507  35.202  1.00  0.00     0.040 A 
ATOM     61  F   UNL A   1      45.758  29.190  33.725  1.00  0.00    -0.206 F 
ATOM     62  C   UNL A   1      46.193  26.342  35.920  1.00  0.00     0.006 A 
ENDBRANCH  38  55
ENDBRANCH  12  13
ENDBRANCH   5   7
ENDBRANCH   4   5
ENDBRANCH   3   4
ENDBRANCH   2   3
ENDBRANCH   1   2
BRANCH   1  63
ATOM     63  C   UNL A   1      31.938  27.023  23.575  1.00  0.00     0.202 C 
BRANCH  63  64
ATOM     64  C   UNL A   1      32.638  25.909  22.809  1.00  0.00     0.261 C 
BRANCH  64  65
ATOM     65  O   UNL A   1      33.526  25.219  23.697  1.00  0.00    -0.463 OA
BRANCH  65  66
ATOM     66  C   UNL A   1      34.042  24.078  23.202  1.00  0.00     0.312 C 
ATOM     67  O   UNL A   1      33.891  23.710  22.043  1.00  0.00    -0.252 OA
BRANCH  66  68
ATOM     68  C   UNL A   1      34.774  23.256  24.260  1.00  0.00     0.078 C 
ATOM     69  C   UNL A   1      35.402  24.306  25.236  1.00  0.00     0.047 C 
ATOM     70  C   UNL A   1      35.960  22.625  23.473  1.00  0.00     0.047 C 
ATOM     71  C   UNL A   1      36.538  23.735  26.065  1.00  0.00     0.161 C 
ATOM     72  C   UNL A   1      37.095  22.164  24.378  1.00  0.00     0.161 C 
ATOM     73  O   UNL A   1      37.555  23.224  25.208  1.00  0.00    -0.381 OA
BRANCH  68  74
ATOM     74  C   UNL A   1      33.943  22.132  25.050  1.00  0.00     0.035 C 
ATOM     75  C   UNL A   1      34.679  20.808  25.430  1.00  0.00     0.007 C 
ATOM     76  C   UNL A   1      32.489  21.835  24.597  1.00  0.00     0.118 C 
ATOM     77  C   UNL A   1      34.385  19.546  24.606  1.00  0.00     0.001 C 
ATOM     78  C   UNL A   1      32.344  20.624  23.691  1.00  0.00     0.032 C 
ATOM     79  C   UNL A   1      32.917  19.353  24.278  1.00  0.00     0.003 C 
BRANCH  76  80
ATOM     80  O   UNL A   1      31.714  21.592  25.780  1.00  0.00    -0.393 OA
ATOM     81  H   UNL A   1      31.319  20.708  25.732  1.00  0.00     0.210 HD
ENDBRANCH  76  80
ENDBRANCH  68  74
ENDBRANCH  66  68
ENDBRANCH  65  66
ENDBRANCH  64  65
ENDBRANCH  63  64
ENDBRANCH   1  63
TORSDOF 16
ENDMDL
