MODEL 1
REMARK VINA RESULT:     -10.8      0.000      0.000
REMARK SMILES CC(C)[C@@H]1CCCN1C(=O)N1CCO[C@H](CC(=O)OCCOCCOC(=O)c2ccc(-c3c4nc(c(-c5c(F)cccc5F)c5ccc([nH]5)c(-c5c(F)cccc5F)c5nc(c(-c6c(F)cccc6F)c6ccc3[nH]6)C=C5)C=C4)cc2)C1
REMARK SMILES IDX 21 1 20 2 19 3 17 4 18 5 16 6 15 7 11 8 12 9 82 10 13 11
REMARK SMILES IDX 14 12 9 13 10 14 8 15 4 16 5 17 6 18 7 19 2 20 1 21 3 22
REMARK SMILES IDX 22 23 23 24 24 25 25 26 26 27 27 28 28 29 29 30 81 31 30 32
REMARK SMILES IDX 80 33 31 34 32 35 33 36 74 37 34 38 79 39 73 40 75 41 35 42
REMARK SMILES IDX 78 43 72 44 71 45 36 47 62 48 45 49 61 50 46 51 49 52 60 53
REMARK SMILES IDX 76 54 47 55 48 56 59 58 77 59 50 60 37 61 38 62 43 63 39 64
REMARK SMILES IDX 40 65 42 66 44 67 41 68 63 69 64 70 69 71 65 72 66 73 68 74
REMARK SMILES IDX 70 75 67 76 51 77 52 78 57 79 53 80 54 81 56 82 58 83 55 84
REMARK H PARENT 75 46 49 57
REMARK Flexibility Score: inf
ROOT
ATOM      1  C   UNL A   1      40.727  21.390  25.948  1.00  0.00     0.202 C 
ENDROOT
BRANCH   1   2
ATOM      2  C   UNL A   1      39.612  22.284  26.490  1.00  0.00     0.261 C 
BRANCH   2   3
ATOM      3  O   UNL A   1      38.351  21.852  25.953  1.00  0.00    -0.463 OA
BRANCH   3   4
ATOM      4  C   UNL A   1      37.498  22.787  25.481  1.00  0.00     0.308 C 
ATOM      5  O   UNL A   1      37.437  23.943  25.881  1.00  0.00    -0.252 OA
BRANCH   4   6
ATOM      6  C   UNL A   1      36.504  22.213  24.508  1.00  0.00     0.156 C 
BRANCH   6   7
ATOM      7  C   UNL A   1      35.175  21.601  24.997  1.00  0.00     0.149 C 
ATOM      8  N   UNL A   1      33.607  23.450  24.839  1.00  0.00    -0.320 N 
ATOM      9  C   UNL A   1      32.862  23.080  26.027  1.00  0.00     0.150 C 
ATOM     10  C   UNL A   1      34.063  22.251  24.148  1.00  0.00     0.154 C 
ATOM     11  C   UNL A   1      33.601  21.989  26.826  1.00  0.00     0.182 C 
ATOM     12  O   UNL A   1      34.961  21.766  26.412  1.00  0.00    -0.374 OA
BRANCH   8  13
ATOM     13  C   UNL A   1      33.238  24.530  24.087  1.00  0.00     0.320 C 
ATOM     14  O   UNL A   1      33.993  24.939  23.202  1.00  0.00    -0.248 OA
BRANCH  13  15
ATOM     15  N   UNL A   1      32.082  25.210  24.435  1.00  0.00    -0.321 N 
ATOM     16  C   UNL A   1      31.826  26.555  25.035  1.00  0.00     0.089 C 
ATOM     17  C   UNL A   1      30.287  26.615  25.076  1.00  0.00     0.027 C 
ATOM     18  C   UNL A   1      29.883  25.880  23.818  1.00  0.00     0.024 C 
ATOM     19  C   UNL A   1      30.858  24.715  23.805  1.00  0.00     0.122 C 
BRANCH  16  20
ATOM     20  C   UNL A   1      32.464  26.896  26.410  1.00  0.00     0.005 C 
ATOM     21  C   UNL A   1      33.827  27.539  26.177  1.00  0.00     0.009 C 
ATOM     22  C   UNL A   1      31.692  27.861  27.321  1.00  0.00     0.009 C 
ENDBRANCH  16  20
ENDBRANCH  13  15
ENDBRANCH   8  13
ENDBRANCH   6   7
ENDBRANCH   4   6
ENDBRANCH   3   4
ENDBRANCH   2   3
ENDBRANCH   1   2
BRANCH   1  23
ATOM     23  O   UNL A   1      42.026  21.739  26.434  1.00  0.00    -0.374 OA
BRANCH  23  24
ATOM     24  C   UNL A   1      43.128  21.112  25.781  1.00  0.00     0.202 C 
BRANCH  24  25
ATOM     25  C   UNL A   1      44.086  22.078  25.080  1.00  0.00     0.261 C 
BRANCH  25  26
ATOM     26  O   UNL A   1      43.440  23.292  24.656  1.00  0.00    -0.460 OA
BRANCH  26  27
ATOM     27  C   UNL A   1      44.117  24.418  24.953  1.00  0.00     0.338 C 
ATOM     28  O   UNL A   1      45.274  24.695  24.626  1.00  0.00    -0.246 OA
BRANCH  27  29
ATOM     29  C   UNL A   1      43.278  25.372  25.698  1.00  0.00     0.060 A 
ATOM     30  C   UNL A   1      43.869  26.580  26.087  1.00  0.00     0.016 A 
ATOM     31  C   UNL A   1      41.996  25.035  26.146  1.00  0.00     0.016 A 
ATOM     32  C   UNL A   1      43.225  27.407  27.003  1.00  0.00     0.010 A 
ATOM     33  C   UNL A   1      41.347  25.872  27.062  1.00  0.00     0.010 A 
ATOM     34  C   UNL A   1      41.989  27.027  27.542  1.00  0.00    -0.014 A 
BRANCH  34  35
ATOM     35  C   UNL A   1      41.483  27.739  28.742  1.00  0.00     0.031 A 
ATOM     36  C   UNL A   1      42.230  27.599  30.044  1.00  0.00     0.074 A 
ATOM     37  C   UNL A   1      40.422  28.560  28.661  1.00  0.00     0.049 A 
ATOM     38  N   UNL A   1      41.997  28.162  31.202  1.00  0.00    -0.248 NA
ATOM     39  C   UNL A   1      43.399  26.704  30.038  1.00  0.00     0.031 C 
ATOM     40  C   UNL A   1      39.634  28.809  27.457  1.00  0.00     0.029 A 
ATOM     41  N   UNL A   1      39.832  29.346  29.620  1.00  0.00    -0.354 N 
ATOM     42  C   UNL A   1      42.981  27.688  32.059  1.00  0.00     0.074 A 
ATOM     43  C   UNL A   1      43.794  26.762  31.300  1.00  0.00     0.031 C 
ATOM     44  C   UNL A   1      38.663  29.693  27.746  1.00  0.00     0.029 A 
ATOM     45  C   UNL A   1      38.751  30.055  29.161  1.00  0.00     0.049 A 
ATOM     46  H   UNL A   1      40.155  29.397  30.549  1.00  0.00     0.167 HD
ATOM     47  C   UNL A   1      43.203  28.005  33.357  1.00  0.00     0.037 A 
ATOM     48  C   UNL A   1      37.923  30.895  29.811  1.00  0.00     0.037 A 
ATOM     49  C   UNL A   1      42.408  28.936  34.112  1.00  0.00     0.049 A 
ATOM     50  C   UNL A   1      38.164  31.201  31.264  1.00  0.00     0.074 A 
ATOM     51  C   UNL A   1      42.565  29.337  35.428  1.00  0.00     0.029 A 
ATOM     52  N   UNL A   1      41.305  29.613  33.617  1.00  0.00    -0.354 N 
ATOM     53  N   UNL A   1      39.114  30.765  32.056  1.00  0.00    -0.248 NA
ATOM     54  C   UNL A   1      37.222  32.126  31.912  1.00  0.00     0.031 C 
ATOM     55  C   UNL A   1      41.532  30.227  35.741  1.00  0.00     0.029 A 
ATOM     56  C   UNL A   1      40.760  30.415  34.606  1.00  0.00     0.049 A 
ATOM     57  H   UNL A   1      40.960  29.535  32.698  1.00  0.00     0.167 HD
ATOM     58  C   UNL A   1      38.902  31.385  33.282  1.00  0.00     0.074 A 
ATOM     59  C   UNL A   1      37.740  32.234  33.127  1.00  0.00     0.031 C 
ATOM     60  C   UNL A   1      39.609  31.263  34.434  1.00  0.00     0.037 A 
BRANCH  47  61
ATOM     61  C   UNL A   1      44.347  27.323  34.048  1.00  0.00     0.057 A 
ATOM     62  C   UNL A   1      45.632  27.882  34.079  1.00  0.00     0.134 A 
ATOM     63  C   UNL A   1      44.154  26.109  34.718  1.00  0.00     0.134 A 
ATOM     64  F   UNL A   1      45.887  29.036  33.446  1.00  0.00    -0.206 F 
ATOM     65  C   UNL A   1      46.688  27.244  34.732  1.00  0.00     0.040 A 
ATOM     66  C   UNL A   1      45.197  25.474  35.394  1.00  0.00     0.040 A 
ATOM     67  F   UNL A   1      42.947  25.522  34.730  1.00  0.00    -0.206 F 
ATOM     68  C   UNL A   1      46.470  26.040  35.398  1.00  0.00     0.006 A 
ENDBRANCH  47  61
BRANCH  48  69
ATOM     69  C   UNL A   1      36.786  31.517  29.089  1.00  0.00     0.057 A 
ATOM     70  C   UNL A   1      36.812  32.865  28.712  1.00  0.00     0.134 A 
ATOM     71  C   UNL A   1      35.635  30.782  28.777  1.00  0.00     0.134 A 
ATOM     72  F   UNL A   1      37.877  33.626  29.004  1.00  0.00    -0.206 F 
ATOM     73  C   UNL A   1      35.729  33.464  28.068  1.00  0.00     0.040 A 
ATOM     74  C   UNL A   1      34.556  31.362  28.112  1.00  0.00     0.040 A 
ATOM     75  F   UNL A   1      35.550  29.486  29.110  1.00  0.00    -0.206 F 
ATOM     76  C   UNL A   1      34.598  32.710  27.762  1.00  0.00     0.006 A 
ENDBRANCH  48  69
BRANCH  60  77
ATOM     77  C   UNL A   1      39.169  32.096  35.602  1.00  0.00     0.057 A 
ATOM     78  C   UNL A   1      39.584  33.423  35.764  1.00  0.00     0.134 A 
ATOM     79  C   UNL A   1      38.293  31.571  36.561  1.00  0.00     0.134 A 
ATOM     80  F   UNL A   1      40.431  33.983  34.886  1.00  0.00    -0.206 F 
ATOM     81  C   UNL A   1      39.163  34.192  36.851  1.00  0.00     0.040 A 
ATOM     82  C   UNL A   1      37.846  32.336  37.639  1.00  0.00     0.040 A 
ATOM     83  F   UNL A   1      37.850  30.309  36.460  1.00  0.00    -0.206 F 
ATOM     84  C   UNL A   1      38.287  33.650  37.789  1.00  0.00     0.006 A 
ENDBRANCH  60  77
ENDBRANCH  34  35
ENDBRANCH  27  29
ENDBRANCH  26  27
ENDBRANCH  25  26
ENDBRANCH  24  25
ENDBRANCH  23  24
ENDBRANCH   1  23
TORSDOF 18
ENDMDL
MODEL 2
REMARK VINA RESULT:     -10.3      0.858      6.327
REMARK SMILES CC(C)[C@@H]1CCCN1C(=O)N1CCO[C@H](CC(=O)OCCOCCOC(=O)c2ccc(-c3c4nc(c(-c5c(F)cccc5F)c5ccc([nH]5)c(-c5c(F)cccc5F)c5nc(c(-c6c(F)cccc6F)c6ccc3[nH]6)C=C5)C=C4)cc2)C1
REMARK SMILES IDX 21 1 20 2 19 3 17 4 18 5 16 6 15 7 11 8 12 9 82 10 13 11
REMARK SMILES IDX 14 12 9 13 10 14 8 15 4 16 5 17 6 18 7 19 2 20 1 21 3 22
REMARK SMILES IDX 22 23 23 24 24 25 25 26 26 27 27 28 28 29 29 30 81 31 30 32
REMARK SMILES IDX 80 33 31 34 32 35 33 36 74 37 34 38 79 39 73 40 75 41 35 42
REMARK SMILES IDX 78 43 72 44 71 45 36 47 62 48 45 49 61 50 46 51 49 52 60 53
REMARK SMILES IDX 76 54 47 55 48 56 59 58 77 59 50 60 37 61 38 62 43 63 39 64
REMARK SMILES IDX 40 65 42 66 44 67 41 68 63 69 64 70 69 71 65 72 66 73 68 74
REMARK SMILES IDX 70 75 67 76 51 77 52 78 57 79 53 80 54 81 56 82 58 83 55 84
REMARK H PARENT 75 46 49 57
REMARK Flexibility Score: inf
ROOT
ATOM      1  C   UNL A   1      40.655  21.861  26.212  1.00  0.00     0.202 C 
ENDROOT
BRANCH   1   2
ATOM      2  C   UNL A   1      39.284  21.304  25.831  1.00  0.00     0.261 C 
BRANCH   2   3
ATOM      3  O   UNL A   1      38.283  22.316  26.033  1.00  0.00    -0.463 OA
BRANCH   3   4
ATOM      4  C   UNL A   1      37.113  22.205  25.368  1.00  0.00     0.308 C 
ATOM      5  O   UNL A   1      36.974  21.659  24.280  1.00  0.00    -0.252 OA
BRANCH   4   6
ATOM      6  C   UNL A   1      36.004  22.973  26.035  1.00  0.00     0.156 C 
BRANCH   6   7
ATOM      7  C   UNL A   1      34.544  22.476  25.975  1.00  0.00     0.149 C 
ATOM      8  N   UNL A   1      33.287  24.475  25.402  1.00  0.00    -0.320 N 
ATOM      9  C   UNL A   1      32.138  24.133  26.218  1.00  0.00     0.150 C 
ATOM     10  C   UNL A   1      33.867  23.265  24.835  1.00  0.00     0.154 C 
ATOM     11  C   UNL A   1      32.452  22.945  27.148  1.00  0.00     0.182 C 
ATOM     12  O   UNL A   1      33.849  22.606  27.230  1.00  0.00    -0.374 OA
BRANCH   8  13
ATOM     13  C   UNL A   1      33.299  25.614  24.647  1.00  0.00     0.320 C 
ATOM     14  O   UNL A   1      33.857  25.607  23.547  1.00  0.00    -0.248 OA
BRANCH  13  15
ATOM     15  N   UNL A   1      32.797  26.778  25.206  1.00  0.00    -0.321 N 
ATOM     16  C   UNL A   1      31.433  27.390  25.247  1.00  0.00     0.089 C 
ATOM     17  C   UNL A   1      31.662  28.657  26.092  1.00  0.00     0.027 C 
ATOM     18  C   UNL A   1      32.694  28.213  27.103  1.00  0.00     0.024 C 
ATOM     19  C   UNL A   1      33.631  27.375  26.251  1.00  0.00     0.122 C 
BRANCH  16  20
ATOM     20  C   UNL A   1      30.712  27.700  23.907  1.00  0.00     0.005 C 
ATOM     21  C   UNL A   1      29.339  27.035  23.919  1.00  0.00     0.009 C 
ATOM     22  C   UNL A   1      30.462  29.176  23.569  1.00  0.00     0.009 C 
ENDBRANCH  16  20
ENDBRANCH  13  15
ENDBRANCH   8  13
ENDBRANCH   6   7
ENDBRANCH   4   6
ENDBRANCH   3   4
ENDBRANCH   2   3
ENDBRANCH   1   2
BRANCH   1  23
ATOM     23  O   UNL A   1      41.744  21.041  25.782  1.00  0.00    -0.374 OA
BRANCH  23  24
ATOM     24  C   UNL A   1      43.048  21.490  26.147  1.00  0.00     0.202 C 
BRANCH  24  25
ATOM     25  C   UNL A   1      43.784  22.265  25.052  1.00  0.00     0.261 C 
BRANCH  25  26
ATOM     26  O   UNL A   1      43.146  23.514  24.730  1.00  0.00    -0.460 OA
BRANCH  26  27
ATOM     27  C   UNL A   1      43.833  24.607  25.114  1.00  0.00     0.338 C 
ATOM     28  O   UNL A   1      44.987  24.907  24.797  1.00  0.00    -0.246 OA
BRANCH  27  29
ATOM     29  C   UNL A   1      43.009  25.496  25.950  1.00  0.00     0.060 A 
ATOM     30  C   UNL A   1      43.382  26.844  26.017  1.00  0.00     0.016 A 
ATOM     31  C   UNL A   1      41.993  25.003  26.774  1.00  0.00     0.016 A 
ATOM     32  C   UNL A   1      42.815  27.678  26.975  1.00  0.00     0.010 A 
ATOM     33  C   UNL A   1      41.417  25.845  27.733  1.00  0.00     0.010 A 
ATOM     34  C   UNL A   1      41.873  27.167  27.879  1.00  0.00    -0.014 A 
BRANCH  34  35
ATOM     35  C   UNL A   1      41.532  27.965  29.083  1.00  0.00     0.031 A 
ATOM     36  C   UNL A   1      40.313  28.851  29.050  1.00  0.00     0.074 A 
ATOM     37  C   UNL A   1      42.246  27.847  30.215  1.00  0.00     0.049 A 
ATOM     38  N   UNL A   1      39.802  29.599  29.995  1.00  0.00    -0.248 NA
ATOM     39  C   UNL A   1      39.569  28.900  27.780  1.00  0.00     0.031 C 
ATOM     40  C   UNL A   1      43.424  27.001  30.388  1.00  0.00     0.029 A 
ATOM     41  N   UNL A   1      42.073  28.441  31.440  1.00  0.00    -0.354 N 
ATOM     42  C   UNL A   1      38.686  30.208  29.435  1.00  0.00     0.074 A 
ATOM     43  C   UNL A   1      38.612  29.772  28.057  1.00  0.00     0.031 C 
ATOM     44  C   UNL A   1      43.868  27.125  31.651  1.00  0.00     0.029 A 
ATOM     45  C   UNL A   1      43.017  28.076  32.367  1.00  0.00     0.049 A 
ATOM     46  H   UNL A   1      41.340  29.069  31.636  1.00  0.00     0.167 HD
ATOM     47  C   UNL A   1      37.791  31.041  30.017  1.00  0.00     0.037 A 
ATOM     48  C   UNL A   1      43.178  28.467  33.645  1.00  0.00     0.037 A 
ATOM     49  C   UNL A   1      37.849  31.465  31.390  1.00  0.00     0.049 A 
ATOM     50  C   UNL A   1      42.194  29.427  34.258  1.00  0.00     0.074 A 
ATOM     51  C   UNL A   1      36.978  32.293  32.077  1.00  0.00     0.029 A 
ATOM     52  N   UNL A   1      38.837  31.092  32.288  1.00  0.00    -0.354 N 
ATOM     53  N   UNL A   1      41.128  29.974  33.725  1.00  0.00    -0.248 NA
ATOM     54  C   UNL A   1      42.430  29.814  35.658  1.00  0.00     0.031 C 
ATOM     55  C   UNL A   1      37.461  32.454  33.380  1.00  0.00     0.029 A 
ATOM     56  C   UNL A   1      38.608  31.688  33.517  1.00  0.00     0.049 A 
ATOM     57  H   UNL A   1      39.591  30.493  32.082  1.00  0.00     0.167 HD
ATOM     58  C   UNL A   1      40.552  30.743  34.730  1.00  0.00     0.074 A 
ATOM     59  C   UNL A   1      41.380  30.584  35.906  1.00  0.00     0.031 C 
ATOM     60  C   UNL A   1      39.435  31.512  34.682  1.00  0.00     0.037 A 
BRANCH  47  61
ATOM     61  C   UNL A   1      36.675  31.562  29.159  1.00  0.00     0.057 A 
ATOM     62  C   UNL A   1      35.586  30.760  28.793  1.00  0.00     0.134 A 
ATOM     63  C   UNL A   1      36.674  32.892  28.721  1.00  0.00     0.134 A 
ATOM     64  F   UNL A   1      35.532  29.473  29.169  1.00  0.00    -0.206 F 
ATOM     65  C   UNL A   1      34.548  31.256  28.002  1.00  0.00     0.040 A 
ATOM     66  C   UNL A   1      35.631  33.406  27.950  1.00  0.00     0.040 A 
ATOM     67  F   UNL A   1      37.685  33.715  29.040  1.00  0.00    -0.206 F 
ATOM     68  C   UNL A   1      34.566  32.585  27.584  1.00  0.00     0.006 A 
ENDBRANCH  47  61
BRANCH  48  69
ATOM     69  C   UNL A   1      44.318  27.948  34.439  1.00  0.00     0.057 A 
ATOM     70  C   UNL A   1      44.255  26.701  35.074  1.00  0.00     0.134 A 
ATOM     71  C   UNL A   1      45.491  28.696  34.600  1.00  0.00     0.134 A 
ATOM     72  F   UNL A   1      43.149  25.950  34.975  1.00  0.00    -0.206 F 
ATOM     73  C   UNL A   1      45.310  26.226  35.853  1.00  0.00     0.040 A 
ATOM     74  C   UNL A   1      46.561  28.222  35.357  1.00  0.00     0.040 A 
ATOM     75  F   UNL A   1      45.612  29.897  34.016  1.00  0.00    -0.206 F 
ATOM     76  C   UNL A   1      46.470  26.986  35.993  1.00  0.00     0.006 A 
ENDBRANCH  48  69
BRANCH  60  77
ATOM     77  C   UNL A   1      39.023  32.205  35.949  1.00  0.00     0.057 A 
ATOM     78  C   UNL A   1      39.418  33.516  36.238  1.00  0.00     0.134 A 
ATOM     79  C   UNL A   1      38.193  31.560  36.874  1.00  0.00     0.134 A 
ATOM     80  F   UNL A   1      40.222  34.185  35.397  1.00  0.00    -0.206 F 
ATOM     81  C   UNL A   1      39.023  34.154  37.415  1.00  0.00     0.040 A 
ATOM     82  C   UNL A   1      37.770  32.195  38.043  1.00  0.00     0.040 A 
ATOM     83  F   UNL A   1      37.770  30.306  36.653  1.00  0.00    -0.206 F 
ATOM     84  C   UNL A   1      38.192  33.494  38.319  1.00  0.00     0.006 A 
ENDBRANCH  60  77
ENDBRANCH  34  35
ENDBRANCH  27  29
ENDBRANCH  26  27
ENDBRANCH  25  26
ENDBRANCH  24  25
ENDBRANCH  23  24
ENDBRANCH   1  23
TORSDOF 18
ENDMDL
MODEL 3
REMARK VINA RESULT:     -10.3      1.297      6.303
REMARK SMILES CC(C)[C@@H]1CCCN1C(=O)N1CCO[C@H](CC(=O)OCCOCCOC(=O)c2ccc(-c3c4nc(c(-c5c(F)cccc5F)c5ccc([nH]5)c(-c5c(F)cccc5F)c5nc(c(-c6c(F)cccc6F)c6ccc3[nH]6)C=C5)C=C4)cc2)C1
REMARK SMILES IDX 21 1 20 2 19 3 17 4 18 5 16 6 15 7 11 8 12 9 82 10 13 11
REMARK SMILES IDX 14 12 9 13 10 14 8 15 4 16 5 17 6 18 7 19 2 20 1 21 3 22
REMARK SMILES IDX 22 23 23 24 24 25 25 26 26 27 27 28 28 29 29 30 81 31 30 32
REMARK SMILES IDX 80 33 31 34 32 35 33 36 74 37 34 38 79 39 73 40 75 41 35 42
REMARK SMILES IDX 78 43 72 44 71 45 36 47 62 48 45 49 61 50 46 51 49 52 60 53
REMARK SMILES IDX 76 54 47 55 48 56 59 58 77 59 50 60 37 61 38 62 43 63 39 64
REMARK SMILES IDX 40 65 42 66 44 67 41 68 63 69 64 70 69 71 65 72 66 73 68 74
REMARK SMILES IDX 70 75 67 76 51 77 52 78 57 79 53 80 54 81 56 82 58 83 55 84
REMARK H PARENT 75 46 49 57
REMARK Flexibility Score: inf
ROOT
ATOM      1  C   UNL A   1      39.017  22.088  26.446  1.00  0.00     0.202 C 
ENDROOT
BRANCH   1   2
ATOM      2  C   UNL A   1      37.767  21.889  25.589  1.00  0.00     0.261 C 
BRANCH   2   3
ATOM      3  O   UNL A   1      37.491  23.097  24.860  1.00  0.00    -0.463 OA
BRANCH   3   4
ATOM      4  C   UNL A   1      36.560  23.059  23.882  1.00  0.00     0.308 C 
ATOM      5  O   UNL A   1      36.799  22.862  22.696  1.00  0.00    -0.252 OA
BRANCH   4   6
ATOM      6  C   UNL A   1      35.194  23.448  24.378  1.00  0.00     0.156 C 
BRANCH   6   7
ATOM      7  C   UNL A   1      33.924  22.772  23.822  1.00  0.00     0.149 C 
ATOM      8  N   UNL A   1      32.627  24.634  22.950  1.00  0.00    -0.320 N 
ATOM      9  C   UNL A   1      31.344  24.075  23.328  1.00  0.00     0.150 C 
ATOM     10  C   UNL A   1      33.534  23.564  22.556  1.00  0.00     0.154 C 
ATOM     11  C   UNL A   1      31.521  22.861  24.260  1.00  0.00     0.182 C 
ATOM     12  O   UNL A   1      32.853  22.700  24.782  1.00  0.00    -0.374 OA
BRANCH   8  13
ATOM     13  C   UNL A   1      32.707  25.827  22.288  1.00  0.00     0.320 C 
ATOM     14  O   UNL A   1      33.277  25.877  21.195  1.00  0.00    -0.248 OA
BRANCH  13  15
ATOM     15  N   UNL A   1      32.258  26.967  22.934  1.00  0.00    -0.321 N 
ATOM     16  C   UNL A   1      32.919  27.965  23.830  1.00  0.00     0.089 C 
ATOM     17  C   UNL A   1      31.783  28.970  24.104  1.00  0.00     0.027 C 
ATOM     18  C   UNL A   1      31.032  29.003  22.793  1.00  0.00     0.024 C 
ATOM     19  C   UNL A   1      31.021  27.537  22.397  1.00  0.00     0.122 C 
BRANCH  16  20
ATOM     20  C   UNL A   1      33.590  27.467  25.139  1.00  0.00     0.005 C 
ATOM     21  C   UNL A   1      33.962  28.674  25.994  1.00  0.00     0.009 C 
ATOM     22  C   UNL A   1      32.762  26.546  26.045  1.00  0.00     0.009 C 
ENDBRANCH  16  20
ENDBRANCH  13  15
ENDBRANCH   8  13
ENDBRANCH   6   7
ENDBRANCH   4   6
ENDBRANCH   3   4
ENDBRANCH   2   3
ENDBRANCH   1   2
BRANCH   1  23
ATOM     23  O   UNL A   1      40.231  22.102  25.691  1.00  0.00    -0.374 OA
BRANCH  23  24
ATOM     24  C   UNL A   1      41.330  21.391  26.258  1.00  0.00     0.202 C 
BRANCH  24  25
ATOM     25  C   UNL A   1      42.704  21.834  25.751  1.00  0.00     0.261 C 
BRANCH  25  26
ATOM     26  O   UNL A   1      42.716  23.200  25.302  1.00  0.00    -0.460 OA
BRANCH  26  27
ATOM     27  C   UNL A   1      43.558  24.004  25.981  1.00  0.00     0.338 C 
ATOM     28  O   UNL A   1      44.791  23.948  25.990  1.00  0.00    -0.246 OA
BRANCH  27  29
ATOM     29  C   UNL A   1      42.830  25.056  26.709  1.00  0.00     0.060 A 
ATOM     30  C   UNL A   1      43.424  26.322  26.774  1.00  0.00     0.016 A 
ATOM     31  C   UNL A   1      41.673  24.780  27.445  1.00  0.00     0.016 A 
ATOM     32  C   UNL A   1      42.926  27.281  27.651  1.00  0.00     0.010 A 
ATOM     33  C   UNL A   1      41.169  25.749  28.321  1.00  0.00     0.010 A 
ATOM     34  C   UNL A   1      41.833  26.979  28.473  1.00  0.00    -0.014 A 
BRANCH  34  35
ATOM     35  C   UNL A   1      41.528  27.875  29.616  1.00  0.00     0.031 A 
ATOM     36  C   UNL A   1      40.353  28.813  29.516  1.00  0.00     0.074 A 
ATOM     37  C   UNL A   1      42.236  27.805  30.757  1.00  0.00     0.049 A 
ATOM     38  N   UNL A   1      39.877  29.649  30.403  1.00  0.00    -0.248 NA
ATOM     39  C   UNL A   1      39.613  28.806  28.243  1.00  0.00     0.031 C 
ATOM     40  C   UNL A   1      43.373  26.918  30.993  1.00  0.00     0.029 A 
ATOM     41  N   UNL A   1      42.090  28.491  31.936  1.00  0.00    -0.354 N 
ATOM     42  C   UNL A   1      38.791  30.268  29.797  1.00  0.00     0.074 A 
ATOM     43  C   UNL A   1      38.698  29.740  28.454  1.00  0.00     0.031 C 
ATOM     44  C   UNL A   1      43.821  27.111  32.246  1.00  0.00     0.029 A 
ATOM     45  C   UNL A   1      43.015  28.148  32.890  1.00  0.00     0.049 A 
ATOM     46  H   UNL A   1      41.388  29.165  32.084  1.00  0.00     0.167 HD
ATOM     47  C   UNL A   1      37.936  31.181  30.316  1.00  0.00     0.037 A 
ATOM     48  C   UNL A   1      43.194  28.622  34.138  1.00  0.00     0.037 A 
ATOM     49  C   UNL A   1      38.014  31.698  31.656  1.00  0.00     0.049 A 
ATOM     50  C   UNL A   1      42.256  29.667  34.678  1.00  0.00     0.074 A 
ATOM     51  C   UNL A   1      37.182  32.613  32.279  1.00  0.00     0.029 A 
ATOM     52  N   UNL A   1      38.982  31.344  32.581  1.00  0.00    -0.354 N 
ATOM     53  N   UNL A   1      41.217  30.224  34.103  1.00  0.00    -0.248 NA
ATOM     54  C   UNL A   1      42.509  30.141  36.047  1.00  0.00     0.031 C 
ATOM     55  C   UNL A   1      37.672  32.843  33.569  1.00  0.00     0.029 A 
ATOM     56  C   UNL A   1      38.781  32.036  33.764  1.00  0.00     0.049 A 
ATOM     57  H   UNL A   1      39.707  30.697  32.422  1.00  0.00     0.167 HD
ATOM     58  C   UNL A   1      40.677  31.089  35.049  1.00  0.00     0.074 A 
ATOM     59  C   UNL A   1      41.497  30.975  36.237  1.00  0.00     0.031 C 
ATOM     60  C   UNL A   1      39.598  31.904  34.942  1.00  0.00     0.037 A 
BRANCH  47  61
ATOM     61  C   UNL A   1      36.846  31.692  29.419  1.00  0.00     0.057 A 
ATOM     62  C   UNL A   1      36.912  32.957  28.821  1.00  0.00     0.134 A 
ATOM     63  C   UNL A   1      35.733  30.896  29.125  1.00  0.00     0.134 A 
ATOM     64  F   UNL A   1      37.946  33.775  29.072  1.00  0.00    -0.206 F 
ATOM     65  C   UNL A   1      35.898  33.421  27.982  1.00  0.00     0.040 A 
ATOM     66  C   UNL A   1      34.724  31.339  28.269  1.00  0.00     0.040 A 
ATOM     67  F   UNL A   1      35.610  29.672  29.662  1.00  0.00    -0.206 F 
ATOM     68  C   UNL A   1      34.803  32.607  27.698  1.00  0.00     0.006 A 
ENDBRANCH  47  61
BRANCH  48  69
ATOM     69  C   UNL A   1      44.308  28.107  34.971  1.00  0.00     0.057 A 
ATOM     70  C   UNL A   1      45.585  28.678  34.913  1.00  0.00     0.134 A 
ATOM     71  C   UNL A   1      44.127  27.017  35.831  1.00  0.00     0.134 A 
ATOM     72  F   UNL A   1      45.824  29.710  34.090  1.00  0.00    -0.206 F 
ATOM     73  C   UNL A   1      46.645  28.173  35.665  1.00  0.00     0.040 A 
ATOM     74  C   UNL A   1      45.173  26.518  36.607  1.00  0.00     0.040 A 
ATOM     75  F   UNL A   1      42.927  26.427  35.933  1.00  0.00    -0.206 F 
ATOM     76  C   UNL A   1      46.439  27.092  36.520  1.00  0.00     0.006 A 
ENDBRANCH  48  69
BRANCH  60  77
ATOM     77  C   UNL A   1      39.218  32.704  36.155  1.00  0.00     0.057 A 
ATOM     78  C   UNL A   1      38.350  32.201  37.132  1.00  0.00     0.134 A 
ATOM     79  C   UNL A   1      39.753  33.981  36.360  1.00  0.00     0.134 A 
ATOM     80  F   UNL A   1      37.796  30.987  36.989  1.00  0.00    -0.206 F 
ATOM     81  C   UNL A   1      38.009  32.950  38.259  1.00  0.00     0.040 A 
ATOM     82  C   UNL A   1      39.438  34.731  37.495  1.00  0.00     0.040 A 
ATOM     83  F   UNL A   1      40.597  34.519  35.467  1.00  0.00    -0.206 F 
ATOM     84  C   UNL A   1      38.558  34.217  38.445  1.00  0.00     0.006 A 
ENDBRANCH  60  77
ENDBRANCH  34  35
ENDBRANCH  27  29
ENDBRANCH  26  27
ENDBRANCH  25  26
ENDBRANCH  24  25
ENDBRANCH  23  24
ENDBRANCH   1  23
TORSDOF 18
ENDMDL
