MODEL 1
REMARK VINA RESULT:      -9.9      0.000      0.000
REMARK SMILES CC[NH2+][C@@]1(C(=O)OCCOCCOC(=O)c2ccc(-c3c4nc(c(-c5c(F)cccc5F)c5ccc([nH]5)c(-c5c(F)cccc5F)c5nc(c(-c6c(F)cccc6F)c6ccc3[nH]6)C=C5)C=C4)cc2)CC[C@@H]([N@@H+](C)Cc2nccn2C)C1
REMARK SMILES IDX 9 1 8 2 7 3 5 4 6 5 4 6 70 7 82 8 71 9 72 10 3 11 2 14 1 15
REMARK SMILES IDX 73 16 74 17 75 19 76 20 77 21 80 22 78 23 79 24 81 25 10 26
REMARK SMILES IDX 11 27 12 28 13 29 14 30 15 31 16 32 17 33 69 34 18 35 68 36
REMARK SMILES IDX 19 37 20 38 21 39 62 40 22 41 67 42 61 43 63 44 23 45 66 46
REMARK SMILES IDX 60 47 59 48 24 50 50 51 33 52 49 53 34 54 37 55 48 56 64 57
REMARK SMILES IDX 35 58 36 59 47 61 65 62 38 63 25 64 26 65 31 66 27 67 28 68
REMARK SMILES IDX 30 69 32 70 29 71 51 72 52 73 57 74 53 75 54 76 56 77 58 78
REMARK SMILES IDX 55 79 39 80 40 81 45 82 41 83 42 84 44 85 46 86 43 87
REMARK H PARENT 3 12 3 13 73 18 63 49 37 60
REMARK Flexibility Score: inf
ROOT
ATOM      1  C   UNL A   1      37.222  22.133  25.548  1.00  0.00     0.202 C 
ENDROOT
BRANCH   1   2
ATOM      2  C   UNL A   1      37.105  23.582  25.079  1.00  0.00     0.261 C 
BRANCH   2   3
ATOM      3  O   UNL A   1      35.730  23.958  24.895  1.00  0.00    -0.459 OA
BRANCH   3   4
ATOM      4  C   UNL A   1      35.117  23.364  23.840  1.00  0.00     0.368 C 
ATOM      5  O   UNL A   1      35.580  23.311  22.702  1.00  0.00    -0.245 OA
BRANCH   4   6
ATOM      6  C   UNL A   1      33.725  22.778  24.188  1.00  0.00     0.200 C 
ATOM      7  C   UNL A   1      32.846  23.141  22.985  1.00  0.00     0.087 C 
ATOM      8  C   UNL A   1      32.957  23.351  25.399  1.00  0.00     0.146 C 
ATOM      9  C   UNL A   1      32.202  24.471  23.358  1.00  0.00     0.072 C 
ATOM     10  C   UNL A   1      31.995  24.437  24.877  1.00  0.00     0.191 C 
BRANCH   6  11
ATOM     11  N   UNL A   1      33.863  21.287  24.323  1.00  0.00    -0.332 N 
ATOM     12  H   UNL A   1      34.100  20.898  23.410  1.00  0.00     0.347 HD
ATOM     13  H   UNL A   1      34.594  21.105  25.010  1.00  0.00     0.347 HD
BRANCH  11  14
ATOM     14  C   UNL A   1      32.627  20.648  24.803  1.00  0.00     0.257 C 
ATOM     15  C   UNL A   1      32.746  19.133  24.776  1.00  0.00     0.071 C 
ENDBRANCH  11  14
ENDBRANCH   6  11
BRANCH  10  16
ATOM     16  N   UNL A   1      30.624  24.343  25.410  1.00  0.00    -0.328 N 
ATOM     17  C   UNL A   1      30.511  23.358  26.488  1.00  0.00     0.333 C 
ATOM     18  H   UNL A   1      30.128  24.018  24.580  1.00  0.00     0.348 HD
BRANCH  16  19
ATOM     19  C   UNL A   1      29.883  25.582  25.727  1.00  0.00     0.338 C 
BRANCH  19  20
ATOM     20  C   UNL A   1      30.691  26.807  26.054  1.00  0.00     0.164 A 
ATOM     21  N   UNL A   1      31.184  27.103  27.248  1.00  0.00    -0.236 NA
ATOM     22  N   UNL A   1      31.025  27.800  25.155  1.00  0.00    -0.333 N 
ATOM     23  C   UNL A   1      31.932  28.235  27.090  1.00  0.00     0.131 A 
ATOM     24  C   UNL A   1      31.859  28.682  25.795  1.00  0.00     0.107 A 
ATOM     25  C   UNL A   1      30.698  27.901  23.751  1.00  0.00     0.151 C 
ENDBRANCH  19  20
ENDBRANCH  16  19
ENDBRANCH  10  16
ENDBRANCH   4   6
ENDBRANCH   3   4
ENDBRANCH   2   3
ENDBRANCH   1   2
BRANCH   1  26
ATOM     26  O   UNL A   1      37.770  21.196  24.619  1.00  0.00    -0.374 OA
BRANCH  26  27
ATOM     27  C   UNL A   1      37.663  19.810  24.937  1.00  0.00     0.202 C 
BRANCH  27  28
ATOM     28  C   UNL A   1      38.942  19.087  25.374  1.00  0.00     0.261 C 
BRANCH  28  29
ATOM     29  O   UNL A   1      39.753  19.905  26.232  1.00  0.00    -0.460 OA
BRANCH  29  30
ATOM     30  C   UNL A   1      41.076  19.633  26.166  1.00  0.00     0.338 C 
ATOM     31  O   UNL A   1      41.603  18.607  25.754  1.00  0.00    -0.246 OA
BRANCH  30  32
ATOM     32  C   UNL A   1      41.861  20.839  26.472  1.00  0.00     0.060 A 
ATOM     33  C   UNL A   1      42.110  21.099  27.824  1.00  0.00     0.016 A 
ATOM     34  C   UNL A   1      42.278  21.735  25.483  1.00  0.00     0.016 A 
ATOM     35  C   UNL A   1      42.710  22.292  28.202  1.00  0.00     0.010 A 
ATOM     36  C   UNL A   1      42.872  22.943  25.866  1.00  0.00     0.010 A 
ATOM     37  C   UNL A   1      43.042  23.245  27.229  1.00  0.00    -0.014 A 
BRANCH  37  38
ATOM     38  C   UNL A   1      43.390  24.607  27.693  1.00  0.00     0.031 A 
ATOM     39  C   UNL A   1      44.818  25.066  27.582  1.00  0.00     0.074 A 
ATOM     40  C   UNL A   1      42.427  25.460  28.080  1.00  0.00     0.049 A 
ATOM     41  N   UNL A   1      45.325  26.256  27.778  1.00  0.00    -0.248 NA
ATOM     42  C   UNL A   1      45.807  24.049  27.187  1.00  0.00     0.031 C 
ATOM     43  C   UNL A   1      41.006  25.134  28.192  1.00  0.00     0.029 A 
ATOM     44  N   UNL A   1      42.500  26.786  28.422  1.00  0.00    -0.354 N 
ATOM     45  C   UNL A   1      46.684  26.134  27.519  1.00  0.00     0.074 A 
ATOM     46  C   UNL A   1      46.932  24.747  27.191  1.00  0.00     0.031 C 
ATOM     47  C   UNL A   1      40.336  26.238  28.564  1.00  0.00     0.029 A 
ATOM     48  C   UNL A   1      41.282  27.340  28.725  1.00  0.00     0.049 A 
ATOM     49  H   UNL A   1      43.345  27.290  28.449  1.00  0.00     0.167 HD
ATOM     50  C   UNL A   1      47.638  27.095  27.535  1.00  0.00     0.037 A 
ATOM     51  C   UNL A   1      40.968  28.600  29.082  1.00  0.00     0.037 A 
ATOM     52  C   UNL A   1      47.390  28.473  27.868  1.00  0.00     0.049 A 
ATOM     53  C   UNL A   1      42.054  29.640  29.135  1.00  0.00     0.074 A 
ATOM     54  C   UNL A   1      48.286  29.526  27.915  1.00  0.00     0.029 A 
ATOM     55  N   UNL A   1      46.149  28.987  28.215  1.00  0.00    -0.354 N 
ATOM     56  N   UNL A   1      43.330  29.521  28.859  1.00  0.00    -0.248 NA
ATOM     57  C   UNL A   1      41.650  30.996  29.535  1.00  0.00     0.031 C 
ATOM     58  C   UNL A   1      47.596  30.670  28.332  1.00  0.00     0.029 A 
ATOM     59  C   UNL A   1      46.260  30.339  28.497  1.00  0.00     0.049 A 
ATOM     60  H   UNL A   1      45.314  28.468  28.256  1.00  0.00     0.167 HD
ATOM     61  C   UNL A   1      43.877  30.787  29.027  1.00  0.00     0.074 A 
ATOM     62  C   UNL A   1      42.789  31.663  29.410  1.00  0.00     0.031 C 
ATOM     63  C   UNL A   1      45.164  31.191  28.880  1.00  0.00     0.037 A 
BRANCH  50  64
ATOM     64  C   UNL A   1      49.042  26.677  27.206  1.00  0.00     0.057 A 
ATOM     65  C   UNL A   1      49.508  26.628  25.886  1.00  0.00     0.134 A 
ATOM     66  C   UNL A   1      49.943  26.339  28.224  1.00  0.00     0.134 A 
ATOM     67  F   UNL A   1      48.691  26.922  24.864  1.00  0.00    -0.206 F 
ATOM     68  C   UNL A   1      50.816  26.236  25.589  1.00  0.00     0.040 A 
ATOM     69  C   UNL A   1      51.259  25.969  27.940  1.00  0.00     0.040 A 
ATOM     70  F   UNL A   1      49.560  26.366  29.508  1.00  0.00    -0.206 F 
ATOM     71  C   UNL A   1      51.696  25.912  26.618  1.00  0.00     0.006 A 
ENDBRANCH  50  64
BRANCH  51  72
ATOM     72  C   UNL A   1      39.562  28.952  29.402  1.00  0.00     0.057 A 
ATOM     73  C   UNL A   1      39.059  28.841  30.704  1.00  0.00     0.134 A 
ATOM     74  C   UNL A   1      38.684  29.396  28.406  1.00  0.00     0.134 A 
ATOM     75  F   UNL A   1      39.846  28.402  31.696  1.00  0.00    -0.206 F 
ATOM     76  C   UNL A   1      37.729  29.141  31.001  1.00  0.00     0.040 A 
ATOM     77  C   UNL A   1      37.358  29.723  28.694  1.00  0.00     0.040 A 
ATOM     78  F   UNL A   1      39.105  29.525  27.140  1.00  0.00    -0.206 F 
ATOM     79  C   UNL A   1      36.875  29.589  29.994  1.00  0.00     0.006 A 
ENDBRANCH  51  72
BRANCH  63  80
ATOM     80  C   UNL A   1      45.448  32.648  29.108  1.00  0.00     0.057 A 
ATOM     81  C   UNL A   1      45.390  33.584  28.068  1.00  0.00     0.134 A 
ATOM     82  C   UNL A   1      45.775  33.118  30.386  1.00  0.00     0.134 A 
ATOM     83  F   UNL A   1      45.094  33.195  26.819  1.00  0.00    -0.206 F 
ATOM     84  C   UNL A   1      45.683  34.931  28.284  1.00  0.00     0.040 A 
ATOM     85  C   UNL A   1      46.042  34.468  30.619  1.00  0.00     0.040 A 
ATOM     86  F   UNL A   1      45.835  32.277  31.428  1.00  0.00    -0.206 F 
ATOM     87  C   UNL A   1      46.007  35.377  29.564  1.00  0.00     0.006 A 
ENDBRANCH  63  80
ENDBRANCH  37  38
ENDBRANCH  30  32
ENDBRANCH  29  30
ENDBRANCH  28  29
ENDBRANCH  27  28
ENDBRANCH  26  27
ENDBRANCH   1  26
TORSDOF 19
ENDMDL
MODEL 2
REMARK VINA RESULT:      -9.8      4.203      8.069
REMARK SMILES CC[NH2+][C@@]1(C(=O)OCCOCCOC(=O)c2ccc(-c3c4nc(c(-c5c(F)cccc5F)c5ccc([nH]5)c(-c5c(F)cccc5F)c5nc(c(-c6c(F)cccc6F)c6ccc3[nH]6)C=C5)C=C4)cc2)CC[C@@H]([N@@H+](C)Cc2nccn2C)C1
REMARK SMILES IDX 9 1 8 2 7 3 5 4 6 5 4 6 70 7 82 8 71 9 72 10 3 11 2 14 1 15
REMARK SMILES IDX 73 16 74 17 75 19 76 20 77 21 80 22 78 23 79 24 81 25 10 26
REMARK SMILES IDX 11 27 12 28 13 29 14 30 15 31 16 32 17 33 69 34 18 35 68 36
REMARK SMILES IDX 19 37 20 38 21 39 62 40 22 41 67 42 61 43 63 44 23 45 66 46
REMARK SMILES IDX 60 47 59 48 24 50 50 51 33 52 49 53 34 54 37 55 48 56 64 57
REMARK SMILES IDX 35 58 36 59 47 61 65 62 38 63 25 64 26 65 31 66 27 67 28 68
REMARK SMILES IDX 30 69 32 70 29 71 51 72 52 73 57 74 53 75 54 76 56 77 58 78
REMARK SMILES IDX 55 79 39 80 40 81 45 82 41 83 42 84 44 85 46 86 43 87
REMARK H PARENT 3 12 3 13 73 18 63 49 37 60
REMARK Flexibility Score: inf
ROOT
ATOM      1  C   UNL A   1      40.034  20.851  26.478  1.00  0.00     0.202 C 
ENDROOT
BRANCH   1   2
ATOM      2  C   UNL A   1      39.397  22.036  25.753  1.00  0.00     0.261 C 
BRANCH   2   3
ATOM      3  O   UNL A   1      38.062  22.277  26.229  1.00  0.00    -0.459 OA
BRANCH   3   4
ATOM      4  C   UNL A   1      37.096  21.575  25.585  1.00  0.00     0.368 C 
ATOM      5  O   UNL A   1      37.295  20.560  24.920  1.00  0.00    -0.245 OA
BRANCH   4   6
ATOM      6  C   UNL A   1      35.684  22.200  25.728  1.00  0.00     0.200 C 
ATOM      7  C   UNL A   1      34.946  21.769  24.456  1.00  0.00     0.087 C 
ATOM      8  C   UNL A   1      35.548  23.737  25.739  1.00  0.00     0.146 C 
ATOM      9  C   UNL A   1      35.174  22.906  23.468  1.00  0.00     0.072 C 
ATOM     10  C   UNL A   1      35.234  24.193  24.300  1.00  0.00     0.191 C 
BRANCH   6  11
ATOM     11  N   UNL A   1      35.034  21.615  26.951  1.00  0.00    -0.332 N 
ATOM     12  H   UNL A   1      35.431  20.690  27.122  1.00  0.00     0.347 HD
ATOM     13  H   UNL A   1      35.211  22.249  27.730  1.00  0.00     0.347 HD
BRANCH  11  14
ATOM     14  C   UNL A   1      33.575  21.483  26.804  1.00  0.00     0.257 C 
ATOM     15  C   UNL A   1      32.842  22.439  27.730  1.00  0.00     0.071 C 
ENDBRANCH  11  14
ENDBRANCH   6  11
BRANCH  10  16
ATOM     16  N   UNL A   1      34.131  25.165  24.195  1.00  0.00    -0.328 N 
ATOM     17  C   UNL A   1      33.690  25.361  22.813  1.00  0.00     0.333 C 
ATOM     18  H   UNL A   1      34.595  26.005  24.542  1.00  0.00     0.348 HD
BRANCH  16  19
ATOM     19  C   UNL A   1      32.984  25.062  25.122  1.00  0.00     0.338 C 
BRANCH  19  20
ATOM     20  C   UNL A   1      32.649  26.275  25.945  1.00  0.00     0.164 A 
ATOM     21  N   UNL A   1      33.524  27.166  26.387  1.00  0.00    -0.236 NA
ATOM     22  N   UNL A   1      31.379  26.624  26.361  1.00  0.00    -0.333 N 
ATOM     23  C   UNL A   1      32.800  28.152  26.996  1.00  0.00     0.131 A 
ATOM     24  C   UNL A   1      31.464  27.844  26.984  1.00  0.00     0.107 A 
ATOM     25  C   UNL A   1      30.126  25.946  26.121  1.00  0.00     0.151 C 
ENDBRANCH  19  20
ENDBRANCH  16  19
ENDBRANCH  10  16
ENDBRANCH   4   6
ENDBRANCH   3   4
ENDBRANCH   2   3
ENDBRANCH   1   2
BRANCH   1  26
ATOM     26  O   UNL A   1      40.884  21.152  27.586  1.00  0.00    -0.374 OA
BRANCH  26  27
ATOM     27  C   UNL A   1      42.270  20.847  27.459  1.00  0.00     0.202 C 
BRANCH  27  28
ATOM     28  C   UNL A   1      43.021  21.459  26.273  1.00  0.00     0.261 C 
BRANCH  28  29
ATOM     29  O   UNL A   1      43.687  22.680  26.632  1.00  0.00    -0.460 OA
BRANCH  29  30
ATOM     30  C   UNL A   1      43.352  23.740  25.863  1.00  0.00     0.338 C 
ATOM     31  O   UNL A   1      43.393  23.813  24.641  1.00  0.00    -0.246 OA
BRANCH  30  32
ATOM     32  C   UNL A   1      42.709  24.781  26.681  1.00  0.00     0.060 A 
ATOM     33  C   UNL A   1      43.325  26.037  26.694  1.00  0.00     0.016 A 
ATOM     34  C   UNL A   1      41.586  24.526  27.474  1.00  0.00     0.016 A 
ATOM     35  C   UNL A   1      42.868  27.024  27.557  1.00  0.00     0.010 A 
ATOM     36  C   UNL A   1      41.134  25.518  28.352  1.00  0.00     0.010 A 
ATOM     37  C   UNL A   1      41.806  26.751  28.430  1.00  0.00    -0.014 A 
BRANCH  37  38
ATOM     38  C   UNL A   1      41.557  27.712  29.529  1.00  0.00     0.031 A 
ATOM     39  C   UNL A   1      40.392  28.657  29.413  1.00  0.00     0.074 A 
ATOM     40  C   UNL A   1      42.275  27.649  30.663  1.00  0.00     0.049 A 
ATOM     41  N   UNL A   1      39.892  29.469  30.307  1.00  0.00    -0.248 NA
ATOM     42  C   UNL A   1      39.691  28.680  28.119  1.00  0.00     0.031 C 
ATOM     43  C   UNL A   1      43.403  26.750  30.898  1.00  0.00     0.029 A 
ATOM     44  N   UNL A   1      42.140  28.340  31.840  1.00  0.00    -0.354 N 
ATOM     45  C   UNL A   1      38.813  30.090  29.689  1.00  0.00     0.074 A 
ATOM     46  C   UNL A   1      38.754  29.591  28.333  1.00  0.00     0.031 C 
ATOM     47  C   UNL A   1      43.850  26.934  32.152  1.00  0.00     0.029 A 
ATOM     48  C   UNL A   1      43.047  27.968  32.799  1.00  0.00     0.049 A 
ATOM     49  H   UNL A   1      41.458  29.036  31.981  1.00  0.00     0.167 HD
ATOM     50  C   UNL A   1      37.939  30.983  30.211  1.00  0.00     0.037 A 
ATOM     51  C   UNL A   1      43.202  28.410  34.062  1.00  0.00     0.037 A 
ATOM     52  C   UNL A   1      38.003  31.483  31.559  1.00  0.00     0.049 A 
ATOM     53  C   UNL A   1      42.243  29.435  34.604  1.00  0.00     0.074 A 
ATOM     54  C   UNL A   1      37.167  32.389  32.186  1.00  0.00     0.029 A 
ATOM     55  N   UNL A   1      38.967  31.118  32.488  1.00  0.00    -0.354 N 
ATOM     56  N   UNL A   1      41.209  29.992  34.022  1.00  0.00    -0.248 NA
ATOM     57  C   UNL A   1      42.465  29.880  35.987  1.00  0.00     0.031 C 
ATOM     58  C   UNL A   1      37.649  32.606  33.482  1.00  0.00     0.029 A 
ATOM     59  C   UNL A   1      38.757  31.796  33.678  1.00  0.00     0.049 A 
ATOM     60  H   UNL A   1      39.692  30.472  32.326  1.00  0.00     0.167 HD
ATOM     61  C   UNL A   1      40.643  30.834  34.972  1.00  0.00     0.074 A 
ATOM     62  C   UNL A   1      41.439  30.697  36.175  1.00  0.00     0.031 C 
ATOM     63  C   UNL A   1      39.564  31.648  34.862  1.00  0.00     0.037 A 
BRANCH  50  64
ATOM     64  C   UNL A   1      36.853  31.491  29.307  1.00  0.00     0.057 A 
ATOM     65  C   UNL A   1      35.743  30.706  28.971  1.00  0.00     0.134 A 
ATOM     66  C   UNL A   1      36.910  32.789  28.784  1.00  0.00     0.134 A 
ATOM     67  F   UNL A   1      35.636  29.449  29.425  1.00  0.00    -0.206 F 
ATOM     68  C   UNL A   1      34.738  31.187  28.129  1.00  0.00     0.040 A 
ATOM     69  C   UNL A   1      35.900  33.288  27.959  1.00  0.00     0.040 A 
ATOM     70  F   UNL A   1      37.946  33.592  29.067  1.00  0.00    -0.206 F 
ATOM     71  C   UNL A   1      34.812  32.484  27.626  1.00  0.00     0.006 A 
ENDBRANCH  50  64
BRANCH  51  72
ATOM     72  C   UNL A   1      44.299  27.874  34.906  1.00  0.00     0.057 A 
ATOM     73  C   UNL A   1      44.130  26.718  35.677  1.00  0.00     0.134 A 
ATOM     74  C   UNL A   1      45.542  28.516  34.969  1.00  0.00     0.134 A 
ATOM     75  F   UNL A   1      42.956  26.071  35.675  1.00  0.00    -0.206 F 
ATOM     76  C   UNL A   1      45.149  26.230  36.495  1.00  0.00     0.040 A 
ATOM     77  C   UNL A   1      46.578  28.025  35.764  1.00  0.00     0.040 A 
ATOM     78  F   UNL A   1      45.767  29.627  34.252  1.00  0.00    -0.206 F 
ATOM     79  C   UNL A   1      46.381  26.882  36.535  1.00  0.00     0.006 A 
ENDBRANCH  51  72
BRANCH  63  80
ATOM     80  C   UNL A   1      39.173  32.426  36.084  1.00  0.00     0.057 A 
ATOM     81  C   UNL A   1      38.306  31.900  37.050  1.00  0.00     0.134 A 
ATOM     82  C   UNL A   1      39.678  33.714  36.301  1.00  0.00     0.134 A 
ATOM     83  F   UNL A   1      37.778  30.677  36.895  1.00  0.00    -0.206 F 
ATOM     84  C   UNL A   1      37.925  32.642  38.170  1.00  0.00     0.040 A 
ATOM     85  C   UNL A   1      39.328  34.455  37.431  1.00  0.00     0.040 A 
ATOM     86  F   UNL A   1      40.524  34.272  35.422  1.00  0.00    -0.206 F 
ATOM     87  C   UNL A   1      38.441  33.922  38.365  1.00  0.00     0.006 A 
ENDBRANCH  63  80
ENDBRANCH  37  38
ENDBRANCH  30  32
ENDBRANCH  29  30
ENDBRANCH  28  29
ENDBRANCH  27  28
ENDBRANCH  26  27
ENDBRANCH   1  26
TORSDOF 19
ENDMDL
MODEL 3
REMARK VINA RESULT:      -9.7      1.927      3.057
REMARK SMILES CC[NH2+][C@@]1(C(=O)OCCOCCOC(=O)c2ccc(-c3c4nc(c(-c5c(F)cccc5F)c5ccc([nH]5)c(-c5c(F)cccc5F)c5nc(c(-c6c(F)cccc6F)c6ccc3[nH]6)C=C5)C=C4)cc2)CC[C@@H]([N@@H+](C)Cc2nccn2C)C1
REMARK SMILES IDX 9 1 8 2 7 3 5 4 6 5 4 6 70 7 82 8 71 9 72 10 3 11 2 14 1 15
REMARK SMILES IDX 73 16 74 17 75 19 76 20 77 21 80 22 78 23 79 24 81 25 10 26
REMARK SMILES IDX 11 27 12 28 13 29 14 30 15 31 16 32 17 33 69 34 18 35 68 36
REMARK SMILES IDX 19 37 20 38 21 39 62 40 22 41 67 42 61 43 63 44 23 45 66 46
REMARK SMILES IDX 60 47 59 48 24 50 50 51 33 52 49 53 34 54 37 55 48 56 64 57
REMARK SMILES IDX 35 58 36 59 47 61 65 62 38 63 25 64 26 65 31 66 27 67 28 68
REMARK SMILES IDX 30 69 32 70 29 71 51 72 52 73 57 74 53 75 54 76 56 77 58 78
REMARK SMILES IDX 55 79 39 80 40 81 45 82 41 83 42 84 44 85 46 86 43 87
REMARK H PARENT 3 12 3 13 73 18 63 49 37 60
REMARK Flexibility Score: inf
ROOT
ATOM      1  C   UNL A   1      33.886  20.772  25.821  1.00  0.00     0.202 C 
ENDROOT
BRANCH   1   2
ATOM      2  C   UNL A   1      32.877  21.890  25.558  1.00  0.00     0.261 C 
BRANCH   2   3
ATOM      3  O   UNL A   1      33.315  22.741  24.487  1.00  0.00    -0.459 OA
BRANCH   3   4
ATOM      4  C   UNL A   1      32.333  23.131  23.635  1.00  0.00     0.368 C 
ATOM      5  O   UNL A   1      31.857  22.425  22.747  1.00  0.00    -0.245 OA
BRANCH   4   6
ATOM      6  C   UNL A   1      31.876  24.595  23.854  1.00  0.00     0.200 C 
ATOM      7  C   UNL A   1      31.964  25.234  22.463  1.00  0.00     0.087 C 
ATOM      8  C   UNL A   1      32.734  25.518  24.745  1.00  0.00     0.146 C 
ATOM      9  C   UNL A   1      33.358  25.847  22.402  1.00  0.00     0.072 C 
ATOM     10  C   UNL A   1      33.687  26.308  23.827  1.00  0.00     0.191 C 
BRANCH   6  11
ATOM     11  N   UNL A   1      30.456  24.575  24.347  1.00  0.00    -0.332 N 
ATOM     12  H   UNL A   1      29.886  25.148  23.724  1.00  0.00     0.347 HD
ATOM     13  H   UNL A   1      30.144  23.604  24.355  1.00  0.00     0.347 HD
BRANCH  11  14
ATOM     14  C   UNL A   1      30.329  25.097  25.718  1.00  0.00     0.257 C 
ATOM     15  C   UNL A   1      30.143  23.969  26.719  1.00  0.00     0.071 C 
ENDBRANCH  11  14
ENDBRANCH   6  11
BRANCH  10  16
ATOM     16  N   UNL A   1      33.751  27.753  24.114  1.00  0.00    -0.328 N 
ATOM     17  C   UNL A   1      33.689  28.566  22.898  1.00  0.00     0.333 C 
ATOM     18  H   UNL A   1      34.679  27.814  24.533  1.00  0.00     0.348 HD
BRANCH  16  19
ATOM     19  C   UNL A   1      32.907  28.317  25.189  1.00  0.00     0.338 C 
BRANCH  19  20
ATOM     20  C   UNL A   1      33.597  29.104  26.268  1.00  0.00     0.164 A 
ATOM     21  N   UNL A   1      34.753  28.783  26.831  1.00  0.00    -0.236 NA
ATOM     22  N   UNL A   1      33.116  30.271  26.829  1.00  0.00    -0.333 N 
ATOM     23  C   UNL A   1      35.070  29.807  27.678  1.00  0.00     0.131 A 
ATOM     24  C   UNL A   1      34.073  30.749  27.687  1.00  0.00     0.107 A 
ATOM     25  C   UNL A   1      31.895  30.985  26.531  1.00  0.00     0.151 C 
ENDBRANCH  19  20
ENDBRANCH  16  19
ENDBRANCH  10  16
ENDBRANCH   4   6
ENDBRANCH   3   4
ENDBRANCH   2   3
ENDBRANCH   1   2
BRANCH   1  26
ATOM     26  O   UNL A   1      35.263  21.145  25.882  1.00  0.00    -0.374 OA
BRANCH  26  27
ATOM     27  C   UNL A   1      36.047  20.980  24.703  1.00  0.00     0.202 C 
BRANCH  27  28
ATOM     28  C   UNL A   1      37.497  20.518  24.881  1.00  0.00     0.261 C 
BRANCH  28  29
ATOM     29  O   UNL A   1      38.362  21.602  25.256  1.00  0.00    -0.460 OA
BRANCH  29  30
ATOM     30  C   UNL A   1      39.373  21.243  26.078  1.00  0.00     0.338 C 
ATOM     31  O   UNL A   1      39.969  20.173  26.098  1.00  0.00    -0.246 OA
BRANCH  30  32
ATOM     32  C   UNL A   1      39.839  22.404  26.852  1.00  0.00     0.060 A 
ATOM     33  C   UNL A   1      39.160  23.610  26.641  1.00  0.00     0.016 A 
ATOM     34  C   UNL A   1      40.949  22.347  27.700  1.00  0.00     0.016 A 
ATOM     35  C   UNL A   1      39.633  24.781  27.217  1.00  0.00     0.010 A 
ATOM     36  C   UNL A   1      41.432  23.530  28.269  1.00  0.00     0.010 A 
ATOM     37  C   UNL A   1      40.804  24.757  27.987  1.00  0.00    -0.014 A 
BRANCH  37  38
ATOM     38  C   UNL A   1      41.433  26.055  28.320  1.00  0.00     0.031 A 
ATOM     39  C   UNL A   1      42.809  26.350  27.787  1.00  0.00     0.074 A 
ATOM     40  C   UNL A   1      40.736  27.002  28.970  1.00  0.00     0.049 A 
ATOM     41  N   UNL A   1      43.489  27.466  27.817  1.00  0.00    -0.248 NA
ATOM     42  C   UNL A   1      43.508  25.237  27.123  1.00  0.00     0.031 C 
ATOM     43  C   UNL A   1      39.384  26.840  29.500  1.00  0.00     0.029 A 
ATOM     44  N   UNL A   1      41.064  28.300  29.268  1.00  0.00    -0.354 N 
ATOM     45  C   UNL A   1      44.686  27.195  27.167  1.00  0.00     0.074 A 
ATOM     46  C   UNL A   1      44.659  25.799  26.788  1.00  0.00     0.031 C 
ATOM     47  C   UNL A   1      38.990  28.002  30.048  1.00  0.00     0.029 A 
ATOM     48  C   UNL A   1      40.065  28.982  29.914  1.00  0.00     0.049 A 
ATOM     49  H   UNL A   1      41.933  28.702  29.040  1.00  0.00     0.167 HD
ATOM     50  C   UNL A   1      45.710  28.039  26.894  1.00  0.00     0.037 A 
ATOM     51  C   UNL A   1      40.024  30.259  30.342  1.00  0.00     0.037 A 
ATOM     52  C   UNL A   1      45.737  29.426  27.277  1.00  0.00     0.049 A 
ATOM     53  C   UNL A   1      41.193  31.164  30.064  1.00  0.00     0.074 A 
ATOM     54  C   UNL A   1      46.726  30.366  27.050  1.00  0.00     0.029 A 
ATOM     55  N   UNL A   1      44.725  30.069  27.974  1.00  0.00    -0.354 N 
ATOM     56  N   UNL A   1      42.306  30.906  29.422  1.00  0.00    -0.248 NA
ATOM     57  C   UNL A   1      41.090  32.545  30.557  1.00  0.00     0.031 C 
ATOM     58  C   UNL A   1      46.332  31.569  27.647  1.00  0.00     0.029 A 
ATOM     59  C   UNL A   1      45.074  31.390  28.203  1.00  0.00     0.049 A 
ATOM     60  H   UNL A   1      43.884  29.650  28.263  1.00  0.00     0.167 HD
ATOM     61  C   UNL A   1      43.026  32.096  29.413  1.00  0.00     0.074 A 
ATOM     62  C   UNL A   1      42.212  33.079  30.096  1.00  0.00     0.031 C 
ATOM     63  C   UNL A   1      44.250  32.352  28.888  1.00  0.00     0.037 A 
BRANCH  50  64
ATOM     64  C   UNL A   1      46.893  27.471  26.166  1.00  0.00     0.057 A 
ATOM     65  C   UNL A   1      46.987  27.505  24.768  1.00  0.00     0.134 A 
ATOM     66  C   UNL A   1      47.961  26.903  26.872  1.00  0.00     0.134 A 
ATOM     67  F   UNL A   1      45.992  28.020  24.031  1.00  0.00    -0.206 F 
ATOM     68  C   UNL A   1      48.092  26.973  24.099  1.00  0.00     0.040 A 
ATOM     69  C   UNL A   1      49.080  26.389  26.214  1.00  0.00     0.040 A 
ATOM     70  F   UNL A   1      47.934  26.840  28.211  1.00  0.00    -0.206 F 
ATOM     71  C   UNL A   1      49.145  26.420  24.823  1.00  0.00     0.006 A 
ENDBRANCH  50  64
BRANCH  51  72
ATOM     72  C   UNL A   1      38.828  30.761  31.062  1.00  0.00     0.057 A 
ATOM     73  C   UNL A   1      38.692  30.610  32.448  1.00  0.00     0.134 A 
ATOM     74  C   UNL A   1      37.783  31.394  30.377  1.00  0.00     0.134 A 
ATOM     75  F   UNL A   1      39.648  29.994  33.156  1.00  0.00    -0.206 F 
ATOM     76  C   UNL A   1      37.554  31.053  33.123  1.00  0.00     0.040 A 
ATOM     77  C   UNL A   1      36.651  31.864  31.043  1.00  0.00     0.040 A 
ATOM     78  F   UNL A   1      37.854  31.570  29.050  1.00  0.00    -0.206 F 
ATOM     79  C   UNL A   1      36.531  31.688  32.419  1.00  0.00     0.006 A 
ENDBRANCH  51  72
BRANCH  63  80
ATOM     80  C   UNL A   1      44.761  33.758  29.013  1.00  0.00     0.057 A 
ATOM     81  C   UNL A   1      45.513  34.176  30.118  1.00  0.00     0.134 A 
ATOM     82  C   UNL A   1      44.505  34.701  28.010  1.00  0.00     0.134 A 
ATOM     83  F   UNL A   1      45.783  33.324  31.118  1.00  0.00    -0.206 F 
ATOM     84  C   UNL A   1      45.961  35.493  30.239  1.00  0.00     0.040 A 
ATOM     85  C   UNL A   1      44.971  36.013  28.106  1.00  0.00     0.040 A 
ATOM     86  F   UNL A   1      43.802  34.363  26.919  1.00  0.00    -0.206 F 
ATOM     87  C   UNL A   1      45.693  36.415  29.228  1.00  0.00     0.006 A 
ENDBRANCH  63  80
ENDBRANCH  37  38
ENDBRANCH  30  32
ENDBRANCH  29  30
ENDBRANCH  28  29
ENDBRANCH  27  28
ENDBRANCH  26  27
ENDBRANCH   1  26
TORSDOF 19
ENDMDL
