MODEL 1
REMARK VINA RESULT:      -9.1      0.000      0.000
REMARK SMILES COCCC(=O)N[C@H](C)CC(=O)OCCOCCOC(=O)c1ccc(-c2c3nc(c(-c4c(F)cccc4F)c4ccc([nH]4)c(-c4c(F)cccc4F)c4nc(c(-c5c(F)cccc5F)c5ccc2[nH]5)C=C4)C=C3)cc1
REMARK SMILES IDX 14 1 13 2 11 3 12 4 10 5 8 6 9 7 7 8 5 9 6 10 4 12 3 13 2 14
REMARK SMILES IDX 1 15 15 16 16 17 17 18 18 19 19 20 20 21 21 22 22 23 23 24
REMARK SMILES IDX 75 25 24 26 74 27 25 28 26 29 27 30 68 31 28 32 73 33 67 34
REMARK SMILES IDX 69 35 29 36 72 37 66 38 65 39 30 41 56 42 39 43 55 44 40 45
REMARK SMILES IDX 43 46 54 47 70 48 41 49 42 50 53 52 71 53 44 54 31 55 32 56
REMARK SMILES IDX 37 57 33 58 34 59 36 60 38 61 35 62 57 63 58 64 63 65 59 66
REMARK SMILES IDX 60 67 62 68 64 69 61 70 45 71 46 72 51 73 47 74 48 75 50 76
REMARK SMILES IDX 52 77 49 78
REMARK H PARENT 7 11 69 40 43 51
REMARK Flexibility Score: inf
ROOT
ATOM      1  C   UNL A   1      31.864  26.531  26.227  1.00  0.00     0.261 C 
ENDROOT
BRANCH   1   2
ATOM      2  O   UNL A   1      30.778  25.601  26.417  1.00  0.00    -0.463 OA
BRANCH   2   3
ATOM      3  C   UNL A   1      31.013  24.322  26.045  1.00  0.00     0.307 C 
ATOM      4  O   UNL A   1      30.647  23.823  24.987  1.00  0.00    -0.252 OA
BRANCH   3   5
ATOM      5  C   UNL A   1      31.731  23.506  27.096  1.00  0.00     0.147 C 
BRANCH   5   6
ATOM      6  C   UNL A   1      32.962  22.685  26.680  1.00  0.00     0.090 C 
ATOM      7  C   UNL A   1      33.911  22.456  27.859  1.00  0.00     0.031 C 
BRANCH   6   8
ATOM      8  N   UNL A   1      32.487  21.384  26.163  1.00  0.00    -0.353 N 
ATOM      9  C   UNL A   1      32.617  20.799  24.943  1.00  0.00     0.222 C 
ATOM     10  O   UNL A   1      32.045  19.724  24.750  1.00  0.00    -0.275 OA
ATOM     11  H   UNL A   1      31.987  20.847  26.819  1.00  0.00     0.163 HD
BRANCH   9  12
ATOM     12  C   UNL A   1      33.419  21.456  23.850  1.00  0.00     0.128 C 
BRANCH  12  13
ATOM     13  C   UNL A   1      32.513  21.938  22.732  1.00  0.00     0.169 C 
BRANCH  13  14
ATOM     14  O   UNL A   1      32.903  23.252  22.326  1.00  0.00    -0.384 OA
ATOM     15  C   UNL A   1      33.918  23.793  23.163  1.00  0.00     0.194 C 
ENDBRANCH  13  14
ENDBRANCH  12  13
ENDBRANCH   9  12
ENDBRANCH   6   8
ENDBRANCH   5   6
ENDBRANCH   3   5
ENDBRANCH   2   3
ENDBRANCH   1   2
BRANCH   1  16
ATOM     16  C   UNL A   1      31.548  27.513  25.099  1.00  0.00     0.202 C 
BRANCH  16  17
ATOM     17  O   UNL A   1      32.227  28.765  25.197  1.00  0.00    -0.374 OA
BRANCH  17  18
ATOM     18  C   UNL A   1      31.437  29.946  25.039  1.00  0.00     0.202 C 
BRANCH  18  19
ATOM     19  C   UNL A   1      31.613  30.984  26.151  1.00  0.00     0.261 C 
BRANCH  19  20
ATOM     20  O   UNL A   1      32.776  30.694  26.950  1.00  0.00    -0.460 OA
BRANCH  20  21
ATOM     21  C   UNL A   1      33.438  31.784  27.395  1.00  0.00     0.338 C 
ATOM     22  O   UNL A   1      32.981  32.903  27.599  1.00  0.00    -0.246 OA
BRANCH  21  23
ATOM     23  C   UNL A   1      34.809  31.424  27.793  1.00  0.00     0.060 A 
ATOM     24  C   UNL A   1      35.074  30.067  28.007  1.00  0.00     0.016 A 
ATOM     25  C   UNL A   1      35.784  32.391  28.056  1.00  0.00     0.016 A 
ATOM     26  C   UNL A   1      36.294  29.675  28.547  1.00  0.00     0.010 A 
ATOM     27  C   UNL A   1      37.011  31.992  28.601  1.00  0.00     0.010 A 
ATOM     28  C   UNL A   1      37.254  30.637  28.889  1.00  0.00    -0.014 A 
BRANCH  28  29
ATOM     29  C   UNL A   1      38.444  30.205  29.665  1.00  0.00     0.031 A 
ATOM     30  C   UNL A   1      38.607  30.657  31.089  1.00  0.00     0.074 A 
ATOM     31  C   UNL A   1      39.331  29.350  29.128  1.00  0.00     0.049 A 
ATOM     32  N   UNL A   1      39.510  30.310  31.972  1.00  0.00    -0.248 NA
ATOM     33  C   UNL A   1      37.621  31.629  31.586  1.00  0.00     0.031 C 
ATOM     34  C   UNL A   1      39.285  28.834  27.762  1.00  0.00     0.029 A 
ATOM     35  N   UNL A   1      40.442  28.760  29.676  1.00  0.00    -0.354 N 
ATOM     36  C   UNL A   1      39.200  31.017  33.127  1.00  0.00     0.074 A 
ATOM     37  C   UNL A   1      38.050  31.841  32.822  1.00  0.00     0.031 C 
ATOM     38  C   UNL A   1      40.323  28.002  27.576  1.00  0.00     0.029 A 
ATOM     39  C   UNL A   1      41.110  27.936  28.806  1.00  0.00     0.049 A 
ATOM     40  H   UNL A   1      40.732  28.913  30.604  1.00  0.00     0.167 HD
ATOM     41  C   UNL A   1      39.806  30.970  34.338  1.00  0.00     0.037 A 
ATOM     42  C   UNL A   1      42.231  27.210  28.981  1.00  0.00     0.037 A 
ATOM     43  C   UNL A   1      40.950  30.152  34.646  1.00  0.00     0.049 A 
ATOM     44  C   UNL A   1      42.902  27.189  30.326  1.00  0.00     0.074 A 
ATOM     45  C   UNL A   1      41.610  30.009  35.855  1.00  0.00     0.029 A 
ATOM     46  N   UNL A   1      41.613  29.348  33.732  1.00  0.00    -0.354 N 
ATOM     47  N   UNL A   1      42.564  27.814  31.428  1.00  0.00    -0.248 NA
ATOM     48  C   UNL A   1      44.101  26.350  30.456  1.00  0.00     0.031 C 
ATOM     49  C   UNL A   1      42.701  29.153  35.659  1.00  0.00     0.029 A 
ATOM     50  C   UNL A   1      42.693  28.726  34.341  1.00  0.00     0.049 A 
ATOM     51  H   UNL A   1      41.355  29.234  32.788  1.00  0.00     0.167 HD
ATOM     52  C   UNL A   1      43.498  27.435  32.384  1.00  0.00     0.074 A 
ATOM     53  C   UNL A   1      44.403  26.507  31.737  1.00  0.00     0.031 C 
ATOM     54  C   UNL A   1      43.599  27.820  33.680  1.00  0.00     0.037 A 
BRANCH  41  55
ATOM     55  C   UNL A   1      39.249  31.855  35.416  1.00  0.00     0.057 A 
ATOM     56  C   UNL A   1      39.623  33.201  35.536  1.00  0.00     0.134 A 
ATOM     57  C   UNL A   1      38.323  31.358  36.341  1.00  0.00     0.134 A 
ATOM     58  F   UNL A   1      40.518  33.735  34.691  1.00  0.00    -0.206 F 
ATOM     59  C   UNL A   1      39.119  34.011  36.556  1.00  0.00     0.040 A 
ATOM     60  C   UNL A   1      37.793  32.164  37.349  1.00  0.00     0.040 A 
ATOM     61  F   UNL A   1      37.918  30.081  36.279  1.00  0.00    -0.206 F 
ATOM     62  C   UNL A   1      38.197  33.493  37.464  1.00  0.00     0.006 A 
ENDBRANCH  41  55
BRANCH  42  63
ATOM     63  C   UNL A   1      42.785  26.438  27.842  1.00  0.00     0.057 A 
ATOM     64  C   UNL A   1      42.434  25.101  27.624  1.00  0.00     0.134 A 
ATOM     65  C   UNL A   1      43.672  27.030  26.936  1.00  0.00     0.134 A 
ATOM     66  F   UNL A   1      41.604  24.475  28.471  1.00  0.00    -0.206 F 
ATOM     67  C   UNL A   1      42.952  24.377  26.550  1.00  0.00     0.040 A 
ATOM     68  C   UNL A   1      44.182  26.325  25.845  1.00  0.00     0.040 A 
ATOM     69  F   UNL A   1      44.043  28.310  27.090  1.00  0.00    -0.206 F 
ATOM     70  C   UNL A   1      43.823  24.992  25.653  1.00  0.00     0.006 A 
ENDBRANCH  42  63
BRANCH  54  71
ATOM     71  C   UNL A   1      44.725  27.234  34.481  1.00  0.00     0.057 A 
ATOM     72  C   UNL A   1      44.587  26.020  35.168  1.00  0.00     0.134 A 
ATOM     73  C   UNL A   1      45.965  27.882  34.558  1.00  0.00     0.134 A 
ATOM     74  F   UNL A   1      43.422  25.355  35.145  1.00  0.00    -0.206 F 
ATOM     75  C   UNL A   1      45.631  25.487  35.927  1.00  0.00     0.040 A 
ATOM     76  C   UNL A   1      47.024  27.346  35.293  1.00  0.00     0.040 A 
ATOM     77  F   UNL A   1      46.168  29.042  33.919  1.00  0.00    -0.206 F 
ATOM     78  C   UNL A   1      46.856  26.150  35.987  1.00  0.00     0.006 A 
ENDBRANCH  54  71
ENDBRANCH  28  29
ENDBRANCH  21  23
ENDBRANCH  20  21
ENDBRANCH  19  20
ENDBRANCH  18  19
ENDBRANCH  17  18
ENDBRANCH  16  17
ENDBRANCH   1  16
TORSDOF 19
ENDMDL
MODEL 2
REMARK VINA RESULT:      -9.1      5.846     10.947
REMARK SMILES COCCC(=O)N[C@H](C)CC(=O)OCCOCCOC(=O)c1ccc(-c2c3nc(c(-c4c(F)cccc4F)c4ccc([nH]4)c(-c4c(F)cccc4F)c4nc(c(-c5c(F)cccc5F)c5ccc2[nH]5)C=C4)C=C3)cc1
REMARK SMILES IDX 14 1 13 2 11 3 12 4 10 5 8 6 9 7 7 8 5 9 6 10 4 12 3 13 2 14
REMARK SMILES IDX 1 15 15 16 16 17 17 18 18 19 19 20 20 21 21 22 22 23 23 24
REMARK SMILES IDX 75 25 24 26 74 27 25 28 26 29 27 30 68 31 28 32 73 33 67 34
REMARK SMILES IDX 69 35 29 36 72 37 66 38 65 39 30 41 56 42 39 43 55 44 40 45
REMARK SMILES IDX 43 46 54 47 70 48 41 49 42 50 53 52 71 53 44 54 31 55 32 56
REMARK SMILES IDX 37 57 33 58 34 59 36 60 38 61 35 62 57 63 58 64 63 65 59 66
REMARK SMILES IDX 60 67 62 68 64 69 61 70 45 71 46 72 51 73 47 74 48 75 50 76
REMARK SMILES IDX 52 77 49 78
REMARK H PARENT 7 11 69 40 43 51
REMARK Flexibility Score: inf
ROOT
ATOM      1  C   UNL A   1      46.198  22.848  24.794  1.00  0.00     0.261 C 
ENDROOT
BRANCH   1   2
ATOM      2  O   UNL A   1      45.558  23.636  25.819  1.00  0.00    -0.463 OA
BRANCH   2   3
ATOM      3  C   UNL A   1      45.893  24.947  25.862  1.00  0.00     0.307 C 
ATOM      4  O   UNL A   1      47.036  25.380  25.771  1.00  0.00    -0.252 OA
BRANCH   3   5
ATOM      5  C   UNL A   1      44.717  25.866  26.102  1.00  0.00     0.147 C 
BRANCH   5   6
ATOM      6  C   UNL A   1      44.514  27.066  25.163  1.00  0.00     0.090 C 
ATOM      7  C   UNL A   1      43.084  27.606  25.239  1.00  0.00     0.031 C 
BRANCH   6   8
ATOM      8  N   UNL A   1      45.466  28.122  25.565  1.00  0.00    -0.353 N 
ATOM      9  C   UNL A   1      46.571  28.620  24.948  1.00  0.00     0.222 C 
ATOM     10  O   UNL A   1      47.246  29.459  25.551  1.00  0.00    -0.275 OA
ATOM     11  H   UNL A   1      45.266  28.539  26.435  1.00  0.00     0.163 HD
BRANCH   9  12
ATOM     12  C   UNL A   1      46.972  28.145  23.576  1.00  0.00     0.128 C 
BRANCH  12  13
ATOM     13  C   UNL A   1      48.339  27.485  23.613  1.00  0.00     0.169 C 
BRANCH  13  14
ATOM     14  O   UNL A   1      48.345  26.340  22.758  1.00  0.00    -0.384 OA
ATOM     15  C   UNL A   1      49.100  26.559  21.573  1.00  0.00     0.194 C 
ENDBRANCH  13  14
ENDBRANCH  12  13
ENDBRANCH   9  12
ENDBRANCH   6   8
ENDBRANCH   5   6
ENDBRANCH   3   5
ENDBRANCH   2   3
ENDBRANCH   1   2
BRANCH   1  16
ATOM     16  C   UNL A   1      46.090  21.356  25.110  1.00  0.00     0.202 C 
BRANCH  16  17
ATOM     17  O   UNL A   1      45.485  20.575  24.079  1.00  0.00    -0.374 OA
BRANCH  17  18
ATOM     18  C   UNL A   1      45.361  19.171  24.316  1.00  0.00     0.202 C 
BRANCH  18  19
ATOM     19  C   UNL A   1      43.937  18.698  24.618  1.00  0.00     0.261 C 
BRANCH  19  20
ATOM     20  O   UNL A   1      43.487  19.195  25.894  1.00  0.00    -0.460 OA
BRANCH  20  21
ATOM     21  C   UNL A   1      42.175  19.508  25.943  1.00  0.00     0.338 C 
ATOM     22  O   UNL A   1      41.225  18.793  25.644  1.00  0.00    -0.246 OA
BRANCH  21  23
ATOM     23  C   UNL A   1      41.984  20.817  26.591  1.00  0.00     0.060 A 
ATOM     24  C   UNL A   1      42.368  21.948  25.864  1.00  0.00     0.016 A 
ATOM     25  C   UNL A   1      41.540  20.934  27.911  1.00  0.00     0.016 A 
ATOM     26  C   UNL A   1      42.375  23.197  26.477  1.00  0.00     0.010 A 
ATOM     27  C   UNL A   1      41.549  22.194  28.525  1.00  0.00     0.010 A 
ATOM     28  C   UNL A   1      42.008  23.323  27.824  1.00  0.00    -0.014 A 
BRANCH  28  29
ATOM     29  C   UNL A   1      42.240  24.622  28.502  1.00  0.00     0.031 A 
ATOM     30  C   UNL A   1      43.589  24.920  29.095  1.00  0.00     0.074 A 
ATOM     31  C   UNL A   1      41.279  25.561  28.519  1.00  0.00     0.049 A 
ATOM     32  N   UNL A   1      44.033  26.029  29.633  1.00  0.00    -0.248 NA
ATOM     33  C   UNL A   1      44.570  23.825  29.080  1.00  0.00     0.031 C 
ATOM     34  C   UNL A   1      39.932  25.400  27.976  1.00  0.00     0.029 A 
ATOM     35  N   UNL A   1      41.296  26.844  29.007  1.00  0.00    -0.354 N 
ATOM     36  C   UNL A   1      45.342  25.766  30.015  1.00  0.00     0.074 A 
ATOM     37  C   UNL A   1      45.608  24.383  29.685  1.00  0.00     0.031 C 
ATOM     38  C   UNL A   1      39.249  26.541  28.161  1.00  0.00     0.029 A 
ATOM     39  C   UNL A   1      40.107  27.508  28.843  1.00  0.00     0.049 A 
ATOM     40  H   UNL A   1      42.086  27.248  29.434  1.00  0.00     0.167 HD
ATOM     41  C   UNL A   1      46.247  26.605  30.575  1.00  0.00     0.037 A 
ATOM     42  C   UNL A   1      39.750  28.756  29.203  1.00  0.00     0.037 A 
ATOM     43  C   UNL A   1      45.986  27.982  30.906  1.00  0.00     0.049 A 
ATOM     44  C   UNL A   1      40.762  29.664  29.844  1.00  0.00     0.074 A 
ATOM     45  C   UNL A   1      46.851  28.921  31.440  1.00  0.00     0.029 A 
ATOM     46  N   UNL A   1      44.762  28.613  30.747  1.00  0.00    -0.354 N 
ATOM     47  N   UNL A   1      42.015  29.424  30.145  1.00  0.00    -0.248 NA
ATOM     48  C   UNL A   1      40.314  31.023  30.179  1.00  0.00     0.031 C 
ATOM     49  C   UNL A   1      46.136  30.108  31.647  1.00  0.00     0.029 A 
ATOM     50  C   UNL A   1      44.839  29.922  31.198  1.00  0.00     0.049 A 
ATOM     51  H   UNL A   1      43.955  28.194  30.368  1.00  0.00     0.167 HD
ATOM     52  C   UNL A   1      42.509  30.601  30.693  1.00  0.00     0.074 A 
ATOM     53  C   UNL A   1      41.426  31.562  30.660  1.00  0.00     0.031 C 
ATOM     54  C   UNL A   1      43.747  30.863  31.179  1.00  0.00     0.037 A 
BRANCH  41  55
ATOM     55  C   UNL A   1      47.602  26.040  30.886  1.00  0.00     0.057 A 
ATOM     56  C   UNL A   1      47.940  25.589  32.170  1.00  0.00     0.134 A 
ATOM     57  C   UNL A   1      48.580  25.939  29.889  1.00  0.00     0.134 A 
ATOM     58  F   UNL A   1      47.054  25.670  33.174  1.00  0.00    -0.206 F 
ATOM     59  C   UNL A   1      49.211  25.086  32.457  1.00  0.00     0.040 A 
ATOM     60  C   UNL A   1      49.846  25.416  30.157  1.00  0.00     0.040 A 
ATOM     61  F   UNL A   1      48.322  26.348  28.638  1.00  0.00    -0.206 F 
ATOM     62  C   UNL A   1      50.167  24.995  31.447  1.00  0.00     0.006 A 
ENDBRANCH  41  55
BRANCH  42  63
ATOM     63  C   UNL A   1      38.361  29.216  28.958  1.00  0.00     0.057 A 
ATOM     64  C   UNL A   1      37.397  29.205  29.973  1.00  0.00     0.134 A 
ATOM     65  C   UNL A   1      37.973  29.692  27.701  1.00  0.00     0.134 A 
ATOM     66  F   UNL A   1      37.706  28.741  31.192  1.00  0.00    -0.206 F 
ATOM     67  C   UNL A   1      36.092  29.642  29.742  1.00  0.00     0.040 A 
ATOM     68  C   UNL A   1      36.677  30.152  27.461  1.00  0.00     0.040 A 
ATOM     69  F   UNL A   1      38.853  29.730  26.690  1.00  0.00    -0.206 F 
ATOM     70  C   UNL A   1      35.732  30.125  28.485  1.00  0.00     0.006 A 
ENDBRANCH  42  63
BRANCH  54  71
ATOM     71  C   UNL A   1      43.993  32.245  31.712  1.00  0.00     0.057 A 
ATOM     72  C   UNL A   1      44.440  33.284  30.885  1.00  0.00     0.134 A 
ATOM     73  C   UNL A   1      43.769  32.545  33.062  1.00  0.00     0.134 A 
ATOM     74  F   UNL A   1      44.686  33.061  29.585  1.00  0.00    -0.206 F 
ATOM     75  C   UNL A   1      44.685  34.564  31.387  1.00  0.00     0.040 A 
ATOM     76  C   UNL A   1      43.987  33.826  33.571  1.00  0.00     0.040 A 
ATOM     77  F   UNL A   1      43.334  31.600  33.906  1.00  0.00    -0.206 F 
ATOM     78  C   UNL A   1      44.454  34.839  32.734  1.00  0.00     0.006 A 
ENDBRANCH  54  71
ENDBRANCH  28  29
ENDBRANCH  21  23
ENDBRANCH  20  21
ENDBRANCH  19  20
ENDBRANCH  18  19
ENDBRANCH  17  18
ENDBRANCH  16  17
ENDBRANCH   1  16
TORSDOF 19
ENDMDL
MODEL 3
REMARK VINA RESULT:      -8.9      2.928      4.323
REMARK SMILES COCCC(=O)N[C@H](C)CC(=O)OCCOCCOC(=O)c1ccc(-c2c3nc(c(-c4c(F)cccc4F)c4ccc([nH]4)c(-c4c(F)cccc4F)c4nc(c(-c5c(F)cccc5F)c5ccc2[nH]5)C=C4)C=C3)cc1
REMARK SMILES IDX 14 1 13 2 11 3 12 4 10 5 8 6 9 7 7 8 5 9 6 10 4 12 3 13 2 14
REMARK SMILES IDX 1 15 15 16 16 17 17 18 18 19 19 20 20 21 21 22 22 23 23 24
REMARK SMILES IDX 75 25 24 26 74 27 25 28 26 29 27 30 68 31 28 32 73 33 67 34
REMARK SMILES IDX 69 35 29 36 72 37 66 38 65 39 30 41 56 42 39 43 55 44 40 45
REMARK SMILES IDX 43 46 54 47 70 48 41 49 42 50 53 52 71 53 44 54 31 55 32 56
REMARK SMILES IDX 37 57 33 58 34 59 36 60 38 61 35 62 57 63 58 64 63 65 59 66
REMARK SMILES IDX 60 67 62 68 64 69 61 70 45 71 46 72 51 73 47 74 48 75 50 76
REMARK SMILES IDX 52 77 49 78
REMARK H PARENT 7 11 69 40 43 51
REMARK Flexibility Score: inf
ROOT
ATOM      1  C   UNL A   1      31.728  29.845  25.353  1.00  0.00     0.261 C 
ENDROOT
BRANCH   1   2
ATOM      2  O   UNL A   1      32.790  29.286  24.554  1.00  0.00    -0.463 OA
BRANCH   2   3
ATOM      3  C   UNL A   1      32.435  28.796  23.344  1.00  0.00     0.307 C 
ATOM      4  O   UNL A   1      33.146  28.088  22.639  1.00  0.00    -0.252 OA
BRANCH   3   5
ATOM      5  C   UNL A   1      31.071  29.254  22.880  1.00  0.00     0.147 C 
BRANCH   5   6
ATOM      6  C   UNL A   1      29.944  28.216  22.761  1.00  0.00     0.090 C 
ATOM      7  C   UNL A   1      30.255  26.951  23.566  1.00  0.00     0.031 C 
BRANCH   6   8
ATOM      8  N   UNL A   1      28.701  28.834  23.268  1.00  0.00    -0.353 N 
ATOM      9  C   UNL A   1      27.837  29.715  22.697  1.00  0.00     0.222 C 
ATOM     10  O   UNL A   1      26.904  30.142  23.382  1.00  0.00    -0.275 OA
ATOM     11  H   UNL A   1      28.457  28.562  24.182  1.00  0.00     0.163 HD
BRANCH   9  12
ATOM     12  C   UNL A   1      28.025  30.173  21.274  1.00  0.00     0.128 C 
BRANCH  12  13
ATOM     13  C   UNL A   1      28.071  31.688  21.198  1.00  0.00     0.169 C 
BRANCH  13  14
ATOM     14  O   UNL A   1      29.166  32.179  21.975  1.00  0.00    -0.384 OA
ATOM     15  C   UNL A   1      28.740  33.067  23.000  1.00  0.00     0.194 C 
ENDBRANCH  13  14
ENDBRANCH  12  13
ENDBRANCH   9  12
ENDBRANCH   6   8
ENDBRANCH   5   6
ENDBRANCH   3   5
ENDBRANCH   2   3
ENDBRANCH   1   2
BRANCH   1  16
ATOM     16  C   UNL A   1      32.171  30.012  26.806  1.00  0.00     0.202 C 
BRANCH  16  17
ATOM     17  O   UNL A   1      33.570  30.246  26.975  1.00  0.00    -0.374 OA
BRANCH  17  18
ATOM     18  C   UNL A   1      33.955  31.499  27.545  1.00  0.00     0.202 C 
BRANCH  18  19
ATOM     19  C   UNL A   1      32.833  32.538  27.616  1.00  0.00     0.261 C 
BRANCH  19  20
ATOM     20  O   UNL A   1      33.368  33.876  27.619  1.00  0.00    -0.460 OA
BRANCH  20  21
ATOM     21  C   UNL A   1      33.394  34.468  28.832  1.00  0.00     0.338 C 
ATOM     22  O   UNL A   1      32.535  35.186  29.331  1.00  0.00    -0.246 OA
BRANCH  21  23
ATOM     23  C   UNL A   1      34.552  33.995  29.608  1.00  0.00     0.060 A 
ATOM     24  C   UNL A   1      35.821  34.291  29.100  1.00  0.00     0.016 A 
ATOM     25  C   UNL A   1      34.408  33.194  30.745  1.00  0.00     0.016 A 
ATOM     26  C   UNL A   1      36.952  33.733  29.687  1.00  0.00     0.010 A 
ATOM     27  C   UNL A   1      35.549  32.633  31.333  1.00  0.00     0.010 A 
ATOM     28  C   UNL A   1      36.821  32.864  30.780  1.00  0.00    -0.014 A 
BRANCH  28  29
ATOM     29  C   UNL A   1      38.019  32.116  31.236  1.00  0.00     0.031 A 
ATOM     30  C   UNL A   1      38.570  32.363  32.613  1.00  0.00     0.074 A 
ATOM     31  C   UNL A   1      38.564  31.165  30.458  1.00  0.00     0.049 A 
ATOM     32  N   UNL A   1      39.536  31.744  33.244  1.00  0.00    -0.248 NA
ATOM     33  C   UNL A   1      37.950  33.452  33.382  1.00  0.00     0.031 C 
ATOM     34  C   UNL A   1      38.122  30.825  29.107  1.00  0.00     0.029 A 
ATOM     35  N   UNL A   1      39.604  30.305  30.701  1.00  0.00    -0.354 N 
ATOM     36  C   UNL A   1      39.637  32.364  34.483  1.00  0.00     0.074 A 
ATOM     37  C   UNL A   1      38.662  33.433  34.500  1.00  0.00     0.031 C 
ATOM     38  C   UNL A   1      38.887  29.827  28.638  1.00  0.00     0.029 A 
ATOM     39  C   UNL A   1      39.878  29.465  29.651  1.00  0.00     0.049 A 
ATOM     40  H   UNL A   1      40.107  30.291  31.548  1.00  0.00     0.167 HD
ATOM     41  C   UNL A   1      40.455  32.060  35.520  1.00  0.00     0.037 A 
ATOM     42  C   UNL A   1      40.821  28.513  29.519  1.00  0.00     0.037 A 
ATOM     43  C   UNL A   1      41.427  30.999  35.507  1.00  0.00     0.049 A 
ATOM     44  C   UNL A   1      41.734  28.206  30.674  1.00  0.00     0.074 A 
ATOM     45  C   UNL A   1      42.274  30.590  36.522  1.00  0.00     0.029 A 
ATOM     46  N   UNL A   1      41.691  30.184  34.416  1.00  0.00    -0.354 N 
ATOM     47  N   UNL A   1      41.779  28.758  31.862  1.00  0.00    -0.248 NA
ATOM     48  C   UNL A   1      42.716  27.132  30.474  1.00  0.00     0.031 C 
ATOM     49  C   UNL A   1      43.083  29.558  36.029  1.00  0.00     0.029 A 
ATOM     50  C   UNL A   1      42.708  29.293  34.723  1.00  0.00     0.049 A 
ATOM     51  H   UNL A   1      41.224  30.232  33.550  1.00  0.00     0.167 HD
ATOM     52  C   UNL A   1      42.783  28.093  32.555  1.00  0.00     0.074 A 
ATOM     53  C   UNL A   1      43.305  27.080  31.661  1.00  0.00     0.031 C 
ATOM     54  C   UNL A   1      43.233  28.302  33.817  1.00  0.00     0.037 A 
BRANCH  41  55
ATOM     55  C   UNL A   1      40.344  32.913  36.750  1.00  0.00     0.057 A 
ATOM     56  C   UNL A   1      41.234  33.966  37.005  1.00  0.00     0.134 A 
ATOM     57  C   UNL A   1      39.332  32.683  37.690  1.00  0.00     0.134 A 
ATOM     58  F   UNL A   1      42.235  34.231  36.151  1.00  0.00    -0.206 F 
ATOM     59  C   UNL A   1      41.139  34.739  38.163  1.00  0.00     0.040 A 
ATOM     60  C   UNL A   1      39.211  33.464  38.840  1.00  0.00     0.040 A 
ATOM     61  F   UNL A   1      38.444  31.694  37.507  1.00  0.00    -0.206 F 
ATOM     62  C   UNL A   1      40.122  34.491  39.084  1.00  0.00     0.006 A 
ENDBRANCH  41  55
BRANCH  42  63
ATOM     63  C   UNL A   1      40.941  27.777  28.237  1.00  0.00     0.057 A 
ATOM     64  C   UNL A   1      40.274  26.566  28.023  1.00  0.00     0.134 A 
ATOM     65  C   UNL A   1      41.721  28.282  27.190  1.00  0.00     0.134 A 
ATOM     66  F   UNL A   1      39.529  26.025  28.997  1.00  0.00    -0.206 F 
ATOM     67  C   UNL A   1      40.384  25.878  26.814  1.00  0.00     0.040 A 
ATOM     68  C   UNL A   1      41.823  27.615  25.968  1.00  0.00     0.040 A 
ATOM     69  F   UNL A   1      42.381  29.440  27.335  1.00  0.00    -0.206 F 
ATOM     70  C   UNL A   1      41.155  26.406  25.780  1.00  0.00     0.006 A 
ENDBRANCH  42  63
BRANCH  54  71
ATOM     71  C   UNL A   1      44.342  27.414  34.302  1.00  0.00     0.057 A 
ATOM     72  C   UNL A   1      45.689  27.741  34.100  1.00  0.00     0.134 A 
ATOM     73  C   UNL A   1      44.062  26.225  34.989  1.00  0.00     0.134 A 
ATOM     74  F   UNL A   1      46.026  28.859  33.439  1.00  0.00    -0.206 F 
ATOM     75  C   UNL A   1      46.718  26.903  34.536  1.00  0.00     0.040 A 
ATOM     76  C   UNL A   1      45.081  25.392  35.452  1.00  0.00     0.040 A 
ATOM     77  F   UNL A   1      42.794  25.857  35.223  1.00  0.00    -0.206 F 
ATOM     78  C   UNL A   1      46.414  25.726  35.219  1.00  0.00     0.006 A 
ENDBRANCH  54  71
ENDBRANCH  28  29
ENDBRANCH  21  23
ENDBRANCH  20  21
ENDBRANCH  19  20
ENDBRANCH  18  19
ENDBRANCH  17  18
ENDBRANCH  16  17
ENDBRANCH   1  16
TORSDOF 19
ENDMDL
