MODEL 1
REMARK VINA RESULT:     -11.9      0.000      0.000
REMARK SMILES O=C1C[C@H](c2cn[nH]c2C(=O)OCCOCCOC(=O)c2ccc(-c3c4nc(c(-c5c(F)cccc5F)c5ccc([nH]5)c(-c5c(F)cccc5F)c5nc(c(-c6c(F)cccc6F)c6ccc3[nH]6)C=C5)C=C4)cc2)c2c(-c3cccs3)n[nH]c2N1
REMARK SMILES IDX 15 1 14 2 13 3 12 4 10 5 11 6 9 7 5 8 6 9 7 10 8 11 4 13
REMARK SMILES IDX 1 14 2 15 3 16 85 17 84 18 75 20 83 21 76 22 82 23 77 25
REMARK SMILES IDX 78 26 81 27 79 28 80 29 16 30 17 31 18 32 19 33 20 34 21 35
REMARK SMILES IDX 22 36 74 37 23 38 73 39 24 40 25 41 26 42 67 43 27 44 72 45
REMARK SMILES IDX 66 46 68 47 28 48 71 49 65 50 64 51 29 53 55 54 38 55 54 56
REMARK SMILES IDX 39 57 42 58 53 59 69 60 40 61 41 62 52 64 70 65 43 66 30 67
REMARK SMILES IDX 31 68 36 69 32 70 33 71 35 72 37 73 34 74 56 75 57 76 62 77
REMARK SMILES IDX 58 78 59 79 61 80 63 81 60 82 44 83 45 84 50 85 46 86 47 87
REMARK SMILES IDX 49 88 51 89 48 90
REMARK H PARENT 8 12 85 19 83 24 68 52 42 63
REMARK Flexibility Score: inf
ROOT
ATOM      1  O   UNL A   1      40.167  20.585  26.966  1.00  0.00    -0.374 OA
ENDROOT
BRANCH   1   2
ATOM      2  C   UNL A   1      39.738  21.855  26.466  1.00  0.00     0.202 C 
BRANCH   2   3
ATOM      3  C   UNL A   1      38.411  21.863  25.717  1.00  0.00     0.261 C 
BRANCH   3   4
ATOM      4  O   UNL A   1      37.654  23.057  26.008  1.00  0.00    -0.459 OA
BRANCH   4   5
ATOM      5  C   UNL A   1      36.716  23.385  25.086  1.00  0.00     0.356 C 
ATOM      6  O   UNL A   1      36.922  23.443  23.875  1.00  0.00    -0.244 OA
BRANCH   5   7
ATOM      7  C   UNL A   1      35.390  23.459  25.640  1.00  0.00     0.147 A 
ATOM      8  C   UNL A   1      34.102  23.835  25.244  1.00  0.00     0.013 A 
ATOM      9  C   UNL A   1      33.310  23.497  26.386  1.00  0.00     0.140 A 
ATOM     10  N   UNL A   1      34.014  23.029  27.409  1.00  0.00    -0.183 NA
ATOM     11  N   UNL A   1      35.254  22.987  26.925  1.00  0.00    -0.271 N 
ATOM     12  H   UNL A   1      36.015  22.643  27.446  1.00  0.00     0.190 HD
BRANCH   8  13
ATOM     13  C   UNL A   1      33.455  24.324  23.955  1.00  0.00     0.069 C 
ATOM     14  O   UNL A   1      32.199  21.343  22.129  1.00  0.00    -0.275 OA
ATOM     15  C   UNL A   1      32.181  22.462  22.642  1.00  0.00     0.226 C 
ATOM     16  C   UNL A   1      33.467  23.248  22.841  1.00  0.00     0.114 C 
ATOM     17  N   UNL A   1      30.986  23.077  22.930  1.00  0.00    -0.311 N 
ATOM     18  C   UNL A   1      30.986  24.255  23.613  1.00  0.00     0.132 A 
ATOM     19  H   UNL A   1      30.137  22.670  22.643  1.00  0.00     0.171 HD
ATOM     20  C   UNL A   1      32.096  24.901  24.077  1.00  0.00     0.031 A 
ATOM     21  N   UNL A   1      29.904  24.974  24.014  1.00  0.00    -0.262 N 
ATOM     22  C   UNL A   1      31.591  26.087  24.658  1.00  0.00     0.108 A 
ATOM     23  N   UNL A   1      30.247  26.087  24.695  1.00  0.00    -0.173 NA
ATOM     24  H   UNL A   1      28.973  24.711  23.829  1.00  0.00     0.192 HD
BRANCH  22  25
ATOM     25  C   UNL A   1      32.429  27.136  25.303  1.00  0.00     0.055 A 
ATOM     26  C   UNL A   1      32.526  27.309  26.665  1.00  0.00     0.022 A 
ATOM     27  S   UNL A   1      33.462  28.186  24.443  1.00  0.00    -0.142 S 
ATOM     28  C   UNL A   1      33.559  28.231  27.004  1.00  0.00     0.012 A 
ATOM     29  C   UNL A   1      34.108  28.824  25.888  1.00  0.00     0.065 A 
ENDBRANCH  22  25
ENDBRANCH   8  13
ENDBRANCH   5   7
ENDBRANCH   4   5
ENDBRANCH   3   4
ENDBRANCH   2   3
ENDBRANCH   1   2
BRANCH   1  30
ATOM     30  C   UNL A   1      41.560  20.348  27.140  1.00  0.00     0.202 C 
BRANCH  30  31
ATOM     31  C   UNL A   1      42.228  19.468  26.103  1.00  0.00     0.261 C 
BRANCH  31  32
ATOM     32  O   UNL A   1      43.606  19.760  26.005  1.00  0.00    -0.460 OA
BRANCH  32  33
ATOM     33  C   UNL A   1      44.033  20.183  24.802  1.00  0.00     0.338 C 
ATOM     34  O   UNL A   1      44.194  19.527  23.773  1.00  0.00    -0.246 OA
BRANCH  33  35
ATOM     35  C   UNL A   1      44.443  21.570  24.981  1.00  0.00     0.060 A 
ATOM     36  C   UNL A   1      45.579  21.868  25.734  1.00  0.00     0.016 A 
ATOM     37  C   UNL A   1      43.520  22.557  24.613  1.00  0.00     0.016 A 
ATOM     38  C   UNL A   1      45.651  23.119  26.313  1.00  0.00     0.010 A 
ATOM     39  C   UNL A   1      43.646  23.819  25.096  1.00  0.00     0.010 A 
ATOM     40  C   UNL A   1      44.606  24.017  26.067  1.00  0.00    -0.014 A 
BRANCH  40  41
ATOM     41  C   UNL A   1      44.404  25.183  26.884  1.00  0.00     0.031 A 
ATOM     42  C   UNL A   1      45.451  26.195  26.695  1.00  0.00     0.074 A 
ATOM     43  C   UNL A   1      43.242  25.362  27.544  1.00  0.00     0.049 A 
ATOM     44  N   UNL A   1      46.436  26.449  27.484  1.00  0.00    -0.248 NA
ATOM     45  C   UNL A   1      45.562  26.820  25.367  1.00  0.00     0.031 C 
ATOM     46  C   UNL A   1      42.007  24.563  27.495  1.00  0.00     0.029 A 
ATOM     47  N   UNL A   1      42.896  26.393  28.351  1.00  0.00    -0.354 N 
ATOM     48  C   UNL A   1      47.144  27.465  26.859  1.00  0.00     0.074 A 
ATOM     49  C   UNL A   1      46.733  27.447  25.482  1.00  0.00     0.031 C 
ATOM     50  C   UNL A   1      40.994  25.260  28.058  1.00  0.00     0.029 A 
ATOM     51  C   UNL A   1      41.539  26.466  28.647  1.00  0.00     0.049 A 
ATOM     52  H   UNL A   1      43.553  27.038  28.701  1.00  0.00     0.167 HD
ATOM     53  C   UNL A   1      47.770  28.422  27.595  1.00  0.00     0.037 A 
ATOM     54  C   UNL A   1      40.944  27.505  29.286  1.00  0.00     0.037 A 
ATOM     55  C   UNL A   1      47.855  28.023  28.982  1.00  0.00     0.049 A 
ATOM     56  C   UNL A   1      42.029  28.261  29.975  1.00  0.00     0.074 A 
ATOM     57  C   UNL A   1      48.445  26.965  29.647  1.00  0.00     0.029 A 
ATOM     58  N   UNL A   1      46.909  28.529  29.844  1.00  0.00    -0.354 N 
ATOM     59  N   UNL A   1      42.730  27.771  30.965  1.00  0.00    -0.248 NA
ATOM     60  C   UNL A   1      42.679  29.328  29.225  1.00  0.00     0.031 C 
ATOM     61  C   UNL A   1      47.512  26.598  30.661  1.00  0.00     0.029 A 
ATOM     62  C   UNL A   1      46.444  27.496  30.619  1.00  0.00     0.049 A 
ATOM     63  H   UNL A   1      46.617  29.468  29.896  1.00  0.00     0.167 HD
ATOM     64  C   UNL A   1      44.038  28.165  30.713  1.00  0.00     0.074 A 
ATOM     65  C   UNL A   1      43.935  29.174  29.659  1.00  0.00     0.031 C 
ATOM     66  C   UNL A   1      45.100  27.424  31.153  1.00  0.00     0.037 A 
BRANCH  53  67
ATOM     67  C   UNL A   1      47.937  29.855  27.160  1.00  0.00     0.057 A 
ATOM     68  C   UNL A   1      49.216  30.432  27.231  1.00  0.00     0.134 A 
ATOM     69  C   UNL A   1      46.883  30.767  26.940  1.00  0.00     0.134 A 
ATOM     70  F   UNL A   1      50.303  29.671  27.433  1.00  0.00    -0.206 F 
ATOM     71  C   UNL A   1      49.420  31.814  27.176  1.00  0.00     0.040 A 
ATOM     72  C   UNL A   1      47.081  32.145  26.831  1.00  0.00     0.040 A 
ATOM     73  F   UNL A   1      45.596  30.403  26.914  1.00  0.00    -0.206 F 
ATOM     74  C   UNL A   1      48.348  32.677  26.986  1.00  0.00     0.006 A 
ENDBRANCH  53  67
BRANCH  54  75
ATOM     75  C   UNL A   1      39.598  28.072  29.040  1.00  0.00     0.057 A 
ATOM     76  C   UNL A   1      38.628  28.118  30.048  1.00  0.00     0.134 A 
ATOM     77  C   UNL A   1      39.325  28.825  27.884  1.00  0.00     0.134 A 
ATOM     78  F   UNL A   1      38.822  27.469  31.207  1.00  0.00    -0.206 F 
ATOM     79  C   UNL A   1      37.457  28.879  29.922  1.00  0.00     0.040 A 
ATOM     80  C   UNL A   1      38.161  29.588  27.743  1.00  0.00     0.040 A 
ATOM     81  F   UNL A   1      40.220  28.915  26.890  1.00  0.00    -0.206 F 
ATOM     82  C   UNL A   1      37.225  29.626  28.770  1.00  0.00     0.006 A 
ENDBRANCH  54  75
BRANCH  66  83
ATOM     83  C   UNL A   1      44.822  26.285  32.101  1.00  0.00     0.057 A 
ATOM     84  C   UNL A   1      44.608  24.957  31.696  1.00  0.00     0.134 A 
ATOM     85  C   UNL A   1      44.971  26.502  33.474  1.00  0.00     0.134 A 
ATOM     86  F   UNL A   1      44.547  24.631  30.401  1.00  0.00    -0.206 F 
ATOM     87  C   UNL A   1      44.520  23.904  32.613  1.00  0.00     0.040 A 
ATOM     88  C   UNL A   1      44.916  25.458  34.400  1.00  0.00     0.040 A 
ATOM     89  F   UNL A   1      45.237  27.735  33.934  1.00  0.00    -0.206 F 
ATOM     90  C   UNL A   1      44.685  24.153  33.972  1.00  0.00     0.006 A 
ENDBRANCH  66  83
ENDBRANCH  40  41
ENDBRANCH  33  35
ENDBRANCH  32  33
ENDBRANCH  31  32
ENDBRANCH  30  31
ENDBRANCH   1  30
TORSDOF 16
ENDMDL
MODEL 2
REMARK VINA RESULT:     -11.7      2.285      6.140
REMARK SMILES O=C1C[C@H](c2cn[nH]c2C(=O)OCCOCCOC(=O)c2ccc(-c3c4nc(c(-c5c(F)cccc5F)c5ccc([nH]5)c(-c5c(F)cccc5F)c5nc(c(-c6c(F)cccc6F)c6ccc3[nH]6)C=C5)C=C4)cc2)c2c(-c3cccs3)n[nH]c2N1
REMARK SMILES IDX 15 1 14 2 13 3 12 4 10 5 11 6 9 7 5 8 6 9 7 10 8 11 4 13
REMARK SMILES IDX 1 14 2 15 3 16 85 17 84 18 75 20 83 21 76 22 82 23 77 25
REMARK SMILES IDX 78 26 81 27 79 28 80 29 16 30 17 31 18 32 19 33 20 34 21 35
REMARK SMILES IDX 22 36 74 37 23 38 73 39 24 40 25 41 26 42 67 43 27 44 72 45
REMARK SMILES IDX 66 46 68 47 28 48 71 49 65 50 64 51 29 53 55 54 38 55 54 56
REMARK SMILES IDX 39 57 42 58 53 59 69 60 40 61 41 62 52 64 70 65 43 66 30 67
REMARK SMILES IDX 31 68 36 69 32 70 33 71 35 72 37 73 34 74 56 75 57 76 62 77
REMARK SMILES IDX 58 78 59 79 61 80 63 81 60 82 44 83 45 84 50 85 46 86 47 87
REMARK SMILES IDX 49 88 51 89 48 90
REMARK H PARENT 8 12 85 19 83 24 68 52 42 63
REMARK Flexibility Score: inf
ROOT
ATOM      1  O   UNL A   1      35.074  21.240  24.435  1.00  0.00    -0.374 OA
ENDROOT
BRANCH   1   2
ATOM      2  C   UNL A   1      33.899  20.686  25.037  1.00  0.00     0.202 C 
BRANCH   2   3
ATOM      3  C   UNL A   1      32.668  21.584  25.046  1.00  0.00     0.261 C 
BRANCH   3   4
ATOM      4  O   UNL A   1      32.297  21.948  26.393  1.00  0.00    -0.459 OA
BRANCH   4   5
ATOM      5  C   UNL A   1      32.903  23.058  26.879  1.00  0.00     0.356 C 
ATOM      6  O   UNL A   1      33.985  23.059  27.464  1.00  0.00    -0.244 OA
BRANCH   5   7
ATOM      7  C   UNL A   1      32.258  24.275  26.463  1.00  0.00     0.147 A 
ATOM      8  C   UNL A   1      32.517  25.378  25.644  1.00  0.00     0.013 A 
ATOM      9  C   UNL A   1      31.286  26.106  25.695  1.00  0.00     0.140 A 
ATOM     10  N   UNL A   1      30.380  25.570  26.502  1.00  0.00    -0.183 NA
ATOM     11  N   UNL A   1      30.975  24.457  26.926  1.00  0.00    -0.271 N 
ATOM     12  H   UNL A   1      30.532  23.813  27.523  1.00  0.00     0.190 HD
BRANCH   8  13
ATOM     13  C   UNL A   1      33.647  25.809  24.718  1.00  0.00     0.069 C 
ATOM     14  O   UNL A   1      33.738  23.424  21.872  1.00  0.00    -0.275 OA
ATOM     15  C   UNL A   1      33.714  24.507  22.456  1.00  0.00     0.226 C 
ATOM     16  C   UNL A   1      34.214  24.632  23.886  1.00  0.00     0.114 C 
ATOM     17  N   UNL A   1      33.351  25.652  21.787  1.00  0.00    -0.311 N 
ATOM     18  C   UNL A   1      33.204  26.815  22.480  1.00  0.00     0.132 A 
ATOM     19  H   UNL A   1      33.200  25.631  20.815  1.00  0.00     0.171 HD
ATOM     20  C   UNL A   1      33.368  26.960  23.827  1.00  0.00     0.031 A 
ATOM     21  N   UNL A   1      32.815  28.022  21.989  1.00  0.00    -0.262 N 
ATOM     22  C   UNL A   1      33.167  28.341  24.056  1.00  0.00     0.108 A 
ATOM     23  N   UNL A   1      32.745  28.970  22.945  1.00  0.00    -0.173 NA
ATOM     24  H   UNL A   1      32.606  28.185  21.040  1.00  0.00     0.192 HD
BRANCH  22  25
ATOM     25  C   UNL A   1      33.248  28.997  25.391  1.00  0.00     0.055 A 
ATOM     26  C   UNL A   1      34.290  28.815  26.272  1.00  0.00     0.022 A 
ATOM     27  S   UNL A   1      32.117  30.142  25.954  1.00  0.00    -0.142 S 
ATOM     28  C   UNL A   1      34.216  29.728  27.365  1.00  0.00     0.012 A 
ATOM     29  C   UNL A   1      33.054  30.467  27.344  1.00  0.00     0.065 A 
ENDBRANCH  22  25
ENDBRANCH   8  13
ENDBRANCH   5   7
ENDBRANCH   4   5
ENDBRANCH   3   4
ENDBRANCH   2   3
ENDBRANCH   1   2
BRANCH   1  30
ATOM     30  C   UNL A   1      36.208  21.504  25.254  1.00  0.00     0.202 C 
BRANCH  30  31
ATOM     31  C   UNL A   1      37.476  20.748  24.912  1.00  0.00     0.261 C 
BRANCH  31  32
ATOM     32  O   UNL A   1      38.547  21.160  25.735  1.00  0.00    -0.460 OA
BRANCH  32  33
ATOM     33  C   UNL A   1      39.612  20.339  25.767  1.00  0.00     0.338 C 
ATOM     34  O   UNL A   1      39.670  19.148  25.466  1.00  0.00    -0.246 OA
BRANCH  33  35
ATOM     35  C   UNL A   1      40.686  21.094  26.402  1.00  0.00     0.060 A 
ATOM     36  C   UNL A   1      41.003  20.863  27.740  1.00  0.00     0.016 A 
ATOM     37  C   UNL A   1      41.171  22.211  25.709  1.00  0.00     0.016 A 
ATOM     38  C   UNL A   1      41.611  21.887  28.438  1.00  0.00     0.010 A 
ATOM     39  C   UNL A   1      41.863  23.172  26.372  1.00  0.00     0.010 A 
ATOM     40  C   UNL A   1      41.912  23.065  27.746  1.00  0.00    -0.014 A 
BRANCH  40  41
ATOM     41  C   UNL A   1      42.207  24.291  28.436  1.00  0.00     0.031 A 
ATOM     42  C   UNL A   1      41.146  25.295  28.285  1.00  0.00     0.074 A 
ATOM     43  C   UNL A   1      43.241  24.359  29.298  1.00  0.00     0.049 A 
ATOM     44  N   UNL A   1      41.160  26.329  27.517  1.00  0.00    -0.248 NA
ATOM     45  C   UNL A   1      39.826  24.983  28.856  1.00  0.00     0.031 C 
ATOM     46  C   UNL A   1      44.133  23.289  29.773  1.00  0.00     0.029 A 
ATOM     47  N   UNL A   1      43.653  25.429  30.019  1.00  0.00    -0.354 N 
ATOM     48  C   UNL A   1      39.933  26.942  27.719  1.00  0.00     0.074 A 
ATOM     49  C   UNL A   1      39.082  25.947  28.313  1.00  0.00     0.031 C 
ATOM     50  C   UNL A   1      44.821  23.719  30.855  1.00  0.00     0.029 A 
ATOM     51  C   UNL A   1      44.545  25.129  31.043  1.00  0.00     0.049 A 
ATOM     52  H   UNL A   1      43.346  26.346  29.832  1.00  0.00     0.167 HD
ATOM     53  C   UNL A   1      39.822  28.296  27.664  1.00  0.00     0.037 A 
ATOM     54  C   UNL A   1      44.949  26.007  31.995  1.00  0.00     0.037 A 
ATOM     55  C   UNL A   1      41.002  28.879  27.067  1.00  0.00     0.049 A 
ATOM     56  C   UNL A   1      44.645  27.371  31.476  1.00  0.00     0.074 A 
ATOM     57  C   UNL A   1      41.615  28.766  25.834  1.00  0.00     0.029 A 
ATOM     58  N   UNL A   1      41.959  29.381  27.920  1.00  0.00    -0.354 N 
ATOM     59  N   UNL A   1      45.239  27.892  30.434  1.00  0.00    -0.248 NA
ATOM     60  C   UNL A   1      43.332  27.924  31.780  1.00  0.00     0.031 C 
ATOM     61  C   UNL A   1      43.013  28.751  26.115  1.00  0.00     0.029 A 
ATOM     62  C   UNL A   1      43.185  28.939  27.488  1.00  0.00     0.049 A 
ATOM     63  H   UNL A   1      41.794  29.956  28.701  1.00  0.00     0.167 HD
ATOM     64  C   UNL A   1      44.230  28.527  29.720  1.00  0.00     0.074 A 
ATOM     65  C   UNL A   1      43.086  28.564  30.631  1.00  0.00     0.031 C 
ATOM     66  C   UNL A   1      44.310  28.685  28.364  1.00  0.00     0.037 A 
BRANCH  53  67
ATOM     67  C   UNL A   1      38.859  29.106  28.495  1.00  0.00     0.057 A 
ATOM     68  C   UNL A   1      37.979  29.981  27.838  1.00  0.00     0.134 A 
ATOM     69  C   UNL A   1      38.935  29.274  29.894  1.00  0.00     0.134 A 
ATOM     70  F   UNL A   1      37.815  29.920  26.507  1.00  0.00    -0.206 F 
ATOM     71  C   UNL A   1      37.295  31.001  28.507  1.00  0.00     0.040 A 
ATOM     72  C   UNL A   1      38.216  30.256  30.580  1.00  0.00     0.040 A 
ATOM     73  F   UNL A   1      39.771  28.577  30.670  1.00  0.00    -0.206 F 
ATOM     74  C   UNL A   1      37.422  31.148  29.883  1.00  0.00     0.006 A 
ENDBRANCH  53  67
BRANCH  54  75
ATOM     75  C   UNL A   1      45.230  25.733  33.423  1.00  0.00     0.057 A 
ATOM     76  C   UNL A   1      44.201  25.477  34.336  1.00  0.00     0.134 A 
ATOM     77  C   UNL A   1      46.535  25.452  33.868  1.00  0.00     0.134 A 
ATOM     78  F   UNL A   1      42.920  25.670  33.986  1.00  0.00    -0.206 F 
ATOM     79  C   UNL A   1      44.450  24.959  35.615  1.00  0.00     0.040 A 
ATOM     80  C   UNL A   1      46.799  24.937  35.141  1.00  0.00     0.040 A 
ATOM     81  F   UNL A   1      47.588  25.586  33.048  1.00  0.00    -0.206 F 
ATOM     82  C   UNL A   1      45.753  24.677  36.018  1.00  0.00     0.006 A 
ENDBRANCH  54  75
BRANCH  66  83
ATOM     83  C   UNL A   1      45.614  28.345  27.689  1.00  0.00     0.057 A 
ATOM     84  C   UNL A   1      45.902  27.097  27.113  1.00  0.00     0.134 A 
ATOM     85  C   UNL A   1      46.530  29.373  27.442  1.00  0.00     0.134 A 
ATOM     86  F   UNL A   1      45.044  26.076  27.211  1.00  0.00    -0.206 F 
ATOM     87  C   UNL A   1      47.056  26.877  26.352  1.00  0.00     0.040 A 
ATOM     88  C   UNL A   1      47.670  29.177  26.659  1.00  0.00     0.040 A 
ATOM     89  F   UNL A   1      46.295  30.609  27.910  1.00  0.00    -0.206 F 
ATOM     90  C   UNL A   1      47.940  27.924  26.115  1.00  0.00     0.006 A 
ENDBRANCH  66  83
ENDBRANCH  40  41
ENDBRANCH  33  35
ENDBRANCH  32  33
ENDBRANCH  31  32
ENDBRANCH  30  31
ENDBRANCH   1  30
TORSDOF 16
ENDMDL
MODEL 3
REMARK VINA RESULT:     -11.6      5.253      9.922
REMARK SMILES O=C1C[C@H](c2cn[nH]c2C(=O)OCCOCCOC(=O)c2ccc(-c3c4nc(c(-c5c(F)cccc5F)c5ccc([nH]5)c(-c5c(F)cccc5F)c5nc(c(-c6c(F)cccc6F)c6ccc3[nH]6)C=C5)C=C4)cc2)c2c(-c3cccs3)n[nH]c2N1
REMARK SMILES IDX 15 1 14 2 13 3 12 4 10 5 11 6 9 7 5 8 6 9 7 10 8 11 4 13
REMARK SMILES IDX 1 14 2 15 3 16 85 17 84 18 75 20 83 21 76 22 82 23 77 25
REMARK SMILES IDX 78 26 81 27 79 28 80 29 16 30 17 31 18 32 19 33 20 34 21 35
REMARK SMILES IDX 22 36 74 37 23 38 73 39 24 40 25 41 26 42 67 43 27 44 72 45
REMARK SMILES IDX 66 46 68 47 28 48 71 49 65 50 64 51 29 53 55 54 38 55 54 56
REMARK SMILES IDX 39 57 42 58 53 59 69 60 40 61 41 62 52 64 70 65 43 66 30 67
REMARK SMILES IDX 31 68 36 69 32 70 33 71 35 72 37 73 34 74 56 75 57 76 62 77
REMARK SMILES IDX 58 78 59 79 61 80 63 81 60 82 44 83 45 84 50 85 46 86 47 87
REMARK SMILES IDX 49 88 51 89 48 90
REMARK H PARENT 8 12 85 19 83 24 68 52 42 63
REMARK Flexibility Score: inf
ROOT
ATOM      1  O   UNL A   1      31.849  33.455  27.229  1.00  0.00    -0.374 OA
ENDROOT
BRANCH   1   2
ATOM      2  C   UNL A   1      31.338  32.199  26.770  1.00  0.00     0.202 C 
BRANCH   2   3
ATOM      3  C   UNL A   1      32.341  31.053  26.711  1.00  0.00     0.261 C 
BRANCH   3   4
ATOM      4  O   UNL A   1      31.886  30.006  25.828  1.00  0.00    -0.459 OA
BRANCH   4   5
ATOM      5  C   UNL A   1      32.436  28.787  26.046  1.00  0.00     0.356 C 
ATOM      6  O   UNL A   1      33.563  28.604  26.505  1.00  0.00    -0.244 OA
BRANCH   5   7
ATOM      7  C   UNL A   1      31.494  27.712  25.884  1.00  0.00     0.147 A 
ATOM      8  C   UNL A   1      30.779  27.082  24.860  1.00  0.00     0.013 A 
ATOM      9  C   UNL A   1      30.130  26.005  25.543  1.00  0.00     0.140 A 
ATOM     10  N   UNL A   1      30.347  25.993  26.852  1.00  0.00    -0.183 NA
ATOM     11  N   UNL A   1      31.192  27.006  27.026  1.00  0.00    -0.271 N 
ATOM     12  H   UNL A   1      31.573  27.234  27.904  1.00  0.00     0.190 HD
BRANCH   8  13
ATOM     13  C   UNL A   1      30.697  27.215  23.345  1.00  0.00     0.069 C 
ATOM     14  O   UNL A   1      29.370  30.601  22.587  1.00  0.00    -0.275 OA
ATOM     15  C   UNL A   1      30.119  29.627  22.528  1.00  0.00     0.226 C 
ATOM     16  C   UNL A   1      29.623  28.238  22.898  1.00  0.00     0.114 C 
ATOM     17  N   UNL A   1      31.385  29.752  22.006  1.00  0.00    -0.311 N 
ATOM     18  C   UNL A   1      32.243  28.697  22.068  1.00  0.00     0.132 A 
ATOM     19  H   UNL A   1      31.668  30.598  21.590  1.00  0.00     0.171 HD
ATOM     20  C   UNL A   1      31.970  27.486  22.636  1.00  0.00     0.031 A 
ATOM     21  N   UNL A   1      33.534  28.660  21.641  1.00  0.00    -0.262 N 
ATOM     22  C   UNL A   1      33.135  26.721  22.401  1.00  0.00     0.108 A 
ATOM     23  N   UNL A   1      34.119  27.467  21.871  1.00  0.00    -0.173 NA
ATOM     24  H   UNL A   1      33.991  29.420  21.213  1.00  0.00     0.192 HD
BRANCH  22  25
ATOM     25  C   UNL A   1      33.319  25.307  22.835  1.00  0.00     0.055 A 
ATOM     26  C   UNL A   1      33.060  24.220  22.032  1.00  0.00     0.022 A 
ATOM     27  S   UNL A   1      33.977  24.857  24.343  1.00  0.00    -0.142 S 
ATOM     28  C   UNL A   1      33.531  23.010  22.622  1.00  0.00     0.012 A 
ATOM     29  C   UNL A   1      33.999  23.207  23.902  1.00  0.00     0.065 A 
ENDBRANCH  22  25
ENDBRANCH   8  13
ENDBRANCH   5   7
ENDBRANCH   4   5
ENDBRANCH   3   4
ENDBRANCH   2   3
ENDBRANCH   1   2
BRANCH   1  30
ATOM     30  C   UNL A   1      33.050  33.471  27.994  1.00  0.00     0.202 C 
BRANCH  30  31
ATOM     31  C   UNL A   1      33.292  34.704  28.840  1.00  0.00     0.261 C 
BRANCH  31  32
ATOM     32  O   UNL A   1      32.876  34.492  30.172  1.00  0.00    -0.460 OA
BRANCH  32  33
ATOM     33  C   UNL A   1      33.389  35.333  31.089  1.00  0.00     0.338 C 
ATOM     34  O   UNL A   1      33.147  36.528  31.252  1.00  0.00    -0.246 OA
BRANCH  33  35
ATOM     35  C   UNL A   1      34.442  34.593  31.774  1.00  0.00     0.060 A 
ATOM     36  C   UNL A   1      35.475  35.280  32.411  1.00  0.00     0.016 A 
ATOM     37  C   UNL A   1      34.513  33.215  31.526  1.00  0.00     0.016 A 
ATOM     38  C   UNL A   1      36.673  34.618  32.580  1.00  0.00     0.010 A 
ATOM     39  C   UNL A   1      35.657  32.537  31.790  1.00  0.00     0.010 A 
ATOM     40  C   UNL A   1      36.756  33.290  32.146  1.00  0.00    -0.014 A 
BRANCH  40  41
ATOM     41  C   UNL A   1      38.023  32.638  31.948  1.00  0.00     0.031 A 
ATOM     42  C   UNL A   1      38.811  32.545  33.184  1.00  0.00     0.074 A 
ATOM     43  C   UNL A   1      38.289  31.997  30.792  1.00  0.00     0.049 A 
ATOM     44  N   UNL A   1      39.822  33.271  33.515  1.00  0.00    -0.248 NA
ATOM     45  C   UNL A   1      38.264  31.732  34.282  1.00  0.00     0.031 C 
ATOM     46  C   UNL A   1      37.407  31.740  29.643  1.00  0.00     0.029 A 
ATOM     47  N   UNL A   1      39.423  31.342  30.448  1.00  0.00    -0.354 N 
ATOM     48  C   UNL A   1      40.199  32.810  34.768  1.00  0.00     0.074 A 
ATOM     49  C   UNL A   1      39.068  32.089  35.284  1.00  0.00     0.031 C 
ATOM     50  C   UNL A   1      37.967  30.805  28.842  1.00  0.00     0.029 A 
ATOM     51  C   UNL A   1      39.303  30.524  29.329  1.00  0.00     0.049 A 
ATOM     52  H   UNL A   1      40.265  31.437  30.949  1.00  0.00     0.167 HD
ATOM     53  C   UNL A   1      41.508  32.804  35.134  1.00  0.00     0.037 A 
ATOM     54  C   UNL A   1      40.249  29.647  28.909  1.00  0.00     0.037 A 
ATOM     55  C   UNL A   1      42.295  33.607  34.225  1.00  0.00     0.049 A 
ATOM     56  C   UNL A   1      41.529  30.056  29.557  1.00  0.00     0.074 A 
ATOM     57  C   UNL A   1      42.286  34.940  33.862  1.00  0.00     0.029 A 
ATOM     58  N   UNL A   1      42.973  32.948  33.225  1.00  0.00    -0.354 N 
ATOM     59  N   UNL A   1      42.142  31.181  29.290  1.00  0.00    -0.248 NA
ATOM     60  C   UNL A   1      41.830  29.481  30.861  1.00  0.00     0.031 C 
ATOM     61  C   UNL A   1      42.534  34.943  32.457  1.00  0.00     0.029 A 
ATOM     62  C   UNL A   1      42.763  33.627  32.051  1.00  0.00     0.049 A 
ATOM     63  H   UNL A   1      43.515  32.133  33.333  1.00  0.00     0.167 HD
ATOM     64  C   UNL A   1      42.571  31.660  30.521  1.00  0.00     0.074 A 
ATOM     65  C   UNL A   1      42.403  30.539  31.446  1.00  0.00     0.031 C 
ATOM     66  C   UNL A   1      42.729  33.000  30.746  1.00  0.00     0.037 A 
BRANCH  53  67
ATOM     67  C   UNL A   1      42.132  31.775  36.041  1.00  0.00     0.057 A 
ATOM     68  C   UNL A   1      42.886  32.220  37.140  1.00  0.00     0.134 A 
ATOM     69  C   UNL A   1      42.262  30.401  35.747  1.00  0.00     0.134 A 
ATOM     70  F   UNL A   1      42.847  33.505  37.525  1.00  0.00    -0.206 F 
ATOM     71  C   UNL A   1      43.766  31.384  37.835  1.00  0.00     0.040 A 
ATOM     72  C   UNL A   1      43.098  29.546  36.467  1.00  0.00     0.040 A 
ATOM     73  F   UNL A   1      41.673  29.821  34.696  1.00  0.00    -0.206 F 
ATOM     74  C   UNL A   1      43.883  30.044  37.492  1.00  0.00     0.006 A 
ENDBRANCH  53  67
BRANCH  54  75
ATOM     75  C   UNL A   1      40.045  28.313  28.302  1.00  0.00     0.057 A 
ATOM     76  C   UNL A   1      40.596  27.982  27.059  1.00  0.00     0.134 A 
ATOM     77  C   UNL A   1      39.527  27.242  29.053  1.00  0.00     0.134 A 
ATOM     78  F   UNL A   1      41.155  28.929  26.291  1.00  0.00    -0.206 F 
ATOM     79  C   UNL A   1      40.642  26.661  26.591  1.00  0.00     0.040 A 
ATOM     80  C   UNL A   1      39.565  25.919  28.600  1.00  0.00     0.040 A 
ATOM     81  F   UNL A   1      39.047  27.434  30.291  1.00  0.00    -0.206 F 
ATOM     82  C   UNL A   1      40.134  25.622  27.367  1.00  0.00     0.006 A 
ENDBRANCH  54  75
BRANCH  66  83
ATOM     83  C   UNL A   1      42.632  33.931  29.564  1.00  0.00     0.057 A 
ATOM     84  C   UNL A   1      41.483  34.669  29.235  1.00  0.00     0.134 A 
ATOM     85  C   UNL A   1      43.796  34.238  28.853  1.00  0.00     0.134 A 
ATOM     86  F   UNL A   1      40.345  34.518  29.920  1.00  0.00    -0.206 F 
ATOM     87  C   UNL A   1      41.488  35.645  28.231  1.00  0.00     0.040 A 
ATOM     88  C   UNL A   1      43.825  35.230  27.870  1.00  0.00     0.040 A 
ATOM     89  F   UNL A   1      44.948  33.616  29.150  1.00  0.00    -0.206 F 
ATOM     90  C   UNL A   1      42.666  35.934  27.552  1.00  0.00     0.006 A 
ENDBRANCH  66  83
ENDBRANCH  40  41
ENDBRANCH  33  35
ENDBRANCH  32  33
ENDBRANCH  31  32
ENDBRANCH  30  31
ENDBRANCH   1  30
TORSDOF 16
ENDMDL
