MODEL 1
REMARK VINA RESULT:      -9.1      0.000      0.000
REMARK SMILES Cc1ncccc1C(=O)N1CC[C@H](C(=O)OCCOCCOC(=O)c2ccc(-c3c4nc(c(-c5c(F)cccc5F)c5ccc([nH]5)c(-c5c(F)cccc5F)c5nc(c(-c6c(F)cccc6F)c6ccc3[nH]6)C=C5)C=C4)cc2)C1
REMARK SMILES IDX 19 1 18 2 17 3 16 4 14 5 15 6 13 7 10 8 11 9 79 10 12 11
REMARK SMILES IDX 8 12 9 13 7 14 1 15 2 16 3 17 4 18 6 19 5 20 20 21 21 22
REMARK SMILES IDX 22 23 23 24 24 25 25 26 26 27 78 28 27 29 77 30 28 31 29 32
REMARK SMILES IDX 30 33 71 34 31 35 76 36 70 37 72 38 32 39 75 40 69 41 68 42
REMARK SMILES IDX 33 44 59 45 42 46 58 47 43 48 46 49 57 50 73 51 44 52 45 53
REMARK SMILES IDX 56 55 74 56 47 57 34 58 35 59 40 60 36 61 37 62 39 63 41 64
REMARK SMILES IDX 38 65 60 66 61 67 66 68 62 69 63 70 65 71 67 72 64 73 48 74
REMARK SMILES IDX 49 75 54 76 50 77 51 78 53 79 55 80 52 81
REMARK H PARENT 72 43 46 54
REMARK Flexibility Score: inf
ROOT
ATOM      1  O   UNL A   1      32.668  35.043  29.703  1.00  0.00    -0.374 OA
ENDROOT
BRANCH   1   2
ATOM      2  C   UNL A   1      32.936  36.077  30.648  1.00  0.00     0.202 C 
BRANCH   2   3
ATOM      3  C   UNL A   1      32.727  35.726  32.125  1.00  0.00     0.261 C 
BRANCH   3   4
ATOM      4  O   UNL A   1      33.928  35.219  32.736  1.00  0.00    -0.463 OA
BRANCH   4   5
ATOM      5  C   UNL A   1      34.080  33.868  32.711  1.00  0.00     0.310 C 
ATOM      6  O   UNL A   1      33.338  33.066  33.265  1.00  0.00    -0.252 OA
BRANCH   5   7
ATOM      7  C   UNL A   1      35.320  33.429  31.964  1.00  0.00     0.120 C 
ATOM      8  N   UNL A   1      37.200  32.338  32.888  1.00  0.00    -0.338 N 
ATOM      9  C   UNL A   1      37.725  33.415  32.076  1.00  0.00     0.121 C 
ATOM     10  C   UNL A   1      35.803  32.113  32.561  1.00  0.00     0.135 C 
ATOM     11  C   UNL A   1      36.541  34.368  31.998  1.00  0.00     0.039 C 
BRANCH   8  12
ATOM     12  C   UNL A   1      37.801  31.528  33.827  1.00  0.00     0.255 C 
ATOM     13  O   UNL A   1      37.414  31.530  34.998  1.00  0.00    -0.269 OA
BRANCH  12  14
ATOM     14  C   UNL A   1      38.962  30.662  33.512  1.00  0.00     0.061 A 
ATOM     15  C   UNL A   1      40.748  32.110  34.656  1.00  0.00     0.067 C 
ATOM     16  C   UNL A   1      40.277  30.882  33.941  1.00  0.00     0.050 A 
ATOM     17  N   UNL A   1      41.256  29.943  33.783  1.00  0.00    -0.261 NA
ATOM     18  C   UNL A   1      40.914  28.738  33.280  1.00  0.00     0.111 A 
ATOM     19  C   UNL A   1      38.656  29.400  32.976  1.00  0.00     0.017 A 
ATOM     20  C   UNL A   1      39.636  28.419  32.869  1.00  0.00     0.021 A 
ENDBRANCH  12  14
ENDBRANCH   8  12
ENDBRANCH   5   7
ENDBRANCH   4   5
ENDBRANCH   3   4
ENDBRANCH   2   3
ENDBRANCH   1   2
BRANCH   1  21
ATOM     21  C   UNL A   1      33.767  34.557  28.934  1.00  0.00     0.202 C 
BRANCH  21  22
ATOM     22  C   UNL A   1      33.626  33.149  28.340  1.00  0.00     0.261 C 
BRANCH  22  23
ATOM     23  O   UNL A   1      34.590  32.222  28.872  1.00  0.00    -0.460 OA
BRANCH  23  24
ATOM     24  C   UNL A   1      34.580  31.000  28.288  1.00  0.00     0.338 C 
ATOM     25  O   UNL A   1      33.677  30.499  27.630  1.00  0.00    -0.246 OA
BRANCH  24  26
ATOM     26  C   UNL A   1      35.907  30.369  28.400  1.00  0.00     0.060 A 
ATOM     27  C   UNL A   1      36.269  29.836  29.644  1.00  0.00     0.016 A 
ATOM     28  C   UNL A   1      36.810  30.360  27.334  1.00  0.00     0.016 A 
ATOM     29  C   UNL A   1      37.548  29.317  29.836  1.00  0.00     0.010 A 
ATOM     30  C   UNL A   1      38.097  29.849  27.533  1.00  0.00     0.010 A 
ATOM     31  C   UNL A   1      38.480  29.346  28.790  1.00  0.00    -0.014 A 
BRANCH  31  32
ATOM     32  C   UNL A   1      39.880  28.924  29.037  1.00  0.00     0.031 A 
ATOM     33  C   UNL A   1      40.844  29.884  29.676  1.00  0.00     0.074 A 
ATOM     34  C   UNL A   1      40.285  27.686  28.701  1.00  0.00     0.049 A 
ATOM     35  N   UNL A   1      42.119  29.731  29.932  1.00  0.00    -0.248 NA
ATOM     36  C   UNL A   1      40.300  31.190  30.080  1.00  0.00     0.031 C 
ATOM     37  C   UNL A   1      39.437  26.655  28.107  1.00  0.00     0.029 A 
ATOM     38  N   UNL A   1      41.519  27.095  28.802  1.00  0.00    -0.354 N 
ATOM     39  C   UNL A   1      42.530  30.919  30.522  1.00  0.00     0.074 A 
ATOM     40  C   UNL A   1      41.376  31.792  30.564  1.00  0.00     0.031 C 
ATOM     41  C   UNL A   1      40.182  25.560  27.878  1.00  0.00     0.029 A 
ATOM     42  C   UNL A   1      41.562  25.826  28.279  1.00  0.00     0.049 A 
ATOM     43  H   UNL A   1      42.298  27.537  29.211  1.00  0.00     0.167 HD
ATOM     44  C   UNL A   1      43.758  31.249  30.990  1.00  0.00     0.037 A 
ATOM     45  C   UNL A   1      42.603  24.987  28.114  1.00  0.00     0.037 A 
ATOM     46  C   UNL A   1      44.906  30.380  30.946  1.00  0.00     0.049 A 
ATOM     47  C   UNL A   1      43.973  25.408  28.569  1.00  0.00     0.074 A 
ATOM     48  C   UNL A   1      46.182  30.611  31.430  1.00  0.00     0.029 A 
ATOM     49  N   UNL A   1      44.919  29.119  30.371  1.00  0.00    -0.354 N 
ATOM     50  N   UNL A   1      44.345  26.518  29.158  1.00  0.00    -0.248 NA
ATOM     51  C   UNL A   1      45.071  24.459  28.331  1.00  0.00     0.031 C 
ATOM     52  C   UNL A   1      46.981  29.511  31.102  1.00  0.00     0.029 A 
ATOM     53  C   UNL A   1      46.191  28.574  30.456  1.00  0.00     0.049 A 
ATOM     54  H   UNL A   1      44.141  28.675  29.963  1.00  0.00     0.167 HD
ATOM     55  C   UNL A   1      45.712  26.396  29.375  1.00  0.00     0.074 A 
ATOM     56  C   UNL A   1      46.101  25.095  28.871  1.00  0.00     0.031 C 
ATOM     57  C   UNL A   1      46.567  27.282  29.942  1.00  0.00     0.037 A 
BRANCH  44  58
ATOM     58  C   UNL A   1      43.932  32.621  31.570  1.00  0.00     0.057 A 
ATOM     59  C   UNL A   1      43.970  32.841  32.952  1.00  0.00     0.134 A 
ATOM     60  C   UNL A   1      44.105  33.731  30.733  1.00  0.00     0.134 A 
ATOM     61  F   UNL A   1      43.799  31.823  33.809  1.00  0.00    -0.206 F 
ATOM     62  C   UNL A   1      44.154  34.121  33.482  1.00  0.00     0.040 A 
ATOM     63  C   UNL A   1      44.314  35.010  31.250  1.00  0.00     0.040 A 
ATOM     64  F   UNL A   1      44.086  33.587  29.399  1.00  0.00    -0.206 F 
ATOM     65  C   UNL A   1      44.334  35.208  32.629  1.00  0.00     0.006 A 
ENDBRANCH  44  58
BRANCH  45  66
ATOM     66  C   UNL A   1      42.393  23.672  27.460  1.00  0.00     0.057 A 
ATOM     67  C   UNL A   1      42.130  22.520  28.209  1.00  0.00     0.134 A 
ATOM     68  C   UNL A   1      42.465  23.534  26.068  1.00  0.00     0.134 A 
ATOM     69  F   UNL A   1      42.075  22.585  29.548  1.00  0.00    -0.206 F 
ATOM     70  C   UNL A   1      41.955  21.277  27.601  1.00  0.00     0.040 A 
ATOM     71  C   UNL A   1      42.268  22.302  25.443  1.00  0.00     0.040 A 
ATOM     72  F   UNL A   1      42.719  24.600  25.294  1.00  0.00    -0.206 F 
ATOM     73  C   UNL A   1      42.018  21.166  26.212  1.00  0.00     0.006 A 
ENDBRANCH  45  66
BRANCH  57  74
ATOM     74  C   UNL A   1      48.006  26.871  30.057  1.00  0.00     0.057 A 
ATOM     75  C   UNL A   1      48.949  27.209  29.078  1.00  0.00     0.134 A 
ATOM     76  C   UNL A   1      48.462  26.165  31.178  1.00  0.00     0.134 A 
ATOM     77  F   UNL A   1      48.574  27.872  27.974  1.00  0.00    -0.206 F 
ATOM     78  C   UNL A   1      50.290  26.844  29.202  1.00  0.00     0.040 A 
ATOM     79  C   UNL A   1      49.805  25.817  31.324  1.00  0.00     0.040 A 
ATOM     80  F   UNL A   1      47.612  25.818  32.157  1.00  0.00    -0.206 F 
ATOM     81  C   UNL A   1      50.723  26.152  30.331  1.00  0.00     0.006 A 
ENDBRANCH  57  74
ENDBRANCH  31  32
ENDBRANCH  24  26
ENDBRANCH  23  24
ENDBRANCH  22  23
ENDBRANCH  21  22
ENDBRANCH   1  21
TORSDOF 16
ENDMDL
MODEL 2
REMARK VINA RESULT:      -9.0      5.550     10.997
REMARK SMILES Cc1ncccc1C(=O)N1CC[C@H](C(=O)OCCOCCOC(=O)c2ccc(-c3c4nc(c(-c5c(F)cccc5F)c5ccc([nH]5)c(-c5c(F)cccc5F)c5nc(c(-c6c(F)cccc6F)c6ccc3[nH]6)C=C5)C=C4)cc2)C1
REMARK SMILES IDX 19 1 18 2 17 3 16 4 14 5 15 6 13 7 10 8 11 9 79 10 12 11
REMARK SMILES IDX 8 12 9 13 7 14 1 15 2 16 3 17 4 18 6 19 5 20 20 21 21 22
REMARK SMILES IDX 22 23 23 24 24 25 25 26 26 27 78 28 27 29 77 30 28 31 29 32
REMARK SMILES IDX 30 33 71 34 31 35 76 36 70 37 72 38 32 39 75 40 69 41 68 42
REMARK SMILES IDX 33 44 59 45 42 46 58 47 43 48 46 49 57 50 73 51 44 52 45 53
REMARK SMILES IDX 56 55 74 56 47 57 34 58 35 59 40 60 36 61 37 62 39 63 41 64
REMARK SMILES IDX 38 65 60 66 61 67 66 68 62 69 63 70 65 71 67 72 64 73 48 74
REMARK SMILES IDX 49 75 54 76 50 77 51 78 53 79 55 80 52 81
REMARK H PARENT 72 43 46 54
REMARK Flexibility Score: inf
ROOT
ATOM      1  O   UNL A   1      41.638  20.526  26.175  1.00  0.00    -0.374 OA
ENDROOT
BRANCH   1   2
ATOM      2  C   UNL A   1      40.220  20.630  26.276  1.00  0.00     0.202 C 
BRANCH   2   3
ATOM      3  C   UNL A   1      39.654  22.016  26.602  1.00  0.00     0.261 C 
BRANCH   3   4
ATOM      4  O   UNL A   1      38.423  22.276  25.904  1.00  0.00    -0.463 OA
BRANCH   4   5
ATOM      5  C   UNL A   1      37.947  23.547  25.997  1.00  0.00     0.310 C 
ATOM      6  O   UNL A   1      38.476  24.451  26.632  1.00  0.00    -0.252 OA
BRANCH   5   7
ATOM      7  C   UNL A   1      36.633  23.739  25.272  1.00  0.00     0.120 C 
ATOM      8  N   UNL A   1      34.858  22.185  25.159  1.00  0.00    -0.338 N 
ATOM      9  C   UNL A   1      35.074  22.641  23.802  1.00  0.00     0.121 C 
ATOM     10  C   UNL A   1      35.530  23.075  26.089  1.00  0.00     0.135 C 
ATOM     11  C   UNL A   1      36.509  23.145  23.856  1.00  0.00     0.039 C 
BRANCH   8  12
ATOM     12  C   UNL A   1      34.123  21.133  25.660  1.00  0.00     0.255 C 
ATOM     13  O   UNL A   1      33.595  21.210  26.772  1.00  0.00    -0.269 OA
BRANCH  12  14
ATOM     14  C   UNL A   1      33.969  19.847  24.939  1.00  0.00     0.061 A 
ATOM     15  C   UNL A   1      36.460  19.227  24.873  1.00  0.00     0.067 C 
ATOM     16  C   UNL A   1      35.006  18.953  24.645  1.00  0.00     0.050 A 
ATOM     17  N   UNL A   1      34.765  17.701  24.156  1.00  0.00    -0.261 NA
ATOM     18  C   UNL A   1      33.484  17.292  24.044  1.00  0.00     0.111 A 
ATOM     19  C   UNL A   1      32.650  19.385  24.789  1.00  0.00     0.017 A 
ATOM     20  C   UNL A   1      32.400  18.089  24.350  1.00  0.00     0.021 A 
ENDBRANCH  12  14
ENDBRANCH   8  12
ENDBRANCH   5   7
ENDBRANCH   4   5
ENDBRANCH   3   4
ENDBRANCH   2   3
ENDBRANCH   1   2
BRANCH   1  21
ATOM     21  C   UNL A   1      42.248  19.340  26.679  1.00  0.00     0.202 C 
BRANCH  21  22
ATOM     22  C   UNL A   1      43.171  18.575  25.722  1.00  0.00     0.261 C 
BRANCH  22  23
ATOM     23  O   UNL A   1      43.429  19.296  24.503  1.00  0.00    -0.460 OA
BRANCH  23  24
ATOM     24  C   UNL A   1      44.736  19.563  24.269  1.00  0.00     0.338 C 
ATOM     25  O   UNL A   1      45.562  18.824  23.748  1.00  0.00    -0.246 OA
BRANCH  24  26
ATOM     26  C   UNL A   1      45.035  20.971  24.580  1.00  0.00     0.060 A 
ATOM     27  C   UNL A   1      45.648  21.248  25.809  1.00  0.00     0.016 A 
ATOM     28  C   UNL A   1      44.661  22.009  23.724  1.00  0.00     0.016 A 
ATOM     29  C   UNL A   1      45.864  22.568  26.200  1.00  0.00     0.010 A 
ATOM     30  C   UNL A   1      44.869  23.334  24.123  1.00  0.00     0.010 A 
ATOM     31  C   UNL A   1      45.450  23.621  25.372  1.00  0.00    -0.014 A 
BRANCH  31  32
ATOM     32  C   UNL A   1      45.551  25.021  25.852  1.00  0.00     0.031 A 
ATOM     33  C   UNL A   1      46.881  25.719  25.835  1.00  0.00     0.074 A 
ATOM     34  C   UNL A   1      44.456  25.667  26.290  1.00  0.00     0.049 A 
ATOM     35  N   UNL A   1      47.193  26.919  26.255  1.00  0.00    -0.248 NA
ATOM     36  C   UNL A   1      48.011  24.965  25.270  1.00  0.00     0.031 C 
ATOM     37  C   UNL A   1      43.106  25.110  26.325  1.00  0.00     0.029 A 
ATOM     38  N   UNL A   1      44.315  26.932  26.804  1.00  0.00    -0.354 N 
ATOM     39  C   UNL A   1      48.552  27.064  26.010  1.00  0.00     0.074 A 
ATOM     40  C   UNL A   1      49.011  25.820  25.427  1.00  0.00     0.031 C 
ATOM     41  C   UNL A   1      42.272  26.025  26.851  1.00  0.00     0.029 A 
ATOM     42  C   UNL A   1      43.037  27.214  27.218  1.00  0.00     0.049 A 
ATOM     43  H   UNL A   1      45.058  27.576  26.868  1.00  0.00     0.167 HD
ATOM     44  C   UNL A   1      49.344  28.138  26.246  1.00  0.00     0.037 A 
ATOM     45  C   UNL A   1      42.546  28.297  27.851  1.00  0.00     0.037 A 
ATOM     46  C   UNL A   1      48.887  29.373  26.827  1.00  0.00     0.049 A 
ATOM     47  C   UNL A   1      43.462  29.445  28.175  1.00  0.00     0.074 A 
ATOM     48  C   UNL A   1      49.606  30.530  27.070  1.00  0.00     0.029 A 
ATOM     49  N   UNL A   1      47.595  29.605  27.272  1.00  0.00    -0.354 N 
ATOM     50  N   UNL A   1      44.738  29.587  27.907  1.00  0.00    -0.248 NA
ATOM     51  C   UNL A   1      42.871  30.584  28.894  1.00  0.00     0.031 C 
ATOM     52  C   UNL A   1      48.762  31.445  27.708  1.00  0.00     0.029 A 
ATOM     53  C   UNL A   1      47.504  30.875  27.821  1.00  0.00     0.049 A 
ATOM     54  H   UNL A   1      46.851  28.964  27.208  1.00  0.00     0.167 HD
ATOM     55  C   UNL A   1      45.097  30.832  28.409  1.00  0.00     0.074 A 
ATOM     56  C   UNL A   1      43.901  31.413  28.981  1.00  0.00     0.031 C 
ATOM     57  C   UNL A   1      46.310  31.438  28.396  1.00  0.00     0.037 A 
BRANCH  44  58
ATOM     58  C   UNL A   1      50.798  28.016  25.897  1.00  0.00     0.057 A 
ATOM     59  C   UNL A   1      51.261  28.183  24.586  1.00  0.00     0.134 A 
ATOM     60  C   UNL A   1      51.751  27.768  26.894  1.00  0.00     0.134 A 
ATOM     61  F   UNL A   1      50.400  28.411  23.583  1.00  0.00    -0.206 F 
ATOM     62  C   UNL A   1      52.620  28.089  24.276  1.00  0.00     0.040 A 
ATOM     63  C   UNL A   1      53.113  27.696  26.600  1.00  0.00     0.040 A 
ATOM     64  F   UNL A   1      51.373  27.604  28.171  1.00  0.00    -0.206 F 
ATOM     65  C   UNL A   1      53.550  27.852  25.286  1.00  0.00     0.006 A 
ENDBRANCH  44  58
BRANCH  45  66
ATOM     66  C   UNL A   1      41.117  28.335  28.248  1.00  0.00     0.057 A 
ATOM     67  C   UNL A   1      40.134  28.828  27.383  1.00  0.00     0.134 A 
ATOM     68  C   UNL A   1      40.702  27.890  29.510  1.00  0.00     0.134 A 
ATOM     69  F   UNL A   1      40.474  29.293  26.171  1.00  0.00    -0.206 F 
ATOM     70  C   UNL A   1      38.792  28.887  27.760  1.00  0.00     0.040 A 
ATOM     71  C   UNL A   1      39.360  27.920  29.892  1.00  0.00     0.040 A 
ATOM     72  F   UNL A   1      41.597  27.410  30.386  1.00  0.00    -0.206 F 
ATOM     73  C   UNL A   1      38.401  28.426  29.016  1.00  0.00     0.006 A 
ENDBRANCH  45  66
BRANCH  57  74
ATOM     74  C   UNL A   1      46.401  32.805  29.009  1.00  0.00     0.057 A 
ATOM     75  C   UNL A   1      46.142  33.964  28.266  1.00  0.00     0.134 A 
ATOM     76  C   UNL A   1      46.711  32.963  30.366  1.00  0.00     0.134 A 
ATOM     77  F   UNL A   1      45.853  33.882  26.959  1.00  0.00    -0.206 F 
ATOM     78  C   UNL A   1      46.206  35.231  28.847  1.00  0.00     0.040 A 
ATOM     79  C   UNL A   1      46.753  34.223  30.963  1.00  0.00     0.040 A 
ATOM     80  F   UNL A   1      46.963  31.892  31.136  1.00  0.00    -0.206 F 
ATOM     81  C   UNL A   1      46.505  35.362  30.201  1.00  0.00     0.006 A 
ENDBRANCH  57  74
ENDBRANCH  31  32
ENDBRANCH  24  26
ENDBRANCH  23  24
ENDBRANCH  22  23
ENDBRANCH  21  22
ENDBRANCH   1  21
TORSDOF 16
ENDMDL
MODEL 3
REMARK VINA RESULT:      -8.9      4.394      9.791
REMARK SMILES Cc1ncccc1C(=O)N1CC[C@H](C(=O)OCCOCCOC(=O)c2ccc(-c3c4nc(c(-c5c(F)cccc5F)c5ccc([nH]5)c(-c5c(F)cccc5F)c5nc(c(-c6c(F)cccc6F)c6ccc3[nH]6)C=C5)C=C4)cc2)C1
REMARK SMILES IDX 19 1 18 2 17 3 16 4 14 5 15 6 13 7 10 8 11 9 79 10 12 11
REMARK SMILES IDX 8 12 9 13 7 14 1 15 2 16 3 17 4 18 6 19 5 20 20 21 21 22
REMARK SMILES IDX 22 23 23 24 24 25 25 26 26 27 78 28 27 29 77 30 28 31 29 32
REMARK SMILES IDX 30 33 71 34 31 35 76 36 70 37 72 38 32 39 75 40 69 41 68 42
REMARK SMILES IDX 33 44 59 45 42 46 58 47 43 48 46 49 57 50 73 51 44 52 45 53
REMARK SMILES IDX 56 55 74 56 47 57 34 58 35 59 40 60 36 61 37 62 39 63 41 64
REMARK SMILES IDX 38 65 60 66 61 67 66 68 62 69 63 70 65 71 67 72 64 73 48 74
REMARK SMILES IDX 49 75 54 76 50 77 51 78 53 79 55 80 52 81
REMARK H PARENT 72 43 46 54
REMARK Flexibility Score: inf
ROOT
ATOM      1  O   UNL A   1      38.834  22.099  25.921  1.00  0.00    -0.374 OA
ENDROOT
BRANCH   1   2
ATOM      2  C   UNL A   1      37.977  23.223  26.102  1.00  0.00     0.202 C 
BRANCH   2   3
ATOM      3  C   UNL A   1      36.498  23.022  25.752  1.00  0.00     0.261 C 
BRANCH   3   4
ATOM      4  O   UNL A   1      36.043  23.963  24.763  1.00  0.00    -0.463 OA
BRANCH   4   5
ATOM      5  C   UNL A   1      35.655  23.430  23.573  1.00  0.00     0.310 C 
ATOM      6  O   UNL A   1      36.409  22.924  22.751  1.00  0.00    -0.252 OA
BRANCH   5   7
ATOM      7  C   UNL A   1      34.171  23.574  23.319  1.00  0.00     0.120 C 
ATOM      8  N   UNL A   1      32.602  24.622  24.739  1.00  0.00    -0.338 N 
ATOM      9  C   UNL A   1      32.014  23.354  24.365  1.00  0.00     0.121 C 
ATOM     10  C   UNL A   1      33.717  24.925  23.859  1.00  0.00     0.135 C 
ATOM     11  C   UNL A   1      33.235  22.536  23.968  1.00  0.00     0.039 C 
BRANCH   8  12
ATOM     12  C   UNL A   1      32.255  25.537  25.709  1.00  0.00     0.255 C 
ATOM     13  O   UNL A   1      31.752  25.164  26.772  1.00  0.00    -0.269 OA
BRANCH  12  14
ATOM     14  C   UNL A   1      32.406  27.000  25.523  1.00  0.00     0.061 A 
ATOM     15  C   UNL A   1      30.323  27.344  24.061  1.00  0.00     0.067 C 
ATOM     16  C   UNL A   1      31.505  27.828  24.843  1.00  0.00     0.050 A 
ATOM     17  N   UNL A   1      31.604  29.190  24.880  1.00  0.00    -0.261 NA
ATOM     18  C   UNL A   1      32.547  29.742  25.672  1.00  0.00     0.111 A 
ATOM     19  C   UNL A   1      33.384  27.619  26.319  1.00  0.00     0.017 A 
ATOM     20  C   UNL A   1      33.451  29.005  26.408  1.00  0.00     0.021 A 
ENDBRANCH  12  14
ENDBRANCH   8  12
ENDBRANCH   5   7
ENDBRANCH   4   5
ENDBRANCH   3   4
ENDBRANCH   2   3
ENDBRANCH   1   2
BRANCH   1  21
ATOM     21  C   UNL A   1      38.280  20.945  25.292  1.00  0.00     0.202 C 
BRANCH  21  22
ATOM     22  C   UNL A   1      39.189  19.714  25.180  1.00  0.00     0.261 C 
BRANCH  22  23
ATOM     23  O   UNL A   1      40.011  19.522  26.345  1.00  0.00    -0.460 OA
BRANCH  23  24
ATOM     24  C   UNL A   1      41.343  19.612  26.118  1.00  0.00     0.338 C 
ATOM     25  O   UNL A   1      42.045  18.826  25.494  1.00  0.00    -0.246 OA
BRANCH  24  26
ATOM     26  C   UNL A   1      41.856  20.910  26.589  1.00  0.00     0.060 A 
ATOM     27  C   UNL A   1      41.737  21.197  27.956  1.00  0.00     0.016 A 
ATOM     28  C   UNL A   1      42.377  21.860  25.708  1.00  0.00     0.016 A 
ATOM     29  C   UNL A   1      42.112  22.448  28.442  1.00  0.00     0.010 A 
ATOM     30  C   UNL A   1      42.743  23.119  26.197  1.00  0.00     0.010 A 
ATOM     31  C   UNL A   1      42.592  23.427  27.562  1.00  0.00    -0.014 A 
BRANCH  31  32
ATOM     32  C   UNL A   1      42.856  24.799  28.057  1.00  0.00     0.031 A 
ATOM     33  C   UNL A   1      44.251  25.192  28.455  1.00  0.00     0.074 A 
ATOM     34  C   UNL A   1      41.855  25.694  28.141  1.00  0.00     0.049 A 
ATOM     35  N   UNL A   1      44.683  26.320  28.958  1.00  0.00    -0.248 NA
ATOM     36  C   UNL A   1      45.299  24.177  28.261  1.00  0.00     0.031 C 
ATOM     37  C   UNL A   1      40.468  25.445  27.755  1.00  0.00     0.029 A 
ATOM     38  N   UNL A   1      41.854  26.990  28.593  1.00  0.00    -0.354 N 
ATOM     39  C   UNL A   1      46.049  26.152  29.144  1.00  0.00     0.074 A 
ATOM     40  C   UNL A   1      46.370  24.804  28.723  1.00  0.00     0.031 C 
ATOM     41  C   UNL A   1      39.743  26.549  28.004  1.00  0.00     0.029 A 
ATOM     42  C   UNL A   1      40.609  27.567  28.596  1.00  0.00     0.049 A 
ATOM     43  H   UNL A   1      42.668  27.460  28.887  1.00  0.00     0.167 HD
ATOM     44  C   UNL A   1      46.953  27.043  29.619  1.00  0.00     0.037 A 
ATOM     45  C   UNL A   1      40.207  28.769  29.053  1.00  0.00     0.037 A 
ATOM     46  C   UNL A   1      46.632  28.382  30.038  1.00  0.00     0.049 A 
ATOM     47  C   UNL A   1      41.216  29.710  29.650  1.00  0.00     0.074 A 
ATOM     48  C   UNL A   1      47.486  29.370  30.497  1.00  0.00     0.029 A 
ATOM     49  N   UNL A   1      45.353  28.916  30.065  1.00  0.00    -0.354 N 
ATOM     50  N   UNL A   1      42.511  29.556  29.789  1.00  0.00    -0.248 NA
ATOM     51  C   UNL A   1      40.708  30.993  30.159  1.00  0.00     0.031 C 
ATOM     52  C   UNL A   1      46.717  30.484  30.850  1.00  0.00     0.029 A 
ATOM     53  C   UNL A   1      45.390  30.207  30.566  1.00  0.00     0.049 A 
ATOM     54  H   UNL A   1      44.539  28.447  29.771  1.00  0.00     0.167 HD
ATOM     55  C   UNL A   1      42.973  30.723  30.384  1.00  0.00     0.074 A 
ATOM     56  C   UNL A   1      41.823  31.584  30.564  1.00  0.00     0.031 C 
ATOM     57  C   UNL A   1      44.237  31.051  30.749  1.00  0.00     0.037 A 
BRANCH  44  58
ATOM     58  C   UNL A   1      48.378  26.588  29.734  1.00  0.00     0.057 A 
ATOM     59  C   UNL A   1      49.305  26.790  28.705  1.00  0.00     0.134 A 
ATOM     60  C   UNL A   1      48.837  25.976  30.907  1.00  0.00     0.134 A 
ATOM     61  F   UNL A   1      48.928  27.360  27.550  1.00  0.00    -0.206 F 
ATOM     62  C   UNL A   1      50.635  26.382  28.830  1.00  0.00     0.040 A 
ATOM     63  C   UNL A   1      50.168  25.585  31.054  1.00  0.00     0.040 A 
ATOM     64  F   UNL A   1      48.001  25.758  31.934  1.00  0.00    -0.206 F 
ATOM     65  C   UNL A   1      51.071  25.784  30.012  1.00  0.00     0.006 A 
ENDBRANCH  44  58
BRANCH  45  66
ATOM     66  C   UNL A   1      38.771  29.139  28.991  1.00  0.00     0.057 A 
ATOM     67  C   UNL A   1      38.189  29.600  27.805  1.00  0.00     0.134 A 
ATOM     68  C   UNL A   1      37.950  29.054  30.122  1.00  0.00     0.134 A 
ATOM     69  F   UNL A   1      38.932  29.728  26.695  1.00  0.00    -0.206 F 
ATOM     70  C   UNL A   1      36.846  29.971  27.747  1.00  0.00     0.040 A 
ATOM     71  C   UNL A   1      36.599  29.399  30.073  1.00  0.00     0.040 A 
ATOM     72  F   UNL A   1      38.450  28.624  31.291  1.00  0.00    -0.206 F 
ATOM     73  C   UNL A   1      36.044  29.865  28.883  1.00  0.00     0.006 A 
ENDBRANCH  45  66
BRANCH  57  74
ATOM     74  C   UNL A   1      44.445  32.402  31.369  1.00  0.00     0.057 A 
ATOM     75  C   UNL A   1      44.418  32.587  32.757  1.00  0.00     0.134 A 
ATOM     76  C   UNL A   1      44.715  33.522  30.571  1.00  0.00     0.134 A 
ATOM     77  F   UNL A   1      44.152  31.558  33.575  1.00  0.00    -0.206 F 
ATOM     78  C   UNL A   1      44.635  33.842  33.328  1.00  0.00     0.040 A 
ATOM     79  C   UNL A   1      44.957  34.776  31.133  1.00  0.00     0.040 A 
ATOM     80  F   UNL A   1      44.762  33.411  29.235  1.00  0.00    -0.206 F 
ATOM     81  C   UNL A   1      44.912  34.939  32.516  1.00  0.00     0.006 A 
ENDBRANCH  57  74
ENDBRANCH  31  32
ENDBRANCH  24  26
ENDBRANCH  23  24
ENDBRANCH  22  23
ENDBRANCH  21  22
ENDBRANCH   1  21
TORSDOF 16
ENDMDL
