MODEL 1
REMARK VINA RESULT:     -10.7      0.000      0.000
REMARK SMILES CCCCCCNC(=O)Oc1cccc(-c2ccc([C@@H](C)C(=O)OCCOCCOC(=O)c3ccc(-c4c5nc(c(-c6c(F)cccc6F)c6ccc([nH]6)c(-c6c(F)cccc6F)c6nc(c(-c7c(F)cccc7F)c7ccc4[nH]7)C=C6)C=C5)cc3)cc2C(F)(F)F)c1
REMARK SMILES IDX 22 1 23 2 20 3 21 4 19 5 16 6 17 7 88 8 18 9 87 10 15 11
REMARK SMILES IDX 11 12 12 13 93 14 13 15 14 16 10 17 8 18 7 19 9 21 6 22 5 23
REMARK SMILES IDX 4 24 3 25 2 26 1 27 89 28 90 29 91 30 92 31 24 32 25 33
REMARK SMILES IDX 26 34 27 35 28 36 29 37 30 38 31 39 32 40 33 41 34 42 86 43
REMARK SMILES IDX 35 44 85 45 36 46 37 47 38 48 79 49 39 50 84 51 78 52 80 53
REMARK SMILES IDX 40 54 83 55 77 56 76 57 41 59 67 60 50 61 66 62 51 63 54 64
REMARK SMILES IDX 65 65 81 66 52 67 53 68 64 70 82 71 55 72 42 73 43 74 48 75
REMARK SMILES IDX 44 76 45 77 47 78 49 79 46 80 68 81 69 82 74 83 70 84 71 85
REMARK SMILES IDX 73 86 75 87 72 88 56 89 57 90 62 91 58 92 59 93 61 94 63 95
REMARK SMILES IDX 60 96
REMARK H PARENT 7 20 80 58 54 69
REMARK Flexibility Score: inf
ROOT
ATOM      1  C   UNL A   1      42.042  20.318  26.706  1.00  0.00     0.313 C 
ATOM      2  O   UNL A   1      41.633  19.523  27.547  1.00  0.00    -0.252 OA
ENDROOT
BRANCH   1   3
ATOM      3  C   UNL A   1      41.713  21.800  26.786  1.00  0.00     0.126 C 
ATOM      4  C   UNL A   1      42.372  22.395  28.027  1.00  0.00     0.025 C 
BRANCH   3   5
ATOM      5  C   UNL A   1      40.253  22.228  26.658  1.00  0.00    -0.033 A 
ATOM      6  C   UNL A   1      37.548  23.027  26.160  1.00  0.00    -0.006 A 
ATOM      7  C   UNL A   1      38.445  23.840  26.884  1.00  0.00     0.009 A 
ATOM      8  C   UNL A   1      38.020  21.782  25.691  1.00  0.00     0.064 A 
ATOM      9  C   UNL A   1      39.773  23.454  27.121  1.00  0.00     0.005 A 
ATOM     10  C   UNL A   1      39.354  21.396  25.967  1.00  0.00     0.018 A 
BRANCH   6  11
ATOM     11  C   UNL A   1      36.195  23.540  25.861  1.00  0.00    -0.014 A 
ATOM     12  C   UNL A   1      33.814  23.684  26.314  1.00  0.00     0.133 A 
ATOM     13  C   UNL A   1      33.601  24.380  25.126  1.00  0.00     0.047 A 
ATOM     14  C   UNL A   1      35.096  23.273  26.693  1.00  0.00     0.056 A 
ATOM     15  C   UNL A   1      34.684  24.684  24.310  1.00  0.00     0.004 A 
ATOM     16  C   UNL A   1      35.968  24.263  24.673  1.00  0.00     0.009 A 
BRANCH  12  17
ATOM     17  O   UNL A   1      32.659  23.281  27.011  1.00  0.00    -0.410 OA
BRANCH  17  18
ATOM     18  C   UNL A   1      31.480  23.035  26.328  1.00  0.00     0.412 C 
ATOM     19  N   UNL A   1      31.446  21.806  25.732  1.00  0.00    -0.321 N 
ATOM     20  H   UNL A   1      30.632  21.586  25.224  1.00  0.00     0.167 HD
ATOM     21  O   UNL A   1      30.534  23.815  26.225  1.00  0.00    -0.224 OA
BRANCH  19  22
ATOM     22  C   UNL A   1      32.481  20.788  25.769  1.00  0.00     0.119 C 
BRANCH  22  23
ATOM     23  C   UNL A   1      32.463  19.899  24.525  1.00  0.00     0.021 C 
BRANCH  23  24
ATOM     24  C   UNL A   1      33.495  18.763  24.526  1.00  0.00     0.002 C 
BRANCH  24  25
ATOM     25  C   UNL A   1      33.475  17.849  23.296  1.00  0.00    -0.000 C 
BRANCH  25  26
ATOM     26  C   UNL A   1      33.823  16.382  23.560  1.00  0.00    -0.003 C 
ATOM     27  C   UNL A   1      33.308  15.870  24.897  1.00  0.00     0.004 C 
ENDBRANCH  25  26
ENDBRANCH  24  25
ENDBRANCH  23  24
ENDBRANCH  22  23
ENDBRANCH  19  22
ENDBRANCH  17  18
ENDBRANCH  12  17
ENDBRANCH   6  11
BRANCH   8  28
ATOM     28  C   UNL A   1      37.168  20.814  24.893  1.00  0.00     0.417 C 
ATOM     29  F   UNL A   1      37.870  19.710  24.497  1.00  0.00    -0.166 F 
ATOM     30  F   UNL A   1      36.125  20.333  25.626  1.00  0.00    -0.166 F 
ATOM     31  F   UNL A   1      36.633  21.313  23.747  1.00  0.00    -0.166 F 
ENDBRANCH   8  28
ENDBRANCH   3   5
ENDBRANCH   1   3
BRANCH   1  32
ATOM     32  O   UNL A   1      42.780  19.973  25.620  1.00  0.00    -0.463 OA
BRANCH  32  33
ATOM     33  C   UNL A   1      43.646  20.997  25.098  1.00  0.00     0.261 C 
BRANCH  33  34
ATOM     34  C   UNL A   1      44.995  20.415  24.670  1.00  0.00     0.202 C 
BRANCH  34  35
ATOM     35  O   UNL A   1      46.153  21.019  25.244  1.00  0.00    -0.374 OA
BRANCH  35  36
ATOM     36  C   UNL A   1      46.043  22.372  25.686  1.00  0.00     0.202 C 
BRANCH  36  37
ATOM     37  C   UNL A   1      46.124  23.461  24.609  1.00  0.00     0.261 C 
BRANCH  37  38
ATOM     38  O   UNL A   1      45.060  24.423  24.718  1.00  0.00    -0.460 OA
BRANCH  38  39
ATOM     39  C   UNL A   1      45.465  25.678  25.031  1.00  0.00     0.338 C 
ATOM     40  O   UNL A   1      46.393  26.300  24.544  1.00  0.00    -0.246 OA
BRANCH  39  41
ATOM     41  C   UNL A   1      44.496  26.312  25.945  1.00  0.00     0.060 A 
ATOM     42  C   UNL A   1      44.572  27.704  26.089  1.00  0.00     0.016 A 
ATOM     43  C   UNL A   1      43.597  25.569  26.713  1.00  0.00     0.016 A 
ATOM     44  C   UNL A   1      43.795  28.352  27.045  1.00  0.00     0.010 A 
ATOM     45  C   UNL A   1      42.819  26.222  27.677  1.00  0.00     0.010 A 
ATOM     46  C   UNL A   1      42.945  27.610  27.876  1.00  0.00    -0.014 A 
BRANCH  46  47
ATOM     47  C   UNL A   1      42.325  28.276  29.048  1.00  0.00     0.031 A 
ATOM     48  C   UNL A   1      43.049  28.260  30.367  1.00  0.00     0.074 A 
ATOM     49  C   UNL A   1      41.162  28.942  28.927  1.00  0.00     0.049 A 
ATOM     50  N   UNL A   1      42.702  28.792  31.511  1.00  0.00    -0.248 NA
ATOM     51  C   UNL A   1      44.338  27.551  30.398  1.00  0.00     0.031 C 
ATOM     52  C   UNL A   1      40.384  29.067  27.698  1.00  0.00     0.029 A 
ATOM     53  N   UNL A   1      40.437  29.642  29.859  1.00  0.00    -0.354 N 
ATOM     54  C   UNL A   1      43.726  28.480  32.398  1.00  0.00     0.074 A 
ATOM     55  C   UNL A   1      44.690  27.687  31.668  1.00  0.00     0.031 C 
ATOM     56  C   UNL A   1      39.283  29.798  27.951  1.00  0.00     0.029 A 
ATOM     57  C   UNL A   1      39.270  30.169  29.365  1.00  0.00     0.049 A 
ATOM     58  H   UNL A   1      40.727  29.756  30.794  1.00  0.00     0.167 HD
ATOM     59  C   UNL A   1      43.856  28.833  33.699  1.00  0.00     0.037 A 
ATOM     60  C   UNL A   1      38.295  30.861  29.987  1.00  0.00     0.037 A 
ATOM     61  C   UNL A   1      42.901  29.627  34.426  1.00  0.00     0.049 A 
ATOM     62  C   UNL A   1      38.434  31.187  31.450  1.00  0.00     0.074 A 
ATOM     63  C   UNL A   1      42.957  30.053  35.742  1.00  0.00     0.029 A 
ATOM     64  N   UNL A   1      41.715  30.110  33.899  1.00  0.00    -0.354 N 
ATOM     65  N   UNL A   1      39.418  30.909  32.271  1.00  0.00    -0.248 NA
ATOM     66  C   UNL A   1      37.327  31.929  32.072  1.00  0.00     0.031 C 
ATOM     67  C   UNL A   1      41.781  30.754  36.025  1.00  0.00     0.029 A 
ATOM     68  C   UNL A   1      41.016  30.809  34.871  1.00  0.00     0.049 A 
ATOM     69  H   UNL A   1      41.411  29.978  32.971  1.00  0.00     0.167 HD
ATOM     70  C   UNL A   1      39.063  31.464  33.494  1.00  0.00     0.074 A 
ATOM     71  C   UNL A   1      37.778  32.105  33.306  1.00  0.00     0.031 C 
ATOM     72  C   UNL A   1      39.741  31.446  34.669  1.00  0.00     0.037 A 
BRANCH  59  73
ATOM     73  C   UNL A   1      45.072  28.339  34.428  1.00  0.00     0.057 A 
ATOM     74  C   UNL A   1      45.079  27.117  35.110  1.00  0.00     0.134 A 
ATOM     75  C   UNL A   1      46.258  29.083  34.420  1.00  0.00     0.134 A 
ATOM     76  F   UNL A   1      43.972  26.362  35.166  1.00  0.00    -0.206 F 
ATOM     77  C   UNL A   1      46.219  26.661  35.777  1.00  0.00     0.040 A 
ATOM     78  C   UNL A   1      47.410  28.628  35.062  1.00  0.00     0.040 A 
ATOM     79  F   UNL A   1      46.320  30.261  33.781  1.00  0.00    -0.206 F 
ATOM     80  C   UNL A   1      47.390  27.415  35.749  1.00  0.00     0.006 A 
ENDBRANCH  59  73
BRANCH  60  81
ATOM     81  C   UNL A   1      37.090  31.286  29.231  1.00  0.00     0.057 A 
ATOM     82  C   UNL A   1      36.011  30.417  29.034  1.00  0.00     0.134 A 
ATOM     83  C   UNL A   1      37.000  32.564  28.669  1.00  0.00     0.134 A 
ATOM     84  F   UNL A   1      36.049  29.170  29.527  1.00  0.00    -0.206 F 
ATOM     85  C   UNL A   1      34.893  30.798  28.290  1.00  0.00     0.040 A 
ATOM     86  C   UNL A   1      35.878  32.968  27.944  1.00  0.00     0.040 A 
ATOM     87  F   UNL A   1      38.000  33.444  28.823  1.00  0.00    -0.206 F 
ATOM     88  C   UNL A   1      34.822  32.079  27.747  1.00  0.00     0.006 A 
ENDBRANCH  60  81
BRANCH  72  89
ATOM     89  C   UNL A   1      39.124  32.168  35.832  1.00  0.00     0.057 A 
ATOM     90  C   UNL A   1      39.353  33.530  36.064  1.00  0.00     0.134 A 
ATOM     91  C   UNL A   1      38.262  31.499  36.710  1.00  0.00     0.134 A 
ATOM     92  F   UNL A   1      40.179  34.226  35.268  1.00  0.00    -0.206 F 
ATOM     93  C   UNL A   1      38.765  34.195  37.141  1.00  0.00     0.040 A 
ATOM     94  C   UNL A   1      37.646  32.159  37.775  1.00  0.00     0.040 A 
ATOM     95  F   UNL A   1      37.991  30.195  36.539  1.00  0.00    -0.206 F 
ATOM     96  C   UNL A   1      37.904  33.510  37.997  1.00  0.00     0.006 A 
ENDBRANCH  72  89
ENDBRANCH  46  47
ENDBRANCH  39  41
ENDBRANCH  38  39
ENDBRANCH  37  38
ENDBRANCH  36  37
ENDBRANCH  35  36
ENDBRANCH  34  35
ENDBRANCH  33  34
ENDBRANCH  32  33
ENDBRANCH   1  32
TORSDOF 24
ENDMDL
MODEL 2
REMARK VINA RESULT:     -10.0      5.812     11.132
REMARK SMILES CCCCCCNC(=O)Oc1cccc(-c2ccc([C@@H](C)C(=O)OCCOCCOC(=O)c3ccc(-c4c5nc(c(-c6c(F)cccc6F)c6ccc([nH]6)c(-c6c(F)cccc6F)c6nc(c(-c7c(F)cccc7F)c7ccc4[nH]7)C=C6)C=C5)cc3)cc2C(F)(F)F)c1
REMARK SMILES IDX 22 1 23 2 20 3 21 4 19 5 16 6 17 7 88 8 18 9 87 10 15 11
REMARK SMILES IDX 11 12 12 13 93 14 13 15 14 16 10 17 8 18 7 19 9 21 6 22 5 23
REMARK SMILES IDX 4 24 3 25 2 26 1 27 89 28 90 29 91 30 92 31 24 32 25 33
REMARK SMILES IDX 26 34 27 35 28 36 29 37 30 38 31 39 32 40 33 41 34 42 86 43
REMARK SMILES IDX 35 44 85 45 36 46 37 47 38 48 79 49 39 50 84 51 78 52 80 53
REMARK SMILES IDX 40 54 83 55 77 56 76 57 41 59 67 60 50 61 66 62 51 63 54 64
REMARK SMILES IDX 65 65 81 66 52 67 53 68 64 70 82 71 55 72 42 73 43 74 48 75
REMARK SMILES IDX 44 76 45 77 47 78 49 79 46 80 68 81 69 82 74 83 70 84 71 85
REMARK SMILES IDX 73 86 75 87 72 88 56 89 57 90 62 91 58 92 59 93 61 94 63 95
REMARK SMILES IDX 60 96
REMARK H PARENT 7 20 80 58 54 69
REMARK Flexibility Score: inf
ROOT
ATOM      1  C   UNL A   1      33.963  22.204  24.898  1.00  0.00     0.313 C 
ATOM      2  O   UNL A   1      33.237  21.521  25.614  1.00  0.00    -0.252 OA
ENDROOT
BRANCH   1   3
ATOM      3  C   UNL A   1      33.390  23.190  23.893  1.00  0.00     0.126 C 
ATOM      4  C   UNL A   1      34.249  23.178  22.632  1.00  0.00     0.025 C 
BRANCH   3   5
ATOM      5  C   UNL A   1      33.088  24.612  24.360  1.00  0.00    -0.033 A 
ATOM      6  C   UNL A   1      32.779  27.326  25.218  1.00  0.00    -0.006 A 
ATOM      7  C   UNL A   1      32.412  26.239  26.037  1.00  0.00     0.009 A 
ATOM      8  C   UNL A   1      33.298  27.040  23.937  1.00  0.00     0.064 A 
ATOM      9  C   UNL A   1      32.572  24.907  25.622  1.00  0.00     0.005 A 
ATOM     10  C   UNL A   1      33.422  25.692  23.524  1.00  0.00     0.018 A 
BRANCH   6  11
ATOM     11  C   UNL A   1      32.678  28.698  25.758  1.00  0.00    -0.014 A 
ATOM     12  C   UNL A   1      33.465  30.498  27.185  1.00  0.00     0.133 A 
ATOM     13  C   UNL A   1      32.324  31.250  26.915  1.00  0.00     0.047 A 
ATOM     14  C   UNL A   1      33.657  29.238  26.609  1.00  0.00     0.056 A 
ATOM     15  C   UNL A   1      31.365  30.745  26.044  1.00  0.00     0.004 A 
ATOM     16  C   UNL A   1      31.539  29.479  25.476  1.00  0.00     0.009 A 
BRANCH  12  17
ATOM     17  O   UNL A   1      34.316  31.004  28.187  1.00  0.00    -0.410 OA
BRANCH  17  18
ATOM     18  C   UNL A   1      35.244  31.985  27.886  1.00  0.00     0.412 C 
ATOM     19  N   UNL A   1      36.533  31.532  27.894  1.00  0.00    -0.321 N 
ATOM     20  H   UNL A   1      37.234  32.195  27.696  1.00  0.00     0.167 HD
ATOM     21  O   UNL A   1      34.989  33.164  27.642  1.00  0.00    -0.224 OA
BRANCH  19  22
ATOM     22  C   UNL A   1      36.980  30.176  28.161  1.00  0.00     0.119 C 
BRANCH  22  23
ATOM     23  C   UNL A   1      38.479  30.110  28.459  1.00  0.00     0.021 C 
BRANCH  23  24
ATOM     24  C   UNL A   1      39.297  29.257  27.479  1.00  0.00     0.002 C 
BRANCH  24  25
ATOM     25  C   UNL A   1      40.424  28.427  28.104  1.00  0.00    -0.000 C 
BRANCH  25  26
ATOM     26  C   UNL A   1      40.814  27.163  27.334  1.00  0.00    -0.003 C 
ATOM     27  C   UNL A   1      39.865  25.997  27.567  1.00  0.00     0.004 C 
ENDBRANCH  25  26
ENDBRANCH  24  25
ENDBRANCH  23  24
ENDBRANCH  22  23
ENDBRANCH  19  22
ENDBRANCH  17  18
ENDBRANCH  12  17
ENDBRANCH   6  11
BRANCH   8  28
ATOM     28  C   UNL A   1      33.741  28.111  22.958  1.00  0.00     0.417 C 
ATOM     29  F   UNL A   1      32.748  29.012  22.693  1.00  0.00    -0.166 F 
ATOM     30  F   UNL A   1      34.776  28.849  23.448  1.00  0.00    -0.166 F 
ATOM     31  F   UNL A   1      34.134  27.661  21.738  1.00  0.00    -0.166 F 
ENDBRANCH   8  28
ENDBRANCH   3   5
ENDBRANCH   1   3
BRANCH   1  32
ATOM     32  O   UNL A   1      35.319  22.135  24.894  1.00  0.00    -0.463 OA
BRANCH  32  33
ATOM     33  C   UNL A   1      35.885  20.884  25.327  1.00  0.00     0.261 C 
BRANCH  33  34
ATOM     34  C   UNL A   1      37.384  20.822  25.027  1.00  0.00     0.202 C 
BRANCH  34  35
ATOM     35  O   UNL A   1      38.082  22.066  25.037  1.00  0.00    -0.374 OA
BRANCH  35  36
ATOM     36  C   UNL A   1      38.741  22.443  26.246  1.00  0.00     0.202 C 
BRANCH  36  37
ATOM     37  C   UNL A   1      40.228  22.087  26.363  1.00  0.00     0.261 C 
BRANCH  37  38
ATOM     38  O   UNL A   1      41.059  23.247  26.549  1.00  0.00    -0.460 OA
BRANCH  38  39
ATOM     39  C   UNL A   1      42.345  23.090  26.151  1.00  0.00     0.338 C 
ATOM     40  O   UNL A   1      42.834  22.123  25.592  1.00  0.00    -0.246 OA
BRANCH  39  41
ATOM     41  C   UNL A   1      43.085  24.356  26.311  1.00  0.00     0.060 A 
ATOM     42  C   UNL A   1      43.311  25.111  25.152  1.00  0.00     0.016 A 
ATOM     43  C   UNL A   1      43.624  24.757  27.534  1.00  0.00     0.016 A 
ATOM     44  C   UNL A   1      44.131  26.236  25.200  1.00  0.00     0.010 A 
ATOM     45  C   UNL A   1      44.452  25.886  27.580  1.00  0.00     0.010 A 
ATOM     46  C   UNL A   1      44.742  26.606  26.405  1.00  0.00    -0.014 A 
BRANCH  46  47
ATOM     47  C   UNL A   1      45.804  27.642  26.383  1.00  0.00     0.031 A 
ATOM     48  C   UNL A   1      45.423  29.085  26.576  1.00  0.00     0.074 A 
ATOM     49  C   UNL A   1      47.098  27.300  26.257  1.00  0.00     0.049 A 
ATOM     50  N   UNL A   1      46.186  30.148  26.611  1.00  0.00    -0.248 NA
ATOM     51  C   UNL A   1      43.990  29.367  26.756  1.00  0.00     0.031 C 
ATOM     52  C   UNL A   1      47.602  25.937  26.105  1.00  0.00     0.029 A 
ATOM     53  N   UNL A   1      48.228  28.080  26.242  1.00  0.00    -0.354 N 
ATOM     54  C   UNL A   1      45.328  31.222  26.813  1.00  0.00     0.074 A 
ATOM     55  C   UNL A   1      43.985  30.687  26.862  1.00  0.00     0.031 C 
ATOM     56  C   UNL A   1      48.942  25.975  26.006  1.00  0.00     0.029 A 
ATOM     57  C   UNL A   1      49.387  27.367  26.064  1.00  0.00     0.049 A 
ATOM     58  H   UNL A   1      48.208  29.059  26.348  1.00  0.00     0.167 HD
ATOM     59  C   UNL A   1      45.632  32.534  26.959  1.00  0.00     0.037 A 
ATOM     60  C   UNL A   1      50.661  27.790  25.946  1.00  0.00     0.037 A 
ATOM     61  C   UNL A   1      46.968  33.068  26.917  1.00  0.00     0.049 A 
ATOM     62  C   UNL A   1      50.967  29.261  26.048  1.00  0.00     0.074 A 
ATOM     63  C   UNL A   1      47.376  34.382  27.074  1.00  0.00     0.029 A 
ATOM     64  N   UNL A   1      48.111  32.317  26.698  1.00  0.00    -0.354 N 
ATOM     65  N   UNL A   1      50.150  30.264  26.265  1.00  0.00    -0.248 NA
ATOM     66  C   UNL A   1      52.374  29.658  25.895  1.00  0.00     0.031 C 
ATOM     67  C   UNL A   1      48.763  34.431  26.902  1.00  0.00     0.029 A 
ATOM     68  C   UNL A   1      49.224  33.142  26.690  1.00  0.00     0.049 A 
ATOM     69  H   UNL A   1      48.130  31.341  26.568  1.00  0.00     0.167 HD
ATOM     70  C   UNL A   1      50.945  31.403  26.301  1.00  0.00     0.074 A 
ATOM     71  C   UNL A   1      52.311  30.967  26.095  1.00  0.00     0.031 C 
ATOM     72  C   UNL A   1      50.578  32.695  26.489  1.00  0.00     0.037 A 
BRANCH  59  73
ATOM     73  C   UNL A   1      44.490  33.488  27.153  1.00  0.00     0.057 A 
ATOM     74  C   UNL A   1      43.899  34.163  26.078  1.00  0.00     0.134 A 
ATOM     75  C   UNL A   1      43.956  33.710  28.428  1.00  0.00     0.134 A 
ATOM     76  F   UNL A   1      44.371  34.005  24.832  1.00  0.00    -0.206 F 
ATOM     77  C   UNL A   1      42.830  35.042  26.267  1.00  0.00     0.040 A 
ATOM     78  C   UNL A   1      42.873  34.567  28.627  1.00  0.00     0.040 A 
ATOM     79  F   UNL A   1      44.473  33.091  29.500  1.00  0.00    -0.206 F 
ATOM     80  C   UNL A   1      42.310  35.241  27.545  1.00  0.00     0.006 A 
ENDBRANCH  59  73
BRANCH  60  81
ATOM     81  C   UNL A   1      51.750  26.809  25.708  1.00  0.00     0.057 A 
ATOM     82  C   UNL A   1      52.173  26.494  24.412  1.00  0.00     0.134 A 
ATOM     83  C   UNL A   1      52.375  26.146  26.770  1.00  0.00     0.134 A 
ATOM     84  F   UNL A   1      51.595  27.077  23.352  1.00  0.00    -0.206 F 
ATOM     85  C   UNL A   1      53.169  25.543  24.180  1.00  0.00     0.040 A 
ATOM     86  C   UNL A   1      53.387  25.211  26.555  1.00  0.00     0.040 A 
ATOM     87  F   UNL A   1      52.014  26.404  28.036  1.00  0.00    -0.206 F 
ATOM     88  C   UNL A   1      53.782  24.902  25.255  1.00  0.00     0.006 A 
ENDBRANCH  60  81
BRANCH  72  89
ATOM     89  C   UNL A   1      51.669  33.725  26.516  1.00  0.00     0.057 A 
ATOM     90  C   UNL A   1      52.338  34.066  27.699  1.00  0.00     0.134 A 
ATOM     91  C   UNL A   1      52.081  34.357  25.336  1.00  0.00     0.134 A 
ATOM     92  F   UNL A   1      51.982  33.506  28.865  1.00  0.00    -0.206 F 
ATOM     93  C   UNL A   1      53.360  35.016  27.711  1.00  0.00     0.040 A 
ATOM     94  C   UNL A   1      53.120  35.289  25.331  1.00  0.00     0.040 A 
ATOM     95  F   UNL A   1      51.490  34.069  24.166  1.00  0.00    -0.206 F 
ATOM     96  C   UNL A   1      53.758  35.626  26.522  1.00  0.00     0.006 A 
ENDBRANCH  72  89
ENDBRANCH  46  47
ENDBRANCH  39  41
ENDBRANCH  38  39
ENDBRANCH  37  38
ENDBRANCH  36  37
ENDBRANCH  35  36
ENDBRANCH  34  35
ENDBRANCH  33  34
ENDBRANCH  32  33
ENDBRANCH   1  32
TORSDOF 24
ENDMDL
MODEL 3
REMARK VINA RESULT:      -9.9      4.404     10.994
REMARK SMILES CCCCCCNC(=O)Oc1cccc(-c2ccc([C@@H](C)C(=O)OCCOCCOC(=O)c3ccc(-c4c5nc(c(-c6c(F)cccc6F)c6ccc([nH]6)c(-c6c(F)cccc6F)c6nc(c(-c7c(F)cccc7F)c7ccc4[nH]7)C=C6)C=C5)cc3)cc2C(F)(F)F)c1
REMARK SMILES IDX 22 1 23 2 20 3 21 4 19 5 16 6 17 7 88 8 18 9 87 10 15 11
REMARK SMILES IDX 11 12 12 13 93 14 13 15 14 16 10 17 8 18 7 19 9 21 6 22 5 23
REMARK SMILES IDX 4 24 3 25 2 26 1 27 89 28 90 29 91 30 92 31 24 32 25 33
REMARK SMILES IDX 26 34 27 35 28 36 29 37 30 38 31 39 32 40 33 41 34 42 86 43
REMARK SMILES IDX 35 44 85 45 36 46 37 47 38 48 79 49 39 50 84 51 78 52 80 53
REMARK SMILES IDX 40 54 83 55 77 56 76 57 41 59 67 60 50 61 66 62 51 63 54 64
REMARK SMILES IDX 65 65 81 66 52 67 53 68 64 70 82 71 55 72 42 73 43 74 48 75
REMARK SMILES IDX 44 76 45 77 47 78 49 79 46 80 68 81 69 82 74 83 70 84 71 85
REMARK SMILES IDX 73 86 75 87 72 88 56 89 57 90 62 91 58 92 59 93 61 94 63 95
REMARK SMILES IDX 60 96
REMARK H PARENT 7 20 80 58 54 69
REMARK Flexibility Score: inf
ROOT
ATOM      1  C   UNL A   1      37.045  29.716  28.776  1.00  0.00     0.313 C 
ATOM      2  O   UNL A   1      36.735  28.965  27.857  1.00  0.00    -0.252 OA
ENDROOT
BRANCH   1   3
ATOM      3  C   UNL A   1      38.499  29.965  29.145  1.00  0.00     0.126 C 
ATOM      4  C   UNL A   1      38.771  31.466  29.126  1.00  0.00     0.025 C 
BRANCH   3   5
ATOM      5  C   UNL A   1      39.580  29.183  28.404  1.00  0.00    -0.033 A 
ATOM      6  C   UNL A   1      41.785  27.840  27.164  1.00  0.00    -0.006 A 
ATOM      7  C   UNL A   1      40.908  28.666  26.432  1.00  0.00     0.009 A 
ATOM      8  C   UNL A   1      41.538  27.676  28.544  1.00  0.00     0.064 A 
ATOM      9  C   UNL A   1      39.832  29.333  27.039  1.00  0.00     0.005 A 
ATOM     10  C   UNL A   1      40.429  28.331  29.133  1.00  0.00     0.018 A 
BRANCH   6  11
ATOM     11  C   UNL A   1      42.954  27.250  26.480  1.00  0.00    -0.014 A 
ATOM     12  C   UNL A   1      44.202  25.347  25.634  1.00  0.00     0.133 A 
ATOM     13  C   UNL A   1      45.301  26.154  25.354  1.00  0.00     0.047 A 
ATOM     14  C   UNL A   1      43.030  25.879  26.182  1.00  0.00     0.056 A 
ATOM     15  C   UNL A   1      45.227  27.519  25.609  1.00  0.00     0.004 A 
ATOM     16  C   UNL A   1      44.066  28.059  26.171  1.00  0.00     0.009 A 
BRANCH  12  17
ATOM     17  O   UNL A   1      44.402  23.959  25.493  1.00  0.00    -0.410 OA
BRANCH  17  18
ATOM     18  C   UNL A   1      44.737  23.186  26.591  1.00  0.00     0.412 C 
ATOM     19  N   UNL A   1      44.135  21.959  26.593  1.00  0.00    -0.321 N 
ATOM     20  H   UNL A   1      44.332  21.374  27.359  1.00  0.00     0.167 HD
ATOM     21  O   UNL A   1      45.486  23.525  27.506  1.00  0.00    -0.224 OA
BRANCH  19  22
ATOM     22  C   UNL A   1      43.234  21.427  25.586  1.00  0.00     0.119 C 
BRANCH  22  23
ATOM     23  C   UNL A   1      41.869  21.056  26.168  1.00  0.00     0.021 C 
BRANCH  23  24
ATOM     24  C   UNL A   1      41.346  22.008  27.251  1.00  0.00     0.002 C 
BRANCH  24  25
ATOM     25  C   UNL A   1      40.296  23.025  26.789  1.00  0.00    -0.000 C 
BRANCH  25  26
ATOM     26  C   UNL A   1      39.915  24.092  27.819  1.00  0.00    -0.003 C 
ATOM     27  C   UNL A   1      39.180  25.279  27.216  1.00  0.00     0.004 C 
ENDBRANCH  25  26
ENDBRANCH  24  25
ENDBRANCH  23  24
ENDBRANCH  22  23
ENDBRANCH  19  22
ENDBRANCH  17  18
ENDBRANCH  12  17
ENDBRANCH   6  11
BRANCH   8  28
ATOM     28  C   UNL A   1      42.404  26.825  29.451  1.00  0.00     0.417 C 
ATOM     29  F   UNL A   1      43.703  27.249  29.476  1.00  0.00    -0.166 F 
ATOM     30  F   UNL A   1      41.985  26.876  30.747  1.00  0.00    -0.166 F 
ATOM     31  F   UNL A   1      42.477  25.507  29.124  1.00  0.00    -0.166 F 
ENDBRANCH   8  28
ENDBRANCH   3   5
ENDBRANCH   1   3
BRANCH   1  32
ATOM     32  O   UNL A   1      36.154  30.362  29.571  1.00  0.00    -0.463 OA
BRANCH  32  33
ATOM     33  C   UNL A   1      35.252  31.262  28.902  1.00  0.00     0.261 C 
BRANCH  33  34
ATOM     34  C   UNL A   1      34.869  32.435  29.805  1.00  0.00     0.202 C 
BRANCH  34  35
ATOM     35  O   UNL A   1      35.632  32.587  31.000  1.00  0.00    -0.374 OA
BRANCH  35  36
ATOM     36  C   UNL A   1      34.928  32.921  32.197  1.00  0.00     0.202 C 
BRANCH  36  37
ATOM     37  C   UNL A   1      35.778  33.215  33.440  1.00  0.00     0.261 C 
BRANCH  37  38
ATOM     38  O   UNL A   1      36.274  32.017  34.063  1.00  0.00    -0.460 OA
BRANCH  38  39
ATOM     39  C   UNL A   1      37.388  32.193  34.815  1.00  0.00     0.338 C 
ATOM     40  O   UNL A   1      37.445  32.416  36.012  1.00  0.00    -0.246 OA
BRANCH  39  41
ATOM     41  C   UNL A   1      38.592  31.886  34.020  1.00  0.00     0.060 A 
ATOM     42  C   UNL A   1      38.468  30.899  33.033  1.00  0.00     0.016 A 
ATOM     43  C   UNL A   1      39.830  32.474  34.283  1.00  0.00     0.016 A 
ATOM     44  C   UNL A   1      39.594  30.449  32.350  1.00  0.00     0.010 A 
ATOM     45  C   UNL A   1      40.963  32.017  33.597  1.00  0.00     0.010 A 
ATOM     46  C   UNL A   1      40.856  30.974  32.657  1.00  0.00    -0.014 A 
BRANCH  46  47
ATOM     47  C   UNL A   1      42.064  30.309  32.109  1.00  0.00     0.031 A 
ATOM     48  C   UNL A   1      42.737  30.896  30.897  1.00  0.00     0.074 A 
ATOM     49  C   UNL A   1      42.595  29.233  32.717  1.00  0.00     0.049 A 
ATOM     50  N   UNL A   1      43.809  30.491  30.265  1.00  0.00    -0.248 NA
ATOM     51  C   UNL A   1      42.118  32.102  30.324  1.00  0.00     0.031 C 
ATOM     52  C   UNL A   1      42.064  28.594  33.919  1.00  0.00     0.029 A 
ATOM     53  N   UNL A   1      43.706  28.491  32.403  1.00  0.00    -0.354 N 
ATOM     54  C   UNL A   1      43.991  31.388  29.220  1.00  0.00     0.074 A 
ATOM     55  C   UNL A   1      42.903  32.339  29.284  1.00  0.00     0.031 C 
ATOM     56  C   UNL A   1      42.848  27.550  34.240  1.00  0.00     0.029 A 
ATOM     57  C   UNL A   1      43.920  27.434  33.252  1.00  0.00     0.049 A 
ATOM     58  H   UNL A   1      44.295  28.698  31.641  1.00  0.00     0.167 HD
ATOM     59  C   UNL A   1      44.983  31.425  28.298  1.00  0.00     0.037 A 
ATOM     60  C   UNL A   1      44.865  26.474  33.227  1.00  0.00     0.037 A 
ATOM     61  C   UNL A   1      46.070  30.484  28.236  1.00  0.00     0.049 A 
ATOM     62  C   UNL A   1      45.921  26.500  32.154  1.00  0.00     0.074 A 
ATOM     63  C   UNL A   1      47.133  30.452  27.349  1.00  0.00     0.029 A 
ATOM     64  N   UNL A   1      46.230  29.406  29.092  1.00  0.00    -0.354 N 
ATOM     65  N   UNL A   1      46.098  27.368  31.187  1.00  0.00    -0.248 NA
ATOM     66  C   UNL A   1      46.913  25.414  32.173  1.00  0.00     0.031 C 
ATOM     67  C   UNL A   1      47.911  29.326  27.640  1.00  0.00     0.029 A 
ATOM     68  C   UNL A   1      47.361  28.687  28.740  1.00  0.00     0.049 A 
ATOM     69  H   UNL A   1      45.630  29.184  29.840  1.00  0.00     0.167 HD
ATOM     70  C   UNL A   1      47.232  26.950  30.502  1.00  0.00     0.074 A 
ATOM     71  C   UNL A   1      47.710  25.757  31.170  1.00  0.00     0.031 C 
ATOM     72  C   UNL A   1      47.827  27.505  29.417  1.00  0.00     0.037 A 
BRANCH  59  73
ATOM     73  C   UNL A   1      44.922  32.510  27.263  1.00  0.00     0.057 A 
ATOM     74  C   UNL A   1      45.656  33.696  27.390  1.00  0.00     0.134 A 
ATOM     75  C   UNL A   1      44.143  32.351  26.110  1.00  0.00     0.134 A 
ATOM     76  F   UNL A   1      46.412  33.915  28.476  1.00  0.00    -0.206 F 
ATOM     77  C   UNL A   1      45.601  34.695  26.416  1.00  0.00     0.040 A 
ATOM     78  C   UNL A   1      44.098  33.332  25.119  1.00  0.00     0.040 A 
ATOM     79  F   UNL A   1      43.419  31.237  25.925  1.00  0.00    -0.206 F 
ATOM     80  C   UNL A   1      44.824  34.512  25.274  1.00  0.00     0.006 A 
ENDBRANCH  59  73
BRANCH  60  81
ATOM     81  C   UNL A   1      44.854  25.395  34.247  1.00  0.00     0.057 A 
ATOM     82  C   UNL A   1      45.398  25.593  35.520  1.00  0.00     0.134 A 
ATOM     83  C   UNL A   1      44.320  24.133  33.962  1.00  0.00     0.134 A 
ATOM     84  F   UNL A   1      45.948  26.773  35.844  1.00  0.00    -0.206 F 
ATOM     85  C   UNL A   1      45.427  24.570  36.470  1.00  0.00     0.040 A 
ATOM     86  C   UNL A   1      44.320  23.108  34.909  1.00  0.00     0.040 A 
ATOM     87  F   UNL A   1      43.783  23.880  32.759  1.00  0.00    -0.206 F 
ATOM     88  C   UNL A   1      44.882  23.324  36.166  1.00  0.00     0.006 A 
ENDBRANCH  60  81
BRANCH  72  89
ATOM     89  C   UNL A   1      49.077  26.849  28.905  1.00  0.00     0.057 A 
ATOM     90  C   UNL A   1      49.043  25.864  27.911  1.00  0.00     0.134 A 
ATOM     91  C   UNL A   1      50.334  27.235  29.390  1.00  0.00     0.134 A 
ATOM     92  F   UNL A   1      47.871  25.440  27.414  1.00  0.00    -0.206 F 
ATOM     93  C   UNL A   1      50.211  25.269  27.433  1.00  0.00     0.040 A 
ATOM     94  C   UNL A   1      51.511  26.667  28.901  1.00  0.00     0.040 A 
ATOM     95  F   UNL A   1      50.438  28.181  30.336  1.00  0.00    -0.206 F 
ATOM     96  C   UNL A   1      51.451  25.675  27.924  1.00  0.00     0.006 A 
ENDBRANCH  72  89
ENDBRANCH  46  47
ENDBRANCH  39  41
ENDBRANCH  38  39
ENDBRANCH  37  38
ENDBRANCH  36  37
ENDBRANCH  35  36
ENDBRANCH  34  35
ENDBRANCH  33  34
ENDBRANCH  32  33
ENDBRANCH   1  32
TORSDOF 24
ENDMDL
