MODEL 1
REMARK VINA RESULT:     -12.4      0.000      0.000
REMARK SMILES O=C(CNC(=O)[C@@H](CC1=c2ccccc2=NC1)N1C(=O)N=C2C=CC=C[C@H]2C1=O)OCCOCCOC(=O)c1ccc(-c2c3nc(c(-c4c(F)cccc4F)c4ccc([nH]4)c(-c4c(F)cccc4F)c4nc(c(-c5c(F)cccc5F)c5ccc2[nH]5)C=C4)C=C3)cc1
REMARK SMILES IDX 32 1 31 2 30 3 2 4 1 5 3 6 4 7 5 8 6 10 7 11 8 12 9 13 10 14
REMARK SMILES IDX 17 15 11 16 15 17 16 18 12 19 14 20 13 21 18 22 19 23 28 24
REMARK SMILES IDX 21 25 20 26 27 27 29 28 22 29 26 30 23 31 25 32 24 33 33 34
REMARK SMILES IDX 34 35 35 36 36 37 37 38 38 39 39 40 40 41 92 42 41 43 91 44
REMARK SMILES IDX 42 45 43 46 44 47 85 48 45 49 90 50 84 51 86 52 46 53 89 54
REMARK SMILES IDX 83 55 82 56 47 58 73 59 56 60 72 61 57 62 60 63 71 64 87 65
REMARK SMILES IDX 58 66 59 67 70 69 88 70 61 71 48 72 49 73 54 74 50 75 51 76
REMARK SMILES IDX 53 77 55 78 52 79 74 80 75 81 80 82 76 83 77 84 79 85 81 86
REMARK SMILES IDX 78 87 62 88 63 89 68 90 64 91 65 92 67 93 69 94 66 95
REMARK H PARENT 4 9 86 57 60 68
REMARK Flexibility Score: inf
ROOT
ATOM      1  C   UNL A   1      40.363  20.705  26.188  1.00  0.00     0.202 C 
ENDROOT
BRANCH   1   2
ATOM      2  C   UNL A   1      39.093  21.542  25.760  1.00  0.00     0.261 C 
BRANCH   2   3
ATOM      3  O   UNL A   1      39.064  22.822  26.453  1.00  0.00    -0.462 OA
BRANCH   3   4
ATOM      4  C   UNL A   1      38.287  23.913  26.453  1.00  0.00     0.325 C 
ATOM      5  O   UNL A   1      38.685  24.872  27.130  1.00  0.00    -0.250 OA
BRANCH   4   6
ATOM      6  C   UNL A   1      36.876  24.044  25.836  1.00  0.00     0.238 C 
BRANCH   6   7
ATOM      7  N   UNL A   1      36.263  23.608  24.568  1.00  0.00    -0.343 N 
ATOM      8  C   UNL A   1      34.972  23.884  24.117  1.00  0.00     0.244 C 
ATOM      9  H   UNL A   1      36.826  23.062  23.974  1.00  0.00     0.164 HD
ATOM     10  O   UNL A   1      34.823  24.502  23.064  1.00  0.00    -0.273 OA
BRANCH   8  11
ATOM     11  C   UNL A   1      33.810  23.170  24.822  1.00  0.00     0.188 C 
BRANCH  11  12
ATOM     12  C   UNL A   1      32.708  24.043  25.388  1.00  0.00     0.069 C 
BRANCH  12  13
ATOM     13  C   UNL A   1      32.161  25.372  25.045  1.00  0.00    -0.037 C 
ATOM     14  C   UNL A   1      32.632  26.585  25.261  1.00  0.00     0.001 A 
ATOM     15  C   UNL A   1      30.767  25.447  24.473  1.00  0.00     0.174 C 
ATOM     16  C   UNL A   1      33.808  27.097  25.859  1.00  0.00     0.010 A 
ATOM     17  C   UNL A   1      31.504  27.437  24.856  1.00  0.00     0.065 A 
ATOM     18  N   UNL A   1      30.441  26.875  24.371  1.00  0.00    -0.280 NA
ATOM     19  C   UNL A   1      33.861  28.414  26.095  1.00  0.00     0.001 A 
ATOM     20  C   UNL A   1      31.657  28.876  25.094  1.00  0.00     0.028 A 
ATOM     21  C   UNL A   1      32.772  29.300  25.710  1.00  0.00     0.002 A 
ENDBRANCH  12  13
ENDBRANCH  11  12
BRANCH  11  22
ATOM     22  N   UNL A   1      33.374  21.761  24.521  1.00  0.00    -0.249 N 
ATOM     23  C   UNL A   1      32.506  21.625  23.429  1.00  0.00     0.351 C 
ATOM     24  C   UNL A   1      34.077  20.668  25.020  1.00  0.00     0.244 C 
ATOM     25  N   UNL A   1      32.124  20.397  22.993  1.00  0.00    -0.197 NA
ATOM     26  O   UNL A   1      32.166  22.591  22.750  1.00  0.00    -0.246 OA
ATOM     27  C   UNL A   1      33.534  19.274  24.671  1.00  0.00     0.151 C 
ATOM     28  O   UNL A   1      35.086  20.787  25.719  1.00  0.00    -0.273 OA
ATOM     29  C   UNL A   1      32.646  19.317  23.455  1.00  0.00     0.062 C 
ATOM     30  C   UNL A   1      34.565  18.168  24.504  1.00  0.00    -0.007 C 
ATOM     31  C   UNL A   1      32.365  18.078  22.693  1.00  0.00     0.025 C 
ATOM     32  C   UNL A   1      34.410  17.158  23.629  1.00  0.00    -0.003 C 
ATOM     33  C   UNL A   1      33.256  17.084  22.766  1.00  0.00     0.002 C 
ENDBRANCH  11  22
ENDBRANCH   8  11
ENDBRANCH   6   7
ENDBRANCH   4   6
ENDBRANCH   3   4
ENDBRANCH   2   3
ENDBRANCH   1   2
BRANCH   1  34
ATOM     34  O   UNL A   1      41.535  21.498  26.304  1.00  0.00    -0.374 OA
BRANCH  34  35
ATOM     35  C   UNL A   1      42.840  21.207  25.791  1.00  0.00     0.202 C 
BRANCH  35  36
ATOM     36  C   UNL A   1      43.748  22.182  25.037  1.00  0.00     0.261 C 
BRANCH  36  37
ATOM     37  O   UNL A   1      43.287  23.513  25.034  1.00  0.00    -0.460 OA
BRANCH  37  38
ATOM     38  C   UNL A   1      44.217  24.445  25.312  1.00  0.00     0.338 C 
ATOM     39  O   UNL A   1      45.220  24.727  24.671  1.00  0.00    -0.246 OA
BRANCH  38  40
ATOM     40  C   UNL A   1      43.583  25.267  26.342  1.00  0.00     0.060 A 
ATOM     41  C   UNL A   1      42.384  24.846  26.932  1.00  0.00     0.016 A 
ATOM     42  C   UNL A   1      44.094  26.553  26.551  1.00  0.00     0.016 A 
ATOM     43  C   UNL A   1      41.703  25.713  27.766  1.00  0.00     0.010 A 
ATOM     44  C   UNL A   1      43.388  27.439  27.343  1.00  0.00     0.010 A 
ATOM     45  C   UNL A   1      42.231  26.992  28.000  1.00  0.00    -0.014 A 
BRANCH  45  46
ATOM     46  C   UNL A   1      41.822  27.690  29.223  1.00  0.00     0.031 A 
ATOM     47  C   UNL A   1      42.525  27.519  30.519  1.00  0.00     0.074 A 
ATOM     48  C   UNL A   1      40.749  28.487  29.075  1.00  0.00     0.049 A 
ATOM     49  N   UNL A   1      42.300  28.144  31.642  1.00  0.00    -0.248 NA
ATOM     50  C   UNL A   1      43.605  26.522  30.576  1.00  0.00     0.031 C 
ATOM     51  C   UNL A   1      39.998  28.664  27.821  1.00  0.00     0.029 A 
ATOM     52  N   UNL A   1      40.099  29.291  29.963  1.00  0.00    -0.354 N 
ATOM     53  C   UNL A   1      43.218  27.634  32.545  1.00  0.00     0.074 A 
ATOM     54  C   UNL A   1      43.982  26.620  31.846  1.00  0.00     0.031 C 
ATOM     55  C   UNL A   1      39.000  29.530  28.022  1.00  0.00     0.029 A 
ATOM     56  C   UNL A   1      39.028  29.948  29.413  1.00  0.00     0.049 A 
ATOM     57  H   UNL A   1      40.372  29.390  30.904  1.00  0.00     0.167 HD
ATOM     58  C   UNL A   1      43.390  28.002  33.837  1.00  0.00     0.037 A 
ATOM     59  C   UNL A   1      38.160  30.798  29.982  1.00  0.00     0.037 A 
ATOM     60  C   UNL A   1      42.587  29.003  34.495  1.00  0.00     0.049 A 
ATOM     61  C   UNL A   1      38.368  31.147  31.423  1.00  0.00     0.074 A 
ATOM     62  C   UNL A   1      42.711  29.499  35.781  1.00  0.00     0.029 A 
ATOM     63  N   UNL A   1      41.493  29.644  33.925  1.00  0.00    -0.354 N 
ATOM     64  N   UNL A   1      39.310  30.746  32.241  1.00  0.00    -0.248 NA
ATOM     65  C   UNL A   1      37.401  32.075  32.015  1.00  0.00     0.031 C 
ATOM     66  C   UNL A   1      41.653  30.383  36.012  1.00  0.00     0.029 A 
ATOM     67  C   UNL A   1      40.910  30.497  34.848  1.00  0.00     0.049 A 
ATOM     68  H   UNL A   1      41.180  29.512  33.001  1.00  0.00     0.167 HD
ATOM     69  C   UNL A   1      39.072  31.403  33.438  1.00  0.00     0.074 A 
ATOM     70  C   UNL A   1      37.907  32.240  33.227  1.00  0.00     0.031 C 
ATOM     71  C   UNL A   1      39.753  31.323  34.607  1.00  0.00     0.037 A 
BRANCH  58  72
ATOM     72  C   UNL A   1      44.464  27.317  34.628  1.00  0.00     0.057 A 
ATOM     73  C   UNL A   1      45.764  27.837  34.663  1.00  0.00     0.134 A 
ATOM     74  C   UNL A   1      44.238  26.101  35.286  1.00  0.00     0.134 A 
ATOM     75  F   UNL A   1      46.052  28.993  34.046  1.00  0.00    -0.206 F 
ATOM     76  C   UNL A   1      46.802  27.169  35.313  1.00  0.00     0.040 A 
ATOM     77  C   UNL A   1      45.262  25.436  35.961  1.00  0.00     0.040 A 
ATOM     78  F   UNL A   1      43.015  25.548  35.292  1.00  0.00    -0.206 F 
ATOM     79  C   UNL A   1      46.552  25.964  35.967  1.00  0.00     0.006 A 
ENDBRANCH  58  72
BRANCH  59  80
ATOM     80  C   UNL A   1      37.046  31.372  29.194  1.00  0.00     0.057 A 
ATOM     81  C   UNL A   1      35.894  30.627  28.911  1.00  0.00     0.134 A 
ATOM     82  C   UNL A   1      37.093  32.691  28.733  1.00  0.00     0.134 A 
ATOM     83  F   UNL A   1      35.801  29.347  29.299  1.00  0.00    -0.206 F 
ATOM     84  C   UNL A   1      34.819  31.183  28.220  1.00  0.00     0.040 A 
ATOM     85  C   UNL A   1      36.011  33.270  28.071  1.00  0.00     0.040 A 
ATOM     86  F   UNL A   1      38.173  33.451  28.966  1.00  0.00    -0.206 F 
ATOM     87  C   UNL A   1      34.867  32.515  27.816  1.00  0.00     0.006 A 
ENDBRANCH  59  80
BRANCH  71  88
ATOM     88  C   UNL A   1      39.271  32.202  35.723  1.00  0.00     0.057 A 
ATOM     89  C   UNL A   1      38.363  31.710  36.668  1.00  0.00     0.134 A 
ATOM     90  C   UNL A   1      39.692  33.531  35.857  1.00  0.00     0.134 A 
ATOM     91  F   UNL A   1      37.917  30.446  36.593  1.00  0.00    -0.206 F 
ATOM     92  C   UNL A   1      37.886  32.510  37.706  1.00  0.00     0.040 A 
ATOM     93  C   UNL A   1      39.250  34.330  36.912  1.00  0.00     0.040 A 
ATOM     94  F   UNL A   1      40.577  34.055  34.996  1.00  0.00    -0.206 F 
ATOM     95  C   UNL A   1      38.338  33.821  37.835  1.00  0.00     0.006 A 
ENDBRANCH  71  88
ENDBRANCH  45  46
ENDBRANCH  38  40
ENDBRANCH  37  38
ENDBRANCH  36  37
ENDBRANCH  35  36
ENDBRANCH  34  35
ENDBRANCH   1  34
TORSDOF 19
ENDMDL
MODEL 2
REMARK VINA RESULT:     -12.3      1.223      7.233
REMARK SMILES O=C(CNC(=O)[C@@H](CC1=c2ccccc2=NC1)N1C(=O)N=C2C=CC=C[C@H]2C1=O)OCCOCCOC(=O)c1ccc(-c2c3nc(c(-c4c(F)cccc4F)c4ccc([nH]4)c(-c4c(F)cccc4F)c4nc(c(-c5c(F)cccc5F)c5ccc2[nH]5)C=C4)C=C3)cc1
REMARK SMILES IDX 32 1 31 2 30 3 2 4 1 5 3 6 4 7 5 8 6 10 7 11 8 12 9 13 10 14
REMARK SMILES IDX 17 15 11 16 15 17 16 18 12 19 14 20 13 21 18 22 19 23 28 24
REMARK SMILES IDX 21 25 20 26 27 27 29 28 22 29 26 30 23 31 25 32 24 33 33 34
REMARK SMILES IDX 34 35 35 36 36 37 37 38 38 39 39 40 40 41 92 42 41 43 91 44
REMARK SMILES IDX 42 45 43 46 44 47 85 48 45 49 90 50 84 51 86 52 46 53 89 54
REMARK SMILES IDX 83 55 82 56 47 58 73 59 56 60 72 61 57 62 60 63 71 64 87 65
REMARK SMILES IDX 58 66 59 67 70 69 88 70 61 71 48 72 49 73 54 74 50 75 51 76
REMARK SMILES IDX 53 77 55 78 52 79 74 80 75 81 80 82 76 83 77 84 79 85 81 86
REMARK SMILES IDX 78 87 62 88 63 89 68 90 64 91 65 92 67 93 69 94 66 95
REMARK H PARENT 4 9 86 57 60 68
REMARK Flexibility Score: inf
ROOT
ATOM      1  C   UNL A   1      40.870  21.267  27.260  1.00  0.00     0.202 C 
ENDROOT
BRANCH   1   2
ATOM      2  C   UNL A   1      39.752  22.074  26.490  1.00  0.00     0.261 C 
BRANCH   2   3
ATOM      3  O   UNL A   1      38.904  21.174  25.723  1.00  0.00    -0.462 OA
BRANCH   3   4
ATOM      4  C   UNL A   1      37.619  21.127  25.347  1.00  0.00     0.325 C 
ATOM      5  O   UNL A   1      37.295  20.184  24.612  1.00  0.00    -0.250 OA
BRANCH   4   6
ATOM      6  C   UNL A   1      36.542  22.208  25.596  1.00  0.00     0.238 C 
BRANCH   6   7
ATOM      7  N   UNL A   1      35.582  22.472  26.682  1.00  0.00    -0.343 N 
ATOM      8  C   UNL A   1      34.287  21.966  26.803  1.00  0.00     0.244 C 
ATOM      9  H   UNL A   1      35.887  23.070  27.401  1.00  0.00     0.164 HD
ATOM     10  O   UNL A   1      34.000  21.276  27.781  1.00  0.00    -0.273 OA
BRANCH   8  11
ATOM     11  C   UNL A   1      33.221  22.518  25.845  1.00  0.00     0.188 C 
BRANCH  11  12
ATOM     12  C   UNL A   1      32.207  21.531  25.303  1.00  0.00     0.069 C 
BRANCH  12  13
ATOM     13  C   UNL A   1      32.265  20.409  24.345  1.00  0.00    -0.037 C 
ATOM     14  C   UNL A   1      32.520  19.127  24.526  1.00  0.00     0.001 A 
ATOM     15  C   UNL A   1      32.163  20.717  22.871  1.00  0.00     0.174 C 
ATOM     16  C   UNL A   1      32.807  18.326  25.657  1.00  0.00     0.010 A 
ATOM     17  C   UNL A   1      32.619  18.628  23.146  1.00  0.00     0.065 A 
ATOM     18  N   UNL A   1      32.397  19.450  22.169  1.00  0.00    -0.280 NA
ATOM     19  C   UNL A   1      33.225  17.073  25.439  1.00  0.00     0.001 A 
ATOM     20  C   UNL A   1      33.028  17.228  22.988  1.00  0.00     0.028 A 
ATOM     21  C   UNL A   1      33.336  16.531  24.093  1.00  0.00     0.002 A 
ENDBRANCH  12  13
ENDBRANCH  11  12
BRANCH  11  22
ATOM     22  N   UNL A   1      32.741  23.945  25.845  1.00  0.00    -0.249 N 
ATOM     23  C   UNL A   1      31.752  24.242  26.792  1.00  0.00     0.351 C 
ATOM     24  C   UNL A   1      33.486  24.955  25.244  1.00  0.00     0.244 C 
ATOM     25  N   UNL A   1      31.311  25.516  26.961  1.00  0.00    -0.197 NA
ATOM     26  O   UNL A   1      31.345  23.399  27.588  1.00  0.00    -0.246 OA
ATOM     27  C   UNL A   1      32.895  26.372  25.280  1.00  0.00     0.151 C 
ATOM     28  O   UNL A   1      34.570  24.746  24.694  1.00  0.00    -0.273 OA
ATOM     29  C   UNL A   1      31.873  26.514  26.378  1.00  0.00     0.062 C 
ATOM     30  C   UNL A   1      33.890  27.519  25.365  1.00  0.00    -0.007 C 
ATOM     31  C   UNL A   1      31.496  27.858  26.876  1.00  0.00     0.025 C 
ATOM     32  C   UNL A   1      33.626  28.660  26.027  1.00  0.00    -0.003 C 
ATOM     33  C   UNL A   1      32.380  28.849  26.730  1.00  0.00     0.002 C 
ENDBRANCH  11  22
ENDBRANCH   8  11
ENDBRANCH   6   7
ENDBRANCH   4   6
ENDBRANCH   3   4
ENDBRANCH   2   3
ENDBRANCH   1   2
BRANCH   1  34
ATOM     34  O   UNL A   1      41.666  20.466  26.400  1.00  0.00    -0.374 OA
BRANCH  34  35
ATOM     35  C   UNL A   1      42.962  20.772  25.874  1.00  0.00     0.202 C 
BRANCH  35  36
ATOM     36  C   UNL A   1      43.428  22.142  25.372  1.00  0.00     0.261 C 
BRANCH  36  37
ATOM     37  O   UNL A   1      43.679  23.076  26.396  1.00  0.00    -0.460 OA
BRANCH  37  38
ATOM     38  C   UNL A   1      44.086  24.290  25.982  1.00  0.00     0.338 C 
ATOM     39  O   UNL A   1      44.666  24.579  24.945  1.00  0.00    -0.246 OA
BRANCH  38  40
ATOM     40  C   UNL A   1      43.376  25.212  26.868  1.00  0.00     0.060 A 
ATOM     41  C   UNL A   1      42.236  24.779  27.558  1.00  0.00     0.016 A 
ATOM     42  C   UNL A   1      43.745  26.561  26.830  1.00  0.00     0.016 A 
ATOM     43  C   UNL A   1      41.473  25.704  28.245  1.00  0.00     0.010 A 
ATOM     44  C   UNL A   1      42.954  27.495  27.473  1.00  0.00     0.010 A 
ATOM     45  C   UNL A   1      41.860  27.053  28.233  1.00  0.00    -0.014 A 
BRANCH  45  46
ATOM     46  C   UNL A   1      41.389  27.912  29.324  1.00  0.00     0.031 A 
ATOM     47  C   UNL A   1      40.222  28.818  29.186  1.00  0.00     0.074 A 
ATOM     48  C   UNL A   1      42.112  27.820  30.455  1.00  0.00     0.049 A 
ATOM     49  N   UNL A   1      39.670  29.561  30.106  1.00  0.00    -0.248 NA
ATOM     50  C   UNL A   1      39.597  28.919  27.858  1.00  0.00     0.031 C 
ATOM     51  C   UNL A   1      43.295  26.962  30.630  1.00  0.00     0.029 A 
ATOM     52  N   UNL A   1      41.972  28.438  31.661  1.00  0.00    -0.354 N 
ATOM     53  C   UNL A   1      38.619  30.212  29.482  1.00  0.00     0.074 A 
ATOM     54  C   UNL A   1      38.632  29.802  28.092  1.00  0.00     0.031 C 
ATOM     55  C   UNL A   1      43.763  27.105  31.874  1.00  0.00     0.029 A 
ATOM     56  C   UNL A   1      42.932  28.072  32.570  1.00  0.00     0.049 A 
ATOM     57  H   UNL A   1      41.256  29.083  31.859  1.00  0.00     0.167 HD
ATOM     58  C   UNL A   1      37.733  31.068  30.045  1.00  0.00     0.037 A 
ATOM     59  C   UNL A   1      43.117  28.481  33.833  1.00  0.00     0.037 A 
ATOM     60  C   UNL A   1      37.777  31.464  31.430  1.00  0.00     0.049 A 
ATOM     61  C   UNL A   1      42.133  29.456  34.401  1.00  0.00     0.074 A 
ATOM     62  C   UNL A   1      36.896  32.277  32.123  1.00  0.00     0.029 A 
ATOM     63  N   UNL A   1      38.770  31.095  32.330  1.00  0.00    -0.354 N 
ATOM     64  N   UNL A   1      41.072  29.982  33.838  1.00  0.00    -0.248 NA
ATOM     65  C   UNL A   1      42.365  29.886  35.783  1.00  0.00     0.031 C 
ATOM     66  C   UNL A   1      37.393  32.456  33.417  1.00  0.00     0.029 A 
ATOM     67  C   UNL A   1      38.545  31.699  33.558  1.00  0.00     0.049 A 
ATOM     68  H   UNL A   1      39.521  30.493  32.127  1.00  0.00     0.167 HD
ATOM     69  C   UNL A   1      40.486  30.777  34.810  1.00  0.00     0.074 A 
ATOM     70  C   UNL A   1      41.303  30.647  36.000  1.00  0.00     0.031 C 
ATOM     71  C   UNL A   1      39.373  31.546  34.728  1.00  0.00     0.037 A 
BRANCH  58  72
ATOM     72  C   UNL A   1      36.661  31.647  29.171  1.00  0.00     0.057 A 
ATOM     73  C   UNL A   1      36.716  32.988  28.769  1.00  0.00     0.134 A 
ATOM     74  C   UNL A   1      35.531  30.908  28.796  1.00  0.00     0.134 A 
ATOM     75  F   UNL A   1      37.765  33.755  29.101  1.00  0.00    -0.206 F 
ATOM     76  C   UNL A   1      35.685  33.575  28.036  1.00  0.00     0.040 A 
ATOM     77  C   UNL A   1      34.504  31.478  28.042  1.00  0.00     0.040 A 
ATOM     78  F   UNL A   1      35.415  29.618  29.147  1.00  0.00    -0.206 F 
ATOM     79  C   UNL A   1      34.575  32.818  27.668  1.00  0.00     0.006 A 
ENDBRANCH  58  72
BRANCH  59  80
ATOM     80  C   UNL A   1      44.254  27.967  34.631  1.00  0.00     0.057 A 
ATOM     81  C   UNL A   1      45.492  28.620  34.638  1.00  0.00     0.134 A 
ATOM     82  C   UNL A   1      44.118  26.829  35.431  1.00  0.00     0.134 A 
ATOM     83  F   UNL A   1      45.696  29.699  33.868  1.00  0.00    -0.206 F 
ATOM     84  C   UNL A   1      46.547  28.173  35.432  1.00  0.00     0.040 A 
ATOM     85  C   UNL A   1      45.152  26.390  36.256  1.00  0.00     0.040 A 
ATOM     86  F   UNL A   1      42.956  26.157  35.459  1.00  0.00    -0.206 F 
ATOM     87  C   UNL A   1      46.371  27.067  36.260  1.00  0.00     0.006 A 
ENDBRANCH  59  80
BRANCH  71  88
ATOM     88  C   UNL A   1      38.962  32.263  35.979  1.00  0.00     0.057 A 
ATOM     89  C   UNL A   1      39.363  33.587  36.199  1.00  0.00     0.134 A 
ATOM     90  C   UNL A   1      38.186  31.647  36.969  1.00  0.00     0.134 A 
ATOM     91  F   UNL A   1      40.112  34.233  35.292  1.00  0.00    -0.206 F 
ATOM     92  C   UNL A   1      39.009  34.272  37.360  1.00  0.00     0.040 A 
ATOM     93  C   UNL A   1      37.796  32.334  38.118  1.00  0.00     0.040 A 
ATOM     94  F   UNL A   1      37.753  30.387  36.808  1.00  0.00    -0.206 F 
ATOM     95  C   UNL A   1      38.214  33.647  38.319  1.00  0.00     0.006 A 
ENDBRANCH  71  88
ENDBRANCH  45  46
ENDBRANCH  38  40
ENDBRANCH  37  38
ENDBRANCH  36  37
ENDBRANCH  35  36
ENDBRANCH  34  35
ENDBRANCH   1  34
TORSDOF 19
ENDMDL
MODEL 3
REMARK VINA RESULT:     -12.3      1.075      4.409
REMARK SMILES O=C(CNC(=O)[C@@H](CC1=c2ccccc2=NC1)N1C(=O)N=C2C=CC=C[C@H]2C1=O)OCCOCCOC(=O)c1ccc(-c2c3nc(c(-c4c(F)cccc4F)c4ccc([nH]4)c(-c4c(F)cccc4F)c4nc(c(-c5c(F)cccc5F)c5ccc2[nH]5)C=C4)C=C3)cc1
REMARK SMILES IDX 32 1 31 2 30 3 2 4 1 5 3 6 4 7 5 8 6 10 7 11 8 12 9 13 10 14
REMARK SMILES IDX 17 15 11 16 15 17 16 18 12 19 14 20 13 21 18 22 19 23 28 24
REMARK SMILES IDX 21 25 20 26 27 27 29 28 22 29 26 30 23 31 25 32 24 33 33 34
REMARK SMILES IDX 34 35 35 36 36 37 37 38 38 39 39 40 40 41 92 42 41 43 91 44
REMARK SMILES IDX 42 45 43 46 44 47 85 48 45 49 90 50 84 51 86 52 46 53 89 54
REMARK SMILES IDX 83 55 82 56 47 58 73 59 56 60 72 61 57 62 60 63 71 64 87 65
REMARK SMILES IDX 58 66 59 67 70 69 88 70 61 71 48 72 49 73 54 74 50 75 51 76
REMARK SMILES IDX 53 77 55 78 52 79 74 80 75 81 80 82 76 83 77 84 79 85 81 86
REMARK SMILES IDX 78 87 62 88 63 89 68 90 64 91 65 92 67 93 69 94 66 95
REMARK H PARENT 4 9 86 57 60 68
REMARK Flexibility Score: inf
ROOT
ATOM      1  C   UNL A   1      41.130  20.778  26.071  1.00  0.00     0.202 C 
ENDROOT
BRANCH   1   2
ATOM      2  C   UNL A   1      40.239  21.930  26.683  1.00  0.00     0.261 C 
BRANCH   2   3
ATOM      3  O   UNL A   1      38.928  21.955  26.051  1.00  0.00    -0.462 OA
BRANCH   3   4
ATOM      4  C   UNL A   1      37.936  22.843  25.900  1.00  0.00     0.325 C 
ATOM      5  O   UNL A   1      38.256  24.039  25.945  1.00  0.00    -0.250 OA
BRANCH   4   6
ATOM      6  C   UNL A   1      36.422  22.537  25.839  1.00  0.00     0.238 C 
BRANCH   6   7
ATOM      7  N   UNL A   1      35.326  22.572  26.823  1.00  0.00    -0.343 N 
ATOM      8  C   UNL A   1      34.070  21.972  26.710  1.00  0.00     0.244 C 
ATOM      9  H   UNL A   1      35.497  23.073  27.653  1.00  0.00     0.164 HD
ATOM     10  O   UNL A   1      33.731  21.127  27.537  1.00  0.00    -0.273 OA
BRANCH   8  11
ATOM     11  C   UNL A   1      33.079  22.593  25.715  1.00  0.00     0.188 C 
BRANCH  11  12
ATOM     12  C   UNL A   1      32.088  21.655  25.056  1.00  0.00     0.069 C 
BRANCH  12  13
ATOM     13  C   UNL A   1      32.208  20.458  24.200  1.00  0.00    -0.037 C 
ATOM     14  C   UNL A   1      32.495  19.205  24.496  1.00  0.00     0.001 A 
ATOM     15  C   UNL A   1      32.141  20.637  22.703  1.00  0.00     0.174 C 
ATOM     16  C   UNL A   1      32.772  18.512  25.699  1.00  0.00     0.010 A 
ATOM     17  C   UNL A   1      32.651  18.595  23.167  1.00  0.00     0.065 A 
ATOM     18  N   UNL A   1      32.433  19.323  22.118  1.00  0.00    -0.280 NA
ATOM     19  C   UNL A   1      33.233  17.259  25.601  1.00  0.00     0.001 A 
ATOM     20  C   UNL A   1      33.105  17.200  23.141  1.00  0.00     0.028 A 
ATOM     21  C   UNL A   1      33.400  16.609  24.310  1.00  0.00     0.002 A 
ENDBRANCH  12  13
ENDBRANCH  11  12
BRANCH  11  22
ATOM     22  N   UNL A   1      32.623  24.027  25.759  1.00  0.00    -0.249 N 
ATOM     23  C   UNL A   1      31.629  24.308  26.705  1.00  0.00     0.351 C 
ATOM     24  C   UNL A   1      33.391  25.044  25.200  1.00  0.00     0.244 C 
ATOM     25  N   UNL A   1      31.207  25.583  26.913  1.00  0.00    -0.197 NA
ATOM     26  O   UNL A   1      31.199  23.445  27.467  1.00  0.00    -0.246 OA
ATOM     27  C   UNL A   1      32.822  26.468  25.279  1.00  0.00     0.151 C 
ATOM     28  O   UNL A   1      34.477  24.836  24.654  1.00  0.00    -0.273 OA
ATOM     29  C   UNL A   1      31.791  26.590  26.370  1.00  0.00     0.062 C 
ATOM     30  C   UNL A   1      33.834  27.596  25.413  1.00  0.00    -0.007 C 
ATOM     31  C   UNL A   1      31.430  27.923  26.910  1.00  0.00     0.025 C 
ATOM     32  C   UNL A   1      33.582  28.718  26.111  1.00  0.00    -0.003 C 
ATOM     33  C   UNL A   1      32.332  28.903  26.807  1.00  0.00     0.002 C 
ENDBRANCH  11  22
ENDBRANCH   8  11
ENDBRANCH   6   7
ENDBRANCH   4   6
ENDBRANCH   3   4
ENDBRANCH   2   3
ENDBRANCH   1   2
BRANCH   1  34
ATOM     34  O   UNL A   1      42.444  20.749  26.610  1.00  0.00    -0.374 OA
BRANCH  34  35
ATOM     35  C   UNL A   1      43.630  21.321  26.047  1.00  0.00     0.202 C 
BRANCH  35  36
ATOM     36  C   UNL A   1      43.686  22.299  24.870  1.00  0.00     0.261 C 
BRANCH  36  37
ATOM     37  O   UNL A   1      43.142  23.568  25.149  1.00  0.00    -0.460 OA
BRANCH  37  38
ATOM     38  C   UNL A   1      44.040  24.552  25.336  1.00  0.00     0.338 C 
ATOM     39  O   UNL A   1      44.984  24.858  24.622  1.00  0.00    -0.246 OA
BRANCH  38  40
ATOM     40  C   UNL A   1      43.432  25.380  26.377  1.00  0.00     0.060 A 
ATOM     41  C   UNL A   1      42.229  24.980  26.974  1.00  0.00     0.016 A 
ATOM     42  C   UNL A   1      43.972  26.654  26.590  1.00  0.00     0.016 A 
ATOM     43  C   UNL A   1      41.574  25.855  27.820  1.00  0.00     0.010 A 
ATOM     44  C   UNL A   1      43.291  27.549  27.395  1.00  0.00     0.010 A 
ATOM     45  C   UNL A   1      42.131  27.121  28.059  1.00  0.00    -0.014 A 
BRANCH  45  46
ATOM     46  C   UNL A   1      41.747  27.819  29.290  1.00  0.00     0.031 A 
ATOM     47  C   UNL A   1      42.474  27.644  30.572  1.00  0.00     0.074 A 
ATOM     48  C   UNL A   1      40.673  28.619  29.163  1.00  0.00     0.049 A 
ATOM     49  N   UNL A   1      42.273  28.269  31.699  1.00  0.00    -0.248 NA
ATOM     50  C   UNL A   1      43.553  26.645  30.607  1.00  0.00     0.031 C 
ATOM     51  C   UNL A   1      39.899  28.799  27.924  1.00  0.00     0.029 A 
ATOM     52  N   UNL A   1      40.043  29.423  30.064  1.00  0.00    -0.354 N 
ATOM     53  C   UNL A   1      43.206  27.756  32.584  1.00  0.00     0.074 A 
ATOM     54  C   UNL A   1      43.954  26.740  31.870  1.00  0.00     0.031 C 
ATOM     55  C   UNL A   1      38.908  29.667  28.145  1.00  0.00     0.029 A 
ATOM     56  C   UNL A   1      38.963  30.084  29.536  1.00  0.00     0.049 A 
ATOM     57  H   UNL A   1      40.333  29.520  31.000  1.00  0.00     0.167 HD
ATOM     58  C   UNL A   1      43.404  28.122  33.873  1.00  0.00     0.037 A 
ATOM     59  C   UNL A   1      38.108  30.935  30.122  1.00  0.00     0.037 A 
ATOM     60  C   UNL A   1      42.616  29.124  34.548  1.00  0.00     0.049 A 
ATOM     61  C   UNL A   1      38.345  31.282  31.559  1.00  0.00     0.074 A 
ATOM     62  C   UNL A   1      42.766  29.618  35.832  1.00  0.00     0.029 A 
ATOM     63  N   UNL A   1      41.513  29.768  33.999  1.00  0.00    -0.354 N 
ATOM     64  N   UNL A   1      39.301  30.878  32.359  1.00  0.00    -0.248 NA
ATOM     65  C   UNL A   1      37.392  32.212  32.170  1.00  0.00     0.031 C 
ATOM     66  C   UNL A   1      41.715  30.505  36.084  1.00  0.00     0.029 A 
ATOM     67  C   UNL A   1      40.950  30.622  34.934  1.00  0.00     0.049 A 
ATOM     68  H   UNL A   1      41.182  29.638  33.081  1.00  0.00     0.167 HD
ATOM     69  C   UNL A   1      39.088  31.534  33.561  1.00  0.00     0.074 A 
ATOM     70  C   UNL A   1      37.921  32.374  33.373  1.00  0.00     0.031 C 
ATOM     71  C   UNL A   1      39.791  31.451  34.716  1.00  0.00     0.037 A 
BRANCH  58  72
ATOM     72  C   UNL A   1      44.491  27.433  34.643  1.00  0.00     0.057 A 
ATOM     73  C   UNL A   1      44.222  26.258  35.358  1.00  0.00     0.134 A 
ATOM     74  C   UNL A   1      45.779  27.971  34.748  1.00  0.00     0.134 A 
ATOM     75  F   UNL A   1      43.006  25.694  35.308  1.00  0.00    -0.206 F 
ATOM     76  C   UNL A   1      45.190  25.650  36.157  1.00  0.00     0.040 A 
ATOM     77  C   UNL A   1      46.764  27.358  35.525  1.00  0.00     0.040 A 
ATOM     78  F   UNL A   1      46.104  29.093  34.088  1.00  0.00    -0.206 F 
ATOM     79  C   UNL A   1      46.468  26.199  36.240  1.00  0.00     0.006 A 
ENDBRANCH  58  72
BRANCH  59  80
ATOM     80  C   UNL A   1      36.980  31.513  29.356  1.00  0.00     0.057 A 
ATOM     81  C   UNL A   1      37.049  32.806  28.823  1.00  0.00     0.134 A 
ATOM     82  C   UNL A   1      35.820  30.773  29.111  1.00  0.00     0.134 A 
ATOM     83  F   UNL A   1      38.123  33.578  29.050  1.00  0.00    -0.206 F 
ATOM     84  C   UNL A   1      36.014  33.332  28.052  1.00  0.00     0.040 A 
ATOM     85  C   UNL A   1      34.792  31.273  28.313  1.00  0.00     0.040 A 
ATOM     86  F   UNL A   1      35.694  29.531  29.601  1.00  0.00    -0.206 F 
ATOM     87  C   UNL A   1      34.890  32.557  27.778  1.00  0.00     0.006 A 
ENDBRANCH  59  80
BRANCH  71  88
ATOM     88  C   UNL A   1      39.333  32.330  35.842  1.00  0.00     0.057 A 
ATOM     89  C   UNL A   1      39.857  33.620  35.989  1.00  0.00     0.134 A 
ATOM     90  C   UNL A   1      38.389  31.901  36.784  1.00  0.00     0.134 A 
ATOM     91  F   UNL A   1      40.768  34.090  35.124  1.00  0.00    -0.206 F 
ATOM     92  C   UNL A   1      39.461  34.452  37.036  1.00  0.00     0.040 A 
ATOM     93  C   UNL A   1      37.959  32.737  37.814  1.00  0.00     0.040 A 
ATOM     94  F   UNL A   1      37.834  30.683  36.686  1.00  0.00    -0.206 F 
ATOM     95  C   UNL A   1      38.502  34.013  37.946  1.00  0.00     0.006 A 
ENDBRANCH  71  88
ENDBRANCH  45  46
ENDBRANCH  38  40
ENDBRANCH  37  38
ENDBRANCH  36  37
ENDBRANCH  35  36
ENDBRANCH  34  35
ENDBRANCH   1  34
TORSDOF 19
ENDMDL
