MODEL 1
REMARK VINA RESULT:     -11.9      0.000      0.000
REMARK SMILES C/C(=N\Nc1nc(-c2ccc(Cl)cc2)cs1)c1nnn(-c2ccc(C(=O)OCCOCCOC(=O)c3ccc(-c4c5nc(c(-c6c(F)cccc6F)c6ccc([nH]6)c(-c6c(F)cccc6F)c6nc(c(-c7c(F)cccc7F)c7ccc4[nH]7)C=C6)C=C5)cc3)cc2)c1C
REMARK SMILES IDX 28 1 27 2 25 3 26 4 24 5 21 6 22 7 91 8 23 9 90 10 20 11
REMARK SMILES IDX 17 12 18 13 92 14 19 15 93 16 2 17 1 18 3 19 4 20 5 22 6 23
REMARK SMILES IDX 16 24 7 25 15 26 8 27 9 28 14 29 10 30 13 31 11 32 12 33
REMARK SMILES IDX 29 34 30 35 31 36 32 37 33 38 34 39 35 40 36 41 37 42 89 43
REMARK SMILES IDX 38 44 88 45 39 46 40 47 41 48 82 49 42 50 87 51 81 52 83 53
REMARK SMILES IDX 43 54 86 55 80 56 79 57 44 59 70 60 53 61 69 62 54 63 57 64
REMARK SMILES IDX 68 65 84 66 55 67 56 68 67 70 85 71 58 72 45 73 46 74 51 75
REMARK SMILES IDX 47 76 48 77 50 78 52 79 49 80 71 81 72 82 77 83 73 84 74 85
REMARK SMILES IDX 76 86 78 87 75 88 59 89 60 90 65 91 61 92 62 93 64 94 66 95
REMARK SMILES IDX 63 96
REMARK H PARENT 4 21 83 58 57 69
REMARK Flexibility Score: inf
ROOT
ATOM      1  C   UNL A   1      43.478  18.788  25.879  1.00  0.00     0.261 C 
ENDROOT
BRANCH   1   2
ATOM      2  O   UNL A   1      42.057  18.851  25.683  1.00  0.00    -0.460 OA
BRANCH   2   3
ATOM      3  C   UNL A   1      41.379  19.505  26.659  1.00  0.00     0.338 C 
ATOM      4  O   UNL A   1      41.707  19.637  27.823  1.00  0.00    -0.246 OA
BRANCH   3   5
ATOM      5  C   UNL A   1      40.200  20.187  26.080  1.00  0.00     0.060 A 
ATOM      6  C   UNL A   1      37.839  21.457  25.387  1.00  0.00     0.067 A 
ATOM      7  C   UNL A   1      38.865  22.212  25.959  1.00  0.00     0.029 A 
ATOM      8  C   UNL A   1      38.044  20.119  25.021  1.00  0.00     0.029 A 
ATOM      9  C   UNL A   1      40.042  21.561  26.327  1.00  0.00     0.018 A 
ATOM     10  C   UNL A   1      39.231  19.480  25.365  1.00  0.00     0.018 A 
BRANCH   6  11
ATOM     11  N   UNL A   1      36.520  21.959  25.429  1.00  0.00    -0.217 N 
ATOM     12  C   UNL A   1      34.590  22.737  24.781  1.00  0.00     0.132 A 
ATOM     13  N   UNL A   1      34.406  22.012  25.925  1.00  0.00    -0.128 NA
ATOM     14  C   UNL A   1      35.935  22.739  24.446  1.00  0.00     0.071 A 
ATOM     15  N   UNL A   1      35.574  21.473  26.262  1.00  0.00    -0.061 NA
ATOM     16  C   UNL A   1      36.620  23.209  23.211  1.00  0.00     0.069 C 
BRANCH  12  17
ATOM     17  C   UNL A   1      33.519  23.225  23.924  1.00  0.00     0.087 C 
ATOM     18  C   UNL A   1      32.776  22.139  23.178  1.00  0.00     0.071 C 
ATOM     19  N   UNL A   1      33.385  24.520  23.833  1.00  0.00    -0.176 NA
BRANCH  19  20
ATOM     20  N   UNL A   1      32.532  25.129  22.939  1.00  0.00    -0.252 N 
ATOM     21  H   UNL A   1      32.876  25.197  22.019  1.00  0.00     0.193 HD
BRANCH  20  22
ATOM     22  C   UNL A   1      31.292  25.651  23.123  1.00  0.00     0.203 A 
ATOM     23  N   UNL A   1      30.759  26.627  22.427  1.00  0.00    -0.219 NA
ATOM     24  S   UNL A   1      30.314  25.134  24.452  1.00  0.00    -0.103 S 
ATOM     25  C   UNL A   1      29.731  27.216  23.133  1.00  0.00     0.084 A 
ATOM     26  C   UNL A   1      29.349  26.549  24.275  1.00  0.00     0.097 A 
BRANCH  25  27
ATOM     27  C   UNL A   1      29.228  28.507  22.702  1.00  0.00     0.001 A 
ATOM     28  C   UNL A   1      30.077  29.373  22.002  1.00  0.00     0.012 A 
ATOM     29  C   UNL A   1      27.962  28.958  23.104  1.00  0.00     0.012 A 
ATOM     30  C   UNL A   1      29.659  30.668  21.685  1.00  0.00     0.021 A 
ATOM     31  C   UNL A   1      27.549  30.257  22.796  1.00  0.00     0.021 A 
ATOM     32  C   UNL A   1      28.399  31.105  22.085  1.00  0.00     0.041 A 
ATOM     33  Cl  UNL A   1      27.894  32.708  21.718  1.00  0.00    -0.084 Cl
ENDBRANCH  25  27
ENDBRANCH  20  22
ENDBRANCH  19  20
ENDBRANCH  12  17
ENDBRANCH   6  11
ENDBRANCH   3   5
ENDBRANCH   2   3
ENDBRANCH   1   2
BRANCH   1  34
ATOM     34  C   UNL A   1      44.247  18.871  24.559  1.00  0.00     0.202 C 
BRANCH  34  35
ATOM     35  O   UNL A   1      44.686  20.156  24.122  1.00  0.00    -0.374 OA
BRANCH  35  36
ATOM     36  C   UNL A   1      45.033  21.146  25.082  1.00  0.00     0.202 C 
BRANCH  36  37
ATOM     37  C   UNL A   1      45.355  22.551  24.596  1.00  0.00     0.261 C 
BRANCH  37  38
ATOM     38  O   UNL A   1      44.732  23.578  25.357  1.00  0.00    -0.460 OA
BRANCH  38  39
ATOM     39  C   UNL A   1      43.387  23.430  25.434  1.00  0.00     0.338 C 
ATOM     40  O   UNL A   1      42.682  22.750  24.714  1.00  0.00    -0.246 OA
BRANCH  39  41
ATOM     41  C   UNL A   1      42.858  24.403  26.396  1.00  0.00     0.060 A 
ATOM     42  C   UNL A   1      41.805  25.201  25.947  1.00  0.00     0.016 A 
ATOM     43  C   UNL A   1      43.550  24.694  27.582  1.00  0.00     0.016 A 
ATOM     44  C   UNL A   1      41.565  26.391  26.595  1.00  0.00     0.010 A 
ATOM     45  C   UNL A   1      43.310  25.887  28.229  1.00  0.00     0.010 A 
ATOM     46  C   UNL A   1      42.367  26.754  27.689  1.00  0.00    -0.014 A 
BRANCH  46  47
ATOM     47  C   UNL A   1      42.022  27.978  28.383  1.00  0.00     0.031 A 
ATOM     48  C   UNL A   1      43.065  29.003  28.179  1.00  0.00     0.074 A 
ATOM     49  C   UNL A   1      40.899  28.180  29.096  1.00  0.00     0.049 A 
ATOM     50  N   UNL A   1      43.998  29.308  29.014  1.00  0.00    -0.248 NA
ATOM     51  C   UNL A   1      43.251  29.568  26.834  1.00  0.00     0.031 C 
ATOM     52  C   UNL A   1      39.708  27.331  29.166  1.00  0.00     0.029 A 
ATOM     53  N   UNL A   1      40.562  29.247  29.876  1.00  0.00    -0.354 N 
ATOM     54  C   UNL A   1      44.733  30.308  28.392  1.00  0.00     0.074 A 
ATOM     55  C   UNL A   1      44.381  30.261  27.000  1.00  0.00     0.031 C 
ATOM     56  C   UNL A   1      38.704  28.019  29.763  1.00  0.00     0.029 A 
ATOM     57  C   UNL A   1      39.220  29.290  30.244  1.00  0.00     0.049 A 
ATOM     58  H   UNL A   1      41.214  29.930  30.157  1.00  0.00     0.167 HD
ATOM     59  C   UNL A   1      45.276  31.296  29.150  1.00  0.00     0.037 A 
ATOM     60  C   UNL A   1      38.591  30.316  30.874  1.00  0.00     0.037 A 
ATOM     61  C   UNL A   1      45.328  30.896  30.540  1.00  0.00     0.049 A 
ATOM     62  C   UNL A   1      39.632  31.091  31.583  1.00  0.00     0.074 A 
ATOM     63  C   UNL A   1      45.960  29.919  31.280  1.00  0.00     0.029 A 
ATOM     64  N   UNL A   1      44.271  31.341  31.289  1.00  0.00    -0.354 N 
ATOM     65  N   UNL A   1      40.280  30.649  32.622  1.00  0.00    -0.248 NA
ATOM     66  C   UNL A   1      40.234  32.237  30.915  1.00  0.00     0.031 C 
ATOM     67  C   UNL A   1      45.067  29.605  32.352  1.00  0.00     0.029 A 
ATOM     68  C   UNL A   1      43.953  30.440  32.264  1.00  0.00     0.049 A 
ATOM     69  H   UNL A   1      43.804  32.195  31.144  1.00  0.00     0.167 HD
ATOM     70  C   UNL A   1      41.564  31.131  32.456  1.00  0.00     0.074 A 
ATOM     71  C   UNL A   1      41.431  32.232  31.505  1.00  0.00     0.031 C 
ATOM     72  C   UNL A   1      42.635  30.383  32.859  1.00  0.00     0.037 A 
BRANCH  59  73
ATOM     73  C   UNL A   1      45.198  32.764  28.767  1.00  0.00     0.057 A 
ATOM     74  C   UNL A   1      43.936  33.309  28.464  1.00  0.00     0.134 A 
ATOM     75  C   UNL A   1      46.296  33.549  28.350  1.00  0.00     0.134 A 
ATOM     76  F   UNL A   1      42.810  32.652  28.784  1.00  0.00    -0.206 F 
ATOM     77  C   UNL A   1      43.783  34.489  27.727  1.00  0.00     0.040 A 
ATOM     78  C   UNL A   1      46.152  34.753  27.658  1.00  0.00     0.040 A 
ATOM     79  F   UNL A   1      47.566  33.156  28.488  1.00  0.00    -0.206 F 
ATOM     80  C   UNL A   1      44.894  35.212  27.313  1.00  0.00     0.006 A 
ENDBRANCH  59  73
BRANCH  60  81
ATOM     81  C   UNL A   1      37.217  30.849  30.706  1.00  0.00     0.057 A 
ATOM     82  C   UNL A   1      36.421  31.160  31.823  1.00  0.00     0.134 A 
ATOM     83  C   UNL A   1      36.773  31.366  29.478  1.00  0.00     0.134 A 
ATOM     84  F   UNL A   1      36.770  30.740  33.048  1.00  0.00    -0.206 F 
ATOM     85  C   UNL A   1      35.289  31.982  31.734  1.00  0.00     0.040 A 
ATOM     86  C   UNL A   1      35.641  32.183  29.375  1.00  0.00     0.040 A 
ATOM     87  F   UNL A   1      37.476  31.178  28.353  1.00  0.00    -0.206 F 
ATOM     88  C   UNL A   1      34.907  32.512  30.508  1.00  0.00     0.006 A 
ENDBRANCH  60  81
BRANCH  72  89
ATOM     89  C   UNL A   1      42.381  29.312  33.880  1.00  0.00     0.057 A 
ATOM     90  C   UNL A   1      42.300  29.519  35.265  1.00  0.00     0.134 A 
ATOM     91  C   UNL A   1      42.124  28.016  33.416  1.00  0.00     0.134 A 
ATOM     92  F   UNL A   1      42.448  30.740  35.797  1.00  0.00    -0.206 F 
ATOM     93  C   UNL A   1      42.021  28.470  36.148  1.00  0.00     0.040 A 
ATOM     94  C   UNL A   1      41.808  26.970  34.283  1.00  0.00     0.040 A 
ATOM     95  F   UNL A   1      42.145  27.754  32.100  1.00  0.00    -0.206 F 
ATOM     96  C   UNL A   1      41.768  27.192  35.656  1.00  0.00     0.006 A 
ENDBRANCH  72  89
ENDBRANCH  46  47
ENDBRANCH  39  41
ENDBRANCH  38  39
ENDBRANCH  37  38
ENDBRANCH  36  37
ENDBRANCH  35  36
ENDBRANCH  34  35
ENDBRANCH   1  34
TORSDOF 19
ENDMDL
MODEL 2
REMARK VINA RESULT:     -11.4      1.949      2.606
REMARK SMILES C/C(=N\Nc1nc(-c2ccc(Cl)cc2)cs1)c1nnn(-c2ccc(C(=O)OCCOCCOC(=O)c3ccc(-c4c5nc(c(-c6c(F)cccc6F)c6ccc([nH]6)c(-c6c(F)cccc6F)c6nc(c(-c7c(F)cccc7F)c7ccc4[nH]7)C=C6)C=C5)cc3)cc2)c1C
REMARK SMILES IDX 28 1 27 2 25 3 26 4 24 5 21 6 22 7 91 8 23 9 90 10 20 11
REMARK SMILES IDX 17 12 18 13 92 14 19 15 93 16 2 17 1 18 3 19 4 20 5 22 6 23
REMARK SMILES IDX 16 24 7 25 15 26 8 27 9 28 14 29 10 30 13 31 11 32 12 33
REMARK SMILES IDX 29 34 30 35 31 36 32 37 33 38 34 39 35 40 36 41 37 42 89 43
REMARK SMILES IDX 38 44 88 45 39 46 40 47 41 48 82 49 42 50 87 51 81 52 83 53
REMARK SMILES IDX 43 54 86 55 80 56 79 57 44 59 70 60 53 61 69 62 54 63 57 64
REMARK SMILES IDX 68 65 84 66 55 67 56 68 67 70 85 71 58 72 45 73 46 74 51 75
REMARK SMILES IDX 47 76 48 77 50 78 52 79 49 80 71 81 72 82 77 83 73 84 74 85
REMARK SMILES IDX 76 86 78 87 75 88 59 89 60 90 65 91 61 92 62 93 64 94 66 95
REMARK SMILES IDX 63 96
REMARK H PARENT 4 21 83 58 57 69
REMARK Flexibility Score: inf
ROOT
ATOM      1  C   UNL A   1      45.508  19.128  24.442  1.00  0.00     0.261 C 
ENDROOT
BRANCH   1   2
ATOM      2  O   UNL A   1      44.145  19.578  24.487  1.00  0.00    -0.460 OA
BRANCH   2   3
ATOM      3  C   UNL A   1      43.412  19.065  25.505  1.00  0.00     0.338 C 
ATOM      4  O   UNL A   1      43.605  18.019  26.098  1.00  0.00    -0.246 OA
BRANCH   3   5
ATOM      5  C   UNL A   1      42.377  20.038  25.919  1.00  0.00     0.060 A 
ATOM      6  C   UNL A   1      40.253  21.765  26.332  1.00  0.00     0.067 A 
ATOM      7  C   UNL A   1      40.078  20.407  26.609  1.00  0.00     0.029 A 
ATOM      8  C   UNL A   1      41.515  22.280  26.002  1.00  0.00     0.029 A 
ATOM      9  C   UNL A   1      41.145  19.540  26.376  1.00  0.00     0.018 A 
ATOM     10  C   UNL A   1      42.585  21.413  25.798  1.00  0.00     0.018 A 
BRANCH   6  11
ATOM     11  N   UNL A   1      39.111  22.567  26.116  1.00  0.00    -0.217 N 
ATOM     12  C   UNL A   1      37.040  23.153  25.772  1.00  0.00     0.132 A 
ATOM     13  N   UNL A   1      37.654  24.132  26.501  1.00  0.00    -0.128 NA
ATOM     14  C   UNL A   1      37.949  22.145  25.493  1.00  0.00     0.071 A 
ATOM     15  N   UNL A   1      38.889  23.725  26.778  1.00  0.00    -0.061 NA
ATOM     16  C   UNL A   1      37.739  20.792  24.908  1.00  0.00     0.069 C 
BRANCH  12  17
ATOM     17  C   UNL A   1      35.606  23.069  25.533  1.00  0.00     0.087 C 
ATOM     18  C   UNL A   1      34.830  22.393  26.641  1.00  0.00     0.071 C 
ATOM     19  N   UNL A   1      35.178  23.498  24.377  1.00  0.00    -0.176 NA
BRANCH  19  20
ATOM     20  N   UNL A   1      33.882  23.331  23.943  1.00  0.00    -0.252 N 
ATOM     21  H   UNL A   1      33.702  22.472  23.497  1.00  0.00     0.193 HD
BRANCH  20  22
ATOM     22  C   UNL A   1      32.811  24.161  24.032  1.00  0.00     0.203 A 
ATOM     23  N   UNL A   1      32.860  25.462  24.195  1.00  0.00    -0.219 NA
ATOM     24  S   UNL A   1      31.206  23.517  24.079  1.00  0.00    -0.103 S 
ATOM     25  C   UNL A   1      31.665  25.930  24.702  1.00  0.00     0.084 A 
ATOM     26  C   UNL A   1      30.641  25.010  24.726  1.00  0.00     0.097 A 
BRANCH  25  27
ATOM     27  C   UNL A   1      31.611  27.267  25.262  1.00  0.00     0.001 A 
ATOM     28  C   UNL A   1      31.494  28.365  24.401  1.00  0.00     0.012 A 
ATOM     29  C   UNL A   1      31.824  27.484  26.631  1.00  0.00     0.012 A 
ATOM     30  C   UNL A   1      31.564  29.666  24.902  1.00  0.00     0.021 A 
ATOM     31  C   UNL A   1      31.906  28.788  27.131  1.00  0.00     0.021 A 
ATOM     32  C   UNL A   1      31.772  29.872  26.264  1.00  0.00     0.041 A 
ATOM     33  Cl  UNL A   1      31.885  31.475  26.878  1.00  0.00    -0.084 Cl
ENDBRANCH  25  27
ENDBRANCH  20  22
ENDBRANCH  19  20
ENDBRANCH  12  17
ENDBRANCH   6  11
ENDBRANCH   3   5
ENDBRANCH   2   3
ENDBRANCH   1   2
BRANCH   1  34
ATOM     34  C   UNL A   1      46.502  20.279  24.605  1.00  0.00     0.202 C 
BRANCH  34  35
ATOM     35  O   UNL A   1      46.032  21.487  25.200  1.00  0.00    -0.374 OA
BRANCH  35  36
ATOM     36  C   UNL A   1      46.093  22.704  24.466  1.00  0.00     0.202 C 
BRANCH  36  37
ATOM     37  C   UNL A   1      45.214  23.864  24.905  1.00  0.00     0.261 C 
BRANCH  37  38
ATOM     38  O   UNL A   1      45.722  24.577  26.025  1.00  0.00    -0.460 OA
BRANCH  38  39
ATOM     39  C   UNL A   1      44.844  24.627  27.056  1.00  0.00     0.338 C 
ATOM     40  O   UNL A   1      44.357  23.687  27.651  1.00  0.00    -0.246 OA
BRANCH  39  41
ATOM     41  C   UNL A   1      44.380  26.011  27.215  1.00  0.00     0.060 A 
ATOM     42  C   UNL A   1      44.946  26.731  28.267  1.00  0.00     0.016 A 
ATOM     43  C   UNL A   1      43.246  26.474  26.528  1.00  0.00     0.016 A 
ATOM     44  C   UNL A   1      44.267  27.829  28.745  1.00  0.00     0.010 A 
ATOM     45  C   UNL A   1      42.566  27.572  27.011  1.00  0.00     0.010 A 
ATOM     46  C   UNL A   1      43.047  28.198  28.155  1.00  0.00    -0.014 A 
BRANCH  46  47
ATOM     47  C   UNL A   1      42.415  29.405  28.645  1.00  0.00     0.031 A 
ATOM     48  C   UNL A   1      43.271  30.581  28.394  1.00  0.00     0.074 A 
ATOM     49  C   UNL A   1      41.203  29.468  29.228  1.00  0.00     0.049 A 
ATOM     50  N   UNL A   1      44.039  31.155  29.256  1.00  0.00    -0.248 NA
ATOM     51  C   UNL A   1      43.497  31.009  27.005  1.00  0.00     0.031 C 
ATOM     52  C   UNL A   1      40.184  28.421  29.311  1.00  0.00     0.029 A 
ATOM     53  N   UNL A   1      40.597  30.535  29.826  1.00  0.00    -0.354 N 
ATOM     54  C   UNL A   1      44.644  32.197  28.569  1.00  0.00     0.074 A 
ATOM     55  C   UNL A   1      44.459  31.922  27.171  1.00  0.00     0.031 C 
ATOM     56  C   UNL A   1      39.014  28.967  29.724  1.00  0.00     0.029 A 
ATOM     57  C   UNL A   1      39.238  30.361  30.070  1.00  0.00     0.049 A 
ATOM     58  H   UNL A   1      41.081  31.358  30.066  1.00  0.00     0.167 HD
ATOM     59  C   UNL A   1      44.915  33.353  29.230  1.00  0.00     0.037 A 
ATOM     60  C   UNL A   1      38.370  31.313  30.501  1.00  0.00     0.037 A 
ATOM     61  C   UNL A   1      44.888  33.135  30.660  1.00  0.00     0.049 A 
ATOM     62  C   UNL A   1      39.172  32.351  31.185  1.00  0.00     0.074 A 
ATOM     63  C   UNL A   1      45.602  32.391  31.576  1.00  0.00     0.029 A 
ATOM     64  N   UNL A   1      43.694  33.453  31.251  1.00  0.00    -0.354 N 
ATOM     65  N   UNL A   1      39.773  32.166  32.325  1.00  0.00    -0.248 NA
ATOM     66  C   UNL A   1      39.626  33.506  30.421  1.00  0.00     0.031 C 
ATOM     67  C   UNL A   1      44.670  32.038  32.601  1.00  0.00     0.029 A 
ATOM     68  C   UNL A   1      43.440  32.628  32.309  1.00  0.00     0.049 A 
ATOM     69  H   UNL A   1      43.099  34.178  30.954  1.00  0.00     0.167 HD
ATOM     70  C   UNL A   1      40.959  32.863  32.204  1.00  0.00     0.074 A 
ATOM     71  C   UNL A   1      40.733  33.800  31.105  1.00  0.00     0.031 C 
ATOM     72  C   UNL A   1      42.097  32.388  32.792  1.00  0.00     0.037 A 
BRANCH  59  73
ATOM     73  C   UNL A   1      44.616  34.724  28.648  1.00  0.00     0.057 A 
ATOM     74  C   UNL A   1      43.304  34.993  28.214  1.00  0.00     0.134 A 
ATOM     75  C   UNL A   1      45.591  35.632  28.180  1.00  0.00     0.134 A 
ATOM     76  F   UNL A   1      42.286  34.192  28.568  1.00  0.00    -0.206 F 
ATOM     77  C   UNL A   1      43.005  36.025  27.317  1.00  0.00     0.040 A 
ATOM     78  C   UNL A   1      45.293  36.695  27.324  1.00  0.00     0.040 A 
ATOM     79  F   UNL A   1      46.897  35.492  28.429  1.00  0.00    -0.206 F 
ATOM     80  C   UNL A   1      44.003  36.876  26.861  1.00  0.00     0.006 A 
ENDBRANCH  59  73
BRANCH  60  81
ATOM     81  C   UNL A   1      36.949  31.548  30.148  1.00  0.00     0.057 A 
ATOM     82  C   UNL A   1      35.999  31.856  31.139  1.00  0.00     0.134 A 
ATOM     83  C   UNL A   1      36.551  31.797  28.825  1.00  0.00     0.134 A 
ATOM     84  F   UNL A   1      36.288  31.684  32.438  1.00  0.00    -0.206 F 
ATOM     85  C   UNL A   1      34.757  32.428  30.837  1.00  0.00     0.040 A 
ATOM     86  C   UNL A   1      35.310  32.363  28.509  1.00  0.00     0.040 A 
ATOM     87  F   UNL A   1      37.389  31.590  27.799  1.00  0.00    -0.206 F 
ATOM     88  C   UNL A   1      34.416  32.702  29.518  1.00  0.00     0.006 A 
ENDBRANCH  60  81
BRANCH  72  89
ATOM     89  C   UNL A   1      41.932  31.414  33.924  1.00  0.00     0.057 A 
ATOM     90  C   UNL A   1      41.698  31.763  35.262  1.00  0.00     0.134 A 
ATOM     91  C   UNL A   1      41.929  30.049  33.614  1.00  0.00     0.134 A 
ATOM     92  F   UNL A   1      41.600  33.045  35.641  1.00  0.00    -0.206 F 
ATOM     93  C   UNL A   1      41.517  30.791  36.251  1.00  0.00     0.040 A 
ATOM     94  C   UNL A   1      41.712  29.072  34.585  1.00  0.00     0.040 A 
ATOM     95  F   UNL A   1      42.107  29.644  32.346  1.00  0.00    -0.206 F 
ATOM     96  C   UNL A   1      41.517  29.441  35.912  1.00  0.00     0.006 A 
ENDBRANCH  72  89
ENDBRANCH  46  47
ENDBRANCH  39  41
ENDBRANCH  38  39
ENDBRANCH  37  38
ENDBRANCH  36  37
ENDBRANCH  35  36
ENDBRANCH  34  35
ENDBRANCH   1  34
TORSDOF 19
ENDMDL
MODEL 3
REMARK VINA RESULT:     -11.3      3.617      4.951
REMARK SMILES C/C(=N\Nc1nc(-c2ccc(Cl)cc2)cs1)c1nnn(-c2ccc(C(=O)OCCOCCOC(=O)c3ccc(-c4c5nc(c(-c6c(F)cccc6F)c6ccc([nH]6)c(-c6c(F)cccc6F)c6nc(c(-c7c(F)cccc7F)c7ccc4[nH]7)C=C6)C=C5)cc3)cc2)c1C
REMARK SMILES IDX 28 1 27 2 25 3 26 4 24 5 21 6 22 7 91 8 23 9 90 10 20 11
REMARK SMILES IDX 17 12 18 13 92 14 19 15 93 16 2 17 1 18 3 19 4 20 5 22 6 23
REMARK SMILES IDX 16 24 7 25 15 26 8 27 9 28 14 29 10 30 13 31 11 32 12 33
REMARK SMILES IDX 29 34 30 35 31 36 32 37 33 38 34 39 35 40 36 41 37 42 89 43
REMARK SMILES IDX 38 44 88 45 39 46 40 47 41 48 82 49 42 50 87 51 81 52 83 53
REMARK SMILES IDX 43 54 86 55 80 56 79 57 44 59 70 60 53 61 69 62 54 63 57 64
REMARK SMILES IDX 68 65 84 66 55 67 56 68 67 70 85 71 58 72 45 73 46 74 51 75
REMARK SMILES IDX 47 76 48 77 50 78 52 79 49 80 71 81 72 82 77 83 73 84 74 85
REMARK SMILES IDX 76 86 78 87 75 88 59 89 60 90 65 91 61 92 62 93 64 94 66 95
REMARK SMILES IDX 63 96
REMARK H PARENT 4 21 83 58 57 69
REMARK Flexibility Score: inf
ROOT
ATOM      1  C   UNL A   1      45.525  19.202  24.235  1.00  0.00     0.261 C 
ENDROOT
BRANCH   1   2
ATOM      2  O   UNL A   1      44.118  19.471  24.329  1.00  0.00    -0.460 OA
BRANCH   2   3
ATOM      3  C   UNL A   1      43.509  18.929  25.413  1.00  0.00     0.338 C 
ATOM      4  O   UNL A   1      43.840  17.928  26.021  1.00  0.00    -0.246 OA
BRANCH   3   5
ATOM      5  C   UNL A   1      42.418  19.818  25.872  1.00  0.00     0.060 A 
ATOM      6  C   UNL A   1      40.267  21.500  26.328  1.00  0.00     0.067 A 
ATOM      7  C   UNL A   1      40.030  20.132  26.178  1.00  0.00     0.029 A 
ATOM      8  C   UNL A   1      41.574  22.003  26.406  1.00  0.00     0.029 A 
ATOM      9  C   UNL A   1      41.116  19.294  25.924  1.00  0.00     0.018 A 
ATOM     10  C   UNL A   1      42.656  21.158  26.181  1.00  0.00     0.018 A 
BRANCH   6  11
ATOM     11  N   UNL A   1      39.199  22.401  26.127  1.00  0.00    -0.217 N 
ATOM     12  C   UNL A   1      37.183  23.172  25.824  1.00  0.00     0.132 A 
ATOM     13  N   UNL A   1      37.905  24.102  26.518  1.00  0.00    -0.128 NA
ATOM     14  C   UNL A   1      37.987  22.079  25.542  1.00  0.00     0.071 A 
ATOM     15  N   UNL A   1      39.104  23.586  26.771  1.00  0.00    -0.061 NA
ATOM     16  C   UNL A   1      37.636  20.742  24.989  1.00  0.00     0.069 C 
BRANCH  12  17
ATOM     17  C   UNL A   1      35.742  23.218  25.624  1.00  0.00     0.087 C 
ATOM     18  C   UNL A   1      34.932  22.967  26.877  1.00  0.00     0.071 C 
ATOM     19  N   UNL A   1      35.325  23.380  24.398  1.00  0.00    -0.176 NA
BRANCH  19  20
ATOM     20  N   UNL A   1      34.001  23.277  24.032  1.00  0.00    -0.252 N 
ATOM     21  H   UNL A   1      33.535  24.137  23.921  1.00  0.00     0.193 HD
BRANCH  20  22
ATOM     22  C   UNL A   1      33.235  22.181  23.799  1.00  0.00     0.203 A 
ATOM     23  N   UNL A   1      33.247  21.073  24.501  1.00  0.00    -0.219 NA
ATOM     24  S   UNL A   1      32.225  22.101  22.397  1.00  0.00    -0.103 S 
ATOM     25  C   UNL A   1      32.732  20.028  23.762  1.00  0.00     0.084 A 
ATOM     26  C   UNL A   1      32.137  20.390  22.574  1.00  0.00     0.097 A 
BRANCH  25  27
ATOM     27  C   UNL A   1      32.952  18.668  24.214  1.00  0.00     0.001 A 
ATOM     28  C   UNL A   1      33.509  17.735  23.330  1.00  0.00     0.012 A 
ATOM     29  C   UNL A   1      32.481  18.237  25.462  1.00  0.00     0.012 A 
ATOM     30  C   UNL A   1      33.617  16.391  23.697  1.00  0.00     0.021 A 
ATOM     31  C   UNL A   1      32.578  16.890  25.825  1.00  0.00     0.021 A 
ATOM     32  C   UNL A   1      33.149  15.975  24.941  1.00  0.00     0.041 A 
ATOM     33  Cl  UNL A   1      33.257  14.315  25.382  1.00  0.00    -0.084 Cl
ENDBRANCH  25  27
ENDBRANCH  20  22
ENDBRANCH  19  20
ENDBRANCH  12  17
ENDBRANCH   6  11
ENDBRANCH   3   5
ENDBRANCH   2   3
ENDBRANCH   1   2
BRANCH   1  34
ATOM     34  C   UNL A   1      46.363  20.233  24.993  1.00  0.00     0.202 C 
BRANCH  34  35
ATOM     35  O   UNL A   1      45.741  21.467  25.348  1.00  0.00    -0.374 OA
BRANCH  35  36
ATOM     36  C   UNL A   1      46.117  22.664  24.678  1.00  0.00     0.202 C 
BRANCH  36  37
ATOM     37  C   UNL A   1      45.378  23.950  25.014  1.00  0.00     0.261 C 
BRANCH  37  38
ATOM     38  O   UNL A   1      45.854  24.595  26.188  1.00  0.00    -0.460 OA
BRANCH  38  39
ATOM     39  C   UNL A   1      44.927  24.636  27.176  1.00  0.00     0.338 C 
ATOM     40  O   UNL A   1      44.455  23.692  27.778  1.00  0.00    -0.246 OA
BRANCH  39  41
ATOM     41  C   UNL A   1      44.396  26.001  27.271  1.00  0.00     0.060 A 
ATOM     42  C   UNL A   1      45.155  26.906  28.011  1.00  0.00     0.016 A 
ATOM     43  C   UNL A   1      43.079  26.291  26.875  1.00  0.00     0.016 A 
ATOM     44  C   UNL A   1      44.531  28.028  28.508  1.00  0.00     0.010 A 
ATOM     45  C   UNL A   1      42.456  27.413  27.376  1.00  0.00     0.010 A 
ATOM     46  C   UNL A   1      43.168  28.235  28.242  1.00  0.00    -0.014 A 
BRANCH  46  47
ATOM     47  C   UNL A   1      42.582  29.469  28.722  1.00  0.00     0.031 A 
ATOM     48  C   UNL A   1      43.386  30.630  28.291  1.00  0.00     0.074 A 
ATOM     49  C   UNL A   1      41.447  29.565  29.440  1.00  0.00     0.049 A 
ATOM     50  N   UNL A   1      44.243  31.266  29.014  1.00  0.00    -0.248 NA
ATOM     51  C   UNL A   1      43.438  30.964  26.860  1.00  0.00     0.031 C 
ATOM     52  C   UNL A   1      40.461  28.520  29.715  1.00  0.00     0.029 A 
ATOM     53  N   UNL A   1      40.903  30.666  30.034  1.00  0.00    -0.354 N 
ATOM     54  C   UNL A   1      44.747  32.263  28.192  1.00  0.00     0.074 A 
ATOM     55  C   UNL A   1      44.400  31.891  26.847  1.00  0.00     0.031 C 
ATOM     56  C   UNL A   1      39.341  29.086  30.227  1.00  0.00     0.029 A 
ATOM     57  C   UNL A   1      39.585  30.502  30.450  1.00  0.00     0.049 A 
ATOM     58  H   UNL A   1      41.400  31.507  30.157  1.00  0.00     0.167 HD
ATOM     59  C   UNL A   1      45.079  33.463  28.736  1.00  0.00     0.037 A 
ATOM     60  C   UNL A   1      38.761  31.476  30.917  1.00  0.00     0.037 A 
ATOM     61  C   UNL A   1      45.225  33.343  30.170  1.00  0.00     0.049 A 
ATOM     62  C   UNL A   1      39.624  32.564  31.428  1.00  0.00     0.074 A 
ATOM     63  C   UNL A   1      46.054  32.668  31.042  1.00  0.00     0.029 A 
ATOM     64  N   UNL A   1      44.106  33.694  30.877  1.00  0.00    -0.354 N 
ATOM     65  N   UNL A   1      40.359  32.461  32.498  1.00  0.00    -0.248 NA
ATOM     66  C   UNL A   1      39.967  33.666  30.539  1.00  0.00     0.031 C 
ATOM     67  C   UNL A   1      45.256  32.381  32.193  1.00  0.00     0.029 A 
ATOM     68  C   UNL A   1      43.991  32.941  32.011  1.00  0.00     0.049 A 
ATOM     69  H   UNL A   1      43.470  34.393  30.605  1.00  0.00     0.167 HD
ATOM     70  C   UNL A   1      41.513  33.155  32.188  1.00  0.00     0.074 A 
ATOM     71  C   UNL A   1      41.144  34.012  31.065  1.00  0.00     0.031 C 
ATOM     72  C   UNL A   1      42.719  32.727  32.667  1.00  0.00     0.037 A 
BRANCH  59  73
ATOM     73  C   UNL A   1      44.693  34.789  28.102  1.00  0.00     0.057 A 
ATOM     74  C   UNL A   1      45.692  35.769  27.947  1.00  0.00     0.134 A 
ATOM     75  C   UNL A   1      43.371  35.266  27.971  1.00  0.00     0.134 A 
ATOM     76  F   UNL A   1      46.990  35.452  28.071  1.00  0.00    -0.206 F 
ATOM     77  C   UNL A   1      45.394  37.125  27.766  1.00  0.00     0.040 A 
ATOM     78  C   UNL A   1      43.065  36.610  27.740  1.00  0.00     0.040 A 
ATOM     79  F   UNL A   1      42.295  34.495  28.159  1.00  0.00    -0.206 F 
ATOM     80  C   UNL A   1      44.075  37.551  27.671  1.00  0.00     0.006 A 
ENDBRANCH  59  73
BRANCH  60  81
ATOM     81  C   UNL A   1      37.304  31.678  30.722  1.00  0.00     0.057 A 
ATOM     82  C   UNL A   1      36.436  31.788  31.823  1.00  0.00     0.134 A 
ATOM     83  C   UNL A   1      36.778  32.089  29.487  1.00  0.00     0.134 A 
ATOM     84  F   UNL A   1      36.848  31.450  33.054  1.00  0.00    -0.206 F 
ATOM     85  C   UNL A   1      35.147  32.327  31.712  1.00  0.00     0.040 A 
ATOM     86  C   UNL A   1      35.490  32.623  29.361  1.00  0.00     0.040 A 
ATOM     87  F   UNL A   1      37.528  32.077  28.375  1.00  0.00    -0.206 F 
ATOM     88  C   UNL A   1      34.677  32.764  30.480  1.00  0.00     0.006 A 
ENDBRANCH  60  81
BRANCH  72  89
ATOM     89  C   UNL A   1      42.704  31.832  33.873  1.00  0.00     0.057 A 
ATOM     90  C   UNL A   1      42.618  30.433  33.839  1.00  0.00     0.134 A 
ATOM     91  C   UNL A   1      42.867  32.428  35.129  1.00  0.00     0.134 A 
ATOM     92  F   UNL A   1      42.543  29.767  32.678  1.00  0.00    -0.206 F 
ATOM     93  C   UNL A   1      42.649  29.669  35.010  1.00  0.00     0.040 A 
ATOM     94  C   UNL A   1      42.938  31.674  36.301  1.00  0.00     0.040 A 
ATOM     95  F   UNL A   1      42.996  33.760  35.233  1.00  0.00    -0.206 F 
ATOM     96  C   UNL A   1      42.815  30.290  36.246  1.00  0.00     0.006 A 
ENDBRANCH  72  89
ENDBRANCH  46  47
ENDBRANCH  39  41
ENDBRANCH  38  39
ENDBRANCH  37  38
ENDBRANCH  36  37
ENDBRANCH  35  36
ENDBRANCH  34  35
ENDBRANCH   1  34
TORSDOF 19
ENDMDL
