MODEL 1
REMARK VINA RESULT:     -10.4      0.000      0.000
REMARK SMILES Cc1cc(C(=O)N[C@H](C(=O)OCCOCCOC(=O)c2ccc(-c3c4nc(c(-c5c(F)cccc5F)c5ccc([nH]5)c(-c5c(F)cccc5F)c5nc(c(-c6c(F)cccc6F)c6ccc3[nH]6)C=C5)C=C4)cc2)C(C)C)c(C)s1
REMARK SMILES IDX 14 1 13 2 12 3 11 4 9 5 10 6 8 7 7 8 5 9 6 10 4 12 1 13 2 14
REMARK SMILES IDX 3 15 79 16 77 17 78 18 74 19 75 20 76 21 15 22 16 23 17 24
REMARK SMILES IDX 18 25 19 26 20 27 21 28 73 29 22 30 72 31 23 32 24 33 25 34
REMARK SMILES IDX 66 35 26 36 71 37 65 38 67 39 27 40 70 41 64 42 63 43 28 45
REMARK SMILES IDX 54 46 37 47 53 48 38 49 41 50 52 51 68 52 39 53 40 54 51 56
REMARK SMILES IDX 69 57 42 58 29 59 30 60 35 61 31 62 32 63 34 64 36 65 33 66
REMARK SMILES IDX 55 67 56 68 61 69 57 70 58 71 60 72 62 73 59 74 43 75 44 76
REMARK SMILES IDX 49 77 45 78 46 79 48 80 50 81 47 82
REMARK H PARENT 7 11 67 44 41 55
REMARK Flexibility Score: inf
ROOT
ATOM      1  O   UNL A   1      34.678  21.876  26.008  1.00  0.00    -0.374 OA
ENDROOT
BRANCH   1   2
ATOM      2  C   UNL A   1      34.432  21.765  27.406  1.00  0.00     0.202 C 
BRANCH   2   3
ATOM      3  C   UNL A   1      33.051  22.129  27.967  1.00  0.00     0.261 C 
BRANCH   3   4
ATOM      4  O   UNL A   1      32.621  23.462  27.667  1.00  0.00    -0.462 OA
BRANCH   4   5
ATOM      5  C   UNL A   1      31.483  23.505  26.910  1.00  0.00     0.328 C 
ATOM      6  O   UNL A   1      30.389  23.137  27.314  1.00  0.00    -0.250 OA
BRANCH   5   7
ATOM      7  C   UNL A   1      31.762  24.167  25.544  1.00  0.00     0.195 C 
BRANCH   7   8
ATOM      8  N   UNL A   1      33.212  24.227  25.340  1.00  0.00    -0.338 N 
ATOM      9  C   UNL A   1      34.100  25.244  25.079  1.00  0.00     0.253 C 
ATOM     10  O   UNL A   1      35.278  24.883  25.031  1.00  0.00    -0.269 OA
ATOM     11  H   UNL A   1      33.646  23.346  25.404  1.00  0.00     0.164 HD
BRANCH   9  12
ATOM     12  C   UNL A   1      33.696  26.644  24.819  1.00  0.00     0.053 A 
ATOM     13  C   UNL A   1      32.751  30.142  25.993  1.00  0.00     0.056 C 
ATOM     14  C   UNL A   1      33.077  28.907  25.227  1.00  0.00     0.003 A 
ATOM     15  C   UNL A   1      33.530  27.721  25.748  1.00  0.00     0.029 A 
ATOM     16  S   UNL A   1      32.936  28.801  23.549  1.00  0.00    -0.145 S 
ATOM     17  C   UNL A   1      33.429  27.144  23.540  1.00  0.00     0.014 A 
ATOM     18  C   UNL A   1      33.500  26.489  22.197  1.00  0.00     0.057 C 
ENDBRANCH   9  12
ENDBRANCH   7   8
BRANCH   7  19
ATOM     19  C   UNL A   1      30.987  23.681  24.288  1.00  0.00     0.017 C 
ATOM     20  C   UNL A   1      30.375  24.812  23.454  1.00  0.00     0.010 C 
ATOM     21  C   UNL A   1      31.879  22.828  23.373  1.00  0.00     0.010 C 
ENDBRANCH   7  19
ENDBRANCH   5   7
ENDBRANCH   4   5
ENDBRANCH   3   4
ENDBRANCH   2   3
ENDBRANCH   1   2
BRANCH   1  22
ATOM     22  C   UNL A   1      35.135  20.734  25.289  1.00  0.00     0.202 C 
BRANCH  22  23
ATOM     23  C   UNL A   1      36.575  20.724  24.770  1.00  0.00     0.261 C 
BRANCH  23  24
ATOM     24  O   UNL A   1      37.353  21.801  25.311  1.00  0.00    -0.460 OA
BRANCH  24  25
ATOM     25  C   UNL A   1      38.557  21.428  25.801  1.00  0.00     0.338 C 
ATOM     26  O   UNL A   1      39.169  20.392  25.572  1.00  0.00    -0.246 OA
BRANCH  25  27
ATOM     27  C   UNL A   1      39.151  22.558  26.529  1.00  0.00     0.060 A 
ATOM     28  C   UNL A   1      38.608  23.836  26.325  1.00  0.00     0.016 A 
ATOM     29  C   UNL A   1      40.258  22.372  27.356  1.00  0.00     0.016 A 
ATOM     30  C   UNL A   1      39.205  24.947  26.908  1.00  0.00     0.010 A 
ATOM     31  C   UNL A   1      40.868  23.486  27.924  1.00  0.00     0.010 A 
ATOM     32  C   UNL A   1      40.368  24.778  27.667  1.00  0.00    -0.014 A 
BRANCH  32  33
ATOM     33  C   UNL A   1      41.202  25.943  28.027  1.00  0.00     0.031 A 
ATOM     34  C   UNL A   1      40.553  27.058  28.794  1.00  0.00     0.074 A 
ATOM     35  C   UNL A   1      42.486  26.022  27.642  1.00  0.00     0.049 A 
ATOM     36  N   UNL A   1      40.999  28.258  29.051  1.00  0.00    -0.248 NA
ATOM     37  C   UNL A   1      39.209  26.782  29.331  1.00  0.00     0.031 C 
ATOM     38  C   UNL A   1      43.230  24.971  26.951  1.00  0.00     0.029 A 
ATOM     39  N   UNL A   1      43.380  27.055  27.756  1.00  0.00    -0.354 N 
ATOM     40  C   UNL A   1      39.984  28.888  29.759  1.00  0.00     0.074 A 
ATOM     41  C   UNL A   1      38.891  27.947  29.873  1.00  0.00     0.031 C 
ATOM     42  C   UNL A   1      44.463  25.427  26.672  1.00  0.00     0.029 A 
ATOM     43  C   UNL A   1      44.573  26.813  27.121  1.00  0.00     0.049 A 
ATOM     44  H   UNL A   1      43.185  27.888  28.243  1.00  0.00     0.167 HD
ATOM     45  C   UNL A   1      39.969  30.142  30.267  1.00  0.00     0.037 A 
ATOM     46  C   UNL A   1      45.611  27.640  26.894  1.00  0.00     0.037 A 
ATOM     47  C   UNL A   1      41.063  31.066  30.141  1.00  0.00     0.049 A 
ATOM     48  C   UNL A   1      45.537  29.062  27.388  1.00  0.00     0.074 A 
ATOM     49  C   UNL A   1      41.158  32.361  30.616  1.00  0.00     0.029 A 
ATOM     50  N   UNL A   1      42.254  30.787  29.487  1.00  0.00    -0.354 N 
ATOM     51  N   UNL A   1      44.575  29.658  28.052  1.00  0.00    -0.248 NA
ATOM     52  C   UNL A   1      46.688  29.928  27.095  1.00  0.00     0.031 C 
ATOM     53  C   UNL A   1      42.387  32.883  30.205  1.00  0.00     0.029 A 
ATOM     54  C   UNL A   1      43.083  31.893  29.528  1.00  0.00     0.049 A 
ATOM     55  H   UNL A   1      42.475  29.929  29.056  1.00  0.00     0.167 HD
ATOM     56  C   UNL A   1      45.023  30.950  28.297  1.00  0.00     0.074 A 
ATOM     57  C   UNL A   1      46.340  31.054  27.704  1.00  0.00     0.031 C 
ATOM     58  C   UNL A   1      44.406  31.959  28.960  1.00  0.00     0.037 A 
BRANCH  45  59
ATOM     59  C   UNL A   1      38.723  30.591  30.972  1.00  0.00     0.057 A 
ATOM     60  C   UNL A   1      37.676  31.228  30.294  1.00  0.00     0.134 A 
ATOM     61  C   UNL A   1      38.558  30.361  32.344  1.00  0.00     0.134 A 
ATOM     62  F   UNL A   1      37.777  31.496  28.983  1.00  0.00    -0.206 F 
ATOM     63  C   UNL A   1      36.519  31.640  30.959  1.00  0.00     0.040 A 
ATOM     64  C   UNL A   1      37.395  30.741  33.014  1.00  0.00     0.040 A 
ATOM     65  F   UNL A   1      39.522  29.755  33.053  1.00  0.00    -0.206 F 
ATOM     66  C   UNL A   1      36.373  31.388  32.322  1.00  0.00     0.006 A 
ENDBRANCH  45  59
BRANCH  46  67
ATOM     67  C   UNL A   1      46.799  27.157  26.146  1.00  0.00     0.057 A 
ATOM     68  C   UNL A   1      47.871  26.548  26.809  1.00  0.00     0.134 A 
ATOM     69  C   UNL A   1      46.904  27.308  24.758  1.00  0.00     0.134 A 
ATOM     70  F   UNL A   1      47.839  26.394  28.141  1.00  0.00    -0.206 F 
ATOM     71  C   UNL A   1      49.011  26.125  26.125  1.00  0.00     0.040 A 
ATOM     72  C   UNL A   1      48.026  26.865  24.056  1.00  0.00     0.040 A 
ATOM     73  F   UNL A   1      45.911  27.880  24.061  1.00  0.00    -0.206 F 
ATOM     74  C   UNL A   1      49.088  26.280  24.742  1.00  0.00     0.006 A 
ENDBRANCH  46  67
BRANCH  58  75
ATOM     75  C   UNL A   1      45.166  33.237  29.153  1.00  0.00     0.057 A 
ATOM     76  C   UNL A   1      45.046  34.316  28.270  1.00  0.00     0.134 A 
ATOM     77  C   UNL A   1      45.960  33.416  30.293  1.00  0.00     0.134 A 
ATOM     78  F   UNL A   1      44.308  34.205  27.155  1.00  0.00    -0.206 F 
ATOM     79  C   UNL A   1      45.694  35.528  28.512  1.00  0.00     0.040 A 
ATOM     80  C   UNL A   1      46.592  34.631  30.559  1.00  0.00     0.040 A 
ATOM     81  F   UNL A   1      46.108  32.423  31.184  1.00  0.00    -0.206 F 
ATOM     82  C   UNL A   1      46.461  35.692  29.665  1.00  0.00     0.006 A 
ENDBRANCH  58  75
ENDBRANCH  32  33
ENDBRANCH  25  27
ENDBRANCH  24  25
ENDBRANCH  23  24
ENDBRANCH  22  23
ENDBRANCH   1  22
TORSDOF 17
ENDMDL
MODEL 2
REMARK VINA RESULT:     -10.3      1.152      2.190
REMARK SMILES Cc1cc(C(=O)N[C@H](C(=O)OCCOCCOC(=O)c2ccc(-c3c4nc(c(-c5c(F)cccc5F)c5ccc([nH]5)c(-c5c(F)cccc5F)c5nc(c(-c6c(F)cccc6F)c6ccc3[nH]6)C=C5)C=C4)cc2)C(C)C)c(C)s1
REMARK SMILES IDX 14 1 13 2 12 3 11 4 9 5 10 6 8 7 7 8 5 9 6 10 4 12 1 13 2 14
REMARK SMILES IDX 3 15 79 16 77 17 78 18 74 19 75 20 76 21 15 22 16 23 17 24
REMARK SMILES IDX 18 25 19 26 20 27 21 28 73 29 22 30 72 31 23 32 24 33 25 34
REMARK SMILES IDX 66 35 26 36 71 37 65 38 67 39 27 40 70 41 64 42 63 43 28 45
REMARK SMILES IDX 54 46 37 47 53 48 38 49 41 50 52 51 68 52 39 53 40 54 51 56
REMARK SMILES IDX 69 57 42 58 29 59 30 60 35 61 31 62 32 63 34 64 36 65 33 66
REMARK SMILES IDX 55 67 56 68 61 69 57 70 58 71 60 72 62 73 59 74 43 75 44 76
REMARK SMILES IDX 49 77 45 78 46 79 48 80 50 81 47 82
REMARK H PARENT 7 11 67 44 41 55
REMARK Flexibility Score: inf
ROOT
ATOM      1  O   UNL A   1      34.745  19.416  24.668  1.00  0.00    -0.374 OA
ENDROOT
BRANCH   1   2
ATOM      2  C   UNL A   1      33.420  19.827  24.349  1.00  0.00     0.202 C 
BRANCH   2   3
ATOM      3  C   UNL A   1      32.700  20.841  25.247  1.00  0.00     0.261 C 
BRANCH   3   4
ATOM      4  O   UNL A   1      32.045  21.899  24.539  1.00  0.00    -0.462 OA
BRANCH   4   5
ATOM      5  C   UNL A   1      32.903  22.872  24.106  1.00  0.00     0.328 C 
ATOM      6  O   UNL A   1      33.475  22.836  23.026  1.00  0.00    -0.250 OA
BRANCH   5   7
ATOM      7  C   UNL A   1      32.959  24.038  25.117  1.00  0.00     0.195 C 
BRANCH   7   8
ATOM      8  N   UNL A   1      31.675  24.110  25.820  1.00  0.00    -0.338 N 
ATOM      9  C   UNL A   1      30.819  25.136  26.145  1.00  0.00     0.253 C 
ATOM     10  O   UNL A   1      29.784  24.769  26.705  1.00  0.00    -0.269 OA
ATOM     11  H   UNL A   1      31.355  23.231  26.127  1.00  0.00     0.164 HD
BRANCH   9  12
ATOM     12  C   UNL A   1      31.118  26.565  25.906  1.00  0.00     0.053 A 
ATOM     13  C   UNL A   1      32.315  29.990  27.066  1.00  0.00     0.056 C 
ATOM     14  C   UNL A   1      31.809  28.807  26.316  1.00  0.00     0.003 A 
ATOM     15  C   UNL A   1      31.715  27.522  26.788  1.00  0.00     0.029 A 
ATOM     16  S   UNL A   1      31.272  28.892  24.718  1.00  0.00    -0.145 S 
ATOM     17  C   UNL A   1      30.863  27.213  24.692  1.00  0.00     0.014 A 
ATOM     18  C   UNL A   1      30.304  26.695  23.404  1.00  0.00     0.057 C 
ENDBRANCH   9  12
ENDBRANCH   7   8
BRANCH   7  19
ATOM     19  C   UNL A   1      34.183  24.169  26.063  1.00  0.00     0.017 C 
ATOM     20  C   UNL A   1      34.244  23.102  27.161  1.00  0.00     0.010 C 
ATOM     21  C   UNL A   1      35.504  24.138  25.280  1.00  0.00     0.010 C 
ENDBRANCH   7  19
ENDBRANCH   5   7
ENDBRANCH   4   5
ENDBRANCH   3   4
ENDBRANCH   2   3
ENDBRANCH   1   2
BRANCH   1  22
ATOM     22  C   UNL A   1      35.680  20.384  25.139  1.00  0.00     0.202 C 
BRANCH  22  23
ATOM     23  C   UNL A   1      37.167  20.166  24.849  1.00  0.00     0.261 C 
BRANCH  23  24
ATOM     24  O   UNL A   1      37.963  21.299  25.220  1.00  0.00    -0.460 OA
BRANCH  24  25
ATOM     25  C   UNL A   1      39.082  20.993  25.914  1.00  0.00     0.338 C 
ATOM     26  O   UNL A   1      39.711  19.942  25.891  1.00  0.00    -0.246 OA
BRANCH  25  27
ATOM     27  C   UNL A   1      39.579  22.202  26.586  1.00  0.00     0.060 A 
ATOM     28  C   UNL A   1      39.066  23.443  26.178  1.00  0.00     0.016 A 
ATOM     29  C   UNL A   1      40.570  22.120  27.563  1.00  0.00     0.016 A 
ATOM     30  C   UNL A   1      39.584  24.618  26.711  1.00  0.00     0.010 A 
ATOM     31  C   UNL A   1      41.101  23.297  28.082  1.00  0.00     0.010 A 
ATOM     32  C   UNL A   1      40.639  24.546  27.626  1.00  0.00    -0.014 A 
BRANCH  32  33
ATOM     33  C   UNL A   1      41.420  25.754  27.963  1.00  0.00     0.031 A 
ATOM     34  C   UNL A   1      40.725  26.850  28.716  1.00  0.00     0.074 A 
ATOM     35  C   UNL A   1      42.697  25.887  27.568  1.00  0.00     0.049 A 
ATOM     36  N   UNL A   1      41.115  28.073  28.953  1.00  0.00    -0.248 NA
ATOM     37  C   UNL A   1      39.398  26.521  29.266  1.00  0.00     0.031 C 
ATOM     38  C   UNL A   1      43.485  24.860  26.889  1.00  0.00     0.029 A 
ATOM     39  N   UNL A   1      43.542  26.961  27.660  1.00  0.00    -0.354 N 
ATOM     40  C   UNL A   1      40.076  28.667  29.657  1.00  0.00     0.074 A 
ATOM     41  C   UNL A   1      39.029  27.679  29.792  1.00  0.00     0.031 C 
ATOM     42  C   UNL A   1      44.694  25.369  26.596  1.00  0.00     0.029 A 
ATOM     43  C   UNL A   1      44.742  26.766  27.022  1.00  0.00     0.049 A 
ATOM     44  H   UNL A   1      43.312  27.792  28.136  1.00  0.00     0.167 HD
ATOM     45  C   UNL A   1      40.006  29.927  30.146  1.00  0.00     0.037 A 
ATOM     46  C   UNL A   1      45.739  27.636  26.776  1.00  0.00     0.037 A 
ATOM     47  C   UNL A   1      41.055  30.898  29.999  1.00  0.00     0.049 A 
ATOM     48  C   UNL A   1      45.602  29.061  27.248  1.00  0.00     0.074 A 
ATOM     49  C   UNL A   1      41.093  32.203  30.453  1.00  0.00     0.029 A 
ATOM     50  N   UNL A   1      42.254  30.664  29.341  1.00  0.00    -0.354 N 
ATOM     51  N   UNL A   1      44.617  29.622  27.909  1.00  0.00    -0.248 NA
ATOM     52  C   UNL A   1      46.710  29.974  26.935  1.00  0.00     0.031 C 
ATOM     53  C   UNL A   1      42.294  32.775  30.026  1.00  0.00     0.029 A 
ATOM     54  C   UNL A   1      43.031  31.808  29.360  1.00  0.00     0.049 A 
ATOM     55  H   UNL A   1      42.513  29.811  28.922  1.00  0.00     0.167 HD
ATOM     56  C   UNL A   1      45.006  30.937  28.131  1.00  0.00     0.074 A 
ATOM     57  C   UNL A   1      46.314  31.092  27.528  1.00  0.00     0.031 C 
ATOM     58  C   UNL A   1      44.346  31.926  28.783  1.00  0.00     0.037 A 
BRANCH  45  59
ATOM     59  C   UNL A   1      38.745  30.329  30.851  1.00  0.00     0.057 A 
ATOM     60  C   UNL A   1      38.567  30.129  32.226  1.00  0.00     0.134 A 
ATOM     61  C   UNL A   1      37.702  30.948  30.148  1.00  0.00     0.134 A 
ATOM     62  F   UNL A   1      39.518  29.526  32.954  1.00  0.00    -0.206 F 
ATOM     63  C   UNL A   1      37.389  30.511  32.873  1.00  0.00     0.040 A 
ATOM     64  C   UNL A   1      36.533  31.359  30.789  1.00  0.00     0.040 A 
ATOM     65  F   UNL A   1      37.807  31.169  28.829  1.00  0.00    -0.206 F 
ATOM     66  C   UNL A   1      36.372  31.135  32.155  1.00  0.00     0.006 A 
ENDBRANCH  45  59
BRANCH  46  67
ATOM     67  C   UNL A   1      46.945  27.197  26.028  1.00  0.00     0.057 A 
ATOM     68  C   UNL A   1      47.021  27.340  24.637  1.00  0.00     0.134 A 
ATOM     69  C   UNL A   1      48.037  26.610  26.676  1.00  0.00     0.134 A 
ATOM     70  F   UNL A   1      45.998  27.877  23.957  1.00  0.00    -0.206 F 
ATOM     71  C   UNL A   1      48.131  26.895  23.916  1.00  0.00     0.040 A 
ATOM     72  C   UNL A   1      49.165  26.186  25.971  1.00  0.00     0.040 A 
ATOM     73  F   UNL A   1      48.029  26.446  28.007  1.00  0.00    -0.206 F 
ATOM     74  C   UNL A   1      49.209  26.320  24.585  1.00  0.00     0.006 A 
ENDBRANCH  46  67
BRANCH  58  75
ATOM     75  C   UNL A   1      45.047  33.241  28.951  1.00  0.00     0.057 A 
ATOM     76  C   UNL A   1      44.859  34.305  28.062  1.00  0.00     0.134 A 
ATOM     77  C   UNL A   1      45.852  33.469  30.075  1.00  0.00     0.134 A 
ATOM     78  F   UNL A   1      44.108  34.148  26.961  1.00  0.00    -0.206 F 
ATOM     79  C   UNL A   1      45.453  35.549  28.281  1.00  0.00     0.040 A 
ATOM     80  C   UNL A   1      46.430  34.714  30.319  1.00  0.00     0.040 A 
ATOM     81  F   UNL A   1      46.064  32.492  30.971  1.00  0.00    -0.206 F 
ATOM     82  C   UNL A   1      46.232  35.760  29.419  1.00  0.00     0.006 A 
ENDBRANCH  58  75
ENDBRANCH  32  33
ENDBRANCH  25  27
ENDBRANCH  24  25
ENDBRANCH  23  24
ENDBRANCH  22  23
ENDBRANCH   1  22
TORSDOF 17
ENDMDL
MODEL 3
REMARK VINA RESULT:     -10.3      3.958      8.747
REMARK SMILES Cc1cc(C(=O)N[C@H](C(=O)OCCOCCOC(=O)c2ccc(-c3c4nc(c(-c5c(F)cccc5F)c5ccc([nH]5)c(-c5c(F)cccc5F)c5nc(c(-c6c(F)cccc6F)c6ccc3[nH]6)C=C5)C=C4)cc2)C(C)C)c(C)s1
REMARK SMILES IDX 14 1 13 2 12 3 11 4 9 5 10 6 8 7 7 8 5 9 6 10 4 12 1 13 2 14
REMARK SMILES IDX 3 15 79 16 77 17 78 18 74 19 75 20 76 21 15 22 16 23 17 24
REMARK SMILES IDX 18 25 19 26 20 27 21 28 73 29 22 30 72 31 23 32 24 33 25 34
REMARK SMILES IDX 66 35 26 36 71 37 65 38 67 39 27 40 70 41 64 42 63 43 28 45
REMARK SMILES IDX 54 46 37 47 53 48 38 49 41 50 52 51 68 52 39 53 40 54 51 56
REMARK SMILES IDX 69 57 42 58 29 59 30 60 35 61 31 62 32 63 34 64 36 65 33 66
REMARK SMILES IDX 55 67 56 68 61 69 57 70 58 71 60 72 62 73 59 74 43 75 44 76
REMARK SMILES IDX 49 77 45 78 46 79 48 80 50 81 47 82
REMARK H PARENT 7 11 67 44 41 55
REMARK Flexibility Score: inf
ROOT
ATOM      1  O   UNL A   1      32.514  29.688  24.944  1.00  0.00    -0.374 OA
ENDROOT
BRANCH   1   2
ATOM      2  C   UNL A   1      32.719  28.353  25.393  1.00  0.00     0.202 C 
BRANCH   2   3
ATOM      3  C   UNL A   1      31.612  27.633  26.173  1.00  0.00     0.261 C 
BRANCH   3   4
ATOM      4  O   UNL A   1      30.774  26.791  25.372  1.00  0.00    -0.462 OA
BRANCH   4   5
ATOM      5  C   UNL A   1      30.537  25.569  25.940  1.00  0.00     0.328 C 
ATOM      6  O   UNL A   1      29.487  25.272  26.491  1.00  0.00    -0.250 OA
BRANCH   5   7
ATOM      7  C   UNL A   1      31.727  24.616  25.695  1.00  0.00     0.195 C 
BRANCH   7   8
ATOM      8  N   UNL A   1      31.834  23.698  26.832  1.00  0.00    -0.338 N 
ATOM      9  C   UNL A   1      32.818  22.853  27.289  1.00  0.00     0.253 C 
ATOM     10  O   UNL A   1      32.537  22.278  28.343  1.00  0.00    -0.269 OA
ATOM     11  H   UNL A   1      31.025  23.684  27.393  1.00  0.00     0.164 HD
BRANCH   9  12
ATOM     12  C   UNL A   1      34.085  22.598  26.569  1.00  0.00     0.053 A 
ATOM     13  C   UNL A   1      37.591  23.606  25.474  1.00  0.00     0.056 C 
ATOM     14  C   UNL A   1      36.289  22.931  25.729  1.00  0.00     0.003 A 
ATOM     15  C   UNL A   1      35.284  23.381  26.547  1.00  0.00     0.029 A 
ATOM     16  S   UNL A   1      35.863  21.458  25.024  1.00  0.00    -0.145 S 
ATOM     17  C   UNL A   1      34.308  21.465  25.778  1.00  0.00     0.014 A 
ATOM     18  C   UNL A   1      33.433  20.286  25.488  1.00  0.00     0.057 C 
ENDBRANCH   9  12
ENDBRANCH   7   8
BRANCH   7  19
ATOM     19  C   UNL A   1      31.864  23.905  24.320  1.00  0.00     0.017 C 
ATOM     20  C   UNL A   1      30.592  23.942  23.466  1.00  0.00     0.010 C 
ATOM     21  C   UNL A   1      33.020  24.492  23.498  1.00  0.00     0.010 C 
ENDBRANCH   7  19
ENDBRANCH   5   7
ENDBRANCH   4   5
ENDBRANCH   3   4
ENDBRANCH   2   3
ENDBRANCH   1   2
BRANCH   1  22
ATOM     22  C   UNL A   1      31.362  30.402  25.388  1.00  0.00     0.202 C 
BRANCH  22  23
ATOM     23  C   UNL A   1      31.552  31.549  26.384  1.00  0.00     0.261 C 
BRANCH  23  24
ATOM     24  O   UNL A   1      32.618  31.293  27.308  1.00  0.00    -0.460 OA
BRANCH  24  25
ATOM     25  C   UNL A   1      33.386  32.370  27.586  1.00  0.00     0.338 C 
ATOM     26  O   UNL A   1      33.030  33.538  27.676  1.00  0.00    -0.246 OA
BRANCH  25  27
ATOM     27  C   UNL A   1      34.730  31.916  27.971  1.00  0.00     0.060 A 
ATOM     28  C   UNL A   1      34.904  30.561  28.294  1.00  0.00     0.016 A 
ATOM     29  C   UNL A   1      35.789  32.818  28.065  1.00  0.00     0.016 A 
ATOM     30  C   UNL A   1      36.131  30.111  28.765  1.00  0.00     0.010 A 
ATOM     31  C   UNL A   1      37.012  32.371  28.555  1.00  0.00     0.010 A 
ATOM     32  C   UNL A   1      37.172  31.027  28.946  1.00  0.00    -0.014 A 
BRANCH  32  33
ATOM     33  C   UNL A   1      38.365  30.658  29.735  1.00  0.00     0.031 A 
ATOM     34  C   UNL A   1      39.327  29.677  29.132  1.00  0.00     0.074 A 
ATOM     35  C   UNL A   1      38.559  31.150  30.969  1.00  0.00     0.049 A 
ATOM     36  N   UNL A   1      40.325  29.043  29.687  1.00  0.00    -0.248 NA
ATOM     37  C   UNL A   1      39.123  29.356  27.708  1.00  0.00     0.031 C 
ATOM     38  C   UNL A   1      37.723  32.155  31.622  1.00  0.00     0.029 A 
ATOM     39  N   UNL A   1      39.512  30.839  31.903  1.00  0.00    -0.354 N 
ATOM     40  C   UNL A   1      40.853  28.234  28.690  1.00  0.00     0.074 A 
ATOM     41  C   UNL A   1      40.054  28.438  27.503  1.00  0.00     0.031 C 
ATOM     42  C   UNL A   1      38.183  32.355  32.869  1.00  0.00     0.029 A 
ATOM     43  C   UNL A   1      39.311  31.458  33.112  1.00  0.00     0.049 A 
ATOM     44  H   UNL A   1      40.267  30.232  31.726  1.00  0.00     0.167 HD
ATOM     45  C   UNL A   1      41.912  27.394  28.765  1.00  0.00     0.037 A 
ATOM     46  C   UNL A   1      39.943  31.279  34.288  1.00  0.00     0.037 A 
ATOM     47  C   UNL A   1      42.693  27.201  29.956  1.00  0.00     0.049 A 
ATOM     48  C   UNL A   1      41.060  30.271  34.373  1.00  0.00     0.074 A 
ATOM     49  C   UNL A   1      43.786  26.376  30.146  1.00  0.00     0.029 A 
ATOM     50  N   UNL A   1      42.455  27.841  31.163  1.00  0.00    -0.354 N 
ATOM     51  N   UNL A   1      41.555  29.503  33.433  1.00  0.00    -0.248 NA
ATOM     52  C   UNL A   1      41.702  30.100  35.685  1.00  0.00     0.031 C 
ATOM     53  C   UNL A   1      44.179  26.481  31.483  1.00  0.00     0.029 A 
ATOM     54  C   UNL A   1      43.370  27.416  32.109  1.00  0.00     0.049 A 
ATOM     55  H   UNL A   1      41.740  28.500  31.322  1.00  0.00     0.167 HD
ATOM     56  C   UNL A   1      42.594  28.795  34.024  1.00  0.00     0.074 A 
ATOM     57  C   UNL A   1      42.653  29.219  35.407  1.00  0.00     0.031 C 
ATOM     58  C   UNL A   1      43.430  27.882  33.472  1.00  0.00     0.037 A 
BRANCH  45  59
ATOM     59  C   UNL A   1      42.260  26.606  27.538  1.00  0.00     0.057 A 
ATOM     60  C   UNL A   1      41.745  25.323  27.309  1.00  0.00     0.134 A 
ATOM     61  C   UNL A   1      43.104  27.147  26.559  1.00  0.00     0.134 A 
ATOM     62  F   UNL A   1      40.947  24.739  28.214  1.00  0.00    -0.206 F 
ATOM     63  C   UNL A   1      42.074  24.599  26.160  1.00  0.00     0.040 A 
ATOM     64  C   UNL A   1      43.417  26.445  25.394  1.00  0.00     0.040 A 
ATOM     65  F   UNL A   1      43.632  28.370  26.715  1.00  0.00    -0.206 F 
ATOM     66  C   UNL A   1      42.905  25.164  25.196  1.00  0.00     0.006 A 
ENDBRANCH  45  59
BRANCH  46  67
ATOM     67  C   UNL A   1      39.522  32.051  35.485  1.00  0.00     0.057 A 
ATOM     68  C   UNL A   1      38.549  31.552  36.358  1.00  0.00     0.134 A 
ATOM     69  C   UNL A   1      40.066  33.307  35.777  1.00  0.00     0.134 A 
ATOM     70  F   UNL A   1      37.976  30.363  36.122  1.00  0.00    -0.206 F 
ATOM     71  C   UNL A   1      38.114  32.284  37.466  1.00  0.00     0.040 A 
ATOM     72  C   UNL A   1      39.662  34.038  36.895  1.00  0.00     0.040 A 
ATOM     73  F   UNL A   1      41.005  33.841  34.982  1.00  0.00    -0.206 F 
ATOM     74  C   UNL A   1      38.676  33.530  37.738  1.00  0.00     0.006 A 
ENDBRANCH  46  67
BRANCH  58  75
ATOM     75  C   UNL A   1      44.529  27.331  34.330  1.00  0.00     0.057 A 
ATOM     76  C   UNL A   1      44.395  26.130  35.034  1.00  0.00     0.134 A 
ATOM     77  C   UNL A   1      45.773  27.975  34.376  1.00  0.00     0.134 A 
ATOM     78  F   UNL A   1      43.227  25.469  35.038  1.00  0.00    -0.206 F 
ATOM     79  C   UNL A   1      45.459  25.589  35.759  1.00  0.00     0.040 A 
ATOM     80  C   UNL A   1      46.850  27.433  35.076  1.00  0.00     0.040 A 
ATOM     81  F   UNL A   1      45.969  29.127  33.715  1.00  0.00    -0.206 F 
ATOM     82  C   UNL A   1      46.694  26.236  35.772  1.00  0.00     0.006 A 
ENDBRANCH  58  75
ENDBRANCH  32  33
ENDBRANCH  25  27
ENDBRANCH  24  25
ENDBRANCH  23  24
ENDBRANCH  22  23
ENDBRANCH   1  22
TORSDOF 17
ENDMDL
