MODEL 1
REMARK VINA RESULT:     -11.2      0.000      0.000
REMARK SMILES O=C(Nc1ccc(O)c(C(=O)OCCOCCOC(=O)c2ccc(-c3c4nc(c(-c5c(F)cccc5F)c5ccc([nH]5)c(-c5c(F)cccc5F)c5nc(c(-c6c(F)cccc6F)c6ccc3[nH]6)C=C5)C=C4)cc2)c1)c1cncc(Br)c1
REMARK SMILES IDX 15 1 14 2 13 3 12 4 10 5 11 6 9 7 4 8 5 9 75 10 6 11 7 12
REMARK SMILES IDX 3 13 1 14 2 15 76 17 77 18 82 19 78 20 80 21 79 22 81 23
REMARK SMILES IDX 8 24 16 26 17 27 18 28 19 29 20 30 21 31 22 32 74 33 23 34
REMARK SMILES IDX 73 35 24 36 25 37 26 38 67 39 27 40 72 41 66 42 68 43 28 44
REMARK SMILES IDX 71 45 65 46 64 47 29 49 55 50 38 51 54 52 39 53 42 54 53 55
REMARK SMILES IDX 69 56 40 57 41 58 52 60 70 61 43 62 30 63 31 64 36 65 32 66
REMARK SMILES IDX 33 67 35 68 37 69 34 70 56 71 57 72 62 73 58 74 59 75 61 76
REMARK SMILES IDX 63 77 60 78 44 79 45 80 50 81 46 82 47 83 49 84 51 85 48 86
REMARK H PARENT 3 16 8 25 68 48 42 59
REMARK Flexibility Score: inf
ROOT
ATOM      1  O   UNL A   1      40.725  21.270  26.672  1.00  0.00    -0.374 OA
ENDROOT
BRANCH   1   2
ATOM      2  C   UNL A   1      39.490  21.036  25.991  1.00  0.00     0.202 C 
BRANCH   2   3
ATOM      3  C   UNL A   1      38.624  22.273  25.754  1.00  0.00     0.261 C 
BRANCH   3   4
ATOM      4  O   UNL A   1      37.250  21.881  25.618  1.00  0.00    -0.460 OA
BRANCH   4   5
ATOM      5  C   UNL A   1      36.372  22.899  25.486  1.00  0.00     0.342 C 
ATOM      6  O   UNL A   1      36.555  24.069  25.788  1.00  0.00    -0.246 OA
BRANCH   5   7
ATOM      7  C   UNL A   1      35.198  22.476  24.698  1.00  0.00     0.103 A 
ATOM      8  C   UNL A   1      33.673  23.108  22.934  1.00  0.00     0.042 A 
ATOM      9  C   UNL A   1      32.862  22.015  23.250  1.00  0.00     0.030 A 
ATOM     10  C   UNL A   1      34.870  23.302  23.612  1.00  0.00     0.045 A 
ATOM     11  C   UNL A   1      33.229  21.139  24.274  1.00  0.00     0.049 A 
ATOM     12  C   UNL A   1      34.386  21.381  25.016  1.00  0.00     0.130 A 
BRANCH   8  13
ATOM     13  N   UNL A   1      33.284  24.083  22.006  1.00  0.00    -0.322 N 
ATOM     14  O   UNL A   1      31.957  25.785  21.293  1.00  0.00    -0.269 OA
ATOM     15  C   UNL A   1      32.424  25.139  22.226  1.00  0.00     0.257 C 
ATOM     16  H   UNL A   1      33.664  24.007  21.101  1.00  0.00     0.170 HD
BRANCH  15  17
ATOM     17  C   UNL A   1      32.147  25.577  23.613  1.00  0.00     0.059 A 
ATOM     18  C   UNL A   1      31.055  25.080  24.324  1.00  0.00     0.124 A 
ATOM     19  C   UNL A   1      33.006  26.466  24.254  1.00  0.00     0.032 A 
ATOM     20  N   UNL A   1      30.728  25.474  25.577  1.00  0.00    -0.263 NA
ATOM     21  C   UNL A   1      32.697  26.875  25.548  1.00  0.00     0.037 A 
ATOM     22  C   UNL A   1      31.557  26.370  26.160  1.00  0.00     0.126 A 
ATOM     23  Br  UNL A   1      33.806  28.101  26.454  1.00  0.00    -0.049 Br
ENDBRANCH  15  17
ENDBRANCH   8  13
BRANCH  12  24
ATOM     24  O   UNL A   1      34.693  20.567  26.066  1.00  0.00    -0.507 OA
ATOM     25  H   UNL A   1      34.231  19.761  26.184  1.00  0.00     0.293 HD
ENDBRANCH  12  24
ENDBRANCH   5   7
ENDBRANCH   4   5
ENDBRANCH   3   4
ENDBRANCH   2   3
ENDBRANCH   1   2
BRANCH   1  26
ATOM     26  C   UNL A   1      41.898  20.668  26.124  1.00  0.00     0.202 C 
BRANCH  26  27
ATOM     27  C   UNL A   1      43.058  21.617  25.804  1.00  0.00     0.261 C 
BRANCH  27  28
ATOM     28  O   UNL A   1      42.643  22.719  24.977  1.00  0.00    -0.460 OA
BRANCH  28  29
ATOM     29  C   UNL A   1      43.423  23.821  25.065  1.00  0.00     0.338 C 
ATOM     30  O   UNL A   1      44.440  24.062  24.428  1.00  0.00    -0.246 OA
BRANCH  29  31
ATOM     31  C   UNL A   1      42.789  24.822  25.942  1.00  0.00     0.060 A 
ATOM     32  C   UNL A   1      43.489  26.014  26.174  1.00  0.00     0.016 A 
ATOM     33  C   UNL A   1      41.575  24.575  26.585  1.00  0.00     0.016 A 
ATOM     34  C   UNL A   1      43.000  26.943  27.087  1.00  0.00     0.010 A 
ATOM     35  C   UNL A   1      41.090  25.505  27.510  1.00  0.00     0.010 A 
ATOM     36  C   UNL A   1      41.818  26.677  27.791  1.00  0.00    -0.014 A 
BRANCH  36  37
ATOM     37  C   UNL A   1      41.424  27.555  28.919  1.00  0.00     0.031 A 
ATOM     38  C   UNL A   1      42.201  27.482  30.204  1.00  0.00     0.074 A 
ATOM     39  C   UNL A   1      40.408  28.425  28.791  1.00  0.00     0.049 A 
ATOM     40  N   UNL A   1      42.018  28.137  31.322  1.00  0.00    -0.248 NA
ATOM     41  C   UNL A   1      43.336  26.546  30.234  1.00  0.00     0.031 C 
ATOM     42  C   UNL A   1      39.606  28.618  27.585  1.00  0.00     0.029 A 
ATOM     43  N   UNL A   1      39.877  29.311  29.694  1.00  0.00    -0.354 N 
ATOM     44  C   UNL A   1      43.005  27.686  32.190  1.00  0.00     0.074 A 
ATOM     45  C   UNL A   1      43.770  26.685  31.478  1.00  0.00     0.031 C 
ATOM     46  C   UNL A   1      38.678  29.561  27.824  1.00  0.00     0.029 A 
ATOM     47  C   UNL A   1      38.803  30.015  29.208  1.00  0.00     0.049 A 
ATOM     48  H   UNL A   1      40.232  29.430  30.605  1.00  0.00     0.167 HD
ATOM     49  C   UNL A   1      43.255  28.076  33.462  1.00  0.00     0.037 A 
ATOM     50  C   UNL A   1      38.005  30.912  29.818  1.00  0.00     0.037 A 
ATOM     51  C   UNL A   1      42.502  29.080  34.166  1.00  0.00     0.049 A 
ATOM     52  C   UNL A   1      38.264  31.278  31.256  1.00  0.00     0.074 A 
ATOM     53  C   UNL A   1      42.703  29.569  35.445  1.00  0.00     0.029 A 
ATOM     54  N   UNL A   1      41.401  29.744  33.652  1.00  0.00    -0.354 N 
ATOM     55  N   UNL A   1      39.220  30.870  32.055  1.00  0.00    -0.248 NA
ATOM     56  C   UNL A   1      37.332  32.233  31.875  1.00  0.00     0.031 C 
ATOM     57  C   UNL A   1      41.694  30.497  35.722  1.00  0.00     0.029 A 
ATOM     58  C   UNL A   1      40.893  30.618  34.598  1.00  0.00     0.049 A 
ATOM     59  H   UNL A   1      41.033  29.614  32.747  1.00  0.00     0.167 HD
ATOM     60  C   UNL A   1      39.024  31.540  33.257  1.00  0.00     0.074 A 
ATOM     61  C   UNL A   1      37.863  32.387  33.080  1.00  0.00     0.031 C 
ATOM     62  C   UNL A   1      39.742  31.463  34.403  1.00  0.00     0.037 A 
BRANCH  49  63
ATOM     63  C   UNL A   1      44.378  27.396  34.187  1.00  0.00     0.057 A 
ATOM     64  C   UNL A   1      45.671  27.933  34.220  1.00  0.00     0.134 A 
ATOM     65  C   UNL A   1      44.150  26.211  34.898  1.00  0.00     0.134 A 
ATOM     66  F   UNL A   1      45.957  29.059  33.548  1.00  0.00    -0.206 F 
ATOM     67  C   UNL A   1      46.703  27.305  34.921  1.00  0.00     0.040 A 
ATOM     68  C   UNL A   1      45.168  25.586  35.620  1.00  0.00     0.040 A 
ATOM     69  F   UNL A   1      42.933  25.648  34.910  1.00  0.00    -0.206 F 
ATOM     70  C   UNL A   1      46.450  26.132  35.630  1.00  0.00     0.006 A 
ENDBRANCH  49  63
BRANCH  50  71
ATOM     71  C   UNL A   1      36.871  31.525  29.081  1.00  0.00     0.057 A 
ATOM     72  C   UNL A   1      36.936  32.846  28.623  1.00  0.00     0.134 A 
ATOM     73  C   UNL A   1      35.686  30.819  28.849  1.00  0.00     0.134 A 
ATOM     74  F   UNL A   1      38.037  33.581  28.838  1.00  0.00    -0.206 F 
ATOM     75  C   UNL A   1      35.857  33.449  27.975  1.00  0.00     0.040 A 
ATOM     76  C   UNL A   1      34.606  31.401  28.183  1.00  0.00     0.040 A 
ATOM     77  F   UNL A   1      35.559  29.550  29.266  1.00  0.00    -0.206 F 
ATOM     78  C   UNL A   1      34.688  32.724  27.751  1.00  0.00     0.006 A 
ENDBRANCH  50  71
BRANCH  62  79
ATOM     79  C   UNL A   1      39.320  32.344  35.542  1.00  0.00     0.057 A 
ATOM     80  C   UNL A   1      38.427  31.904  36.526  1.00  0.00     0.134 A 
ATOM     81  C   UNL A   1      39.847  33.635  35.677  1.00  0.00     0.134 A 
ATOM     82  F   UNL A   1      37.878  30.682  36.448  1.00  0.00    -0.206 F 
ATOM     83  C   UNL A   1      38.056  32.724  37.594  1.00  0.00     0.040 A 
ATOM     84  C   UNL A   1      39.504  34.455  36.752  1.00  0.00     0.040 A 
ATOM     85  F   UNL A   1      40.715  34.114  34.773  1.00  0.00    -0.206 F 
ATOM     86  C   UNL A   1      38.602  34.002  37.712  1.00  0.00     0.006 A 
ENDBRANCH  62  79
ENDBRANCH  36  37
ENDBRANCH  29  31
ENDBRANCH  28  29
ENDBRANCH  27  28
ENDBRANCH  26  27
ENDBRANCH   1  26
TORSDOF 17
ENDMDL
MODEL 2
REMARK VINA RESULT:     -11.0      4.468      9.438
REMARK SMILES O=C(Nc1ccc(O)c(C(=O)OCCOCCOC(=O)c2ccc(-c3c4nc(c(-c5c(F)cccc5F)c5ccc([nH]5)c(-c5c(F)cccc5F)c5nc(c(-c6c(F)cccc6F)c6ccc3[nH]6)C=C5)C=C4)cc2)c1)c1cncc(Br)c1
REMARK SMILES IDX 15 1 14 2 13 3 12 4 10 5 11 6 9 7 4 8 5 9 75 10 6 11 7 12
REMARK SMILES IDX 3 13 1 14 2 15 76 17 77 18 82 19 78 20 80 21 79 22 81 23
REMARK SMILES IDX 8 24 16 26 17 27 18 28 19 29 20 30 21 31 22 32 74 33 23 34
REMARK SMILES IDX 73 35 24 36 25 37 26 38 67 39 27 40 72 41 66 42 68 43 28 44
REMARK SMILES IDX 71 45 65 46 64 47 29 49 55 50 38 51 54 52 39 53 42 54 53 55
REMARK SMILES IDX 69 56 40 57 41 58 52 60 70 61 43 62 30 63 31 64 36 65 32 66
REMARK SMILES IDX 33 67 35 68 37 69 34 70 56 71 57 72 62 73 58 74 59 75 61 76
REMARK SMILES IDX 63 77 60 78 44 79 45 80 50 81 46 82 47 83 49 84 51 85 48 86
REMARK H PARENT 3 16 8 25 68 48 42 59
REMARK Flexibility Score: inf
ROOT
ATOM      1  O   UNL A   1      34.605  33.340  28.562  1.00  0.00    -0.374 OA
ENDROOT
BRANCH   1   2
ATOM      2  C   UNL A   1      33.699  32.584  27.755  1.00  0.00     0.202 C 
BRANCH   2   3
ATOM      3  C   UNL A   1      33.687  31.077  28.015  1.00  0.00     0.261 C 
BRANCH   3   4
ATOM      4  O   UNL A   1      33.269  30.387  26.829  1.00  0.00    -0.460 OA
BRANCH   4   5
ATOM      5  C   UNL A   1      33.920  29.231  26.577  1.00  0.00     0.342 C 
ATOM      6  O   UNL A   1      35.076  28.962  26.871  1.00  0.00    -0.246 OA
BRANCH   5   7
ATOM      7  C   UNL A   1      32.985  28.200  26.086  1.00  0.00     0.103 A 
ATOM      8  C   UNL A   1      32.243  26.974  24.141  1.00  0.00     0.042 A 
ATOM      9  C   UNL A   1      31.166  26.468  24.877  1.00  0.00     0.030 A 
ATOM     10  C   UNL A   1      33.185  27.785  24.761  1.00  0.00     0.045 A 
ATOM     11  C   UNL A   1      31.012  26.810  26.222  1.00  0.00     0.049 A 
ATOM     12  C   UNL A   1      31.908  27.695  26.823  1.00  0.00     0.130 A 
BRANCH   8  13
ATOM     13  N   UNL A   1      32.367  26.766  22.762  1.00  0.00    -0.322 N 
ATOM     14  O   UNL A   1      33.312  25.797  20.936  1.00  0.00    -0.269 OA
ATOM     15  C   UNL A   1      33.059  25.749  22.136  1.00  0.00     0.257 C 
ATOM     16  H   UNL A   1      31.912  27.413  22.176  1.00  0.00     0.170 HD
BRANCH  15  17
ATOM     17  C   UNL A   1      33.404  24.527  22.896  1.00  0.00     0.059 A 
ATOM     18  C   UNL A   1      32.629  23.372  22.799  1.00  0.00     0.124 A 
ATOM     19  C   UNL A   1      34.545  24.496  23.695  1.00  0.00     0.032 A 
ATOM     20  N   UNL A   1      32.872  22.239  23.501  1.00  0.00    -0.263 NA
ATOM     21  C   UNL A   1      34.821  23.338  24.416  1.00  0.00     0.037 A 
ATOM     22  C   UNL A   1      33.963  22.251  24.301  1.00  0.00     0.126 A 
ATOM     23  Br  UNL A   1      36.333  23.248  25.537  1.00  0.00    -0.049 Br
ENDBRANCH  15  17
ENDBRANCH   8  13
BRANCH  12  24
ATOM     24  O   UNL A   1      31.702  28.085  28.114  1.00  0.00    -0.507 OA
ATOM     25  H   UNL A   1      30.832  28.238  28.424  1.00  0.00     0.293 HD
ENDBRANCH  12  24
ENDBRANCH   5   7
ENDBRANCH   4   5
ENDBRANCH   3   4
ENDBRANCH   2   3
ENDBRANCH   1   2
BRANCH   1  26
ATOM     26  C   UNL A   1      34.037  34.198  29.552  1.00  0.00     0.202 C 
BRANCH  26  27
ATOM     27  C   UNL A   1      34.413  33.893  31.007  1.00  0.00     0.261 C 
BRANCH  27  28
ATOM     28  O   UNL A   1      34.596  32.484  31.234  1.00  0.00    -0.460 OA
BRANCH  28  29
ATOM     29  C   UNL A   1      35.543  32.174  32.149  1.00  0.00     0.338 C 
ATOM     30  O   UNL A   1      35.499  32.371  33.357  1.00  0.00    -0.246 OA
BRANCH  29  31
ATOM     31  C   UNL A   1      36.618  31.387  31.520  1.00  0.00     0.060 A 
ATOM     32  C   UNL A   1      37.645  30.917  32.349  1.00  0.00     0.016 A 
ATOM     33  C   UNL A   1      36.665  31.174  30.141  1.00  0.00     0.016 A 
ATOM     34  C   UNL A   1      38.749  30.273  31.796  1.00  0.00     0.010 A 
ATOM     35  C   UNL A   1      37.779  30.536  29.586  1.00  0.00     0.010 A 
ATOM     36  C   UNL A   1      38.841  30.115  30.407  1.00  0.00    -0.014 A 
BRANCH  36  37
ATOM     37  C   UNL A   1      40.112  29.638  29.809  1.00  0.00     0.031 A 
ATOM     38  C   UNL A   1      41.264  30.596  29.687  1.00  0.00     0.074 A 
ATOM     39  C   UNL A   1      40.247  28.363  29.406  1.00  0.00     0.049 A 
ATOM     40  N   UNL A   1      42.454  30.403  29.176  1.00  0.00    -0.248 NA
ATOM     41  C   UNL A   1      41.048  31.954  30.210  1.00  0.00     0.031 C 
ATOM     42  C   UNL A   1      39.218  27.330  29.507  1.00  0.00     0.029 A 
ATOM     43  N   UNL A   1      41.313  27.722  28.826  1.00  0.00    -0.354 N 
ATOM     44  C   UNL A   1      43.122  31.614  29.306  1.00  0.00     0.074 A 
ATOM     45  C   UNL A   1      42.199  32.543  29.923  1.00  0.00     0.031 C 
ATOM     46  C   UNL A   1      39.701  26.182  29.001  1.00  0.00     0.029 A 
ATOM     47  C   UNL A   1      41.060  26.409  28.513  1.00  0.00     0.049 A 
ATOM     48  H   UNL A   1      42.175  28.162  28.649  1.00  0.00     0.167 HD
ATOM     49  C   UNL A   1      44.392  31.921  28.952  1.00  0.00     0.037 A 
ATOM     50  C   UNL A   1      41.835  25.501  27.889  1.00  0.00     0.037 A 
ATOM     51  C   UNL A   1      45.313  30.993  28.351  1.00  0.00     0.049 A 
ATOM     52  C   UNL A   1      43.220  25.889  27.444  1.00  0.00     0.074 A 
ATOM     53  C   UNL A   1      46.633  31.202  27.989  1.00  0.00     0.029 A 
ATOM     54  N   UNL A   1      45.009  29.684  28.017  1.00  0.00    -0.354 N 
ATOM     55  N   UNL A   1      43.853  27.026  27.603  1.00  0.00    -0.248 NA
ATOM     56  C   UNL A   1      44.000  24.863  26.733  1.00  0.00     0.031 C 
ATOM     57  C   UNL A   1      47.113  30.032  27.394  1.00  0.00     0.029 A 
ATOM     58  C   UNL A   1      46.107  29.080  27.427  1.00  0.00     0.049 A 
ATOM     59  H   UNL A   1      44.141  29.246  28.176  1.00  0.00     0.167 HD
ATOM     60  C   UNL A   1      45.112  26.844  27.043  1.00  0.00     0.074 A 
ATOM     61  C   UNL A   1      45.156  25.484  26.547  1.00  0.00     0.031 C 
ATOM     62  C   UNL A   1      46.139  27.722  26.949  1.00  0.00     0.037 A 
BRANCH  49  63
ATOM     63  C   UNL A   1      44.854  33.329  29.182  1.00  0.00     0.057 A 
ATOM     64  C   UNL A   1      45.522  33.706  30.353  1.00  0.00     0.134 A 
ATOM     65  C   UNL A   1      44.666  34.308  28.199  1.00  0.00     0.134 A 
ATOM     66  F   UNL A   1      45.721  32.818  31.339  1.00  0.00    -0.206 F 
ATOM     67  C   UNL A   1      45.972  35.014  30.546  1.00  0.00     0.040 A 
ATOM     68  C   UNL A   1      45.132  35.613  28.370  1.00  0.00     0.040 A 
ATOM     69  F   UNL A   1      44.038  34.010  27.052  1.00  0.00    -0.206 F 
ATOM     70  C   UNL A   1      45.783  35.970  29.549  1.00  0.00     0.006 A 
ENDBRANCH  49  63
BRANCH  50  71
ATOM     71  C   UNL A   1      41.322  24.131  27.633  1.00  0.00     0.057 A 
ATOM     72  C   UNL A   1      40.357  23.893  26.647  1.00  0.00     0.134 A 
ATOM     73  C   UNL A   1      41.757  23.036  28.388  1.00  0.00     0.134 A 
ATOM     74  F   UNL A   1      39.883  24.907  25.909  1.00  0.00    -0.206 F 
ATOM     75  C   UNL A   1      39.829  22.619  26.433  1.00  0.00     0.040 A 
ATOM     76  C   UNL A   1      41.255  21.753  28.169  1.00  0.00     0.040 A 
ATOM     77  F   UNL A   1      42.678  23.199  29.350  1.00  0.00    -0.206 F 
ATOM     78  C   UNL A   1      40.282  21.543  27.194  1.00  0.00     0.006 A 
ENDBRANCH  50  71
BRANCH  62  79
ATOM     79  C   UNL A   1      47.412  27.231  26.324  1.00  0.00     0.057 A 
ATOM     80  C   UNL A   1      47.661  27.361  24.952  1.00  0.00     0.134 A 
ATOM     81  C   UNL A   1      48.417  26.656  27.113  1.00  0.00     0.134 A 
ATOM     82  F   UNL A   1      46.733  27.891  24.141  1.00  0.00    -0.206 F 
ATOM     83  C   UNL A   1      48.857  26.919  24.384  1.00  0.00     0.040 A 
ATOM     84  C   UNL A   1      49.627  26.234  26.560  1.00  0.00     0.040 A 
ATOM     85  F   UNL A   1      48.246  26.510  28.435  1.00  0.00    -0.206 F 
ATOM     86  C   UNL A   1      49.847  26.361  25.190  1.00  0.00     0.006 A 
ENDBRANCH  62  79
ENDBRANCH  36  37
ENDBRANCH  29  31
ENDBRANCH  28  29
ENDBRANCH  27  28
ENDBRANCH  26  27
ENDBRANCH   1  26
TORSDOF 17
ENDMDL
MODEL 3
REMARK VINA RESULT:     -10.9      1.286      6.312
REMARK SMILES O=C(Nc1ccc(O)c(C(=O)OCCOCCOC(=O)c2ccc(-c3c4nc(c(-c5c(F)cccc5F)c5ccc([nH]5)c(-c5c(F)cccc5F)c5nc(c(-c6c(F)cccc6F)c6ccc3[nH]6)C=C5)C=C4)cc2)c1)c1cncc(Br)c1
REMARK SMILES IDX 15 1 14 2 13 3 12 4 10 5 11 6 9 7 4 8 5 9 75 10 6 11 7 12
REMARK SMILES IDX 3 13 1 14 2 15 76 17 77 18 82 19 78 20 80 21 79 22 81 23
REMARK SMILES IDX 8 24 16 26 17 27 18 28 19 29 20 30 21 31 22 32 74 33 23 34
REMARK SMILES IDX 73 35 24 36 25 37 26 38 67 39 27 40 72 41 66 42 68 43 28 44
REMARK SMILES IDX 71 45 65 46 64 47 29 49 55 50 38 51 54 52 39 53 42 54 53 55
REMARK SMILES IDX 69 56 40 57 41 58 52 60 70 61 43 62 30 63 31 64 36 65 32 66
REMARK SMILES IDX 33 67 35 68 37 69 34 70 56 71 57 72 62 73 58 74 59 75 61 76
REMARK SMILES IDX 63 77 60 78 44 79 45 80 50 81 46 82 47 83 49 84 51 85 48 86
REMARK H PARENT 3 16 8 25 68 48 42 59
REMARK Flexibility Score: inf
ROOT
ATOM      1  O   UNL A   1      41.811  21.585  26.515  1.00  0.00    -0.374 OA
ENDROOT
BRANCH   1   2
ATOM      2  C   UNL A   1      40.515  21.247  26.014  1.00  0.00     0.202 C 
BRANCH   2   3
ATOM      3  C   UNL A   1      39.355  22.060  26.587  1.00  0.00     0.261 C 
BRANCH   3   4
ATOM      4  O   UNL A   1      38.394  22.323  25.554  1.00  0.00    -0.460 OA
BRANCH   4   5
ATOM      5  C   UNL A   1      37.632  23.421  25.743  1.00  0.00     0.342 C 
ATOM      6  O   UNL A   1      37.981  24.478  26.249  1.00  0.00    -0.246 OA
BRANCH   5   7
ATOM      7  C   UNL A   1      36.338  23.286  25.046  1.00  0.00     0.103 A 
ATOM      8  C   UNL A   1      33.969  22.913  25.337  1.00  0.00     0.042 A 
ATOM      9  C   UNL A   1      33.828  22.759  23.954  1.00  0.00     0.030 A 
ATOM     10  C   UNL A   1      35.207  23.238  25.875  1.00  0.00     0.045 A 
ATOM     11  C   UNL A   1      34.937  22.892  23.115  1.00  0.00     0.049 A 
ATOM     12  C   UNL A   1      36.199  23.133  23.662  1.00  0.00     0.130 A 
BRANCH   8  13
ATOM     13  N   UNL A   1      32.916  22.661  26.226  1.00  0.00    -0.322 N 
ATOM     14  O   UNL A   1      31.247  23.311  27.625  1.00  0.00    -0.269 OA
ATOM     15  C   UNL A   1      31.968  23.563  26.665  1.00  0.00     0.257 C 
ATOM     16  H   UNL A   1      32.844  21.743  26.575  1.00  0.00     0.170 HD
BRANCH  15  17
ATOM     17  C   UNL A   1      31.737  24.808  25.898  1.00  0.00     0.059 A 
ATOM     18  C   UNL A   1      30.806  24.857  24.862  1.00  0.00     0.124 A 
ATOM     19  C   UNL A   1      32.421  25.975  26.231  1.00  0.00     0.032 A 
ATOM     20  N   UNL A   1      30.582  25.954  24.100  1.00  0.00    -0.263 NA
ATOM     21  C   UNL A   1      32.197  27.118  25.470  1.00  0.00     0.037 A 
ATOM     22  C   UNL A   1      31.291  27.062  24.419  1.00  0.00     0.126 A 
ATOM     23  Br  UNL A   1      33.118  28.717  25.854  1.00  0.00    -0.049 Br
ENDBRANCH  15  17
ENDBRANCH   8  13
BRANCH  12  24
ATOM     24  O   UNL A   1      37.287  23.180  22.842  1.00  0.00    -0.507 OA
ATOM     25  H   UNL A   1      37.348  23.842  22.182  1.00  0.00     0.293 HD
ENDBRANCH  12  24
ENDBRANCH   5   7
ENDBRANCH   4   5
ENDBRANCH   3   4
ENDBRANCH   2   3
ENDBRANCH   1   2
BRANCH   1  26
ATOM     26  C   UNL A   1      42.939  21.127  25.770  1.00  0.00     0.202 C 
BRANCH  26  27
ATOM     27  C   UNL A   1      43.673  22.185  24.937  1.00  0.00     0.261 C 
BRANCH  27  28
ATOM     28  O   UNL A   1      42.994  23.453  24.952  1.00  0.00    -0.460 OA
BRANCH  28  29
ATOM     29  C   UNL A   1      43.770  24.510  25.280  1.00  0.00     0.338 C 
ATOM     30  O   UNL A   1      44.833  24.838  24.768  1.00  0.00    -0.246 OA
BRANCH  29  31
ATOM     31  C   UNL A   1      43.079  25.360  26.267  1.00  0.00     0.060 A 
ATOM     32  C   UNL A   1      43.582  26.652  26.473  1.00  0.00     0.016 A 
ATOM     33  C   UNL A   1      42.010  24.884  27.029  1.00  0.00     0.016 A 
ATOM     34  C   UNL A   1      43.049  27.456  27.476  1.00  0.00     0.010 A 
ATOM     35  C   UNL A   1      41.483  25.690  28.043  1.00  0.00     0.010 A 
ATOM     36  C   UNL A   1      42.022  26.965  28.294  1.00  0.00    -0.014 A 
BRANCH  36  37
ATOM     37  C   UNL A   1      41.616  27.731  29.497  1.00  0.00     0.031 A 
ATOM     38  C   UNL A   1      40.419  28.637  29.413  1.00  0.00     0.074 A 
ATOM     39  C   UNL A   1      42.285  27.600  30.654  1.00  0.00     0.049 A 
ATOM     40  N   UNL A   1      39.902  29.415  30.330  1.00  0.00    -0.248 NA
ATOM     41  C   UNL A   1      39.709  28.671  28.125  1.00  0.00     0.031 C 
ATOM     42  C   UNL A   1      43.436  26.725  30.872  1.00  0.00     0.029 A 
ATOM     43  N   UNL A   1      42.091  28.210  31.868  1.00  0.00    -0.354 N 
ATOM     44  C   UNL A   1      38.816  30.038  29.727  1.00  0.00     0.074 A 
ATOM     45  C   UNL A   1      38.761  29.566  28.360  1.00  0.00     0.031 C 
ATOM     46  C   UNL A   1      43.850  26.858  32.144  1.00  0.00     0.029 A 
ATOM     47  C   UNL A   1      43.014  27.850  32.818  1.00  0.00     0.049 A 
ATOM     48  H   UNL A   1      41.361  28.848  32.040  1.00  0.00     0.167 HD
ATOM     49  C   UNL A   1      37.939  30.918  30.267  1.00  0.00     0.037 A 
ATOM     50  C   UNL A   1      43.172  28.283  34.084  1.00  0.00     0.037 A 
ATOM     51  C   UNL A   1      37.987  31.377  31.630  1.00  0.00     0.049 A 
ATOM     52  C   UNL A   1      42.222  29.313  34.638  1.00  0.00     0.074 A 
ATOM     53  C   UNL A   1      37.120  32.240  32.278  1.00  0.00     0.029 A 
ATOM     54  N   UNL A   1      38.956  31.016  32.551  1.00  0.00    -0.354 N 
ATOM     55  N   UNL A   1      41.180  29.869  34.071  1.00  0.00    -0.248 NA
ATOM     56  C   UNL A   1      42.474  29.774  36.012  1.00  0.00     0.031 C 
ATOM     57  C   UNL A   1      37.593  32.437  33.579  1.00  0.00     0.029 A 
ATOM     58  C   UNL A   1      38.727  31.661  33.754  1.00  0.00     0.049 A 
ATOM     59  H   UNL A   1      39.698  30.392  32.376  1.00  0.00     0.167 HD
ATOM     60  C   UNL A   1      40.634  30.718  35.025  1.00  0.00     0.074 A 
ATOM     61  C   UNL A   1      41.456  30.599  36.212  1.00  0.00     0.031 C 
ATOM     62  C   UNL A   1      39.548  31.523  34.930  1.00  0.00     0.037 A 
BRANCH  49  63
ATOM     63  C   UNL A   1      36.865  31.462  29.373  1.00  0.00     0.057 A 
ATOM     64  C   UNL A   1      36.949  32.741  28.809  1.00  0.00     0.134 A 
ATOM     65  C   UNL A   1      35.753  30.679  29.040  1.00  0.00     0.134 A 
ATOM     66  F   UNL A   1      37.982  33.546  29.100  1.00  0.00    -0.206 F 
ATOM     67  C   UNL A   1      35.956  33.227  27.957  1.00  0.00     0.040 A 
ATOM     68  C   UNL A   1      34.766  31.145  28.171  1.00  0.00     0.040 A 
ATOM     69  F   UNL A   1      35.616  29.443  29.544  1.00  0.00    -0.206 F 
ATOM     70  C   UNL A   1      34.864  32.425  27.630  1.00  0.00     0.006 A 
ENDBRANCH  49  63
BRANCH  50  71
ATOM     71  C   UNL A   1      44.280  27.758  34.921  1.00  0.00     0.057 A 
ATOM     72  C   UNL A   1      45.524  28.398  34.958  1.00  0.00     0.134 A 
ATOM     73  C   UNL A   1      44.133  26.588  35.674  1.00  0.00     0.134 A 
ATOM     74  F   UNL A   1      45.733  29.509  34.237  1.00  0.00    -0.206 F 
ATOM     75  C   UNL A   1      46.588  27.884  35.700  1.00  0.00     0.040 A 
ATOM     76  C   UNL A   1      45.181  26.075  36.439  1.00  0.00     0.040 A 
ATOM     77  F   UNL A   1      42.966  25.926  35.678  1.00  0.00    -0.206 F 
ATOM     78  C   UNL A   1      46.416  26.720  36.447  1.00  0.00     0.006 A 
ENDBRANCH  50  71
BRANCH  62  79
ATOM     79  C   UNL A   1      39.160  32.306  36.150  1.00  0.00     0.057 A 
ATOM     80  C   UNL A   1      39.643  33.600  36.383  1.00  0.00     0.134 A 
ATOM     81  C   UNL A   1      38.260  31.774  37.082  1.00  0.00     0.134 A 
ATOM     82  F   UNL A   1      40.517  34.162  35.534  1.00  0.00    -0.206 F 
ATOM     83  C   UNL A   1      39.260  34.329  37.510  1.00  0.00     0.040 A 
ATOM     84  C   UNL A   1      37.851  32.502  38.200  1.00  0.00     0.040 A 
ATOM     85  F   UNL A   1      37.754  30.544  36.913  1.00  0.00    -0.206 F 
ATOM     86  C   UNL A   1      38.355  33.782  38.418  1.00  0.00     0.006 A 
ENDBRANCH  62  79
ENDBRANCH  36  37
ENDBRANCH  29  31
ENDBRANCH  28  29
ENDBRANCH  27  28
ENDBRANCH  26  27
ENDBRANCH   1  26
TORSDOF 17
ENDMDL
