MODEL 1
REMARK VINA RESULT:     -11.5      0.000      0.000
REMARK SMILES NC(=O)CC[C@H](C(=O)OCCOCCOC(=O)c1ccc(-c2c3nc(c(-c4c(F)cccc4F)c4ccc([nH]4)c(-c4c(F)cccc4F)c4nc(c(-c5c(F)cccc5F)c5ccc2[nH]5)C=C4)C=C3)cc1)N1C(=O)/C(=C/c2ccc(O)c(O)c2)SC1=S
REMARK SMILES IDX 11 1 10 2 9 3 7 4 8 5 6 6 5 7 4 8 2 9 1 10 3 13 72 14 73 15
REMARK SMILES IDX 86 16 74 17 75 18 85 19 87 20 76 21 77 22 78 23 84 24 79 25
REMARK SMILES IDX 82 26 80 27 83 28 81 30 12 32 13 33 14 34 15 35 16 36 17 37
REMARK SMILES IDX 18 38 19 39 71 40 20 41 70 42 21 43 22 44 23 45 64 46 24 47
REMARK SMILES IDX 69 48 63 49 65 50 25 51 68 52 62 53 61 54 26 56 52 57 35 58
REMARK SMILES IDX 51 59 36 60 39 61 50 62 66 63 37 64 38 65 49 67 67 68 40 69
REMARK SMILES IDX 27 70 28 71 33 72 29 73 30 74 32 75 34 76 31 77 53 78 54 79
REMARK SMILES IDX 59 80 55 81 56 82 58 83 60 84 57 85 41 86 42 87 47 88 43 89
REMARK SMILES IDX 44 90 46 91 48 92 45 93
REMARK H PARENT 1 11 1 12 83 29 81 31 65 55 39 66
REMARK Flexibility Score: inf
ROOT
ATOM      1  C   UNL A   1      34.769  23.507  24.350  1.00  0.00     0.202 C 
ENDROOT
BRANCH   1   2
ATOM      2  C   UNL A   1      34.782  24.809  25.146  1.00  0.00     0.261 C 
BRANCH   2   3
ATOM      3  O   UNL A   1      33.606  24.879  25.968  1.00  0.00    -0.462 OA
BRANCH   3   4
ATOM      4  C   UNL A   1      32.671  25.787  25.601  1.00  0.00     0.329 C 
ATOM      5  O   UNL A   1      32.351  26.776  26.250  1.00  0.00    -0.250 OA
BRANCH   4   6
ATOM      6  C   UNL A   1      31.975  25.400  24.291  1.00  0.00     0.202 C 
BRANCH   6   7
ATOM      7  C   UNL A   1      31.034  24.176  24.200  1.00  0.00     0.047 C 
BRANCH   7   8
ATOM      8  C   UNL A   1      31.042  23.060  25.239  1.00  0.00     0.102 C 
BRANCH   8   9
ATOM      9  C   UNL A   1      30.589  23.492  26.606  1.00  0.00     0.217 C 
ATOM     10  N   UNL A   1      29.505  24.306  26.626  1.00  0.00    -0.370 N 
ATOM     11  H   UNL A   1      29.149  24.630  27.485  1.00  0.00     0.159 HD
ATOM     12  H   UNL A   1      29.074  24.572  25.783  1.00  0.00     0.159 HD
ATOM     13  O   UNL A   1      31.141  23.136  27.641  1.00  0.00    -0.275 OA
ENDBRANCH   8   9
ENDBRANCH   7   8
ENDBRANCH   6   7
BRANCH   6  14
ATOM     14  N   UNL A   1      31.524  26.620  23.605  1.00  0.00    -0.278 N 
ATOM     15  C   UNL A   1      30.224  27.055  23.790  1.00  0.00     0.266 C 
ATOM     16  C   UNL A   1      32.323  27.408  22.798  1.00  0.00     0.149 C 
ATOM     17  O   UNL A   1      29.358  26.497  24.451  1.00  0.00    -0.268 OA
ATOM     18  C   UNL A   1      30.006  28.343  23.100  1.00  0.00     0.081 C 
ATOM     19  S   UNL A   1      31.401  28.788  22.213  1.00  0.00    -0.054 SA
ATOM     20  S   UNL A   1      33.920  27.175  22.376  1.00  0.00    -0.052 S 
ATOM     21  C   UNL A   1      28.848  28.999  23.242  1.00  0.00     0.029 C 
BRANCH  21  22
ATOM     22  C   UNL A   1      28.473  30.234  22.558  1.00  0.00    -0.020 A 
ATOM     23  C   UNL A   1      28.004  30.188  21.237  1.00  0.00     0.012 A 
ATOM     24  C   UNL A   1      28.658  31.468  23.196  1.00  0.00     0.058 A 
ATOM     25  C   UNL A   1      27.709  31.372  20.558  1.00  0.00     0.051 A 
ATOM     26  C   UNL A   1      28.361  32.637  22.512  1.00  0.00     0.157 A 
ATOM     27  C   UNL A   1      27.894  32.586  21.203  1.00  0.00     0.157 A 
BRANCH  26  28
ATOM     28  O   UNL A   1      28.525  33.866  23.089  1.00  0.00    -0.504 OA
ATOM     29  H   UNL A   1      29.229  34.011  23.689  1.00  0.00     0.293 HD
ENDBRANCH  26  28
BRANCH  27  30
ATOM     30  O   UNL A   1      27.620  33.744  20.536  1.00  0.00    -0.504 OA
ATOM     31  H   UNL A   1      26.731  34.009  20.401  1.00  0.00     0.293 HD
ENDBRANCH  27  30
ENDBRANCH  21  22
ENDBRANCH   6  14
ENDBRANCH   4   6
ENDBRANCH   3   4
ENDBRANCH   2   3
ENDBRANCH   1   2
BRANCH   1  32
ATOM     32  O   UNL A   1      34.473  22.342  25.121  1.00  0.00    -0.374 OA
BRANCH  32  33
ATOM     33  C   UNL A   1      35.505  21.833  25.965  1.00  0.00     0.202 C 
BRANCH  33  34
ATOM     34  C   UNL A   1      36.479  20.861  25.298  1.00  0.00     0.261 C 
BRANCH  34  35
ATOM     35  O   UNL A   1      37.719  21.519  24.973  1.00  0.00    -0.460 OA
BRANCH  35  36
ATOM     36  C   UNL A   1      38.771  21.146  25.736  1.00  0.00     0.338 C 
ATOM     37  O   UNL A   1      39.320  20.052  25.752  1.00  0.00    -0.246 OA
BRANCH  36  38
ATOM     38  C   UNL A   1      39.313  22.310  26.458  1.00  0.00     0.060 A 
ATOM     39  C   UNL A   1      38.769  23.567  26.158  1.00  0.00     0.016 A 
ATOM     40  C   UNL A   1      40.386  22.194  27.345  1.00  0.00     0.016 A 
ATOM     41  C   UNL A   1      39.344  24.721  26.682  1.00  0.00     0.010 A 
ATOM     42  C   UNL A   1      40.967  23.353  27.866  1.00  0.00     0.010 A 
ATOM     43  C   UNL A   1      40.479  24.620  27.497  1.00  0.00    -0.014 A 
BRANCH  43  44
ATOM     44  C   UNL A   1      41.272  25.833  27.802  1.00  0.00     0.031 A 
ATOM     45  C   UNL A   1      40.619  26.937  28.589  1.00  0.00     0.074 A 
ATOM     46  C   UNL A   1      42.549  25.947  27.398  1.00  0.00     0.049 A 
ATOM     47  N   UNL A   1      41.077  28.122  28.895  1.00  0.00    -0.248 NA
ATOM     48  C   UNL A   1      39.262  26.666  29.097  1.00  0.00     0.031 C 
ATOM     49  C   UNL A   1      43.304  24.926  26.677  1.00  0.00     0.029 A 
ATOM     50  N   UNL A   1      43.430  26.991  27.528  1.00  0.00    -0.354 N 
ATOM     51  C   UNL A   1      40.059  28.746  29.606  1.00  0.00     0.074 A 
ATOM     52  C   UNL A   1      38.955  27.816  29.679  1.00  0.00     0.031 C 
ATOM     53  C   UNL A   1      44.535  25.401  26.412  1.00  0.00     0.029 A 
ATOM     54  C   UNL A   1      44.636  26.770  26.912  1.00  0.00     0.049 A 
ATOM     55  H   UNL A   1      43.217  27.818  28.018  1.00  0.00     0.167 HD
ATOM     56  C   UNL A   1      40.049  29.985  30.150  1.00  0.00     0.037 A 
ATOM     57  C   UNL A   1      45.687  27.597  26.744  1.00  0.00     0.037 A 
ATOM     58  C   UNL A   1      41.159  30.899  30.096  1.00  0.00     0.049 A 
ATOM     59  C   UNL A   1      45.622  28.996  27.301  1.00  0.00     0.074 A 
ATOM     60  C   UNL A   1      41.262  32.161  30.653  1.00  0.00     0.029 A 
ATOM     61  N   UNL A   1      42.355  30.647  29.443  1.00  0.00    -0.354 N 
ATOM     62  N   UNL A   1      44.669  29.567  27.996  1.00  0.00    -0.248 NA
ATOM     63  C   UNL A   1      46.780  29.866  27.045  1.00  0.00     0.031 C 
ATOM     64  C   UNL A   1      42.505  32.694  30.295  1.00  0.00     0.029 A 
ATOM     65  C   UNL A   1      43.192  31.743  29.558  1.00  0.00     0.049 A 
ATOM     66  H   UNL A   1      42.576  29.813  28.968  1.00  0.00     0.167 HD
ATOM     67  C   UNL A   1      45.126  30.846  28.292  1.00  0.00     0.074 A 
ATOM     68  C   UNL A   1      46.443  30.966  27.705  1.00  0.00     0.031 C 
ATOM     69  C   UNL A   1      44.512  31.832  28.990  1.00  0.00     0.037 A 
BRANCH  56  70
ATOM     70  C   UNL A   1      38.793  30.442  30.827  1.00  0.00     0.057 A 
ATOM     71  C   UNL A   1      38.595  30.294  32.205  1.00  0.00     0.134 A 
ATOM     72  C   UNL A   1      37.792  31.093  30.094  1.00  0.00     0.134 A 
ATOM     73  F   UNL A   1      39.508  29.667  32.960  1.00  0.00    -0.206 F 
ATOM     74  C   UNL A   1      37.438  30.768  32.829  1.00  0.00     0.040 A 
ATOM     75  C   UNL A   1      36.642  31.591  30.710  1.00  0.00     0.040 A 
ATOM     76  F   UNL A   1      37.922  31.268  28.771  1.00  0.00    -0.206 F 
ATOM     77  C   UNL A   1      36.463  31.427  32.082  1.00  0.00     0.006 A 
ENDBRANCH  56  70
BRANCH  57  78
ATOM     78  C   UNL A   1      46.887  27.143  25.996  1.00  0.00     0.057 A 
ATOM     79  C   UNL A   1      47.956  26.521  26.651  1.00  0.00     0.134 A 
ATOM     80  C   UNL A   1      47.016  27.366  24.620  1.00  0.00     0.134 A 
ATOM     81  F   UNL A   1      47.902  26.303  27.973  1.00  0.00    -0.206 F 
ATOM     82  C   UNL A   1      49.119  26.156  25.970  1.00  0.00     0.040 A 
ATOM     83  C   UNL A   1      48.163  26.982  23.921  1.00  0.00     0.040 A 
ATOM     84  F   UNL A   1      46.029  27.959  23.934  1.00  0.00    -0.206 F 
ATOM     85  C   UNL A   1      49.222  26.385  24.599  1.00  0.00     0.006 A 
ENDBRANCH  57  78
BRANCH  69  86
ATOM     86  C   UNL A   1      45.276  33.104  29.209  1.00  0.00     0.057 A 
ATOM     87  C   UNL A   1      46.139  33.272  30.297  1.00  0.00     0.134 A 
ATOM     88  C   UNL A   1      45.187  34.152  28.282  1.00  0.00     0.134 A 
ATOM     89  F   UNL A   1      46.259  32.312  31.225  1.00  0.00    -0.206 F 
ATOM     90  C   UNL A   1      46.877  34.446  30.465  1.00  0.00     0.040 A 
ATOM     91  C   UNL A   1      45.938  35.318  28.426  1.00  0.00     0.040 A 
ATOM     92  F   UNL A   1      44.385  34.048  27.212  1.00  0.00    -0.206 F 
ATOM     93  C   UNL A   1      46.784  35.469  29.523  1.00  0.00     0.006 A 
ENDBRANCH  69  86
ENDBRANCH  43  44
ENDBRANCH  36  38
ENDBRANCH  35  36
ENDBRANCH  34  35
ENDBRANCH  33  34
ENDBRANCH  32  33
ENDBRANCH   1  32
TORSDOF 21
ENDMDL
MODEL 2
REMARK VINA RESULT:     -11.5      2.274      6.240
REMARK SMILES NC(=O)CC[C@H](C(=O)OCCOCCOC(=O)c1ccc(-c2c3nc(c(-c4c(F)cccc4F)c4ccc([nH]4)c(-c4c(F)cccc4F)c4nc(c(-c5c(F)cccc5F)c5ccc2[nH]5)C=C4)C=C3)cc1)N1C(=O)/C(=C/c2ccc(O)c(O)c2)SC1=S
REMARK SMILES IDX 11 1 10 2 9 3 7 4 8 5 6 6 5 7 4 8 2 9 1 10 3 13 72 14 73 15
REMARK SMILES IDX 86 16 74 17 75 18 85 19 87 20 76 21 77 22 78 23 84 24 79 25
REMARK SMILES IDX 82 26 80 27 83 28 81 30 12 32 13 33 14 34 15 35 16 36 17 37
REMARK SMILES IDX 18 38 19 39 71 40 20 41 70 42 21 43 22 44 23 45 64 46 24 47
REMARK SMILES IDX 69 48 63 49 65 50 25 51 68 52 62 53 61 54 26 56 52 57 35 58
REMARK SMILES IDX 51 59 36 60 39 61 50 62 66 63 37 64 38 65 49 67 67 68 40 69
REMARK SMILES IDX 27 70 28 71 33 72 29 73 30 74 32 75 34 76 31 77 53 78 54 79
REMARK SMILES IDX 59 80 55 81 56 82 58 83 60 84 57 85 41 86 42 87 47 88 43 89
REMARK SMILES IDX 44 90 46 91 48 92 45 93
REMARK H PARENT 1 11 1 12 83 29 81 31 65 55 39 66
REMARK Flexibility Score: inf
ROOT
ATOM      1  C   UNL A   1      36.917  22.712  23.975  1.00  0.00     0.202 C 
ENDROOT
BRANCH   1   2
ATOM      2  C   UNL A   1      35.482  23.147  23.688  1.00  0.00     0.261 C 
BRANCH   2   3
ATOM      3  O   UNL A   1      34.951  23.830  24.835  1.00  0.00    -0.462 OA
BRANCH   3   4
ATOM      4  C   UNL A   1      33.872  23.263  25.424  1.00  0.00     0.329 C 
ATOM      5  O   UNL A   1      33.824  22.868  26.584  1.00  0.00    -0.250 OA
BRANCH   4   6
ATOM      6  C   UNL A   1      32.706  23.087  24.445  1.00  0.00     0.202 C 
BRANCH   6   7
ATOM      7  C   UNL A   1      32.043  21.710  24.207  1.00  0.00     0.047 C 
BRANCH   7   8
ATOM      8  C   UNL A   1      32.852  20.422  24.100  1.00  0.00     0.102 C 
BRANCH   8   9
ATOM      9  C   UNL A   1      32.622  19.458  25.230  1.00  0.00     0.217 C 
ATOM     10  N   UNL A   1      33.082  19.863  26.439  1.00  0.00    -0.370 N 
ATOM     11  H   UNL A   1      32.968  19.285  27.229  1.00  0.00     0.159 HD
ATOM     12  H   UNL A   1      33.530  20.734  26.528  1.00  0.00     0.159 HD
ATOM     13  O   UNL A   1      32.051  18.383  25.091  1.00  0.00    -0.275 OA
ENDBRANCH   8   9
ENDBRANCH   7   8
ENDBRANCH   6   7
BRANCH   6  14
ATOM     14  N   UNL A   1      31.795  24.235  24.568  1.00  0.00    -0.278 N 
ATOM     15  C   UNL A   1      31.910  25.284  23.673  1.00  0.00     0.266 C 
ATOM     16  C   UNL A   1      30.785  24.339  25.505  1.00  0.00     0.149 C 
ATOM     17  O   UNL A   1      32.742  25.392  22.782  1.00  0.00    -0.268 OA
ATOM     18  C   UNL A   1      30.844  26.281  23.904  1.00  0.00     0.081 C 
ATOM     19  S   UNL A   1      29.913  25.850  25.275  1.00  0.00    -0.054 SA
ATOM     20  S   UNL A   1      30.375  23.262  26.712  1.00  0.00    -0.052 S 
ATOM     21  C   UNL A   1      30.702  27.323  23.078  1.00  0.00     0.029 C 
BRANCH  21  22
ATOM     22  C   UNL A   1      29.747  28.418  23.235  1.00  0.00    -0.020 A 
ATOM     23  C   UNL A   1      28.402  28.229  22.887  1.00  0.00     0.012 A 
ATOM     24  C   UNL A   1      30.194  29.677  23.658  1.00  0.00     0.058 A 
ATOM     25  C   UNL A   1      27.501  29.293  22.972  1.00  0.00     0.051 A 
ATOM     26  C   UNL A   1      29.290  30.726  23.741  1.00  0.00     0.157 A 
ATOM     27  C   UNL A   1      27.957  30.532  23.396  1.00  0.00     0.157 A 
BRANCH  26  28
ATOM     28  O   UNL A   1      29.675  31.973  24.147  1.00  0.00    -0.504 OA
ATOM     29  H   UNL A   1      30.562  32.251  24.029  1.00  0.00     0.293 HD
ENDBRANCH  26  28
BRANCH  27  30
ATOM     30  O   UNL A   1      27.081  31.577  23.467  1.00  0.00    -0.504 OA
ATOM     31  H   UNL A   1      26.334  31.525  24.029  1.00  0.00     0.293 HD
ENDBRANCH  27  30
ENDBRANCH  21  22
ENDBRANCH   6  14
ENDBRANCH   4   6
ENDBRANCH   3   4
ENDBRANCH   2   3
ENDBRANCH   1   2
BRANCH   1  32
ATOM     32  O   UNL A   1      37.058  21.816  25.076  1.00  0.00    -0.374 OA
BRANCH  32  33
ATOM     33  C   UNL A   1      38.362  21.665  25.638  1.00  0.00     0.202 C 
BRANCH  33  34
ATOM     34  C   UNL A   1      39.045  20.325  25.361  1.00  0.00     0.261 C 
BRANCH  34  35
ATOM     35  O   UNL A   1      39.811  19.895  26.502  1.00  0.00    -0.460 OA
BRANCH  35  36
ATOM     36  C   UNL A   1      41.139  19.776  26.277  1.00  0.00     0.338 C 
ATOM     37  O   UNL A   1      41.712  18.857  25.708  1.00  0.00    -0.246 OA
BRANCH  36  38
ATOM     38  C   UNL A   1      41.833  21.017  26.665  1.00  0.00     0.060 A 
ATOM     39  C   UNL A   1      41.806  21.376  28.020  1.00  0.00     0.016 A 
ATOM     40  C   UNL A   1      42.423  21.859  25.719  1.00  0.00     0.016 A 
ATOM     41  C   UNL A   1      42.300  22.613  28.425  1.00  0.00     0.010 A 
ATOM     42  C   UNL A   1      42.912  23.102  26.125  1.00  0.00     0.010 A 
ATOM     43  C   UNL A   1      42.806  23.502  27.470  1.00  0.00    -0.014 A 
BRANCH  43  44
ATOM     44  C   UNL A   1      43.043  24.918  27.839  1.00  0.00     0.031 A 
ATOM     45  C   UNL A   1      44.462  25.380  28.030  1.00  0.00     0.074 A 
ATOM     46  C   UNL A   1      42.020  25.776  27.990  1.00  0.00     0.049 A 
ATOM     47  N   UNL A   1      44.910  26.537  28.442  1.00  0.00    -0.248 NA
ATOM     48  C   UNL A   1      45.519  24.402  27.717  1.00  0.00     0.031 C 
ATOM     49  C   UNL A   1      40.610  25.459  27.781  1.00  0.00     0.029 A 
ATOM     50  N   UNL A   1      42.018  27.093  28.374  1.00  0.00    -0.354 N 
ATOM     51  C   UNL A   1      46.295  26.418  28.462  1.00  0.00     0.074 A 
ATOM     52  C   UNL A   1      46.615  25.075  28.033  1.00  0.00     0.031 C 
ATOM     53  C   UNL A   1      39.873  26.550  28.055  1.00  0.00     0.029 A 
ATOM     54  C   UNL A   1      40.759  27.626  28.496  1.00  0.00     0.049 A 
ATOM     55  H   UNL A   1      42.840  27.607  28.545  1.00  0.00     0.167 HD
ATOM     56  C   UNL A   1      47.215  27.348  28.808  1.00  0.00     0.037 A 
ATOM     57  C   UNL A   1      40.370  28.836  28.943  1.00  0.00     0.037 A 
ATOM     58  C   UNL A   1      46.893  28.690  29.212  1.00  0.00     0.049 A 
ATOM     59  C   UNL A   1      41.413  29.829  29.388  1.00  0.00     0.074 A 
ATOM     60  C   UNL A   1      47.756  29.720  29.542  1.00  0.00     0.029 A 
ATOM     61  N   UNL A   1      45.605  29.185  29.344  1.00  0.00    -0.354 N 
ATOM     62  N   UNL A   1      42.720  29.718  29.376  1.00  0.00    -0.248 NA
ATOM     63  C   UNL A   1      40.926  31.113  29.912  1.00  0.00     0.031 C 
ATOM     64  C   UNL A   1      46.988  30.825  29.922  1.00  0.00     0.029 A 
ATOM     65  C   UNL A   1      45.650  30.497  29.780  1.00  0.00     0.049 A 
ATOM     66  H   UNL A   1      44.782  28.678  29.157  1.00  0.00     0.167 HD
ATOM     67  C   UNL A   1      43.209  30.928  29.853  1.00  0.00     0.074 A 
ATOM     68  C   UNL A   1      42.060  31.760  30.142  1.00  0.00     0.031 C 
ATOM     69  C   UNL A   1      44.494  31.319  30.034  1.00  0.00     0.037 A 
BRANCH  56  70
ATOM     70  C   UNL A   1      48.658  26.943  28.795  1.00  0.00     0.057 A 
ATOM     71  C   UNL A   1      49.299  26.439  29.934  1.00  0.00     0.134 A 
ATOM     72  C   UNL A   1      49.400  27.005  27.608  1.00  0.00     0.134 A 
ATOM     73  F   UNL A   1      48.648  26.367  31.104  1.00  0.00    -0.206 F 
ATOM     74  C   UNL A   1      50.631  26.020  29.893  1.00  0.00     0.040 A 
ATOM     75  C   UNL A   1      50.724  26.570  27.551  1.00  0.00     0.040 A 
ATOM     76  F   UNL A   1      48.843  27.477  26.482  1.00  0.00    -0.206 F 
ATOM     77  C   UNL A   1      51.344  26.077  28.697  1.00  0.00     0.006 A 
ENDBRANCH  56  70
BRANCH  57  78
ATOM     78  C   UNL A   1      38.927  29.179  29.024  1.00  0.00     0.057 A 
ATOM     79  C   UNL A   1      38.220  29.056  30.225  1.00  0.00     0.134 A 
ATOM     80  C   UNL A   1      38.211  29.591  27.893  1.00  0.00     0.134 A 
ATOM     81  F   UNL A   1      38.845  28.642  31.337  1.00  0.00    -0.206 F 
ATOM     82  C   UNL A   1      36.848  29.307  30.296  1.00  0.00     0.040 A 
ATOM     83  C   UNL A   1      36.844  29.871  27.955  1.00  0.00     0.040 A 
ATOM     84  F   UNL A   1      38.830  29.727  26.712  1.00  0.00    -0.206 F 
ATOM     85  C   UNL A   1      36.158  29.719  29.157  1.00  0.00     0.006 A 
ENDBRANCH  57  78
BRANCH  69  86
ATOM     86  C   UNL A   1      44.733  32.720  30.510  1.00  0.00     0.057 A 
ATOM     87  C   UNL A   1      44.903  33.024  31.865  1.00  0.00     0.134 A 
ATOM     88  C   UNL A   1      44.853  33.770  29.590  1.00  0.00     0.134 A 
ATOM     89  F   UNL A   1      44.788  32.066  32.797  1.00  0.00    -0.206 F 
ATOM     90  C   UNL A   1      45.168  34.327  32.291  1.00  0.00     0.040 A 
ATOM     91  C   UNL A   1      45.144  35.071  30.000  1.00  0.00     0.040 A 
ATOM     92  F   UNL A   1      44.711  33.542  28.275  1.00  0.00    -0.206 F 
ATOM     93  C   UNL A   1      45.298  35.353  31.356  1.00  0.00     0.006 A 
ENDBRANCH  69  86
ENDBRANCH  43  44
ENDBRANCH  36  38
ENDBRANCH  35  36
ENDBRANCH  34  35
ENDBRANCH  33  34
ENDBRANCH  32  33
ENDBRANCH   1  32
TORSDOF 21
ENDMDL
MODEL 3
REMARK VINA RESULT:     -11.5      4.128      9.838
REMARK SMILES NC(=O)CC[C@H](C(=O)OCCOCCOC(=O)c1ccc(-c2c3nc(c(-c4c(F)cccc4F)c4ccc([nH]4)c(-c4c(F)cccc4F)c4nc(c(-c5c(F)cccc5F)c5ccc2[nH]5)C=C4)C=C3)cc1)N1C(=O)/C(=C/c2ccc(O)c(O)c2)SC1=S
REMARK SMILES IDX 11 1 10 2 9 3 7 4 8 5 6 6 5 7 4 8 2 9 1 10 3 13 72 14 73 15
REMARK SMILES IDX 86 16 74 17 75 18 85 19 87 20 76 21 77 22 78 23 84 24 79 25
REMARK SMILES IDX 82 26 80 27 83 28 81 30 12 32 13 33 14 34 15 35 16 36 17 37
REMARK SMILES IDX 18 38 19 39 71 40 20 41 70 42 21 43 22 44 23 45 64 46 24 47
REMARK SMILES IDX 69 48 63 49 65 50 25 51 68 52 62 53 61 54 26 56 52 57 35 58
REMARK SMILES IDX 51 59 36 60 39 61 50 62 66 63 37 64 38 65 49 67 67 68 40 69
REMARK SMILES IDX 27 70 28 71 33 72 29 73 30 74 32 75 34 76 31 77 53 78 54 79
REMARK SMILES IDX 59 80 55 81 56 82 58 83 60 84 57 85 41 86 42 87 47 88 43 89
REMARK SMILES IDX 44 90 46 91 48 92 45 93
REMARK H PARENT 1 11 1 12 83 29 81 31 65 55 39 66
REMARK Flexibility Score: inf
ROOT
ATOM      1  C   UNL A   1      31.870  29.293  26.421  1.00  0.00     0.202 C 
ENDROOT
BRANCH   1   2
ATOM      2  C   UNL A   1      33.268  28.824  26.026  1.00  0.00     0.261 C 
BRANCH   2   3
ATOM      3  O   UNL A   1      33.212  27.450  25.611  1.00  0.00    -0.462 OA
BRANCH   3   4
ATOM      4  C   UNL A   1      33.037  27.230  24.286  1.00  0.00     0.329 C 
ATOM      5  O   UNL A   1      33.744  27.684  23.394  1.00  0.00    -0.250 OA
BRANCH   4   6
ATOM      6  C   UNL A   1      31.782  26.397  24.001  1.00  0.00     0.202 C 
BRANCH   6   7
ATOM      7  C   UNL A   1      30.574  26.982  23.233  1.00  0.00     0.047 C 
BRANCH   7   8
ATOM      8  C   UNL A   1      30.118  28.426  23.405  1.00  0.00     0.102 C 
BRANCH   8   9
ATOM      9  C   UNL A   1      30.339  29.288  22.192  1.00  0.00     0.217 C 
ATOM     10  N   UNL A   1      31.631  29.613  21.942  1.00  0.00    -0.370 N 
ATOM     11  H   UNL A   1      31.856  30.175  21.164  1.00  0.00     0.159 HD
ATOM     12  H   UNL A   1      32.345  29.289  22.537  1.00  0.00     0.159 HD
ATOM     13  O   UNL A   1      29.431  29.669  21.463  1.00  0.00    -0.275 OA
ENDBRANCH   8   9
ENDBRANCH   7   8
ENDBRANCH   6   7
BRANCH   6  14
ATOM     14  N   UNL A   1      32.183  25.029  23.640  1.00  0.00    -0.278 N 
ATOM     15  C   UNL A   1      32.155  24.041  24.609  1.00  0.00     0.266 C 
ATOM     16  C   UNL A   1      32.562  24.630  22.373  1.00  0.00     0.149 C 
ATOM     17  O   UNL A   1      31.863  24.189  25.789  1.00  0.00    -0.268 OA
ATOM     18  C   UNL A   1      32.493  22.729  24.021  1.00  0.00     0.081 C 
ATOM     19  S   UNL A   1      32.920  22.908  22.372  1.00  0.00    -0.054 SA
ATOM     20  S   UNL A   1      32.697  25.557  20.991  1.00  0.00    -0.052 S 
ATOM     21  C   UNL A   1      32.416  21.616  24.759  1.00  0.00     0.029 C 
BRANCH  21  22
ATOM     22  C   UNL A   1      32.796  20.273  24.328  1.00  0.00    -0.020 A 
ATOM     23  C   UNL A   1      33.939  19.663  24.864  1.00  0.00     0.012 A 
ATOM     24  C   UNL A   1      32.062  19.630  23.322  1.00  0.00     0.058 A 
ATOM     25  C   UNL A   1      34.343  18.408  24.405  1.00  0.00     0.051 A 
ATOM     26  C   UNL A   1      32.471  18.383  22.874  1.00  0.00     0.157 A 
ATOM     27  C   UNL A   1      33.605  17.782  23.411  1.00  0.00     0.157 A 
BRANCH  26  28
ATOM     28  O   UNL A   1      31.790  17.715  21.895  1.00  0.00    -0.504 OA
ATOM     29  H   UNL A   1      30.923  17.980  21.663  1.00  0.00     0.293 HD
ENDBRANCH  26  28
BRANCH  27  30
ATOM     30  O   UNL A   1      34.005  16.561  22.950  1.00  0.00    -0.504 OA
ATOM     31  H   UNL A   1      34.241  16.454  22.050  1.00  0.00     0.293 HD
ENDBRANCH  27  30
ENDBRANCH  21  22
ENDBRANCH   6  14
ENDBRANCH   4   6
ENDBRANCH   3   4
ENDBRANCH   2   3
ENDBRANCH   1   2
BRANCH   1  32
ATOM     32  O   UNL A   1      31.672  30.704  26.344  1.00  0.00    -0.374 OA
BRANCH  32  33
ATOM     33  C   UNL A   1      32.536  31.531  27.123  1.00  0.00     0.202 C 
BRANCH  33  34
ATOM     34  C   UNL A   1      32.352  33.037  26.931  1.00  0.00     0.261 C 
BRANCH  34  35
ATOM     35  O   UNL A   1      32.244  33.707  28.202  1.00  0.00    -0.460 OA
BRANCH  35  36
ATOM     36  C   UNL A   1      33.307  34.479  28.524  1.00  0.00     0.338 C 
ATOM     37  O   UNL A   1      33.318  35.692  28.682  1.00  0.00    -0.246 OA
BRANCH  36  38
ATOM     38  C   UNL A   1      34.471  33.632  28.841  1.00  0.00     0.060 A 
ATOM     39  C   UNL A   1      34.280  32.590  29.759  1.00  0.00     0.016 A 
ATOM     40  C   UNL A   1      35.740  33.899  28.323  1.00  0.00     0.016 A 
ATOM     41  C   UNL A   1      35.371  31.859  30.223  1.00  0.00     0.010 A 
ATOM     42  C   UNL A   1      36.835  33.170  28.794  1.00  0.00     0.010 A 
ATOM     43  C   UNL A   1      36.659  32.182  29.781  1.00  0.00    -0.014 A 
BRANCH  43  44
ATOM     44  C   UNL A   1      37.837  31.630  30.489  1.00  0.00     0.031 A 
ATOM     45  C   UNL A   1      38.672  30.592  29.788  1.00  0.00     0.074 A 
ATOM     46  C   UNL A   1      38.165  32.048  31.722  1.00  0.00     0.049 A 
ATOM     47  N   UNL A   1      39.686  29.900  30.237  1.00  0.00    -0.248 NA
ATOM     48  C   UNL A   1      38.309  30.291  28.392  1.00  0.00     0.031 C 
ATOM     49  C   UNL A   1      37.466  33.084  32.480  1.00  0.00     0.029 A 
ATOM     50  N   UNL A   1      39.169  31.635  32.562  1.00  0.00    -0.354 N 
ATOM     51  C   UNL A   1      40.066  29.067  29.191  1.00  0.00     0.074 A 
ATOM     52  C   UNL A   1      39.169  29.330  28.089  1.00  0.00     0.031 C 
ATOM     53  C   UNL A   1      38.053  33.215  33.683  1.00  0.00     0.029 A 
ATOM     54  C   UNL A   1      39.142  32.246  33.791  1.00  0.00     0.049 A 
ATOM     55  H   UNL A   1      39.844  30.966  32.306  1.00  0.00     0.167 HD
ATOM     56  C   UNL A   1      41.074  28.166  29.156  1.00  0.00     0.037 A 
ATOM     57  C   UNL A   1      39.894  32.021  34.886  1.00  0.00     0.037 A 
ATOM     58  C   UNL A   1      41.978  27.924  30.248  1.00  0.00     0.049 A 
ATOM     59  C   UNL A   1      40.965  30.961  34.841  1.00  0.00     0.074 A 
ATOM     60  C   UNL A   1      43.059  27.061  30.295  1.00  0.00     0.029 A 
ATOM     61  N   UNL A   1      41.905  28.547  31.483  1.00  0.00    -0.354 N 
ATOM     62  N   UNL A   1      41.335  30.200  33.841  1.00  0.00    -0.248 NA
ATOM     63  C   UNL A   1      41.719  30.728  36.082  1.00  0.00     0.031 C 
ATOM     64  C   UNL A   1      43.610  27.125  31.579  1.00  0.00     0.029 A 
ATOM     65  C   UNL A   1      42.903  28.064  32.312  1.00  0.00     0.049 A 
ATOM     66  H   UNL A   1      41.241  29.230  31.734  1.00  0.00     0.167 HD
ATOM     67  C   UNL A   1      42.387  29.427  34.318  1.00  0.00     0.074 A 
ATOM     68  C   UNL A   1      42.599  29.814  35.697  1.00  0.00     0.031 C 
ATOM     69  C   UNL A   1      43.115  28.483  33.673  1.00  0.00     0.037 A 
BRANCH  56  70
ATOM     70  C   UNL A   1      41.238  27.348  27.911  1.00  0.00     0.057 A 
ATOM     71  C   UNL A   1      42.075  27.751  26.862  1.00  0.00     0.134 A 
ATOM     72  C   UNL A   1      40.593  26.111  27.786  1.00  0.00     0.134 A 
ATOM     73  F   UNL A   1      42.709  28.931  26.914  1.00  0.00    -0.206 F 
ATOM     74  C   UNL A   1      42.255  26.955  25.729  1.00  0.00     0.040 A 
ATOM     75  C   UNL A   1      40.782  25.297  26.668  1.00  0.00     0.040 A 
ATOM     76  F   UNL A   1      39.779  25.667  28.756  1.00  0.00    -0.206 F 
ATOM     77  C   UNL A   1      41.615  25.720  25.634  1.00  0.00     0.006 A 
ENDBRANCH  56  70
BRANCH  57  78
ATOM     78  C   UNL A   1      39.652  32.789  36.134  1.00  0.00     0.057 A 
ATOM     79  C   UNL A   1      38.689  32.378  37.063  1.00  0.00     0.134 A 
ATOM     80  C   UNL A   1      40.342  33.977  36.404  1.00  0.00     0.134 A 
ATOM     81  F   UNL A   1      37.979  31.261  36.848  1.00  0.00    -0.206 F 
ATOM     82  C   UNL A   1      38.404  33.131  38.203  1.00  0.00     0.040 A 
ATOM     83  C   UNL A   1      40.085  34.727  37.553  1.00  0.00     0.040 A 
ATOM     84  F   UNL A   1      41.276  34.427  35.553  1.00  0.00    -0.206 F 
ATOM     85  C   UNL A   1      39.106  34.309  38.451  1.00  0.00     0.006 A 
ENDBRANCH  57  78
BRANCH  69  86
ATOM     86  C   UNL A   1      44.245  27.845  34.426  1.00  0.00     0.057 A 
ATOM     87  C   UNL A   1      45.522  28.413  34.468  1.00  0.00     0.134 A 
ATOM     88  C   UNL A   1      44.029  26.675  35.166  1.00  0.00     0.134 A 
ATOM     89  F   UNL A   1      45.795  29.526  33.771  1.00  0.00    -0.206 F 
ATOM     90  C   UNL A   1      46.553  27.831  35.208  1.00  0.00     0.040 A 
ATOM     91  C   UNL A   1      45.044  26.098  35.931  1.00  0.00     0.040 A 
ATOM     92  F   UNL A   1      42.823  26.087  35.176  1.00  0.00    -0.206 F 
ATOM     93  C   UNL A   1      46.313  26.675  35.949  1.00  0.00     0.006 A 
ENDBRANCH  69  86
ENDBRANCH  43  44
ENDBRANCH  36  38
ENDBRANCH  35  36
ENDBRANCH  34  35
ENDBRANCH  33  34
ENDBRANCH  32  33
ENDBRANCH   1  32
TORSDOF 21
ENDMDL
