MODEL 1
REMARK VINA RESULT:     -10.4      0.000      0.000
REMARK SMILES O=C(OCCOCCOC(=O)c1cc(SCC(=O)N2CCOCC2)ccn1)c1ccc(-c2c3nc(c(-c4c(F)cccc4F)c4ccc([nH]4)c(-c4c(F)cccc4F)c4nc(c(-c5c(F)cccc5F)c5ccc2[nH]5)C=C4)C=C3)cc1
REMARK SMILES IDX 7 1 6 2 5 3 4 4 3 5 2 6 1 7 28 8 29 9 81 10 30 11 80 12
REMARK SMILES IDX 31 13 32 14 33 15 74 16 34 17 79 18 73 19 75 20 35 21 78 22
REMARK SMILES IDX 72 23 71 24 36 26 62 27 45 28 61 29 46 30 49 31 60 32 76 33
REMARK SMILES IDX 47 34 48 35 59 37 77 38 50 39 37 40 38 41 43 42 39 43 40 44
REMARK SMILES IDX 42 45 44 46 41 47 63 48 64 49 69 50 65 51 66 52 68 53 70 54
REMARK SMILES IDX 67 55 51 56 52 57 57 58 53 59 54 60 56 61 58 62 55 63 8 64
REMARK SMILES IDX 9 65 10 66 11 67 12 68 13 69 27 70 14 71 26 72 25 73 15 74
REMARK SMILES IDX 16 75 17 76 18 77 19 78 20 79 24 80 21 81 23 82 22 83
REMARK H PARENT 75 25 49 36
REMARK Flexibility Score: inf
ROOT
ATOM      1  C   UNL A   1      33.269  35.287  29.693  1.00  0.00     0.202 C 
ENDROOT
BRANCH   1   2
ATOM      2  O   UNL A   1      33.590  34.302  30.679  1.00  0.00    -0.374 OA
BRANCH   2   3
ATOM      3  C   UNL A   1      34.771  34.549  31.442  1.00  0.00     0.202 C 
BRANCH   3   4
ATOM      4  C   UNL A   1      34.727  33.923  32.839  1.00  0.00     0.261 C 
BRANCH   4   5
ATOM      5  O   UNL A   1      35.232  32.577  32.809  1.00  0.00    -0.460 OA
BRANCH   5   6
ATOM      6  C   UNL A   1      36.435  32.111  33.218  1.00  0.00     0.338 C 
ATOM      7  O   UNL A   1      36.653  32.068  34.429  1.00  0.00    -0.246 OA
BRANCH   6   8
ATOM      8  C   UNL A   1      37.526  31.638  32.303  1.00  0.00     0.060 A 
ATOM      9  C   UNL A   1      37.566  31.827  30.923  1.00  0.00     0.016 A 
ATOM     10  C   UNL A   1      38.643  31.026  32.907  1.00  0.00     0.016 A 
ATOM     11  C   UNL A   1      38.644  31.398  30.159  1.00  0.00     0.010 A 
ATOM     12  C   UNL A   1      39.752  30.623  32.151  1.00  0.00     0.010 A 
ATOM     13  C   UNL A   1      39.746  30.804  30.767  1.00  0.00    -0.014 A 
BRANCH  13  14
ATOM     14  C   UNL A   1      40.832  30.340  29.885  1.00  0.00     0.031 A 
ATOM     15  C   UNL A   1      42.022  31.224  29.678  1.00  0.00     0.074 A 
ATOM     16  C   UNL A   1      40.818  29.066  29.449  1.00  0.00     0.049 A 
ATOM     17  N   UNL A   1      43.135  30.975  29.042  1.00  0.00    -0.248 NA
ATOM     18  C   UNL A   1      41.962  32.560  30.295  1.00  0.00     0.031 C 
ATOM     19  C   UNL A   1      39.739  28.106  29.697  1.00  0.00     0.029 A 
ATOM     20  N   UNL A   1      41.755  28.345  28.758  1.00  0.00    -0.354 N 
ATOM     21  C   UNL A   1      43.910  32.117  29.185  1.00  0.00     0.074 A 
ATOM     22  C   UNL A   1      43.134  33.069  29.950  1.00  0.00     0.031 C 
ATOM     23  C   UNL A   1      40.095  26.910  29.202  1.00  0.00     0.029 A 
ATOM     24  C   UNL A   1      41.399  27.033  28.562  1.00  0.00     0.049 A 
ATOM     25  H   UNL A   1      42.601  28.730  28.434  1.00  0.00     0.167 HD
ATOM     26  C   UNL A   1      45.160  32.343  28.721  1.00  0.00     0.037 A 
ATOM     27  C   UNL A   1      42.057  26.046  27.924  1.00  0.00     0.037 A 
ATOM     28  C   UNL A   1      45.904  31.390  27.942  1.00  0.00     0.049 A 
ATOM     29  C   UNL A   1      43.409  26.357  27.342  1.00  0.00     0.074 A 
ATOM     30  C   UNL A   1      47.129  31.544  27.323  1.00  0.00     0.029 A 
ATOM     31  N   UNL A   1      45.478  30.095  27.681  1.00  0.00    -0.354 N 
ATOM     32  N   UNL A   1      44.105  27.466  27.419  1.00  0.00    -0.248 NA
ATOM     33  C   UNL A   1      44.060  25.287  26.577  1.00  0.00     0.031 C 
ATOM     34  C   UNL A   1      47.433  30.347  26.662  1.00  0.00     0.029 A 
ATOM     35  C   UNL A   1      46.413  29.438  26.902  1.00  0.00     0.049 A 
ATOM     36  H   UNL A   1      44.635  29.701  28.003  1.00  0.00     0.167 HD
ATOM     37  C   UNL A   1      45.276  27.231  26.713  1.00  0.00     0.074 A 
ATOM     38  C   UNL A   1      45.210  25.859  26.247  1.00  0.00     0.031 C 
ATOM     39  C   UNL A   1      46.307  28.073  26.455  1.00  0.00     0.037 A 
BRANCH  26  40
ATOM     40  C   UNL A   1      45.754  33.688  29.007  1.00  0.00     0.057 A 
ATOM     41  C   UNL A   1      46.514  33.931  30.158  1.00  0.00     0.134 A 
ATOM     42  C   UNL A   1      45.532  34.763  28.138  1.00  0.00     0.134 A 
ATOM     43  F   UNL A   1      46.736  32.950  31.045  1.00  0.00    -0.206 F 
ATOM     44  C   UNL A   1      47.016  35.202  30.445  1.00  0.00     0.040 A 
ATOM     45  C   UNL A   1      46.043  36.035  28.405  1.00  0.00     0.040 A 
ATOM     46  F   UNL A   1      44.804  34.600  27.023  1.00  0.00    -0.206 F 
ATOM     47  C   UNL A   1      46.782  36.258  29.566  1.00  0.00     0.006 A 
ENDBRANCH  26  40
BRANCH  27  48
ATOM     48  C   UNL A   1      41.436  24.706  27.765  1.00  0.00     0.057 A 
ATOM     49  C   UNL A   1      41.860  23.602  28.514  1.00  0.00     0.134 A 
ATOM     50  C   UNL A   1      40.412  24.491  26.831  1.00  0.00     0.134 A 
ATOM     51  F   UNL A   1      42.851  23.733  29.407  1.00  0.00    -0.206 F 
ATOM     52  C   UNL A   1      41.304  22.334  28.329  1.00  0.00     0.040 A 
ATOM     53  C   UNL A   1      39.828  23.236  26.656  1.00  0.00     0.040 A 
ATOM     54  F   UNL A   1      39.959  25.503  26.078  1.00  0.00    -0.206 F 
ATOM     55  C   UNL A   1      40.280  22.150  27.400  1.00  0.00     0.006 A 
ENDBRANCH  27  48
BRANCH  39  56
ATOM     56  C   UNL A   1      47.433  27.520  25.637  1.00  0.00     0.057 A 
ATOM     57  C   UNL A   1      48.520  26.872  26.233  1.00  0.00     0.134 A 
ATOM     58  C   UNL A   1      47.415  27.614  24.240  1.00  0.00     0.134 A 
ATOM     59  F   UNL A   1      48.599  26.763  27.568  1.00  0.00    -0.206 F 
ATOM     60  C   UNL A   1      49.567  26.356  25.469  1.00  0.00     0.040 A 
ATOM     61  C   UNL A   1      48.444  27.083  23.464  1.00  0.00     0.040 A 
ATOM     62  F   UNL A   1      46.395  28.218  23.611  1.00  0.00    -0.206 F 
ATOM     63  C   UNL A   1      49.528  26.458  24.079  1.00  0.00     0.006 A 
ENDBRANCH  39  56
ENDBRANCH  13  14
ENDBRANCH   6   8
ENDBRANCH   5   6
ENDBRANCH   4   5
ENDBRANCH   3   4
ENDBRANCH   2   3
ENDBRANCH   1   2
BRANCH   1  64
ATOM     64  C   UNL A   1      34.078  35.006  28.422  1.00  0.00     0.261 C 
BRANCH  64  65
ATOM     65  O   UNL A   1      34.095  33.588  28.199  1.00  0.00    -0.459 OA
BRANCH  65  66
ATOM     66  C   UNL A   1      35.324  33.032  28.020  1.00  0.00     0.357 C 
ATOM     67  O   UNL A   1      36.406  33.528  28.285  1.00  0.00    -0.244 OA
BRANCH  66  68
ATOM     68  C   UNL A   1      35.079  31.618  27.626  1.00  0.00     0.149 A 
ATOM     69  C   UNL A   1      33.787  31.206  27.329  1.00  0.00     0.051 A 
ATOM     70  N   UNL A   1      36.135  30.770  27.743  1.00  0.00    -0.249 NA
ATOM     71  C   UNL A   1      33.541  29.846  27.225  1.00  0.00     0.012 A 
ATOM     72  C   UNL A   1      35.877  29.459  27.600  1.00  0.00     0.113 A 
ATOM     73  C   UNL A   1      34.611  28.956  27.359  1.00  0.00     0.035 A 
BRANCH  71  74
ATOM     74  S   UNL A   1      31.939  29.132  26.937  1.00  0.00    -0.116 SA
BRANCH  74  75
ATOM     75  C   UNL A   1      32.267  27.444  26.368  1.00  0.00     0.175 C 
BRANCH  75  76
ATOM     76  C   UNL A   1      31.113  26.618  25.816  1.00  0.00     0.233 C 
ATOM     77  O   UNL A   1      30.280  26.163  26.609  1.00  0.00    -0.274 OA
ATOM     78  N   UNL A   1      30.882  26.570  24.456  1.00  0.00    -0.337 N 
ATOM     79  C   UNL A   1      31.848  26.738  23.374  1.00  0.00     0.148 C 
ATOM     80  C   UNL A   1      29.498  26.599  23.973  1.00  0.00     0.148 C 
ATOM     81  C   UNL A   1      31.585  28.057  22.652  1.00  0.00     0.181 C 
ATOM     82  C   UNL A   1      29.277  27.931  23.232  1.00  0.00     0.181 C 
ATOM     83  O   UNL A   1      30.232  28.106  22.166  1.00  0.00    -0.378 OA
ENDBRANCH  75  76
ENDBRANCH  74  75
ENDBRANCH  71  74
ENDBRANCH  66  68
ENDBRANCH  65  66
ENDBRANCH  64  65
ENDBRANCH   1  64
TORSDOF 17
ENDMDL
MODEL 2
REMARK VINA RESULT:     -10.1      3.531      8.751
REMARK SMILES O=C(OCCOCCOC(=O)c1cc(SCC(=O)N2CCOCC2)ccn1)c1ccc(-c2c3nc(c(-c4c(F)cccc4F)c4ccc([nH]4)c(-c4c(F)cccc4F)c4nc(c(-c5c(F)cccc5F)c5ccc2[nH]5)C=C4)C=C3)cc1
REMARK SMILES IDX 7 1 6 2 5 3 4 4 3 5 2 6 1 7 28 8 29 9 81 10 30 11 80 12
REMARK SMILES IDX 31 13 32 14 33 15 74 16 34 17 79 18 73 19 75 20 35 21 78 22
REMARK SMILES IDX 72 23 71 24 36 26 62 27 45 28 61 29 46 30 49 31 60 32 76 33
REMARK SMILES IDX 47 34 48 35 59 37 77 38 50 39 37 40 38 41 43 42 39 43 40 44
REMARK SMILES IDX 42 45 44 46 41 47 63 48 64 49 69 50 65 51 66 52 68 53 70 54
REMARK SMILES IDX 67 55 51 56 52 57 57 58 53 59 54 60 56 61 58 62 55 63 8 64
REMARK SMILES IDX 9 65 10 66 11 67 12 68 13 69 27 70 14 71 26 72 25 73 15 74
REMARK SMILES IDX 16 75 17 76 18 77 19 78 20 79 24 80 21 81 23 82 22 83
REMARK H PARENT 75 25 49 36
REMARK Flexibility Score: inf
ROOT
ATOM      1  C   UNL A   1      36.120  21.273  25.502  1.00  0.00     0.202 C 
ENDROOT
BRANCH   1   2
ATOM      2  O   UNL A   1      36.182  20.102  24.682  1.00  0.00    -0.374 OA
BRANCH   2   3
ATOM      3  C   UNL A   1      37.376  19.328  24.794  1.00  0.00     0.202 C 
BRANCH   3   4
ATOM      4  C   UNL A   1      38.559  20.126  25.349  1.00  0.00     0.261 C 
BRANCH   4   5
ATOM      5  O   UNL A   1      39.695  19.269  25.562  1.00  0.00    -0.460 OA
BRANCH   5   6
ATOM      6  C   UNL A   1      40.931  19.592  26.009  1.00  0.00     0.338 C 
ATOM      7  O   UNL A   1      41.819  18.746  25.904  1.00  0.00    -0.246 OA
BRANCH   6   8
ATOM      8  C   UNL A   1      41.302  20.910  26.622  1.00  0.00     0.060 A 
ATOM      9  C   UNL A   1      41.329  21.191  27.987  1.00  0.00     0.016 A 
ATOM     10  C   UNL A   1      41.740  21.921  25.742  1.00  0.00     0.016 A 
ATOM     11  C   UNL A   1      41.736  22.429  28.469  1.00  0.00     0.010 A 
ATOM     12  C   UNL A   1      42.187  23.160  26.220  1.00  0.00     0.010 A 
ATOM     13  C   UNL A   1      42.175  23.417  27.592  1.00  0.00    -0.014 A 
BRANCH  13  14
ATOM     14  C   UNL A   1      42.552  24.716  28.177  1.00  0.00     0.031 A 
ATOM     15  C   UNL A   1      44.003  25.069  28.280  1.00  0.00     0.074 A 
ATOM     16  C   UNL A   1      41.588  25.624  28.421  1.00  0.00     0.049 A 
ATOM     17  N   UNL A   1      44.555  26.192  28.651  1.00  0.00    -0.248 NA
ATOM     18  C   UNL A   1      44.961  24.023  27.884  1.00  0.00     0.031 C 
ATOM     19  C   UNL A   1      40.152  25.392  28.245  1.00  0.00     0.029 A 
ATOM     20  N   UNL A   1      41.669  26.934  28.811  1.00  0.00    -0.354 N 
ATOM     21  C   UNL A   1      45.923  25.994  28.529  1.00  0.00     0.074 A 
ATOM     22  C   UNL A   1      46.120  24.636  28.070  1.00  0.00     0.031 C 
ATOM     23  C   UNL A   1      39.491  26.534  28.488  1.00  0.00     0.029 A 
ATOM     24  C   UNL A   1      40.449  27.561  28.880  1.00  0.00     0.049 A 
ATOM     25  H   UNL A   1      42.520  27.383  29.020  1.00  0.00     0.167 HD
ATOM     26  C   UNL A   1      46.921  26.873  28.776  1.00  0.00     0.037 A 
ATOM     27  C   UNL A   1      40.146  28.824  29.234  1.00  0.00     0.037 A 
ATOM     28  C   UNL A   1      46.702  28.210  29.255  1.00  0.00     0.049 A 
ATOM     29  C   UNL A   1      41.277  29.751  29.588  1.00  0.00     0.074 A 
ATOM     30  C   UNL A   1      47.632  29.155  29.647  1.00  0.00     0.029 A 
ATOM     31  N   UNL A   1      45.450  28.791  29.403  1.00  0.00    -0.354 N 
ATOM     32  N   UNL A   1      42.569  29.532  29.541  1.00  0.00    -0.248 NA
ATOM     33  C   UNL A   1      40.909  31.094  30.055  1.00  0.00     0.031 C 
ATOM     34  C   UNL A   1      46.938  30.299  30.060  1.00  0.00     0.029 A 
ATOM     35  C   UNL A   1      45.579  30.079  29.889  1.00  0.00     0.049 A 
ATOM     36  H   UNL A   1      44.594  28.350  29.194  1.00  0.00     0.167 HD
ATOM     37  C   UNL A   1      43.171  30.706  29.972  1.00  0.00     0.074 A 
ATOM     38  C   UNL A   1      42.100  31.646  30.240  1.00  0.00     0.031 C 
ATOM     39  C   UNL A   1      44.487  30.981  30.147  1.00  0.00     0.037 A 
BRANCH  26  40
ATOM     40  C   UNL A   1      48.320  26.378  28.579  1.00  0.00     0.057 A 
ATOM     41  C   UNL A   1      49.022  25.720  29.598  1.00  0.00     0.134 A 
ATOM     42  C   UNL A   1      48.988  26.594  27.367  1.00  0.00     0.134 A 
ATOM     43  F   UNL A   1      48.449  25.510  30.792  1.00  0.00    -0.206 F 
ATOM     44  C   UNL A   1      50.347  25.313  29.424  1.00  0.00     0.040 A 
ATOM     45  C   UNL A   1      50.306  26.176  27.176  1.00  0.00     0.040 A 
ATOM     46  F   UNL A   1      48.376  27.227  26.356  1.00  0.00    -0.206 F 
ATOM     47  C   UNL A   1      50.992  25.539  28.209  1.00  0.00     0.006 A 
ENDBRANCH  26  40
BRANCH  27  48
ATOM     48  C   UNL A   1      38.730  29.266  29.313  1.00  0.00     0.057 A 
ATOM     49  C   UNL A   1      37.997  29.187  30.504  1.00  0.00     0.134 A 
ATOM     50  C   UNL A   1      38.062  29.754  28.181  1.00  0.00     0.134 A 
ATOM     51  F   UNL A   1      38.568  28.707  31.617  1.00  0.00    -0.206 F 
ATOM     52  C   UNL A   1      36.653  29.561  30.562  1.00  0.00     0.040 A 
ATOM     53  C   UNL A   1      36.727  30.157  28.232  1.00  0.00     0.040 A 
ATOM     54  F   UNL A   1      38.702  29.853  27.007  1.00  0.00    -0.206 F 
ATOM     55  C   UNL A   1      36.015  30.053  29.424  1.00  0.00     0.006 A 
ENDBRANCH  27  48
BRANCH  39  56
ATOM     56  C   UNL A   1      44.821  32.352  30.650  1.00  0.00     0.057 A 
ATOM     57  C   UNL A   1      44.957  32.615  32.018  1.00  0.00     0.134 A 
ATOM     58  C   UNL A   1      45.032  33.409  29.758  1.00  0.00     0.134 A 
ATOM     59  F   UNL A   1      44.752  31.644  32.921  1.00  0.00    -0.206 F 
ATOM     60  C   UNL A   1      45.269  33.891  32.485  1.00  0.00     0.040 A 
ATOM     61  C   UNL A   1      45.367  34.684  30.211  1.00  0.00     0.040 A 
ATOM     62  F   UNL A   1      44.923  33.217  28.435  1.00  0.00    -0.206 F 
ATOM     63  C   UNL A   1      45.479  34.930  31.579  1.00  0.00     0.006 A 
ENDBRANCH  39  56
ENDBRANCH  13  14
ENDBRANCH   6   8
ENDBRANCH   5   6
ENDBRANCH   4   5
ENDBRANCH   3   4
ENDBRANCH   2   3
ENDBRANCH   1   2
BRANCH   1  64
ATOM     64  C   UNL A   1      34.655  21.579  25.828  1.00  0.00     0.261 C 
BRANCH  64  65
ATOM     65  O   UNL A   1      33.835  21.058  24.772  1.00  0.00    -0.459 OA
BRANCH  65  66
ATOM     66  C   UNL A   1      32.532  21.449  24.784  1.00  0.00     0.357 C 
ATOM     67  O   UNL A   1      31.608  20.923  25.380  1.00  0.00    -0.244 OA
BRANCH  66  68
ATOM     68  C   UNL A   1      32.493  22.765  24.090  1.00  0.00     0.149 A 
ATOM     69  C   UNL A   1      31.586  23.731  24.507  1.00  0.00     0.051 A 
ATOM     70  N   UNL A   1      33.253  22.875  22.969  1.00  0.00    -0.249 NA
ATOM     71  C   UNL A   1      31.383  24.833  23.691  1.00  0.00     0.012 A 
ATOM     72  C   UNL A   1      33.065  23.971  22.215  1.00  0.00     0.113 A 
ATOM     73  C   UNL A   1      32.143  24.956  22.524  1.00  0.00     0.035 A 
BRANCH  71  74
ATOM     74  S   UNL A   1      30.205  26.122  24.017  1.00  0.00    -0.116 SA
BRANCH  74  75
ATOM     75  C   UNL A   1      30.809  27.561  23.096  1.00  0.00     0.175 C 
BRANCH  75  76
ATOM     76  C   UNL A   1      31.029  28.870  23.842  1.00  0.00     0.233 C 
ATOM     77  O   UNL A   1      30.137  29.727  23.808  1.00  0.00    -0.274 OA
ATOM     78  N   UNL A   1      32.093  29.004  24.711  1.00  0.00    -0.337 N 
ATOM     79  C   UNL A   1      33.376  28.307  24.673  1.00  0.00     0.148 C 
ATOM     80  C   UNL A   1      31.891  29.725  25.971  1.00  0.00     0.148 C 
ATOM     81  C   UNL A   1      33.464  27.330  25.843  1.00  0.00     0.181 C 
ATOM     82  C   UNL A   1      32.009  28.713  27.126  1.00  0.00     0.181 C 
ATOM     83  O   UNL A   1      33.271  28.018  27.091  1.00  0.00    -0.378 OA
ENDBRANCH  75  76
ENDBRANCH  74  75
ENDBRANCH  71  74
ENDBRANCH  66  68
ENDBRANCH  65  66
ENDBRANCH  64  65
ENDBRANCH   1  64
TORSDOF 17
ENDMDL
MODEL 3
REMARK VINA RESULT:     -10.1      5.927     11.191
REMARK SMILES O=C(OCCOCCOC(=O)c1cc(SCC(=O)N2CCOCC2)ccn1)c1ccc(-c2c3nc(c(-c4c(F)cccc4F)c4ccc([nH]4)c(-c4c(F)cccc4F)c4nc(c(-c5c(F)cccc5F)c5ccc2[nH]5)C=C4)C=C3)cc1
REMARK SMILES IDX 7 1 6 2 5 3 4 4 3 5 2 6 1 7 28 8 29 9 81 10 30 11 80 12
REMARK SMILES IDX 31 13 32 14 33 15 74 16 34 17 79 18 73 19 75 20 35 21 78 22
REMARK SMILES IDX 72 23 71 24 36 26 62 27 45 28 61 29 46 30 49 31 60 32 76 33
REMARK SMILES IDX 47 34 48 35 59 37 77 38 50 39 37 40 38 41 43 42 39 43 40 44
REMARK SMILES IDX 42 45 44 46 41 47 63 48 64 49 69 50 65 51 66 52 68 53 70 54
REMARK SMILES IDX 67 55 51 56 52 57 57 58 53 59 54 60 56 61 58 62 55 63 8 64
REMARK SMILES IDX 9 65 10 66 11 67 12 68 13 69 27 70 14 71 26 72 25 73 15 74
REMARK SMILES IDX 16 75 17 76 18 77 19 78 20 79 24 80 21 81 23 82 22 83
REMARK H PARENT 75 25 49 36
REMARK Flexibility Score: inf
ROOT
ATOM      1  C   UNL A   1      43.780  20.194  25.352  1.00  0.00     0.202 C 
ENDROOT
BRANCH   1   2
ATOM      2  O   UNL A   1      43.610  21.582  25.047  1.00  0.00    -0.374 OA
BRANCH   2   3
ATOM      3  C   UNL A   1      44.322  22.493  25.883  1.00  0.00     0.202 C 
BRANCH   3   4
ATOM      4  C   UNL A   1      44.019  23.960  25.570  1.00  0.00     0.261 C 
BRANCH   4   5
ATOM      5  O   UNL A   1      42.798  24.375  26.207  1.00  0.00    -0.460 OA
BRANCH   5   6
ATOM      6  C   UNL A   1      42.142  25.553  26.101  1.00  0.00     0.338 C 
ATOM      7  O   UNL A   1      41.719  25.879  24.992  1.00  0.00    -0.246 OA
BRANCH   6   8
ATOM      8  C   UNL A   1      41.888  26.496  27.241  1.00  0.00     0.060 A 
ATOM      9  C   UNL A   1      41.079  26.235  28.346  1.00  0.00     0.016 A 
ATOM     10  C   UNL A   1      42.596  27.716  27.228  1.00  0.00     0.016 A 
ATOM     11  C   UNL A   1      40.942  27.150  29.382  1.00  0.00     0.010 A 
ATOM     12  C   UNL A   1      42.494  28.629  28.285  1.00  0.00     0.010 A 
ATOM     13  C   UNL A   1      41.653  28.347  29.364  1.00  0.00    -0.014 A 
BRANCH  13  14
ATOM     14  C   UNL A   1      41.423  29.282  30.479  1.00  0.00     0.031 A 
ATOM     15  C   UNL A   1      40.239  30.195  30.424  1.00  0.00     0.074 A 
ATOM     16  C   UNL A   1      42.164  29.157  31.597  1.00  0.00     0.049 A 
ATOM     17  N   UNL A   1      39.783  31.012  31.336  1.00  0.00    -0.248 NA
ATOM     18  C   UNL A   1      39.444  30.164  29.185  1.00  0.00     0.031 C 
ATOM     19  C   UNL A   1      43.273  28.215  31.768  1.00  0.00     0.029 A 
ATOM     20  N   UNL A   1      42.063  29.779  32.813  1.00  0.00    -0.354 N 
ATOM     21  C   UNL A   1      38.646  31.587  30.785  1.00  0.00     0.074 A 
ATOM     22  C   UNL A   1      38.492  31.044  29.453  1.00  0.00     0.031 C 
ATOM     23  C   UNL A   1      43.723  28.293  33.030  1.00  0.00     0.029 A 
ATOM     24  C   UNL A   1      42.968  29.321  33.738  1.00  0.00     0.049 A 
ATOM     25  H   UNL A   1      41.405  30.485  33.004  1.00  0.00     0.167 HD
ATOM     26  C   UNL A   1      37.807  32.486  31.349  1.00  0.00     0.037 A 
ATOM     27  C   UNL A   1      43.167  29.702  35.014  1.00  0.00     0.037 A 
ATOM     28  C   UNL A   1      37.993  33.029  32.667  1.00  0.00     0.049 A 
ATOM     29  C   UNL A   1      42.271  30.767  35.583  1.00  0.00     0.074 A 
ATOM     30  C   UNL A   1      37.277  34.024  33.304  1.00  0.00     0.029 A 
ATOM     31  N   UNL A   1      38.977  32.610  33.552  1.00  0.00    -0.354 N 
ATOM     32  N   UNL A   1      41.241  31.362  35.028  1.00  0.00    -0.248 NA
ATOM     33  C   UNL A   1      42.570  31.224  36.946  1.00  0.00     0.031 C 
ATOM     34  C   UNL A   1      37.847  34.228  34.567  1.00  0.00     0.029 A 
ATOM     35  C   UNL A   1      38.894  33.332  34.728  1.00  0.00     0.049 A 
ATOM     36  H   UNL A   1      39.637  31.902  33.370  1.00  0.00     0.167 HD
ATOM     37  C   UNL A   1      40.768  32.263  35.971  1.00  0.00     0.074 A 
ATOM     38  C   UNL A   1      41.602  32.109  37.147  1.00  0.00     0.031 C 
ATOM     39  C   UNL A   1      39.748  33.150  35.874  1.00  0.00     0.037 A 
BRANCH  26  40
ATOM     40  C   UNL A   1      36.660  32.958  30.510  1.00  0.00     0.057 A 
ATOM     41  C   UNL A   1      35.373  32.423  30.648  1.00  0.00     0.134 A 
ATOM     42  C   UNL A   1      36.853  33.935  29.526  1.00  0.00     0.134 A 
ATOM     43  F   UNL A   1      35.130  31.462  31.552  1.00  0.00    -0.206 F 
ATOM     44  C   UNL A   1      34.323  32.828  29.823  1.00  0.00     0.040 A 
ATOM     45  C   UNL A   1      35.807  34.361  28.706  1.00  0.00     0.040 A 
ATOM     46  F   UNL A   1      38.064  34.480  29.335  1.00  0.00    -0.206 F 
ATOM     47  C   UNL A   1      34.538  33.802  28.849  1.00  0.00     0.006 A 
ENDBRANCH  26  40
BRANCH  27  48
ATOM     48  C   UNL A   1      44.272  29.112  35.814  1.00  0.00     0.057 A 
ATOM     49  C   UNL A   1      45.575  29.623  35.762  1.00  0.00     0.134 A 
ATOM     50  C   UNL A   1      44.054  27.996  36.633  1.00  0.00     0.134 A 
ATOM     51  F   UNL A   1      45.857  30.674  34.979  1.00  0.00    -0.206 F 
ATOM     52  C   UNL A   1      46.620  29.038  36.480  1.00  0.00     0.040 A 
ATOM     53  C   UNL A   1      45.083  27.418  37.378  1.00  0.00     0.040 A 
ATOM     54  F   UNL A   1      42.832  27.453  36.727  1.00  0.00    -0.206 F 
ATOM     55  C   UNL A   1      46.374  27.934  37.296  1.00  0.00     0.006 A 
ENDBRANCH  27  48
BRANCH  39  56
ATOM     56  C   UNL A   1      39.494  34.010  37.074  1.00  0.00     0.057 A 
ATOM     57  C   UNL A   1      38.764  33.537  38.170  1.00  0.00     0.134 A 
ATOM     58  C   UNL A   1      40.005  35.312  37.143  1.00  0.00     0.134 A 
ATOM     59  F   UNL A   1      38.238  32.302  38.155  1.00  0.00    -0.206 F 
ATOM     60  C   UNL A   1      38.529  34.338  39.287  1.00  0.00     0.040 A 
ATOM     61  C   UNL A   1      39.796  36.114  38.263  1.00  0.00     0.040 A 
ATOM     62  F   UNL A   1      40.718  35.818  36.126  1.00  0.00    -0.206 F 
ATOM     63  C   UNL A   1      39.050  35.630  39.337  1.00  0.00     0.006 A 
ENDBRANCH  39  56
ENDBRANCH  13  14
ENDBRANCH   6   8
ENDBRANCH   5   6
ENDBRANCH   4   5
ENDBRANCH   3   4
ENDBRANCH   2   3
ENDBRANCH   1   2
BRANCH   1  64
ATOM     64  C   UNL A   1      42.422  19.595  25.731  1.00  0.00     0.261 C 
BRANCH  64  65
ATOM     65  O   UNL A   1      41.452  20.651  25.764  1.00  0.00    -0.459 OA
BRANCH  65  66
ATOM     66  C   UNL A   1      40.713  20.742  26.903  1.00  0.00     0.357 C 
ATOM     67  O   UNL A   1      40.983  20.280  27.998  1.00  0.00    -0.244 OA
BRANCH  66  68
ATOM     68  C   UNL A   1      39.605  21.688  26.597  1.00  0.00     0.149 A 
ATOM     69  C   UNL A   1      38.543  21.264  25.809  1.00  0.00     0.051 A 
ATOM     70  N   UNL A   1      39.793  22.976  26.985  1.00  0.00    -0.249 NA
ATOM     71  C   UNL A   1      37.668  22.223  25.321  1.00  0.00     0.012 A 
ATOM     72  C   UNL A   1      38.910  23.880  26.529  1.00  0.00     0.113 A 
ATOM     73  C   UNL A   1      37.854  23.557  25.694  1.00  0.00     0.035 A 
BRANCH  71  74
ATOM     74  S   UNL A   1      36.307  21.879  24.231  1.00  0.00    -0.116 SA
BRANCH  74  75
ATOM     75  C   UNL A   1      35.484  20.430  24.942  1.00  0.00     0.175 C 
BRANCH  75  76
ATOM     76  C   UNL A   1      33.969  20.322  24.840  1.00  0.00     0.233 C 
ATOM     77  O   UNL A   1      33.304  21.365  24.804  1.00  0.00    -0.274 OA
ATOM     78  N   UNL A   1      33.376  19.105  24.570  1.00  0.00    -0.337 N 
ATOM     79  C   UNL A   1      33.884  17.771  24.877  1.00  0.00     0.148 C 
ATOM     80  C   UNL A   1      32.226  19.066  23.661  1.00  0.00     0.148 C 
ATOM     81  C   UNL A   1      34.277  17.062  23.583  1.00  0.00     0.181 C 
ATOM     82  C   UNL A   1      32.654  18.325  22.381  1.00  0.00     0.181 C 
ATOM     83  O   UNL A   1      33.161  17.008  22.677  1.00  0.00    -0.378 OA
ENDBRANCH  75  76
ENDBRANCH  74  75
ENDBRANCH  71  74
ENDBRANCH  66  68
ENDBRANCH  65  66
ENDBRANCH  64  65
ENDBRANCH   1  64
TORSDOF 17
ENDMDL
