MODEL 1
REMARK VINA RESULT:     -11.5      0.000      0.000
REMARK SMILES CC(C)(Cn1ccc2ccc([N+](=O)[O-])cc21)C(=O)OCCOCCOC(=O)c1ccc(-c2c3nc(c(-c4c(F)cccc4F)c4ccc([nH]4)c(-c4c(F)cccc4F)c4nc(c(-c5c(F)cccc5F)c5ccc2[nH]5)C=C4)C=C3)cc1
REMARK SMILES IDX 21 1 20 2 19 3 17 4 18 5 2 6 1 7 3 8 4 9 5 10 6 11 16 12
REMARK SMILES IDX 7 13 8 14 15 15 9 16 11 17 10 18 12 19 13 20 14 21 22 22
REMARK SMILES IDX 23 23 24 24 25 25 26 26 27 27 28 28 29 29 81 30 30 31 80 32
REMARK SMILES IDX 31 33 32 34 33 35 74 36 34 37 79 38 73 39 75 40 35 41 78 42
REMARK SMILES IDX 72 43 71 44 36 46 62 47 45 48 61 49 46 50 49 51 60 52 76 53
REMARK SMILES IDX 47 54 48 55 59 57 77 58 50 59 37 60 38 61 43 62 39 63 40 64
REMARK SMILES IDX 42 65 44 66 41 67 63 68 64 69 69 70 65 71 66 72 68 73 70 74
REMARK SMILES IDX 67 75 51 76 52 77 57 78 53 79 54 80 56 81 58 82 55 83
REMARK H PARENT 75 45 49 56
REMARK Flexibility Score: inf
ROOT
ATOM      1  C   UNL A   1      41.229  21.283  26.530  1.00  0.00     0.202 C 
ENDROOT
BRANCH   1   2
ATOM      2  C   UNL A   1      39.748  21.636  26.728  1.00  0.00     0.261 C 
BRANCH   2   3
ATOM      3  O   UNL A   1      39.065  22.032  25.531  1.00  0.00    -0.463 OA
BRANCH   3   4
ATOM      4  C   UNL A   1      37.972  21.311  25.170  1.00  0.00     0.313 C 
ATOM      5  O   UNL A   1      37.966  20.096  25.035  1.00  0.00    -0.252 OA
BRANCH   4   6
ATOM      6  C   UNL A   1      36.772  22.227  24.932  1.00  0.00     0.080 C 
ATOM      7  C   UNL A   1      36.747  22.639  23.459  1.00  0.00     0.025 C 
ATOM      8  C   UNL A   1      37.026  23.506  25.786  1.00  0.00     0.025 C 
BRANCH   6   9
ATOM      9  C   UNL A   1      35.399  21.673  25.394  1.00  0.00     0.140 C 
BRANCH   9  10
ATOM     10  N   UNL A   1      34.437  20.871  24.638  1.00  0.00    -0.346 N 
ATOM     11  C   UNL A   1      33.323  21.537  24.136  1.00  0.00     0.087 A 
ATOM     12  C   UNL A   1      34.198  19.500  24.543  1.00  0.00     0.055 A 
ATOM     13  C   UNL A   1      32.387  20.631  23.726  1.00  0.00     0.028 A 
ATOM     14  C   UNL A   1      32.908  19.347  23.986  1.00  0.00     0.000 A 
ATOM     15  C   UNL A   1      34.921  18.343  24.915  1.00  0.00     0.112 A 
ATOM     16  C   UNL A   1      32.340  18.065  23.814  1.00  0.00     0.017 A 
ATOM     17  C   UNL A   1      34.299  17.078  24.783  1.00  0.00     0.271 A 
ATOM     18  C   UNL A   1      33.030  16.933  24.229  1.00  0.00     0.086 A 
BRANCH  17  19
ATOM     19  N   UNL A   1      34.980  15.873  25.280  1.00  0.00     0.062 N 
ATOM     20  O   UNL A   1      36.154  15.984  25.663  1.00  0.00    -0.258 OA
ATOM     21  O   UNL A   1      34.341  14.809  25.278  1.00  0.00    -0.258 OA
ENDBRANCH  17  19
ENDBRANCH   9  10
ENDBRANCH   6   9
ENDBRANCH   4   6
ENDBRANCH   3   4
ENDBRANCH   2   3
ENDBRANCH   1   2
BRANCH   1  22
ATOM     22  O   UNL A   1      41.642  20.291  25.579  1.00  0.00    -0.374 OA
BRANCH  22  23
ATOM     23  C   UNL A   1      42.464  19.226  26.035  1.00  0.00     0.202 C 
BRANCH  23  24
ATOM     24  C   UNL A   1      43.836  19.199  25.353  1.00  0.00     0.261 C 
BRANCH  24  25
ATOM     25  O   UNL A   1      43.934  20.246  24.383  1.00  0.00    -0.460 OA
BRANCH  25  26
ATOM     26  C   UNL A   1      45.018  21.037  24.617  1.00  0.00     0.338 C 
ATOM     27  O   UNL A   1      46.120  20.852  24.173  1.00  0.00    -0.246 OA
BRANCH  26  28
ATOM     28  C   UNL A   1      44.582  22.239  25.368  1.00  0.00     0.060 A 
ATOM     29  C   UNL A   1      43.633  23.113  24.830  1.00  0.00     0.016 A 
ATOM     30  C   UNL A   1      45.281  22.561  26.540  1.00  0.00     0.016 A 
ATOM     31  C   UNL A   1      43.452  24.346  25.425  1.00  0.00     0.010 A 
ATOM     32  C   UNL A   1      45.068  23.787  27.162  1.00  0.00     0.010 A 
ATOM     33  C   UNL A   1      44.171  24.688  26.591  1.00  0.00    -0.014 A 
BRANCH  33  34
ATOM     34  C   UNL A   1      43.723  25.901  27.276  1.00  0.00     0.031 A 
ATOM     35  C   UNL A   1      44.657  27.027  27.012  1.00  0.00     0.074 A 
ATOM     36  C   UNL A   1      42.593  26.105  27.979  1.00  0.00     0.049 A 
ATOM     37  N   UNL A   1      45.409  27.645  27.862  1.00  0.00    -0.248 NA
ATOM     38  C   UNL A   1      44.941  27.343  25.601  1.00  0.00     0.031 C 
ATOM     39  C   UNL A   1      41.434  25.229  28.132  1.00  0.00     0.029 A 
ATOM     40  N   UNL A   1      42.215  27.237  28.647  1.00  0.00    -0.354 N 
ATOM     41  C   UNL A   1      46.143  28.553  27.108  1.00  0.00     0.074 A 
ATOM     42  C   UNL A   1      45.953  28.198  25.726  1.00  0.00     0.031 C 
ATOM     43  C   UNL A   1      40.407  25.945  28.648  1.00  0.00     0.029 A 
ATOM     44  C   UNL A   1      40.863  27.293  28.958  1.00  0.00     0.049 A 
ATOM     45  H   UNL A   1      42.848  27.951  28.887  1.00  0.00     0.167 HD
ATOM     46  C   UNL A   1      46.649  29.684  27.661  1.00  0.00     0.037 A 
ATOM     47  C   UNL A   1      40.167  28.389  29.356  1.00  0.00     0.037 A 
ATOM     48  C   UNL A   1      46.779  29.567  29.090  1.00  0.00     0.049 A 
ATOM     49  C   UNL A   1      41.137  29.394  29.859  1.00  0.00     0.074 A 
ATOM     50  C   UNL A   1      47.449  28.708  29.943  1.00  0.00     0.029 A 
ATOM     51  N   UNL A   1      45.873  30.231  29.879  1.00  0.00    -0.354 N 
ATOM     52  N   UNL A   1      41.775  29.296  30.988  1.00  0.00    -0.248 NA
ATOM     53  C   UNL A   1      41.703  30.339  28.907  1.00  0.00     0.031 C 
ATOM     54  C   UNL A   1      46.593  28.559  31.075  1.00  0.00     0.029 A 
ATOM     55  C   UNL A   1      45.474  29.361  30.860  1.00  0.00     0.049 A 
ATOM     56  H   UNL A   1      45.567  31.160  29.762  1.00  0.00     0.167 HD
ATOM     57  C   UNL A   1      43.040  29.792  30.718  1.00  0.00     0.074 A 
ATOM     58  C   UNL A   1      42.901  30.525  29.464  1.00  0.00     0.031 C 
ATOM     59  C   UNL A   1      44.133  29.322  31.386  1.00  0.00     0.037 A 
BRANCH  46  60
ATOM     60  C   UNL A   1      46.604  31.012  26.947  1.00  0.00     0.057 A 
ATOM     61  C   UNL A   1      45.412  31.663  26.555  1.00  0.00     0.134 A 
ATOM     62  C   UNL A   1      47.755  31.817  26.934  1.00  0.00     0.134 A 
ATOM     63  F   UNL A   1      44.217  31.063  26.578  1.00  0.00    -0.206 F 
ATOM     64  C   UNL A   1      45.361  33.014  26.217  1.00  0.00     0.040 A 
ATOM     65  C   UNL A   1      47.704  33.186  26.650  1.00  0.00     0.040 A 
ATOM     66  F   UNL A   1      48.947  31.317  27.293  1.00  0.00    -0.206 F 
ATOM     67  C   UNL A   1      46.502  33.791  26.303  1.00  0.00     0.006 A 
ENDBRANCH  46  60
BRANCH  47  68
ATOM     68  C   UNL A   1      38.746  28.744  29.127  1.00  0.00     0.057 A 
ATOM     69  C   UNL A   1      38.319  29.337  27.927  1.00  0.00     0.134 A 
ATOM     70  C   UNL A   1      37.821  28.769  30.183  1.00  0.00     0.134 A 
ATOM     71  F   UNL A   1      39.142  29.444  26.874  1.00  0.00    -0.206 F 
ATOM     72  C   UNL A   1      37.061  29.932  27.788  1.00  0.00     0.040 A 
ATOM     73  C   UNL A   1      36.562  29.374  30.062  1.00  0.00     0.040 A 
ATOM     74  F   UNL A   1      38.142  28.267  31.385  1.00  0.00    -0.206 F 
ATOM     75  C   UNL A   1      36.183  29.968  28.864  1.00  0.00     0.006 A 
ENDBRANCH  47  68
BRANCH  59  76
ATOM     76  C   UNL A   1      43.886  28.501  32.620  1.00  0.00     0.057 A 
ATOM     77  C   UNL A   1      43.943  29.129  33.869  1.00  0.00     0.134 A 
ATOM     78  C   UNL A   1      43.666  27.115  32.615  1.00  0.00     0.134 A 
ATOM     79  F   UNL A   1      44.213  30.441  33.956  1.00  0.00    -0.206 F 
ATOM     80  C   UNL A   1      43.750  28.423  35.057  1.00  0.00     0.040 A 
ATOM     81  C   UNL A   1      43.430  26.404  33.795  1.00  0.00     0.040 A 
ATOM     82  F   UNL A   1      43.712  26.407  31.478  1.00  0.00    -0.206 F 
ATOM     83  C   UNL A   1      43.471  27.059  35.022  1.00  0.00     0.006 A 
ENDBRANCH  59  76
ENDBRANCH  33  34
ENDBRANCH  26  28
ENDBRANCH  25  26
ENDBRANCH  24  25
ENDBRANCH  23  24
ENDBRANCH  22  23
ENDBRANCH   1  22
TORSDOF 17
ENDMDL
MODEL 2
REMARK VINA RESULT:     -10.6      6.081     10.678
REMARK SMILES CC(C)(Cn1ccc2ccc([N+](=O)[O-])cc21)C(=O)OCCOCCOC(=O)c1ccc(-c2c3nc(c(-c4c(F)cccc4F)c4ccc([nH]4)c(-c4c(F)cccc4F)c4nc(c(-c5c(F)cccc5F)c5ccc2[nH]5)C=C4)C=C3)cc1
REMARK SMILES IDX 21 1 20 2 19 3 17 4 18 5 2 6 1 7 3 8 4 9 5 10 6 11 16 12
REMARK SMILES IDX 7 13 8 14 15 15 9 16 11 17 10 18 12 19 13 20 14 21 22 22
REMARK SMILES IDX 23 23 24 24 25 25 26 26 27 27 28 28 29 29 81 30 30 31 80 32
REMARK SMILES IDX 31 33 32 34 33 35 74 36 34 37 79 38 73 39 75 40 35 41 78 42
REMARK SMILES IDX 72 43 71 44 36 46 62 47 45 48 61 49 46 50 49 51 60 52 76 53
REMARK SMILES IDX 47 54 48 55 59 57 77 58 50 59 37 60 38 61 43 62 39 63 40 64
REMARK SMILES IDX 42 65 44 66 41 67 63 68 64 69 69 70 65 71 66 72 68 73 70 74
REMARK SMILES IDX 67 75 51 76 52 77 57 78 53 79 54 80 56 81 58 82 55 83
REMARK H PARENT 75 45 49 56
REMARK Flexibility Score: inf
ROOT
ATOM      1  C   UNL A   1      34.002  33.480  28.292  1.00  0.00     0.202 C 
ENDROOT
BRANCH   1   2
ATOM      2  C   UNL A   1      34.057  31.951  28.426  1.00  0.00     0.261 C 
BRANCH   2   3
ATOM      3  O   UNL A   1      33.432  31.237  27.352  1.00  0.00    -0.463 OA
BRANCH   3   4
ATOM      4  C   UNL A   1      33.967  30.037  27.008  1.00  0.00     0.313 C 
ATOM      5  O   UNL A   1      35.151  29.757  27.123  1.00  0.00    -0.252 OA
BRANCH   4   6
ATOM      6  C   UNL A   1      32.897  29.108  26.436  1.00  0.00     0.080 C 
ATOM      7  C   UNL A   1      31.799  28.911  27.482  1.00  0.00     0.025 C 
ATOM      8  C   UNL A   1      33.595  27.733  26.204  1.00  0.00     0.025 C 
BRANCH   6   9
ATOM      9  C   UNL A   1      32.310  29.523  25.062  1.00  0.00     0.140 C 
BRANCH   9  10
ATOM     10  N   UNL A   1      31.018  29.166  24.477  1.00  0.00    -0.346 N 
ATOM     11  C   UNL A   1      30.792  27.815  24.232  1.00  0.00     0.087 A 
ATOM     12  C   UNL A   1      30.036  29.895  23.805  1.00  0.00     0.055 A 
ATOM     13  C   UNL A   1      29.698  27.665  23.427  1.00  0.00     0.028 A 
ATOM     14  C   UNL A   1      29.217  28.958  23.134  1.00  0.00     0.000 A 
ATOM     15  C   UNL A   1      29.765  31.273  23.645  1.00  0.00     0.112 A 
ATOM     16  C   UNL A   1      28.155  29.384  22.306  1.00  0.00     0.017 A 
ATOM     17  C   UNL A   1      28.730  31.667  22.762  1.00  0.00     0.271 A 
ATOM     18  C   UNL A   1      27.924  30.739  22.108  1.00  0.00     0.086 A 
BRANCH  17  19
ATOM     19  N   UNL A   1      28.512  33.095  22.482  1.00  0.00     0.062 N 
ATOM     20  O   UNL A   1      29.088  33.923  23.200  1.00  0.00    -0.258 OA
ATOM     21  O   UNL A   1      27.753  33.387  21.545  1.00  0.00    -0.258 OA
ENDBRANCH  17  19
ENDBRANCH   9  10
ENDBRANCH   6   9
ENDBRANCH   4   6
ENDBRANCH   3   4
ENDBRANCH   2   3
ENDBRANCH   1   2
BRANCH   1  22
ATOM     22  O   UNL A   1      32.875  34.232  28.764  1.00  0.00    -0.374 OA
BRANCH  22  23
ATOM     23  C   UNL A   1      33.082  35.588  29.136  1.00  0.00     0.202 C 
BRANCH  23  24
ATOM     24  C   UNL A   1      32.787  35.850  30.616  1.00  0.00     0.261 C 
BRANCH  24  25
ATOM     25  O   UNL A   1      33.982  35.729  31.395  1.00  0.00    -0.460 OA
BRANCH  25  26
ATOM     26  C   UNL A   1      33.908  34.672  32.252  1.00  0.00     0.338 C 
ATOM     27  O   UNL A   1      32.952  34.390  32.923  1.00  0.00    -0.246 OA
BRANCH  26  28
ATOM     28  C   UNL A   1      35.129  33.845  32.100  1.00  0.00     0.060 A 
ATOM     29  C   UNL A   1      36.384  34.443  31.955  1.00  0.00     0.016 A 
ATOM     30  C   UNL A   1      34.960  32.464  31.925  1.00  0.00     0.016 A 
ATOM     31  C   UNL A   1      37.450  33.662  31.551  1.00  0.00     0.010 A 
ATOM     32  C   UNL A   1      36.043  31.672  31.558  1.00  0.00     0.010 A 
ATOM     33  C   UNL A   1      37.282  32.275  31.349  1.00  0.00    -0.014 A 
BRANCH  33  34
ATOM     34  C   UNL A   1      38.516  31.508  31.171  1.00  0.00     0.031 A 
ATOM     35  C   UNL A   1      39.235  31.366  32.465  1.00  0.00     0.074 A 
ATOM     36  C   UNL A   1      38.972  30.887  30.068  1.00  0.00     0.049 A 
ATOM     37  N   UNL A   1      40.389  31.851  32.784  1.00  0.00    -0.248 NA
ATOM     38  C   UNL A   1      38.473  30.807  33.595  1.00  0.00     0.031 C 
ATOM     39  C   UNL A   1      38.302  30.679  28.786  1.00  0.00     0.029 A 
ATOM     40  N   UNL A   1      40.150  30.210  29.914  1.00  0.00    -0.354 N 
ATOM     41  C   UNL A   1      40.574  31.506  34.117  1.00  0.00     0.074 A 
ATOM     42  C   UNL A   1      39.305  31.038  34.607  1.00  0.00     0.031 C 
ATOM     43  C   UNL A   1      38.984  29.745  28.081  1.00  0.00     0.029 A 
ATOM     44  C   UNL A   1      40.186  29.369  28.810  1.00  0.00     0.049 A 
ATOM     45  H   UNL A   1      40.909  30.311  30.534  1.00  0.00     0.167 HD
ATOM     46  C   UNL A   1      41.817  31.393  34.651  1.00  0.00     0.037 A 
ATOM     47  C   UNL A   1      41.093  28.386  28.569  1.00  0.00     0.037 A 
ATOM     48  C   UNL A   1      42.794  32.126  33.888  1.00  0.00     0.049 A 
ATOM     49  C   UNL A   1      42.291  28.649  29.404  1.00  0.00     0.074 A 
ATOM     50  C   UNL A   1      42.947  33.447  33.510  1.00  0.00     0.029 A 
ATOM     51  N   UNL A   1      43.659  31.416  33.092  1.00  0.00    -0.354 N 
ATOM     52  N   UNL A   1      43.150  29.599  29.176  1.00  0.00    -0.248 NA
ATOM     53  C   UNL A   1      42.331  28.087  30.747  1.00  0.00     0.031 C 
ATOM     54  C   UNL A   1      43.524  33.400  32.206  1.00  0.00     0.029 A 
ATOM     55  C   UNL A   1      43.719  32.058  31.884  1.00  0.00     0.049 A 
ATOM     56  H   UNL A   1      44.144  30.596  33.344  1.00  0.00     0.167 HD
ATOM     57  C   UNL A   1      43.498  30.063  30.434  1.00  0.00     0.074 A 
ATOM     58  C   UNL A   1      43.058  29.023  31.359  1.00  0.00     0.031 C 
ATOM     59  C   UNL A   1      43.849  31.369  30.625  1.00  0.00     0.037 A 
BRANCH  46  60
ATOM     60  C   UNL A   1      42.182  30.274  35.595  1.00  0.00     0.057 A 
ATOM     61  C   UNL A   1      42.001  28.903  35.308  1.00  0.00     0.134 A 
ATOM     62  C   UNL A   1      43.029  30.550  36.681  1.00  0.00     0.134 A 
ATOM     63  F   UNL A   1      41.284  28.468  34.265  1.00  0.00    -0.206 F 
ATOM     64  C   UNL A   1      42.642  27.888  36.016  1.00  0.00     0.040 A 
ATOM     65  C   UNL A   1      43.720  29.541  37.362  1.00  0.00     0.040 A 
ATOM     66  F   UNL A   1      43.287  31.814  37.048  1.00  0.00    -0.206 F 
ATOM     67  C   UNL A   1      43.537  28.206  37.021  1.00  0.00     0.006 A 
ENDBRANCH  46  60
BRANCH  47  68
ATOM     68  C   UNL A   1      40.927  27.100  27.850  1.00  0.00     0.057 A 
ATOM     69  C   UNL A   1      41.474  26.894  26.572  1.00  0.00     0.134 A 
ATOM     70  C   UNL A   1      39.993  26.142  28.276  1.00  0.00     0.134 A 
ATOM     71  F   UNL A   1      42.316  27.783  26.026  1.00  0.00    -0.206 F 
ATOM     72  C   UNL A   1      41.106  25.815  25.762  1.00  0.00     0.040 A 
ATOM     73  C   UNL A   1      39.606  25.063  27.469  1.00  0.00     0.040 A 
ATOM     74  F   UNL A   1      39.380  26.265  29.462  1.00  0.00    -0.206 F 
ATOM     75  C   UNL A   1      40.156  24.903  26.202  1.00  0.00     0.006 A 
ENDBRANCH  47  68
BRANCH  59  76
ATOM     76  C   UNL A   1      44.151  32.187  29.403  1.00  0.00     0.057 A 
ATOM     77  C   UNL A   1      43.144  33.000  28.871  1.00  0.00     0.134 A 
ATOM     78  C   UNL A   1      45.367  32.144  28.704  1.00  0.00     0.134 A 
ATOM     79  F   UNL A   1      41.932  33.043  29.449  1.00  0.00    -0.206 F 
ATOM     80  C   UNL A   1      43.346  33.767  27.723  1.00  0.00     0.040 A 
ATOM     81  C   UNL A   1      45.596  32.939  27.577  1.00  0.00     0.040 A 
ATOM     82  F   UNL A   1      46.349  31.308  29.067  1.00  0.00    -0.206 F 
ATOM     83  C   UNL A   1      44.582  33.755  27.084  1.00  0.00     0.006 A 
ENDBRANCH  59  76
ENDBRANCH  33  34
ENDBRANCH  26  28
ENDBRANCH  25  26
ENDBRANCH  24  25
ENDBRANCH  23  24
ENDBRANCH  22  23
ENDBRANCH   1  22
TORSDOF 17
ENDMDL
MODEL 3
REMARK VINA RESULT:     -10.4      3.572      8.096
REMARK SMILES CC(C)(Cn1ccc2ccc([N+](=O)[O-])cc21)C(=O)OCCOCCOC(=O)c1ccc(-c2c3nc(c(-c4c(F)cccc4F)c4ccc([nH]4)c(-c4c(F)cccc4F)c4nc(c(-c5c(F)cccc5F)c5ccc2[nH]5)C=C4)C=C3)cc1
REMARK SMILES IDX 21 1 20 2 19 3 17 4 18 5 2 6 1 7 3 8 4 9 5 10 6 11 16 12
REMARK SMILES IDX 7 13 8 14 15 15 9 16 11 17 10 18 12 19 13 20 14 21 22 22
REMARK SMILES IDX 23 23 24 24 25 25 26 26 27 27 28 28 29 29 81 30 30 31 80 32
REMARK SMILES IDX 31 33 32 34 33 35 74 36 34 37 79 38 73 39 75 40 35 41 78 42
REMARK SMILES IDX 72 43 71 44 36 46 62 47 45 48 61 49 46 50 49 51 60 52 76 53
REMARK SMILES IDX 47 54 48 55 59 57 77 58 50 59 37 60 38 61 43 62 39 63 40 64
REMARK SMILES IDX 42 65 44 66 41 67 63 68 64 69 69 70 65 71 66 72 68 73 70 74
REMARK SMILES IDX 67 75 51 76 52 77 57 78 53 79 54 80 56 81 58 82 55 83
REMARK H PARENT 75 45 49 56
REMARK Flexibility Score: inf
ROOT
ATOM      1  C   UNL A   1      32.247  29.571  25.722  1.00  0.00     0.202 C 
ENDROOT
BRANCH   1   2
ATOM      2  C   UNL A   1      32.664  28.094  25.695  1.00  0.00     0.261 C 
BRANCH   2   3
ATOM      3  O   UNL A   1      32.314  27.399  24.491  1.00  0.00    -0.463 OA
BRANCH   3   4
ATOM      4  C   UNL A   1      31.627  26.235  24.623  1.00  0.00     0.313 C 
ATOM      5  O   UNL A   1      31.126  25.850  25.669  1.00  0.00    -0.252 OA
BRANCH   4   6
ATOM      6  C   UNL A   1      31.596  25.469  23.300  1.00  0.00     0.080 C 
ATOM      7  C   UNL A   1      31.207  26.433  22.178  1.00  0.00     0.025 C 
ATOM      8  C   UNL A   1      30.462  24.408  23.440  1.00  0.00     0.025 C 
BRANCH   6   9
ATOM      9  C   UNL A   1      32.881  24.674  22.951  1.00  0.00     0.140 C 
BRANCH   9  10
ATOM     10  N   UNL A   1      33.725  23.871  23.836  1.00  0.00    -0.346 N 
ATOM     11  C   UNL A   1      34.926  24.442  24.245  1.00  0.00     0.087 A 
ATOM     12  C   UNL A   1      33.767  22.511  24.145  1.00  0.00     0.055 A 
ATOM     13  C   UNL A   1      35.728  23.487  24.804  1.00  0.00     0.028 A 
ATOM     14  C   UNL A   1      35.027  22.265  24.737  1.00  0.00     0.000 A 
ATOM     15  C   UNL A   1      32.884  21.425  23.947  1.00  0.00     0.112 A 
ATOM     16  C   UNL A   1      35.409  20.958  25.114  1.00  0.00     0.017 A 
ATOM     17  C   UNL A   1      33.321  20.120  24.282  1.00  0.00     0.271 A 
ATOM     18  C   UNL A   1      34.562  19.885  24.870  1.00  0.00     0.086 A 
BRANCH  17  19
ATOM     19  N   UNL A   1      32.472  18.961  23.967  1.00  0.00     0.062 N 
ATOM     20  O   UNL A   1      31.992  18.318  24.912  1.00  0.00    -0.258 OA
ATOM     21  O   UNL A   1      32.293  18.688  22.770  1.00  0.00    -0.258 OA
ENDBRANCH  17  19
ENDBRANCH   9  10
ENDBRANCH   6   9
ENDBRANCH   4   6
ENDBRANCH   3   4
ENDBRANCH   2   3
ENDBRANCH   1   2
BRANCH   1  22
ATOM     22  O   UNL A   1      32.754  30.474  26.715  1.00  0.00    -0.374 OA
BRANCH  22  23
ATOM     23  C   UNL A   1      34.049  30.231  27.245  1.00  0.00     0.202 C 
BRANCH  23  24
ATOM     24  C   UNL A   1      34.660  31.468  27.913  1.00  0.00     0.261 C 
BRANCH  24  25
ATOM     25  O   UNL A   1      35.565  31.082  28.953  1.00  0.00    -0.460 OA
BRANCH  25  26
ATOM     26  C   UNL A   1      36.782  31.670  28.792  1.00  0.00     0.338 C 
ATOM     27  O   UNL A   1      36.976  32.854  28.720  1.00  0.00    -0.246 OA
BRANCH  26  28
ATOM     28  C   UNL A   1      37.835  30.629  28.882  1.00  0.00     0.060 A 
ATOM     29  C   UNL A   1      39.159  30.975  29.166  1.00  0.00     0.016 A 
ATOM     30  C   UNL A   1      37.492  29.325  28.498  1.00  0.00     0.016 A 
ATOM     31  C   UNL A   1      40.148  30.028  28.979  1.00  0.00     0.010 A 
ATOM     32  C   UNL A   1      38.485  28.361  28.350  1.00  0.00     0.010 A 
ATOM     33  C   UNL A   1      39.814  28.720  28.568  1.00  0.00    -0.014 A 
BRANCH  33  34
ATOM     34  C   UNL A   1      40.896  27.738  28.646  1.00  0.00     0.031 A 
ATOM     35  C   UNL A   1      41.622  27.858  29.938  1.00  0.00     0.074 A 
ATOM     36  C   UNL A   1      41.208  26.755  27.780  1.00  0.00     0.049 A 
ATOM     37  N   UNL A   1      42.850  28.213  30.124  1.00  0.00    -0.248 NA
ATOM     38  C   UNL A   1      40.812  27.788  31.168  1.00  0.00     0.031 C 
ATOM     39  C   UNL A   1      40.473  26.300  26.603  1.00  0.00     0.029 A 
ATOM     40  N   UNL A   1      42.251  25.874  27.853  1.00  0.00    -0.354 N 
ATOM     41  C   UNL A   1      43.017  28.244  31.503  1.00  0.00     0.074 A 
ATOM     42  C   UNL A   1      41.703  28.160  32.084  1.00  0.00     0.031 C 
ATOM     43  C   UNL A   1      40.967  25.100  26.213  1.00  0.00     0.029 A 
ATOM     44  C   UNL A   1      42.112  24.755  27.044  1.00  0.00     0.049 A 
ATOM     45  H   UNL A   1      43.035  26.021  28.431  1.00  0.00     0.167 HD
ATOM     46  C   UNL A   1      44.239  28.083  32.070  1.00  0.00     0.037 A 
ATOM     47  C   UNL A   1      42.834  23.606  27.116  1.00  0.00     0.037 A 
ATOM     48  C   UNL A   1      45.301  28.387  31.146  1.00  0.00     0.049 A 
ATOM     49  C   UNL A   1      44.085  23.894  27.861  1.00  0.00     0.074 A 
ATOM     50  C   UNL A   1      45.660  29.496  30.402  1.00  0.00     0.029 A 
ATOM     51  N   UNL A   1      46.009  27.341  30.608  1.00  0.00    -0.354 N 
ATOM     52  N   UNL A   1      45.082  24.578  27.383  1.00  0.00    -0.248 NA
ATOM     53  C   UNL A   1      44.072  23.749  29.310  1.00  0.00     0.031 C 
ATOM     54  C   UNL A   1      46.180  28.975  29.179  1.00  0.00     0.029 A 
ATOM     55  C   UNL A   1      46.138  27.585  29.267  1.00  0.00     0.049 A 
ATOM     56  H   UNL A   1      46.359  26.560  31.097  1.00  0.00     0.167 HD
ATOM     57  C   UNL A   1      45.542  25.322  28.457  1.00  0.00     0.074 A 
ATOM     58  C   UNL A   1      44.964  24.685  29.636  1.00  0.00     0.031 C 
ATOM     59  C   UNL A   1      46.112  26.548  28.266  1.00  0.00     0.037 A 
BRANCH  46  60
ATOM     60  C   UNL A   1      44.441  27.242  33.306  1.00  0.00     0.057 A 
ATOM     61  C   UNL A   1      44.347  25.833  33.331  1.00  0.00     0.134 A 
ATOM     62  C   UNL A   1      45.060  27.818  34.427  1.00  0.00     0.134 A 
ATOM     63  F   UNL A   1      43.851  25.120  32.313  1.00  0.00    -0.206 F 
ATOM     64  C   UNL A   1      44.863  25.056  34.367  1.00  0.00     0.040 A 
ATOM     65  C   UNL A   1      45.630  27.045  35.445  1.00  0.00     0.040 A 
ATOM     66  F   UNL A   1      45.217  29.148  34.519  1.00  0.00    -0.206 F 
ATOM     67  C   UNL A   1      45.544  25.658  35.409  1.00  0.00     0.006 A 
ENDBRANCH  46  60
BRANCH  47  68
ATOM     68  C   UNL A   1      42.434  22.214  26.800  1.00  0.00     0.057 A 
ATOM     69  C   UNL A   1      41.457  21.540  27.551  1.00  0.00     0.134 A 
ATOM     70  C   UNL A   1      43.197  21.416  25.933  1.00  0.00     0.134 A 
ATOM     71  F   UNL A   1      40.720  22.182  28.469  1.00  0.00    -0.206 F 
ATOM     72  C   UNL A   1      41.260  20.158  27.461  1.00  0.00     0.040 A 
ATOM     73  C   UNL A   1      43.019  20.028  25.842  1.00  0.00     0.040 A 
ATOM     74  F   UNL A   1      44.184  21.952  25.200  1.00  0.00    -0.206 F 
ATOM     75  C   UNL A   1      42.054  19.393  26.616  1.00  0.00     0.006 A 
ENDBRANCH  47  68
BRANCH  59  76
ATOM     76  C   UNL A   1      46.508  26.913  26.864  1.00  0.00     0.057 A 
ATOM     77  C   UNL A   1      47.844  26.759  26.480  1.00  0.00     0.134 A 
ATOM     78  C   UNL A   1      45.635  27.471  25.917  1.00  0.00     0.134 A 
ATOM     79  F   UNL A   1      48.751  26.291  27.353  1.00  0.00    -0.206 F 
ATOM     80  C   UNL A   1      48.287  27.103  25.202  1.00  0.00     0.040 A 
ATOM     81  C   UNL A   1      46.057  27.780  24.621  1.00  0.00     0.040 A 
ATOM     82  F   UNL A   1      44.365  27.766  26.230  1.00  0.00    -0.206 F 
ATOM     83  C   UNL A   1      47.388  27.596  24.260  1.00  0.00     0.006 A 
ENDBRANCH  59  76
ENDBRANCH  33  34
ENDBRANCH  26  28
ENDBRANCH  25  26
ENDBRANCH  24  25
ENDBRANCH  23  24
ENDBRANCH  22  23
ENDBRANCH   1  22
TORSDOF 17
ENDMDL
