MODEL 1
REMARK VINA RESULT:     -11.4      0.000      0.000
REMARK SMILES Cc1cc(C)cc(N(C)S(=O)(=O)c2ccc(F)c(C(=O)OCCOCCOC(=O)c3ccc(-c4c5nc(c(-c6c(F)cccc6F)c6ccc([nH]6)c(-c6c(F)cccc6F)c6nc(c(-c7c(F)cccc7F)c7ccc4[nH]7)C=C6)C=C5)cc3)c2)c1
REMARK SMILES IDX 23 1 22 2 21 3 19 4 20 5 18 6 13 7 14 8 84 9 15 10 16 11
REMARK SMILES IDX 17 12 10 13 11 14 12 15 8 16 9 17 7 18 1 19 2 20 3 21 85 22
REMARK SMILES IDX 4 23 5 24 6 25 24 26 25 27 26 28 27 29 28 30 29 31 30 32
REMARK SMILES IDX 31 33 83 34 32 35 82 36 33 37 34 38 35 39 76 40 36 41 81 42
REMARK SMILES IDX 75 43 77 44 37 45 80 46 74 47 73 48 38 50 64 51 47 52 63 53
REMARK SMILES IDX 48 54 51 55 62 56 78 57 49 58 50 59 61 61 79 62 52 63 39 64
REMARK SMILES IDX 40 65 45 66 41 67 42 68 44 69 46 70 43 71 65 72 66 73 71 74
REMARK SMILES IDX 67 75 68 76 70 77 72 78 69 79 53 80 54 81 59 82 55 83 56 84
REMARK SMILES IDX 58 85 60 86 57 87
REMARK H PARENT 77 49 51 60
REMARK Flexibility Score: inf
ROOT
ATOM      1  C   UNL A   1      43.747  19.719  25.478  1.00  0.00     0.202 C 
ENDROOT
BRANCH   1   2
ATOM      2  C   UNL A   1      42.324  19.229  25.764  1.00  0.00     0.261 C 
BRANCH   2   3
ATOM      3  O   UNL A   1      41.388  20.316  25.711  1.00  0.00    -0.460 OA
BRANCH   3   4
ATOM      4  C   UNL A   1      40.720  20.577  26.858  1.00  0.00     0.341 C 
ATOM      5  O   UNL A   1      40.877  20.035  27.943  1.00  0.00    -0.246 OA
BRANCH   4   6
ATOM      6  C   UNL A   1      39.923  21.805  26.698  1.00  0.00     0.097 A 
ATOM      7  C   UNL A   1      37.935  22.838  25.806  1.00  0.00     0.089 A 
ATOM      8  C   UNL A   1      38.224  24.005  26.534  1.00  0.00     0.025 A 
ATOM      9  C   UNL A   1      38.802  21.749  25.850  1.00  0.00     0.041 A 
ATOM     10  C   UNL A   1      39.368  24.073  27.328  1.00  0.00     0.041 A 
ATOM     11  C   UNL A   1      40.206  22.966  27.421  1.00  0.00     0.137 A 
ATOM     12  F   UNL A   1      41.281  23.045  28.217  1.00  0.00    -0.206 F 
BRANCH   7  13
ATOM     13  S   UNL A   1      36.399  22.822  24.899  1.00  0.00     0.264 S 
ATOM     14  O   UNL A   1      36.694  22.084  23.688  1.00  0.00    -0.201 OA
ATOM     15  O   UNL A   1      35.974  24.208  24.846  1.00  0.00    -0.201 OA
BRANCH  13  16
ATOM     16  N   UNL A   1      35.205  21.970  25.805  1.00  0.00    -0.269 N 
ATOM     17  C   UNL A   1      34.518  22.763  26.865  1.00  0.00     0.164 C 
BRANCH  16  18
ATOM     18  C   UNL A   1      34.291  21.106  25.020  1.00  0.00     0.052 A 
ATOM     19  C   UNL A   1      33.147  17.462  24.722  1.00  0.00     0.044 C 
ATOM     20  C   UNL A   1      33.277  18.935  24.465  1.00  0.00    -0.049 A 
ATOM     21  C   UNL A   1      32.506  19.539  23.473  1.00  0.00     0.007 A 
ATOM     22  C   UNL A   1      34.161  19.722  25.223  1.00  0.00     0.030 A 
ATOM     23  C   UNL A   1      32.591  20.916  23.253  1.00  0.00    -0.049 A 
ATOM     24  C   UNL A   1      31.750  21.542  22.179  1.00  0.00     0.044 C 
ATOM     25  C   UNL A   1      33.453  21.690  24.052  1.00  0.00     0.030 A 
ENDBRANCH  16  18
ENDBRANCH  13  16
ENDBRANCH   7  13
ENDBRANCH   4   6
ENDBRANCH   3   4
ENDBRANCH   2   3
ENDBRANCH   1   2
BRANCH   1  26
ATOM     26  O   UNL A   1      43.898  21.132  25.336  1.00  0.00    -0.374 OA
BRANCH  26  27
ATOM     27  C   UNL A   1      44.658  21.593  24.216  1.00  0.00     0.202 C 
BRANCH  27  28
ATOM     28  C   UNL A   1      45.288  22.986  24.347  1.00  0.00     0.261 C 
BRANCH  28  29
ATOM     29  O   UNL A   1      44.411  23.908  25.021  1.00  0.00    -0.460 OA
BRANCH  29  30
ATOM     30  C   UNL A   1      44.922  25.146  25.218  1.00  0.00     0.338 C 
ATOM     31  O   UNL A   1      45.841  25.674  24.610  1.00  0.00    -0.246 OA
BRANCH  30  32
ATOM     32  C   UNL A   1      44.084  25.885  26.178  1.00  0.00     0.060 A 
ATOM     33  C   UNL A   1      44.281  27.269  26.279  1.00  0.00     0.016 A 
ATOM     34  C   UNL A   1      43.169  25.237  27.011  1.00  0.00     0.016 A 
ATOM     35  C   UNL A   1      43.591  28.004  27.240  1.00  0.00     0.010 A 
ATOM     36  C   UNL A   1      42.485  25.976  27.982  1.00  0.00     0.010 A 
ATOM     37  C   UNL A   1      42.714  27.357  28.120  1.00  0.00    -0.014 A 
BRANCH  37  38
ATOM     38  C   UNL A   1      42.133  28.107  29.259  1.00  0.00     0.031 A 
ATOM     39  C   UNL A   1      42.836  28.087  30.587  1.00  0.00     0.074 A 
ATOM     40  C   UNL A   1      41.009  28.829  29.102  1.00  0.00     0.049 A 
ATOM     41  N   UNL A   1      42.491  28.653  31.715  1.00  0.00    -0.248 NA
ATOM     42  C   UNL A   1      44.097  27.331  30.652  1.00  0.00     0.031 C 
ATOM     43  C   UNL A   1      40.262  28.963  27.853  1.00  0.00     0.029 A 
ATOM     44  N   UNL A   1      40.302  29.584  30.003  1.00  0.00    -0.354 N 
ATOM     45  C   UNL A   1      43.490  28.323  32.623  1.00  0.00     0.074 A 
ATOM     46  C   UNL A   1      44.439  27.485  31.924  1.00  0.00     0.031 C 
ATOM     47  C   UNL A   1      39.196  29.753  28.067  1.00  0.00     0.029 A 
ATOM     48  C   UNL A   1      39.170  30.153  29.473  1.00  0.00     0.049 A 
ATOM     49  H   UNL A   1      40.579  29.706  30.940  1.00  0.00     0.167 HD
ATOM     50  C   UNL A   1      43.608  28.696  33.918  1.00  0.00     0.037 A 
ATOM     51  C   UNL A   1      38.213  30.899  30.061  1.00  0.00     0.037 A 
ATOM     52  C   UNL A   1      42.665  29.532  34.613  1.00  0.00     0.049 A 
ATOM     53  C   UNL A   1      38.325  31.234  31.523  1.00  0.00     0.074 A 
ATOM     54  C   UNL A   1      42.711  29.975  35.923  1.00  0.00     0.029 A 
ATOM     55  N   UNL A   1      41.505  30.047  34.055  1.00  0.00    -0.354 N 
ATOM     56  N   UNL A   1      39.279  30.926  32.369  1.00  0.00    -0.248 NA
ATOM     57  C   UNL A   1      37.229  32.017  32.114  1.00  0.00     0.031 C 
ATOM     58  C   UNL A   1      41.554  30.719  36.172  1.00  0.00     0.029 A 
ATOM     59  C   UNL A   1      40.813  30.782  35.003  1.00  0.00     0.049 A 
ATOM     60  H   UNL A   1      41.216  29.911  33.124  1.00  0.00     0.167 HD
ATOM     61  C   UNL A   1      38.911  31.494  33.583  1.00  0.00     0.074 A 
ATOM     62  C   UNL A   1      37.651  32.172  33.363  1.00  0.00     0.031 C 
ATOM     63  C   UNL A   1      39.561  31.456  34.771  1.00  0.00     0.037 A 
BRANCH  50  64
ATOM     64  C   UNL A   1      44.798  28.194  34.681  1.00  0.00     0.057 A 
ATOM     65  C   UNL A   1      45.996  28.920  34.691  1.00  0.00     0.134 A 
ATOM     66  C   UNL A   1      44.779  26.964  35.349  1.00  0.00     0.134 A 
ATOM     67  F   UNL A   1      46.082  30.103  34.066  1.00  0.00    -0.206 F 
ATOM     68  C   UNL A   1      47.138  28.432  35.331  1.00  0.00     0.040 A 
ATOM     69  C   UNL A   1      45.907  26.477  36.012  1.00  0.00     0.040 A 
ATOM     70  F   UNL A   1      43.658  26.227  35.386  1.00  0.00    -0.206 F 
ATOM     71  C   UNL A   1      47.094  27.208  35.995  1.00  0.00     0.006 A 
ENDBRANCH  50  64
BRANCH  51  72
ATOM     72  C   UNL A   1      37.060  31.377  29.258  1.00  0.00     0.057 A 
ATOM     73  C   UNL A   1      35.973  30.542  28.975  1.00  0.00     0.134 A 
ATOM     74  C   UNL A   1      37.027  32.677  28.744  1.00  0.00     0.134 A 
ATOM     75  F   UNL A   1      35.945  29.285  29.441  1.00  0.00    -0.206 F 
ATOM     76  C   UNL A   1      34.901  30.977  28.192  1.00  0.00     0.040 A 
ATOM     77  C   UNL A   1      35.952  33.133  27.978  1.00  0.00     0.040 A 
ATOM     78  F   UNL A   1      38.029  33.531  29.001  1.00  0.00    -0.206 F 
ATOM     79  C   UNL A   1      34.889  32.277  27.693  1.00  0.00     0.006 A 
ENDBRANCH  51  72
BRANCH  63  80
ATOM     80  C   UNL A   1      38.943  32.182  35.931  1.00  0.00     0.057 A 
ATOM     81  C   UNL A   1      39.216  33.538  36.151  1.00  0.00     0.134 A 
ATOM     82  C   UNL A   1      38.151  31.519  36.874  1.00  0.00     0.134 A 
ATOM     83  F   UNL A   1      39.979  34.228  35.288  1.00  0.00    -0.206 F 
ATOM     84  C   UNL A   1      38.738  34.206  37.278  1.00  0.00     0.040 A 
ATOM     85  C   UNL A   1      37.647  32.181  37.995  1.00  0.00     0.040 A 
ATOM     86  F   UNL A   1      37.845  30.222  36.717  1.00  0.00    -0.206 F 
ATOM     87  C   UNL A   1      37.949  33.527  38.205  1.00  0.00     0.006 A 
ENDBRANCH  63  80
ENDBRANCH  37  38
ENDBRANCH  30  32
ENDBRANCH  29  30
ENDBRANCH  28  29
ENDBRANCH  27  28
ENDBRANCH  26  27
ENDBRANCH   1  26
TORSDOF 17
ENDMDL
MODEL 2
REMARK VINA RESULT:     -11.2      3.226      8.678
REMARK SMILES Cc1cc(C)cc(N(C)S(=O)(=O)c2ccc(F)c(C(=O)OCCOCCOC(=O)c3ccc(-c4c5nc(c(-c6c(F)cccc6F)c6ccc([nH]6)c(-c6c(F)cccc6F)c6nc(c(-c7c(F)cccc7F)c7ccc4[nH]7)C=C6)C=C5)cc3)c2)c1
REMARK SMILES IDX 23 1 22 2 21 3 19 4 20 5 18 6 13 7 14 8 84 9 15 10 16 11
REMARK SMILES IDX 17 12 10 13 11 14 12 15 8 16 9 17 7 18 1 19 2 20 3 21 85 22
REMARK SMILES IDX 4 23 5 24 6 25 24 26 25 27 26 28 27 29 28 30 29 31 30 32
REMARK SMILES IDX 31 33 83 34 32 35 82 36 33 37 34 38 35 39 76 40 36 41 81 42
REMARK SMILES IDX 75 43 77 44 37 45 80 46 74 47 73 48 38 50 64 51 47 52 63 53
REMARK SMILES IDX 48 54 51 55 62 56 78 57 49 58 50 59 61 61 79 62 52 63 39 64
REMARK SMILES IDX 40 65 45 66 41 67 42 68 44 69 46 70 43 71 65 72 66 73 71 74
REMARK SMILES IDX 67 75 68 76 70 77 72 78 69 79 53 80 54 81 59 82 55 83 56 84
REMARK SMILES IDX 58 85 60 86 57 87
REMARK H PARENT 77 49 51 60
REMARK Flexibility Score: inf
ROOT
ATOM      1  C   UNL A   1      33.223  30.487  27.253  1.00  0.00     0.202 C 
ENDROOT
BRANCH   1   2
ATOM      2  C   UNL A   1      33.759  29.078  26.977  1.00  0.00     0.261 C 
BRANCH   2   3
ATOM      3  O   UNL A   1      33.080  28.482  25.862  1.00  0.00    -0.460 OA
BRANCH   3   4
ATOM      4  C   UNL A   1      32.328  27.392  26.141  1.00  0.00     0.341 C 
ATOM      5  O   UNL A   1      31.771  27.132  27.198  1.00  0.00    -0.246 OA
BRANCH   4   6
ATOM      6  C   UNL A   1      32.050  26.652  24.899  1.00  0.00     0.097 A 
ATOM      7  C   UNL A   1      32.423  24.660  23.590  1.00  0.00     0.089 A 
ATOM      8  C   UNL A   1      31.411  25.064  22.703  1.00  0.00     0.025 A 
ATOM      9  C   UNL A   1      32.776  25.469  24.668  1.00  0.00     0.041 A 
ATOM     10  C   UNL A   1      30.735  26.267  22.907  1.00  0.00     0.041 A 
ATOM     11  C   UNL A   1      31.045  27.049  24.015  1.00  0.00     0.137 A 
ATOM     12  F   UNL A   1      30.358  28.183  24.207  1.00  0.00    -0.206 F 
BRANCH   7  13
ATOM     13  S   UNL A   1      33.157  23.063  23.292  1.00  0.00     0.264 S 
ATOM     14  O   UNL A   1      34.360  23.345  22.537  1.00  0.00    -0.201 OA
ATOM     15  O   UNL A   1      32.092  22.254  22.729  1.00  0.00    -0.201 OA
BRANCH  13  16
ATOM     16  N   UNL A   1      33.588  22.338  24.796  1.00  0.00    -0.269 N 
ATOM     17  C   UNL A   1      32.809  21.123  25.170  1.00  0.00     0.164 C 
BRANCH  16  18
ATOM     18  C   UNL A   1      35.042  22.219  25.064  1.00  0.00     0.052 A 
ATOM     19  C   UNL A   1      38.011  24.249  26.384  1.00  0.00     0.044 C 
ATOM     20  C   UNL A   1      37.204  23.115  25.822  1.00  0.00    -0.049 A 
ATOM     21  C   UNL A   1      37.815  21.891  25.553  1.00  0.00     0.007 A 
ATOM     22  C   UNL A   1      35.829  23.266  25.571  1.00  0.00     0.030 A 
ATOM     23  C   UNL A   1      37.064  20.819  25.066  1.00  0.00    -0.049 A 
ATOM     24  C   UNL A   1      37.746  19.512  24.786  1.00  0.00     0.044 C 
ATOM     25  C   UNL A   1      35.681  20.982  24.863  1.00  0.00     0.030 A 
ENDBRANCH  16  18
ENDBRANCH  13  16
ENDBRANCH   7  13
ENDBRANCH   4   6
ENDBRANCH   3   4
ENDBRANCH   2   3
ENDBRANCH   1   2
BRANCH   1  26
ATOM     26  O   UNL A   1      31.944  30.784  26.692  1.00  0.00    -0.374 OA
BRANCH  26  27
ATOM     27  C   UNL A   1      31.461  32.120  26.849  1.00  0.00     0.202 C 
BRANCH  27  28
ATOM     28  C   UNL A   1      32.525  33.212  27.032  1.00  0.00     0.261 C 
BRANCH  28  29
ATOM     29  O   UNL A   1      32.290  33.993  28.219  1.00  0.00    -0.460 OA
BRANCH  29  30
ATOM     30  C   UNL A   1      33.333  34.758  28.617  1.00  0.00     0.338 C 
ATOM     31  O   UNL A   1      33.331  35.961  28.833  1.00  0.00    -0.246 OA
BRANCH  30  32
ATOM     32  C   UNL A   1      34.485  33.900  28.949  1.00  0.00     0.060 A 
ATOM     33  C   UNL A   1      34.241  32.762  29.730  1.00  0.00     0.016 A 
ATOM     34  C   UNL A   1      35.786  34.230  28.562  1.00  0.00     0.016 A 
ATOM     35  C   UNL A   1      35.304  31.971  30.159  1.00  0.00     0.010 A 
ATOM     36  C   UNL A   1      36.852  33.440  29.005  1.00  0.00     0.010 A 
ATOM     37  C   UNL A   1      36.619  32.323  29.828  1.00  0.00    -0.014 A 
BRANCH  37  38
ATOM     38  C   UNL A   1      37.750  31.592  30.445  1.00  0.00     0.031 A 
ATOM     39  C   UNL A   1      38.090  31.846  31.887  1.00  0.00     0.074 A 
ATOM     40  C   UNL A   1      38.448  30.685  29.738  1.00  0.00     0.049 A 
ATOM     41  N   UNL A   1      39.049  31.334  32.614  1.00  0.00    -0.248 NA
ATOM     42  C   UNL A   1      37.230  32.800  32.607  1.00  0.00     0.031 C 
ATOM     43  C   UNL A   1      38.187  30.320  28.347  1.00  0.00     0.029 A 
ATOM     44  N   UNL A   1      39.520  29.908  30.097  1.00  0.00    -0.354 N 
ATOM     45  C   UNL A   1      38.910  31.901  33.875  1.00  0.00     0.074 A 
ATOM     46  C   UNL A   1      37.793  32.818  33.807  1.00  0.00     0.031 C 
ATOM     47  C   UNL A   1      39.078  29.388  27.968  1.00  0.00     0.029 A 
ATOM     48  C   UNL A   1      39.990  29.116  29.078  1.00  0.00     0.049 A 
ATOM     49  H   UNL A   1      39.914  29.916  30.999  1.00  0.00     0.167 HD
ATOM     50  C   UNL A   1      39.642  31.669  34.989  1.00  0.00     0.037 A 
ATOM     51  C   UNL A   1      41.045  28.279  29.041  1.00  0.00     0.037 A 
ATOM     52  C   UNL A   1      40.752  30.755  35.057  1.00  0.00     0.049 A 
ATOM     53  C   UNL A   1      41.894  28.098  30.271  1.00  0.00     0.074 A 
ATOM     54  C   UNL A   1      41.544  30.444  36.148  1.00  0.00     0.029 A 
ATOM     55  N   UNL A   1      41.228  30.011  33.989  1.00  0.00    -0.354 N 
ATOM     56  N   UNL A   1      41.747  28.633  31.460  1.00  0.00    -0.248 NA
ATOM     57  C   UNL A   1      43.055  27.203  30.154  1.00  0.00     0.031 C 
ATOM     58  C   UNL A   1      42.530  29.547  35.729  1.00  0.00     0.029 A 
ATOM     59  C   UNL A   1      42.320  29.259  34.390  1.00  0.00     0.049 A 
ATOM     60  H   UNL A   1      40.847  30.014  33.082  1.00  0.00     0.167 HD
ATOM     61  C   UNL A   1      42.780  28.123  32.237  1.00  0.00     0.074 A 
ATOM     62  C   UNL A   1      43.542  27.230  31.389  1.00  0.00     0.031 C 
ATOM     63  C   UNL A   1      43.068  28.372  33.537  1.00  0.00     0.037 A 
BRANCH  50  64
ATOM     64  C   UNL A   1      39.276  32.425  36.232  1.00  0.00     0.057 A 
ATOM     65  C   UNL A   1      38.306  31.927  37.110  1.00  0.00     0.134 A 
ATOM     66  C   UNL A   1      39.836  33.675  36.525  1.00  0.00     0.134 A 
ATOM     67  F   UNL A   1      37.728  30.738  36.883  1.00  0.00    -0.206 F 
ATOM     68  C   UNL A   1      37.896  32.651  38.231  1.00  0.00     0.040 A 
ATOM     69  C   UNL A   1      39.451  34.399  37.655  1.00  0.00     0.040 A 
ATOM     70  F   UNL A   1      40.779  34.202  35.730  1.00  0.00    -0.206 F 
ATOM     71  C   UNL A   1      38.470  33.890  38.506  1.00  0.00     0.006 A 
ENDBRANCH  50  64
BRANCH  51  72
ATOM     72  C   UNL A   1      41.359  27.549  27.788  1.00  0.00     0.057 A 
ATOM     73  C   UNL A   1      42.050  28.166  26.738  1.00  0.00     0.134 A 
ATOM     74  C   UNL A   1      40.961  26.221  27.606  1.00  0.00     0.134 A 
ATOM     75  F   UNL A   1      42.459  29.438  26.852  1.00  0.00    -0.206 F 
ATOM     76  C   UNL A   1      42.317  27.494  25.544  1.00  0.00     0.040 A 
ATOM     77  C   UNL A   1      41.241  25.529  26.426  1.00  0.00     0.040 A 
ATOM     78  F   UNL A   1      40.317  25.569  28.585  1.00  0.00    -0.206 F 
ATOM     79  C   UNL A   1      41.914  26.170  25.387  1.00  0.00     0.006 A 
ENDBRANCH  51  72
BRANCH  63  80
ATOM     80  C   UNL A   1      44.244  27.661  34.143  1.00  0.00     0.057 A 
ATOM     81  C   UNL A   1      45.522  28.232  34.100  1.00  0.00     0.134 A 
ATOM     82  C   UNL A   1      44.125  26.378  34.688  1.00  0.00     0.134 A 
ATOM     83  F   UNL A   1      45.704  29.456  33.580  1.00  0.00    -0.206 F 
ATOM     84  C   UNL A   1      46.645  27.544  34.563  1.00  0.00     0.040 A 
ATOM     85  C   UNL A   1      45.237  25.688  35.175  1.00  0.00     0.040 A 
ATOM     86  F   UNL A   1      42.927  25.778  34.766  1.00  0.00    -0.206 F 
ATOM     87  C   UNL A   1      46.504  26.268  35.103  1.00  0.00     0.006 A 
ENDBRANCH  63  80
ENDBRANCH  37  38
ENDBRANCH  30  32
ENDBRANCH  29  30
ENDBRANCH  28  29
ENDBRANCH  27  28
ENDBRANCH  26  27
ENDBRANCH   1  26
TORSDOF 17
ENDMDL
MODEL 3
REMARK VINA RESULT:     -11.1      2.840      8.246
REMARK SMILES Cc1cc(C)cc(N(C)S(=O)(=O)c2ccc(F)c(C(=O)OCCOCCOC(=O)c3ccc(-c4c5nc(c(-c6c(F)cccc6F)c6ccc([nH]6)c(-c6c(F)cccc6F)c6nc(c(-c7c(F)cccc7F)c7ccc4[nH]7)C=C6)C=C5)cc3)c2)c1
REMARK SMILES IDX 23 1 22 2 21 3 19 4 20 5 18 6 13 7 14 8 84 9 15 10 16 11
REMARK SMILES IDX 17 12 10 13 11 14 12 15 8 16 9 17 7 18 1 19 2 20 3 21 85 22
REMARK SMILES IDX 4 23 5 24 6 25 24 26 25 27 26 28 27 29 28 30 29 31 30 32
REMARK SMILES IDX 31 33 83 34 32 35 82 36 33 37 34 38 35 39 76 40 36 41 81 42
REMARK SMILES IDX 75 43 77 44 37 45 80 46 74 47 73 48 38 50 64 51 47 52 63 53
REMARK SMILES IDX 48 54 51 55 62 56 78 57 49 58 50 59 61 61 79 62 52 63 39 64
REMARK SMILES IDX 40 65 45 66 41 67 42 68 44 69 46 70 43 71 65 72 66 73 71 74
REMARK SMILES IDX 67 75 68 76 70 77 72 78 69 79 53 80 54 81 59 82 55 83 56 84
REMARK SMILES IDX 58 85 60 86 57 87
REMARK H PARENT 77 49 51 60
REMARK Flexibility Score: inf
ROOT
ATOM      1  C   UNL A   1      33.291  30.296  26.551  1.00  0.00     0.202 C 
ENDROOT
BRANCH   1   2
ATOM      2  C   UNL A   1      33.872  28.973  27.060  1.00  0.00     0.261 C 
BRANCH   2   3
ATOM      3  O   UNL A   1      34.062  28.048  25.979  1.00  0.00    -0.460 OA
BRANCH   3   4
ATOM      4  C   UNL A   1      33.317  26.919  26.029  1.00  0.00     0.341 C 
ATOM      5  O   UNL A   1      32.259  26.759  26.621  1.00  0.00    -0.246 OA
BRANCH   4   6
ATOM      6  C   UNL A   1      33.829  25.946  25.050  1.00  0.00     0.097 A 
ATOM      7  C   UNL A   1      35.063  23.911  24.657  1.00  0.00     0.089 A 
ATOM      8  C   UNL A   1      34.641  23.923  23.317  1.00  0.00     0.025 A 
ATOM      9  C   UNL A   1      34.695  24.942  25.519  1.00  0.00     0.041 A 
ATOM     10  C   UNL A   1      33.828  24.953  22.845  1.00  0.00     0.041 A 
ATOM     11  C   UNL A   1      33.411  25.953  23.718  1.00  0.00     0.137 A 
ATOM     12  F   UNL A   1      32.603  26.913  23.247  1.00  0.00    -0.206 F 
BRANCH   7  13
ATOM     13  S   UNL A   1      36.019  22.500  25.182  1.00  0.00     0.264 S 
ATOM     14  O   UNL A   1      36.912  23.017  26.198  1.00  0.00    -0.201 OA
ATOM     15  O   UNL A   1      36.535  21.914  23.959  1.00  0.00    -0.201 OA
BRANCH  13  16
ATOM     16  N   UNL A   1      34.972  21.327  25.891  1.00  0.00    -0.269 N 
ATOM     17  C   UNL A   1      34.211  21.787  27.087  1.00  0.00     0.164 C 
BRANCH  16  18
ATOM     18  C   UNL A   1      34.164  20.523  24.942  1.00  0.00     0.052 A 
ATOM     19  C   UNL A   1      33.450  16.890  23.959  1.00  0.00     0.044 C 
ATOM     20  C   UNL A   1      33.408  18.391  23.979  1.00  0.00    -0.049 A 
ATOM     21  C   UNL A   1      32.571  19.076  23.098  1.00  0.00     0.007 A 
ATOM     22  C   UNL A   1      34.195  19.121  24.886  1.00  0.00     0.030 A 
ATOM     23  C   UNL A   1      32.496  20.470  23.135  1.00  0.00    -0.049 A 
ATOM     24  C   UNL A   1      31.587  21.182  22.177  1.00  0.00     0.044 C 
ATOM     25  C   UNL A   1      33.263  21.176  24.081  1.00  0.00     0.030 A 
ENDBRANCH  16  18
ENDBRANCH  13  16
ENDBRANCH   7  13
ENDBRANCH   4   6
ENDBRANCH   3   4
ENDBRANCH   2   3
ENDBRANCH   1   2
BRANCH   1  26
ATOM     26  O   UNL A   1      32.071  30.714  27.167  1.00  0.00    -0.374 OA
BRANCH  26  27
ATOM     27  C   UNL A   1      31.522  31.962  26.736  1.00  0.00     0.202 C 
BRANCH  27  28
ATOM     28  C   UNL A   1      32.437  33.187  26.859  1.00  0.00     0.261 C 
BRANCH  28  29
ATOM     29  O   UNL A   1      32.229  33.887  28.101  1.00  0.00    -0.460 OA
BRANCH  29  30
ATOM     30  C   UNL A   1      33.265  34.658  28.505  1.00  0.00     0.338 C 
ATOM     31  O   UNL A   1      33.252  35.860  28.729  1.00  0.00    -0.246 OA
BRANCH  30  32
ATOM     32  C   UNL A   1      34.423  33.808  28.832  1.00  0.00     0.060 A 
ATOM     33  C   UNL A   1      34.177  32.621  29.536  1.00  0.00     0.016 A 
ATOM     34  C   UNL A   1      35.730  34.189  28.518  1.00  0.00     0.016 A 
ATOM     35  C   UNL A   1      35.241  31.829  29.961  1.00  0.00     0.010 A 
ATOM     36  C   UNL A   1      36.796  33.397  28.956  1.00  0.00     0.010 A 
ATOM     37  C   UNL A   1      36.559  32.229  29.704  1.00  0.00    -0.014 A 
BRANCH  37  38
ATOM     38  C   UNL A   1      37.684  31.489  30.322  1.00  0.00     0.031 A 
ATOM     39  C   UNL A   1      38.017  31.732  31.767  1.00  0.00     0.074 A 
ATOM     40  C   UNL A   1      38.379  30.581  29.614  1.00  0.00     0.049 A 
ATOM     41  N   UNL A   1      38.970  31.211  32.497  1.00  0.00    -0.248 NA
ATOM     42  C   UNL A   1      37.160  32.688  32.488  1.00  0.00     0.031 C 
ATOM     43  C   UNL A   1      38.122  30.225  28.219  1.00  0.00     0.029 A 
ATOM     44  N   UNL A   1      39.445  29.796  29.974  1.00  0.00    -0.354 N 
ATOM     45  C   UNL A   1      38.829  31.772  33.759  1.00  0.00     0.074 A 
ATOM     46  C   UNL A   1      37.717  32.696  33.691  1.00  0.00     0.031 C 
ATOM     47  C   UNL A   1      39.010  29.290  27.840  1.00  0.00     0.029 A 
ATOM     48  C   UNL A   1      39.915  29.006  28.953  1.00  0.00     0.049 A 
ATOM     49  H   UNL A   1      39.835  29.797  30.878  1.00  0.00     0.167 HD
ATOM     50  C   UNL A   1      39.554  31.530  34.876  1.00  0.00     0.037 A 
ATOM     51  C   UNL A   1      40.966  28.164  28.917  1.00  0.00     0.037 A 
ATOM     52  C   UNL A   1      40.658  30.610  34.944  1.00  0.00     0.049 A 
ATOM     53  C   UNL A   1      41.807  27.971  30.149  1.00  0.00     0.074 A 
ATOM     54  C   UNL A   1      41.443  30.288  36.037  1.00  0.00     0.029 A 
ATOM     55  N   UNL A   1      41.135  29.868  33.875  1.00  0.00    -0.354 N 
ATOM     56  N   UNL A   1      41.658  28.500  31.340  1.00  0.00    -0.248 NA
ATOM     57  C   UNL A   1      42.963  27.070  30.033  1.00  0.00     0.031 C 
ATOM     58  C   UNL A   1      42.426  29.387  35.618  1.00  0.00     0.029 A 
ATOM     59  C   UNL A   1      42.221  29.108  34.277  1.00  0.00     0.049 A 
ATOM     60  H   UNL A   1      40.758  29.878  32.966  1.00  0.00     0.167 HD
ATOM     61  C   UNL A   1      42.684  27.980  32.119  1.00  0.00     0.074 A 
ATOM     62  C   UNL A   1      43.445  27.087  31.270  1.00  0.00     0.031 C 
ATOM     63  C   UNL A   1      42.967  28.220  33.423  1.00  0.00     0.037 A 
BRANCH  50  64
ATOM     64  C   UNL A   1      39.186  32.282  36.121  1.00  0.00     0.057 A 
ATOM     65  C   UNL A   1      38.256  31.753  37.024  1.00  0.00     0.134 A 
ATOM     66  C   UNL A   1      39.703  33.555  36.392  1.00  0.00     0.134 A 
ATOM     67  F   UNL A   1      37.720  30.541  36.819  1.00  0.00    -0.206 F 
ATOM     68  C   UNL A   1      37.843  32.470  38.148  1.00  0.00     0.040 A 
ATOM     69  C   UNL A   1      39.315  34.272  37.525  1.00  0.00     0.040 A 
ATOM     70  F   UNL A   1      40.608  34.111  35.572  1.00  0.00    -0.206 F 
ATOM     71  C   UNL A   1      38.375  33.733  38.402  1.00  0.00     0.006 A 
ENDBRANCH  50  64
BRANCH  51  72
ATOM     72  C   UNL A   1      41.281  27.439  27.661  1.00  0.00     0.057 A 
ATOM     73  C   UNL A   1      40.773  26.158  27.411  1.00  0.00     0.134 A 
ATOM     74  C   UNL A   1      42.112  28.004  26.688  1.00  0.00     0.134 A 
ATOM     75  F   UNL A   1      39.970  25.562  28.305  1.00  0.00    -0.206 F 
ATOM     76  C   UNL A   1      41.095  25.458  26.247  1.00  0.00     0.040 A 
ATOM     77  C   UNL A   1      42.425  27.326  25.509  1.00  0.00     0.040 A 
ATOM     78  F   UNL A   1      42.610  29.237  26.860  1.00  0.00    -0.206 F 
ATOM     79  C   UNL A   1      41.921  26.044  25.291  1.00  0.00     0.006 A 
ENDBRANCH  51  72
BRANCH  63  80
ATOM     80  C   UNL A   1      44.136  27.499  34.030  1.00  0.00     0.057 A 
ATOM     81  C   UNL A   1      43.966  26.246  34.632  1.00  0.00     0.134 A 
ATOM     82  C   UNL A   1      45.406  28.082  34.095  1.00  0.00     0.134 A 
ATOM     83  F   UNL A   1      42.769  25.638  34.614  1.00  0.00    -0.206 F 
ATOM     84  C   UNL A   1      45.014  25.605  35.293  1.00  0.00     0.040 A 
ATOM     85  C   UNL A   1      46.469  27.441  34.733  1.00  0.00     0.040 A 
ATOM     86  F   UNL A   1      45.637  29.277  33.530  1.00  0.00    -0.206 F 
ATOM     87  C   UNL A   1      46.272  26.203  35.345  1.00  0.00     0.006 A 
ENDBRANCH  63  80
ENDBRANCH  37  38
ENDBRANCH  30  32
ENDBRANCH  29  30
ENDBRANCH  28  29
ENDBRANCH  27  28
ENDBRANCH  26  27
ENDBRANCH   1  26
TORSDOF 17
ENDMDL
