MODEL 1
REMARK VINA RESULT:     -10.9      0.000      0.000
REMARK SMILES Cc1nc(CNC(=O)[C@H]2CCO[C@H]2C)sc1C(=O)OCCOCCOC(=O)c1ccc(-c2c3nc(c(-c4c(F)cccc4F)c4ccc([nH]4)c(-c4c(F)cccc4F)c4nc(c(-c5c(F)cccc5F)c5ccc2[nH]5)C=C4)C=C3)cc1
REMARK SMILES IDX 21 1 20 2 19 3 17 4 18 5 16 6 1 7 2 8 3 9 4 10 15 11 5 12
REMARK SMILES IDX 6 13 7 14 8 16 9 17 10 18 13 19 11 20 12 21 14 22 22 23
REMARK SMILES IDX 23 24 24 25 25 26 26 27 27 28 28 29 29 30 81 31 30 32 80 33
REMARK SMILES IDX 31 34 32 35 33 36 74 37 34 38 79 39 73 40 75 41 35 42 78 43
REMARK SMILES IDX 72 44 71 45 36 47 62 48 45 49 61 50 46 51 49 52 60 53 76 54
REMARK SMILES IDX 47 55 48 56 59 58 77 59 50 60 37 61 38 62 43 63 39 64 40 65
REMARK SMILES IDX 42 66 44 67 41 68 63 69 64 70 69 71 65 72 66 73 68 74 70 75
REMARK SMILES IDX 67 76 51 77 52 78 57 79 53 80 54 81 56 82 58 83 55 84
REMARK H PARENT 6 15 75 46 49 57
REMARK Flexibility Score: inf
ROOT
ATOM      1  C   UNL A   1      42.265  20.816  27.421  1.00  0.00     0.202 C 
ENDROOT
BRANCH   1   2
ATOM      2  C   UNL A   1      40.917  21.494  27.682  1.00  0.00     0.261 C 
BRANCH   2   3
ATOM      3  O   UNL A   1      40.358  21.952  26.437  1.00  0.00    -0.459 OA
BRANCH   3   4
ATOM      4  C   UNL A   1      39.400  21.159  25.885  1.00  0.00     0.350 C 
ATOM      5  O   UNL A   1      39.506  19.945  25.755  1.00  0.00    -0.245 OA
BRANCH   4   6
ATOM      6  C   UNL A   1      38.212  21.934  25.594  1.00  0.00     0.135 A 
ATOM      7  C   UNL A   1      38.525  24.241  26.746  1.00  0.00     0.068 C 
ATOM      8  C   UNL A   1      37.791  23.205  25.967  1.00  0.00     0.063 A 
ATOM      9  N   UNL A   1      36.518  23.548  25.515  1.00  0.00    -0.244 NA
ATOM     10  C   UNL A   1      35.990  22.567  24.814  1.00  0.00     0.113 A 
ATOM     11  S   UNL A   1      36.992  21.189  24.634  1.00  0.00    -0.110 S 
BRANCH  10  12
ATOM     12  C   UNL A   1      34.647  22.572  24.144  1.00  0.00     0.183 C 
BRANCH  12  13
ATOM     13  N   UNL A   1      33.866  21.404  24.506  1.00  0.00    -0.349 N 
ATOM     14  C   UNL A   1      32.622  21.334  25.055  1.00  0.00     0.226 C 
ATOM     15  H   UNL A   1      34.298  20.537  24.329  1.00  0.00     0.163 HD
ATOM     16  O   UNL A   1      32.095  20.229  25.178  1.00  0.00    -0.275 OA
BRANCH  14  17
ATOM     17  C   UNL A   1      31.937  22.613  25.488  1.00  0.00     0.109 C 
ATOM     18  C   UNL A   1      30.525  22.428  26.009  1.00  0.00     0.044 C 
ATOM     19  C   UNL A   1      32.613  23.312  26.664  1.00  0.00     0.127 C 
ATOM     20  C   UNL A   1      30.308  23.711  26.781  1.00  0.00     0.161 C 
ATOM     21  O   UNL A   1      31.591  24.137  27.265  1.00  0.00    -0.378 OA
ATOM     22  C   UNL A   1      33.152  22.392  27.758  1.00  0.00     0.039 C 
ENDBRANCH  14  17
ENDBRANCH  12  13
ENDBRANCH  10  12
ENDBRANCH   4   6
ENDBRANCH   3   4
ENDBRANCH   2   3
ENDBRANCH   1   2
BRANCH   1  23
ATOM     23  O   UNL A   1      43.198  21.633  26.710  1.00  0.00    -0.374 OA
BRANCH  23  24
ATOM     24  C   UNL A   1      43.632  21.148  25.438  1.00  0.00     0.202 C 
BRANCH  24  25
ATOM     25  C   UNL A   1      44.220  22.213  24.506  1.00  0.00     0.261 C 
BRANCH  25  26
ATOM     26  O   UNL A   1      43.513  23.461  24.636  1.00  0.00    -0.460 OA
BRANCH  26  27
ATOM     27  C   UNL A   1      44.271  24.508  25.042  1.00  0.00     0.338 C 
ATOM     28  O   UNL A   1      45.364  24.840  24.616  1.00  0.00    -0.246 OA
BRANCH  27  29
ATOM     29  C   UNL A   1      43.505  25.339  25.993  1.00  0.00     0.060 A 
ATOM     30  C   UNL A   1      43.881  26.681  26.120  1.00  0.00     0.016 A 
ATOM     31  C   UNL A   1      42.479  24.813  26.783  1.00  0.00     0.016 A 
ATOM     32  C   UNL A   1      43.266  27.492  27.072  1.00  0.00     0.010 A 
ATOM     33  C   UNL A   1      41.868  25.626  27.744  1.00  0.00     0.010 A 
ATOM     34  C   UNL A   1      42.282  26.959  27.915  1.00  0.00    -0.014 A 
BRANCH  34  35
ATOM     35  C   UNL A   1      41.789  27.762  29.060  1.00  0.00     0.031 A 
ATOM     36  C   UNL A   1      42.512  27.679  30.376  1.00  0.00     0.074 A 
ATOM     37  C   UNL A   1      40.729  28.578  28.923  1.00  0.00     0.049 A 
ATOM     38  N   UNL A   1      42.244  28.276  31.508  1.00  0.00    -0.248 NA
ATOM     39  C   UNL A   1      43.696  26.806  30.418  1.00  0.00     0.031 C 
ATOM     40  C   UNL A   1      39.965  28.772  27.693  1.00  0.00     0.029 A 
ATOM     41  N   UNL A   1      40.112  29.394  29.837  1.00  0.00    -0.354 N 
ATOM     42  C   UNL A   1      43.224  27.852  32.398  1.00  0.00     0.074 A 
ATOM     43  C   UNL A   1      44.073  26.924  31.683  1.00  0.00     0.031 C 
ATOM     44  C   UNL A   1      38.971  29.645  27.931  1.00  0.00     0.029 A 
ATOM     45  C   UNL A   1      39.015  30.049  29.336  1.00  0.00     0.049 A 
ATOM     46  H   UNL A   1      40.426  29.499  30.765  1.00  0.00     0.167 HD
ATOM     47  C   UNL A   1      43.404  28.211  33.692  1.00  0.00     0.037 A 
ATOM     48  C   UNL A   1      38.137  30.867  29.947  1.00  0.00     0.037 A 
ATOM     49  C   UNL A   1      42.561  29.133  34.405  1.00  0.00     0.049 A 
ATOM     50  C   UNL A   1      38.320  31.200  31.403  1.00  0.00     0.074 A 
ATOM     51  C   UNL A   1      42.674  29.569  35.713  1.00  0.00     0.029 A 
ATOM     52  N   UNL A   1      41.443  29.753  33.870  1.00  0.00    -0.354 N 
ATOM     53  N   UNL A   1      39.263  30.812  32.227  1.00  0.00    -0.248 NA
ATOM     54  C   UNL A   1      37.318  32.085  32.014  1.00  0.00     0.031 C 
ATOM     55  C   UNL A   1      41.599  30.425  35.983  1.00  0.00     0.029 A 
ATOM     56  C   UNL A   1      40.843  30.552  34.829  1.00  0.00     0.049 A 
ATOM     57  H   UNL A   1      41.122  29.641  32.946  1.00  0.00     0.167 HD
ATOM     58  C   UNL A   1      38.983  31.426  33.442  1.00  0.00     0.074 A 
ATOM     59  C   UNL A   1      37.787  32.219  33.245  1.00  0.00     0.031 C 
ATOM     60  C   UNL A   1      39.657  31.341  34.616  1.00  0.00     0.037 A 
BRANCH  47  61
ATOM     61  C   UNL A   1      44.555  27.588  34.424  1.00  0.00     0.057 A 
ATOM     62  C   UNL A   1      45.802  28.220  34.513  1.00  0.00     0.134 A 
ATOM     63  C   UNL A   1      44.405  26.354  35.070  1.00  0.00     0.134 A 
ATOM     64  F   UNL A   1      46.013  29.395  33.902  1.00  0.00    -0.206 F 
ATOM     65  C   UNL A   1      46.866  27.638  35.204  1.00  0.00     0.040 A 
ATOM     66  C   UNL A   1      45.455  25.773  35.783  1.00  0.00     0.040 A 
ATOM     67  F   UNL A   1      43.236  25.698  35.025  1.00  0.00    -0.206 F 
ATOM     68  C   UNL A   1      46.691  26.414  35.848  1.00  0.00     0.006 A 
ENDBRANCH  47  61
BRANCH  48  69
ATOM     69  C   UNL A   1      36.989  31.423  29.187  1.00  0.00     0.057 A 
ATOM     70  C   UNL A   1      36.998  32.742  28.721  1.00  0.00     0.134 A 
ATOM     71  C   UNL A   1      35.848  30.653  28.929  1.00  0.00     0.134 A 
ATOM     72  F   UNL A   1      38.053  33.535  28.958  1.00  0.00    -0.206 F 
ATOM     73  C   UNL A   1      35.908  33.282  28.036  1.00  0.00     0.040 A 
ATOM     74  C   UNL A   1      34.761  31.173  28.227  1.00  0.00     0.040 A 
ATOM     75  F   UNL A   1      35.779  29.382  29.351  1.00  0.00    -0.206 F 
ATOM     76  C   UNL A   1      34.786  32.494  27.784  1.00  0.00     0.006 A 
ENDBRANCH  48  69
BRANCH  60  77
ATOM     77  C   UNL A   1      39.136  32.148  35.768  1.00  0.00     0.057 A 
ATOM     78  C   UNL A   1      39.478  33.496  35.940  1.00  0.00     0.134 A 
ATOM     79  C   UNL A   1      38.250  31.583  36.693  1.00  0.00     0.134 A 
ATOM     80  F   UNL A   1      40.332  34.093  35.094  1.00  0.00    -0.206 F 
ATOM     81  C   UNL A   1      38.972  34.247  37.002  1.00  0.00     0.040 A 
ATOM     82  C   UNL A   1      37.718  32.329  37.745  1.00  0.00     0.040 A 
ATOM     83  F   UNL A   1      37.876  30.299  36.581  1.00  0.00    -0.206 F 
ATOM     84  C   UNL A   1      38.083  33.664  37.904  1.00  0.00     0.006 A 
ENDBRANCH  60  77
ENDBRANCH  34  35
ENDBRANCH  27  29
ENDBRANCH  26  27
ENDBRANCH  25  26
ENDBRANCH  24  25
ENDBRANCH  23  24
ENDBRANCH   1  23
TORSDOF 17
ENDMDL
MODEL 2
REMARK VINA RESULT:     -10.8      1.717      2.566
REMARK SMILES Cc1nc(CNC(=O)[C@H]2CCO[C@H]2C)sc1C(=O)OCCOCCOC(=O)c1ccc(-c2c3nc(c(-c4c(F)cccc4F)c4ccc([nH]4)c(-c4c(F)cccc4F)c4nc(c(-c5c(F)cccc5F)c5ccc2[nH]5)C=C4)C=C3)cc1
REMARK SMILES IDX 21 1 20 2 19 3 17 4 18 5 16 6 1 7 2 8 3 9 4 10 15 11 5 12
REMARK SMILES IDX 6 13 7 14 8 16 9 17 10 18 13 19 11 20 12 21 14 22 22 23
REMARK SMILES IDX 23 24 24 25 25 26 26 27 27 28 28 29 29 30 81 31 30 32 80 33
REMARK SMILES IDX 31 34 32 35 33 36 74 37 34 38 79 39 73 40 75 41 35 42 78 43
REMARK SMILES IDX 72 44 71 45 36 47 62 48 45 49 61 50 46 51 49 52 60 53 76 54
REMARK SMILES IDX 47 55 48 56 59 58 77 59 50 60 37 61 38 62 43 63 39 64 40 65
REMARK SMILES IDX 42 66 44 67 41 68 63 69 64 70 69 71 65 72 66 73 68 74 70 75
REMARK SMILES IDX 67 76 51 77 52 78 57 79 53 80 54 81 56 82 58 83 55 84
REMARK H PARENT 6 15 75 46 49 57
REMARK Flexibility Score: inf
ROOT
ATOM      1  C   UNL A   1      41.080  20.496  27.386  1.00  0.00     0.202 C 
ENDROOT
BRANCH   1   2
ATOM      2  C   UNL A   1      40.262  20.333  26.102  1.00  0.00     0.261 C 
BRANCH   2   3
ATOM      3  O   UNL A   1      39.245  21.350  26.047  1.00  0.00    -0.459 OA
BRANCH   3   4
ATOM      4  C   UNL A   1      38.155  21.064  25.283  1.00  0.00     0.350 C 
ATOM      5  O   UNL A   1      37.956  19.978  24.752  1.00  0.00    -0.245 OA
BRANCH   4   6
ATOM      6  C   UNL A   1      37.229  22.177  25.292  1.00  0.00     0.135 A 
ATOM      7  C   UNL A   1      38.425  24.136  26.508  1.00  0.00     0.068 C 
ATOM      8  C   UNL A   1      37.286  23.458  25.827  1.00  0.00     0.063 A 
ATOM      9  N   UNL A   1      36.119  24.204  25.668  1.00  0.00    -0.244 NA
ATOM     10  C   UNL A   1      35.204  23.510  25.026  1.00  0.00     0.113 A 
ATOM     11  S   UNL A   1      35.692  21.937  24.554  1.00  0.00    -0.110 S 
BRANCH  10  12
ATOM     12  C   UNL A   1      33.831  23.982  24.645  1.00  0.00     0.183 C 
BRANCH  12  13
ATOM     13  N   UNL A   1      33.783  24.419  23.262  1.00  0.00    -0.349 N 
ATOM     14  C   UNL A   1      33.691  25.681  22.759  1.00  0.00     0.226 C 
ATOM     15  H   UNL A   1      33.821  23.699  22.591  1.00  0.00     0.163 HD
ATOM     16  O   UNL A   1      33.780  25.836  21.541  1.00  0.00    -0.275 OA
BRANCH  14  17
ATOM     17  C   UNL A   1      33.489  26.840  23.713  1.00  0.00     0.109 C 
ATOM     18  C   UNL A   1      33.821  28.201  23.132  1.00  0.00     0.044 C 
ATOM     19  C   UNL A   1      32.041  27.035  24.153  1.00  0.00     0.127 C 
ATOM     20  C   UNL A   1      33.089  29.128  24.076  1.00  0.00     0.161 C 
ATOM     21  O   UNL A   1      31.946  28.415  24.571  1.00  0.00    -0.378 OA
ATOM     22  C   UNL A   1      30.985  26.816  23.072  1.00  0.00     0.039 C 
ENDBRANCH  14  17
ENDBRANCH  12  13
ENDBRANCH  10  12
ENDBRANCH   4   6
ENDBRANCH   3   4
ENDBRANCH   2   3
ENDBRANCH   1   2
BRANCH   1  23
ATOM     23  O   UNL A   1      42.493  20.406  27.191  1.00  0.00    -0.374 OA
BRANCH  23  24
ATOM     24  C   UNL A   1      42.956  20.463  25.840  1.00  0.00     0.202 C 
BRANCH  24  25
ATOM     25  C   UNL A   1      43.931  21.606  25.538  1.00  0.00     0.261 C 
BRANCH  25  26
ATOM     26  O   UNL A   1      43.229  22.777  25.080  1.00  0.00    -0.460 OA
BRANCH  26  27
ATOM     27  C   UNL A   1      43.919  23.937  25.193  1.00  0.00     0.338 C 
ATOM     28  O   UNL A   1      44.892  24.287  24.548  1.00  0.00    -0.246 OA
BRANCH  27  29
ATOM     29  C   UNL A   1      43.216  24.845  26.124  1.00  0.00     0.060 A 
ATOM     30  C   UNL A   1      43.674  26.166  26.199  1.00  0.00     0.016 A 
ATOM     31  C   UNL A   1      42.172  24.409  26.943  1.00  0.00     0.016 A 
ATOM     32  C   UNL A   1      43.121  27.044  27.129  1.00  0.00     0.010 A 
ATOM     33  C   UNL A   1      41.623  25.290  27.881  1.00  0.00     0.010 A 
ATOM     34  C   UNL A   1      42.118  26.601  28.000  1.00  0.00    -0.014 A 
BRANCH  34  35
ATOM     35  C   UNL A   1      41.689  27.471  29.122  1.00  0.00     0.031 A 
ATOM     36  C   UNL A   1      42.444  27.414  30.421  1.00  0.00     0.074 A 
ATOM     37  C   UNL A   1      40.660  28.324  28.977  1.00  0.00     0.049 A 
ATOM     38  N   UNL A   1      42.232  28.068  31.534  1.00  0.00    -0.248 NA
ATOM     39  C   UNL A   1      43.593  26.495  30.471  1.00  0.00     0.031 C 
ATOM     40  C   UNL A   1      39.871  28.498  27.760  1.00  0.00     0.029 A 
ATOM     41  N   UNL A   1      40.101  29.203  29.871  1.00  0.00    -0.354 N 
ATOM     42  C   UNL A   1      43.217  27.642  32.415  1.00  0.00     0.074 A 
ATOM     43  C   UNL A   1      44.008  26.650  31.720  1.00  0.00     0.031 C 
ATOM     44  C   UNL A   1      38.919  29.420  27.986  1.00  0.00     0.029 A 
ATOM     45  C   UNL A   1      39.018  29.881  29.370  1.00  0.00     0.049 A 
ATOM     46  H   UNL A   1      40.444  29.333  30.785  1.00  0.00     0.167 HD
ATOM     47  C   UNL A   1      43.447  28.047  33.688  1.00  0.00     0.037 A 
ATOM     48  C   UNL A   1      38.190  30.759  29.968  1.00  0.00     0.037 A 
ATOM     49  C   UNL A   1      42.661  29.032  34.382  1.00  0.00     0.049 A 
ATOM     50  C   UNL A   1      38.426  31.145  31.403  1.00  0.00     0.074 A 
ATOM     51  C   UNL A   1      42.827  29.518  35.666  1.00  0.00     0.029 A 
ATOM     52  N   UNL A   1      41.554  29.675  33.850  1.00  0.00    -0.354 N 
ATOM     53  N   UNL A   1      39.376  30.754  32.218  1.00  0.00    -0.248 NA
ATOM     54  C   UNL A   1      37.477  32.096  32.000  1.00  0.00     0.031 C 
ATOM     55  C   UNL A   1      41.795  30.428  35.926  1.00  0.00     0.029 A 
ATOM     56  C   UNL A   1      41.013  30.538  34.788  1.00  0.00     0.049 A 
ATOM     57  H   UNL A   1      41.204  29.538  32.939  1.00  0.00     0.167 HD
ATOM     58  C   UNL A   1      39.154  31.429  33.413  1.00  0.00     0.074 A 
ATOM     59  C   UNL A   1      37.986  32.262  33.212  1.00  0.00     0.031 C 
ATOM     60  C   UNL A   1      39.855  31.365  34.572  1.00  0.00     0.037 A 
BRANCH  47  61
ATOM     61  C   UNL A   1      44.591  27.408  34.416  1.00  0.00     0.057 A 
ATOM     62  C   UNL A   1      44.431  26.223  35.145  1.00  0.00     0.134 A 
ATOM     63  C   UNL A   1      45.873  27.969  34.365  1.00  0.00     0.134 A 
ATOM     64  F   UNL A   1      43.225  25.644  35.246  1.00  0.00    -0.206 F 
ATOM     65  C   UNL A   1      45.502  25.628  35.814  1.00  0.00     0.040 A 
ATOM     66  C   UNL A   1      46.957  27.371  35.010  1.00  0.00     0.040 A 
ATOM     67  F   UNL A   1      46.094  29.102  33.681  1.00  0.00    -0.206 F 
ATOM     68  C   UNL A   1      46.772  26.199  35.741  1.00  0.00     0.006 A 
ENDBRANCH  47  61
BRANCH  48  69
ATOM     69  C   UNL A   1      37.046  31.330  29.213  1.00  0.00     0.057 A 
ATOM     70  C   UNL A   1      35.888  30.581  28.976  1.00  0.00     0.134 A 
ATOM     71  C   UNL A   1      37.095  32.629  28.695  1.00  0.00     0.134 A 
ATOM     72  F   UNL A   1      35.793  29.323  29.428  1.00  0.00    -0.206 F 
ATOM     73  C   UNL A   1      34.823  31.100  28.237  1.00  0.00     0.040 A 
ATOM     74  C   UNL A   1      36.029  33.168  27.973  1.00  0.00     0.040 A 
ATOM     75  F   UNL A   1      38.178  33.395  28.888  1.00  0.00    -0.206 F 
ATOM     76  C   UNL A   1      34.891  32.399  27.737  1.00  0.00     0.006 A 
ENDBRANCH  48  69
BRANCH  60  77
ATOM     77  C   UNL A   1      39.399  32.241  35.701  1.00  0.00     0.057 A 
ATOM     78  C   UNL A   1      38.478  31.795  36.656  1.00  0.00     0.134 A 
ATOM     79  C   UNL A   1      39.920  33.532  35.857  1.00  0.00     0.134 A 
ATOM     80  F   UNL A   1      37.933  30.573  36.555  1.00  0.00    -0.206 F 
ATOM     81  C   UNL A   1      38.076  32.608  37.717  1.00  0.00     0.040 A 
ATOM     82  C   UNL A   1      39.545  34.346  36.927  1.00  0.00     0.040 A 
ATOM     83  F   UNL A   1      40.814  34.017  34.982  1.00  0.00    -0.206 F 
ATOM     84  C   UNL A   1      38.617  33.886  37.858  1.00  0.00     0.006 A 
ENDBRANCH  60  77
ENDBRANCH  34  35
ENDBRANCH  27  29
ENDBRANCH  26  27
ENDBRANCH  25  26
ENDBRANCH  24  25
ENDBRANCH  23  24
ENDBRANCH   1  23
TORSDOF 17
ENDMDL
MODEL 3
REMARK VINA RESULT:     -10.4      1.745      2.437
REMARK SMILES Cc1nc(CNC(=O)[C@H]2CCO[C@H]2C)sc1C(=O)OCCOCCOC(=O)c1ccc(-c2c3nc(c(-c4c(F)cccc4F)c4ccc([nH]4)c(-c4c(F)cccc4F)c4nc(c(-c5c(F)cccc5F)c5ccc2[nH]5)C=C4)C=C3)cc1
REMARK SMILES IDX 21 1 20 2 19 3 17 4 18 5 16 6 1 7 2 8 3 9 4 10 15 11 5 12
REMARK SMILES IDX 6 13 7 14 8 16 9 17 10 18 13 19 11 20 12 21 14 22 22 23
REMARK SMILES IDX 23 24 24 25 25 26 26 27 27 28 28 29 29 30 81 31 30 32 80 33
REMARK SMILES IDX 31 34 32 35 33 36 74 37 34 38 79 39 73 40 75 41 35 42 78 43
REMARK SMILES IDX 72 44 71 45 36 47 62 48 45 49 61 50 46 51 49 52 60 53 76 54
REMARK SMILES IDX 47 55 48 56 59 58 77 59 50 60 37 61 38 62 43 63 39 64 40 65
REMARK SMILES IDX 42 66 44 67 41 68 63 69 64 70 69 71 65 72 66 73 68 74 70 75
REMARK SMILES IDX 67 76 51 77 52 78 57 79 53 80 54 81 56 82 58 83 55 84
REMARK H PARENT 6 15 75 46 49 57
REMARK Flexibility Score: inf
ROOT
ATOM      1  C   UNL A   1      41.088  21.430  26.350  1.00  0.00     0.202 C 
ENDROOT
BRANCH   1   2
ATOM      2  C   UNL A   1      40.257  22.712  26.438  1.00  0.00     0.261 C 
BRANCH   2   3
ATOM      3  O   UNL A   1      38.895  22.381  26.767  1.00  0.00    -0.459 OA
BRANCH   3   4
ATOM      4  C   UNL A   1      37.941  22.882  25.934  1.00  0.00     0.350 C 
ATOM      5  O   UNL A   1      38.006  23.983  25.401  1.00  0.00    -0.245 OA
BRANCH   4   6
ATOM      6  C   UNL A   1      36.920  21.886  25.684  1.00  0.00     0.135 A 
ATOM      7  C   UNL A   1      38.127  19.806  24.705  1.00  0.00     0.068 C 
ATOM      8  C   UNL A   1      36.950  20.610  25.136  1.00  0.00     0.063 A 
ATOM      9  N   UNL A   1      35.700  20.006  25.008  1.00  0.00    -0.244 NA
ATOM     10  C   UNL A   1      34.749  20.799  25.452  1.00  0.00     0.113 A 
ATOM     11  S   UNL A   1      35.294  22.302  26.070  1.00  0.00    -0.110 S 
BRANCH  10  12
ATOM     12  C   UNL A   1      33.281  20.490  25.503  1.00  0.00     0.183 C 
BRANCH  12  13
ATOM     13  N   UNL A   1      32.813  19.920  24.254  1.00  0.00    -0.349 N 
ATOM     14  C   UNL A   1      32.603  18.615  23.926  1.00  0.00     0.226 C 
ATOM     15  H   UNL A   1      32.620  20.571  23.540  1.00  0.00     0.163 HD
ATOM     16  O   UNL A   1      32.090  18.358  22.837  1.00  0.00    -0.275 OA
BRANCH  14  17
ATOM     17  C   UNL A   1      33.001  17.537  24.911  1.00  0.00     0.109 C 
ATOM     18  C   UNL A   1      32.065  16.345  24.956  1.00  0.00     0.044 C 
ATOM     19  C   UNL A   1      34.337  16.870  24.593  1.00  0.00     0.127 C 
ATOM     20  C   UNL A   1      32.934  15.291  25.605  1.00  0.00     0.161 C 
ATOM     21  O   UNL A   1      34.293  15.583  25.249  1.00  0.00    -0.378 OA
ATOM     22  C   UNL A   1      34.613  16.614  23.113  1.00  0.00     0.039 C 
ENDBRANCH  14  17
ENDBRANCH  12  13
ENDBRANCH  10  12
ENDBRANCH   4   6
ENDBRANCH   3   4
ENDBRANCH   2   3
ENDBRANCH   1   2
BRANCH   1  23
ATOM     23  O   UNL A   1      42.124  21.474  25.366  1.00  0.00    -0.374 OA
BRANCH  23  24
ATOM     24  C   UNL A   1      43.382  20.908  25.738  1.00  0.00     0.202 C 
BRANCH  24  25
ATOM     25  C   UNL A   1      44.602  21.782  25.425  1.00  0.00     0.261 C 
BRANCH  25  26
ATOM     26  O   UNL A   1      44.688  22.896  26.334  1.00  0.00    -0.460 OA
BRANCH  26  27
ATOM     27  C   UNL A   1      44.561  24.115  25.757  1.00  0.00     0.338 C 
ATOM     28  O   UNL A   1      44.890  24.438  24.628  1.00  0.00    -0.246 OA
BRANCH  27  29
ATOM     29  C   UNL A   1      43.786  25.007  26.643  1.00  0.00     0.060 A 
ATOM     30  C   UNL A   1      44.202  26.340  26.734  1.00  0.00     0.016 A 
ATOM     31  C   UNL A   1      42.711  24.546  27.408  1.00  0.00     0.016 A 
ATOM     32  C   UNL A   1      43.577  27.207  27.629  1.00  0.00     0.010 A 
ATOM     33  C   UNL A   1      42.089  25.416  28.311  1.00  0.00     0.010 A 
ATOM     34  C   UNL A   1      42.542  26.740  28.448  1.00  0.00    -0.014 A 
BRANCH  34  35
ATOM     35  C   UNL A   1      42.030  27.603  29.541  1.00  0.00     0.031 A 
ATOM     36  C   UNL A   1      42.718  27.574  30.878  1.00  0.00     0.074 A 
ATOM     37  C   UNL A   1      40.986  28.425  29.337  1.00  0.00     0.049 A 
ATOM     38  N   UNL A   1      42.429  28.228  31.973  1.00  0.00    -0.248 NA
ATOM     39  C   UNL A   1      43.888  26.689  30.993  1.00  0.00     0.031 C 
ATOM     40  C   UNL A   1      40.256  28.570  28.079  1.00  0.00     0.029 A 
ATOM     41  N   UNL A   1      40.356  29.292  30.195  1.00  0.00    -0.354 N 
ATOM     42  C   UNL A   1      43.379  27.835  32.908  1.00  0.00     0.074 A 
ATOM     43  C   UNL A   1      44.234  26.863  32.261  1.00  0.00     0.031 C 
ATOM     44  C   UNL A   1      39.269  29.465  28.250  1.00  0.00     0.029 A 
ATOM     45  C   UNL A   1      39.282  29.936  29.634  1.00  0.00     0.049 A 
ATOM     46  H   UNL A   1      40.647  29.437  31.125  1.00  0.00     0.167 HD
ATOM     47  C   UNL A   1      43.531  28.252  34.188  1.00  0.00     0.037 A 
ATOM     48  C   UNL A   1      38.399  30.793  30.183  1.00  0.00     0.037 A 
ATOM     49  C   UNL A   1      42.682  29.217  34.834  1.00  0.00     0.049 A 
ATOM     50  C   UNL A   1      38.549  31.192  31.626  1.00  0.00     0.074 A 
ATOM     51  C   UNL A   1      42.767  29.715  36.122  1.00  0.00     0.029 A 
ATOM     52  N   UNL A   1      41.587  29.825  34.241  1.00  0.00    -0.354 N 
ATOM     53  N   UNL A   1      39.466  30.833  32.492  1.00  0.00    -0.248 NA
ATOM     54  C   UNL A   1      37.544  32.118  32.166  1.00  0.00     0.031 C 
ATOM     55  C   UNL A   1      41.698  30.595  36.322  1.00  0.00     0.029 A 
ATOM     56  C   UNL A   1      40.973  30.677  35.144  1.00  0.00     0.049 A 
ATOM     57  H   UNL A   1      41.289  29.674  33.314  1.00  0.00     0.167 HD
ATOM     58  C   UNL A   1      39.163  31.507  33.669  1.00  0.00     0.074 A 
ATOM     59  C   UNL A   1      37.984  32.305  33.403  1.00  0.00     0.031 C 
ATOM     60  C   UNL A   1      39.804  31.470  34.863  1.00  0.00     0.037 A 
BRANCH  47  61
ATOM     61  C   UNL A   1      44.653  27.650  34.978  1.00  0.00     0.057 A 
ATOM     62  C   UNL A   1      45.953  28.171  34.930  1.00  0.00     0.134 A 
ATOM     63  C   UNL A   1      44.426  26.554  35.820  1.00  0.00     0.134 A 
ATOM     64  F   UNL A   1      46.238  29.210  34.132  1.00  0.00    -0.206 F 
ATOM     65  C   UNL A   1      46.991  27.612  35.676  1.00  0.00     0.040 A 
ATOM     66  C   UNL A   1      45.451  26.000  36.588  1.00  0.00     0.040 A 
ATOM     67  F   UNL A   1      43.203  26.009  35.914  1.00  0.00    -0.206 F 
ATOM     68  C   UNL A   1      46.739  26.526  36.514  1.00  0.00     0.006 A 
ENDBRANCH  47  61
BRANCH  48  69
ATOM     69  C   UNL A   1      37.280  31.326  29.366  1.00  0.00     0.057 A 
ATOM     70  C   UNL A   1      37.326  32.615  28.825  1.00  0.00     0.134 A 
ATOM     71  C   UNL A   1      36.129  30.565  29.128  1.00  0.00     0.134 A 
ATOM     72  F   UNL A   1      38.392  33.399  29.040  1.00  0.00    -0.206 F 
ATOM     73  C   UNL A   1      36.262  33.136  28.088  1.00  0.00     0.040 A 
ATOM     74  C   UNL A   1      35.067  31.064  28.374  1.00  0.00     0.040 A 
ATOM     75  F   UNL A   1      36.025  29.322  29.621  1.00  0.00    -0.206 F 
ATOM     76  C   UNL A   1      35.129  32.357  27.856  1.00  0.00     0.006 A 
ENDBRANCH  48  69
BRANCH  60  77
ATOM     77  C   UNL A   1      39.266  32.338  35.961  1.00  0.00     0.057 A 
ATOM     78  C   UNL A   1      39.686  33.663  36.128  1.00  0.00     0.134 A 
ATOM     79  C   UNL A   1      38.284  31.855  36.835  1.00  0.00     0.134 A 
ATOM     80  F   UNL A   1      40.632  34.181  35.330  1.00  0.00    -0.206 F 
ATOM     81  C   UNL A   1      39.163  34.472  37.138  1.00  0.00     0.040 A 
ATOM     82  C   UNL A   1      37.736  32.660  37.834  1.00  0.00     0.040 A 
ATOM     83  F   UNL A   1      37.832  30.597  36.724  1.00  0.00    -0.206 F 
ATOM     84  C   UNL A   1      38.180  33.972  37.991  1.00  0.00     0.006 A 
ENDBRANCH  60  77
ENDBRANCH  34  35
ENDBRANCH  27  29
ENDBRANCH  26  27
ENDBRANCH  25  26
ENDBRANCH  24  25
ENDBRANCH  23  24
ENDBRANCH   1  23
TORSDOF 17
ENDMDL
