MODEL 1
REMARK VINA RESULT:     -10.7      0.000      0.000
REMARK SMILES O=C(C[C@H]1C[C@H]2CC[C@@H](C1)N2C(=O)NCCC1CC1)OCCOCCOC(=O)c1ccc(-c2c3nc(c(-c4c(F)cccc4F)c4ccc([nH]4)c(-c4c(F)cccc4F)c4nc(c(-c5c(F)cccc5F)c5ccc2[nH]5)C=C4)C=C3)cc1
REMARK SMILES IDX 21 1 20 2 2 3 1 4 3 5 4 6 5 7 10 8 6 9 9 10 7 11 11 12 8 13
REMARK SMILES IDX 12 14 13 15 14 16 15 18 16 19 17 20 18 21 19 22 22 23 23 24
REMARK SMILES IDX 24 25 25 26 26 27 27 28 28 29 29 30 30 31 82 32 31 33 81 34
REMARK SMILES IDX 32 35 33 36 34 37 75 38 35 39 80 40 74 41 76 42 36 43 79 44
REMARK SMILES IDX 73 45 72 46 37 48 63 49 46 50 62 51 47 52 50 53 61 54 77 55
REMARK SMILES IDX 48 56 49 57 60 59 78 60 51 61 38 62 39 63 44 64 40 65 41 66
REMARK SMILES IDX 43 67 45 68 42 69 64 70 65 71 70 72 66 73 67 74 69 75 71 76
REMARK SMILES IDX 68 77 52 78 53 79 58 80 54 81 55 82 57 83 59 84 56 85
REMARK H PARENT 14 17 76 47 50 58
REMARK Flexibility Score: inf
ROOT
ATOM      1  C   UNL A   1      39.733  21.081  26.193  1.00  0.00     0.261 C 
ENDROOT
BRANCH   1   2
ATOM      2  O   UNL A   1      38.557  21.725  25.639  1.00  0.00    -0.463 OA
BRANCH   2   3
ATOM      3  C   UNL A   1      37.500  21.338  24.900  1.00  0.00     0.306 C 
ATOM      4  O   UNL A   1      37.143  20.161  24.957  1.00  0.00    -0.252 OA
BRANCH   3   5
ATOM      5  C   UNL A   1      36.770  22.296  24.001  1.00  0.00     0.126 C 
BRANCH   5   6
ATOM      6  C   UNL A   1      35.716  23.257  24.577  1.00  0.00     0.004 C 
ATOM      7  C   UNL A   1      34.441  23.574  23.738  1.00  0.00     0.029 C 
ATOM      8  C   UNL A   1      35.350  22.955  26.021  1.00  0.00     0.029 C 
ATOM      9  C   UNL A   1      33.110  22.963  24.281  1.00  0.00     0.087 C 
ATOM     10  C   UNL A   1      34.067  22.109  26.191  1.00  0.00     0.087 C 
ATOM     11  C   UNL A   1      33.151  21.459  24.021  1.00  0.00     0.027 C 
ATOM     12  N   UNL A   1      33.072  23.044  25.750  1.00  0.00    -0.319 N 
ATOM     13  C   UNL A   1      33.726  20.899  25.317  1.00  0.00     0.027 C 
BRANCH  12  14
ATOM     14  C   UNL A   1      32.424  24.002  26.464  1.00  0.00     0.317 C 
ATOM     15  O   UNL A   1      31.526  23.712  27.256  1.00  0.00    -0.249 OA
ATOM     16  N   UNL A   1      32.717  25.323  26.324  1.00  0.00    -0.338 N 
ATOM     17  H   UNL A   1      32.155  25.886  26.905  1.00  0.00     0.165 HD
BRANCH  16  18
ATOM     18  C   UNL A   1      33.654  26.124  25.534  1.00  0.00     0.118 C 
BRANCH  18  19
ATOM     19  C   UNL A   1      33.102  27.464  25.058  1.00  0.00     0.025 C 
BRANCH  19  20
ATOM     20  C   UNL A   1      33.187  28.556  26.073  1.00  0.00    -0.009 C 
ATOM     21  C   UNL A   1      32.511  29.868  25.762  1.00  0.00     0.004 C 
ATOM     22  C   UNL A   1      31.953  28.972  26.830  1.00  0.00     0.004 C 
ENDBRANCH  19  20
ENDBRANCH  18  19
ENDBRANCH  16  18
ENDBRANCH  12  14
ENDBRANCH   5   6
ENDBRANCH   3   5
ENDBRANCH   2   3
ENDBRANCH   1   2
BRANCH   1  23
ATOM     23  C   UNL A   1      41.069  21.820  26.102  1.00  0.00     0.202 C 
BRANCH  23  24
ATOM     24  O   UNL A   1      42.295  21.094  26.120  1.00  0.00    -0.374 OA
BRANCH  24  25
ATOM     25  C   UNL A   1      43.527  21.794  26.107  1.00  0.00     0.202 C 
BRANCH  25  26
ATOM     26  C   UNL A   1      43.941  22.337  24.729  1.00  0.00     0.261 C 
BRANCH  26  27
ATOM     27  O   UNL A   1      43.444  23.651  24.419  1.00  0.00    -0.460 OA
BRANCH  27  28
ATOM     28  C   UNL A   1      44.153  24.674  24.958  1.00  0.00     0.338 C 
ATOM     29  O   UNL A   1      45.326  24.939  24.759  1.00  0.00    -0.246 OA
BRANCH  28  30
ATOM     30  C   UNL A   1      43.273  25.548  25.770  1.00  0.00     0.060 A 
ATOM     31  C   UNL A   1      43.738  26.833  26.078  1.00  0.00     0.016 A 
ATOM     32  C   UNL A   1      42.068  25.090  26.312  1.00  0.00     0.016 A 
ATOM     33  C   UNL A   1      43.047  27.629  26.991  1.00  0.00     0.010 A 
ATOM     34  C   UNL A   1      41.379  25.886  27.239  1.00  0.00     0.010 A 
ATOM     35  C   UNL A   1      41.895  27.137  27.622  1.00  0.00    -0.014 A 
BRANCH  35  36
ATOM     36  C   UNL A   1      41.378  27.850  28.818  1.00  0.00     0.031 A 
ATOM     37  C   UNL A   1      42.108  27.690  30.127  1.00  0.00     0.074 A 
ATOM     38  C   UNL A   1      40.335  28.696  28.729  1.00  0.00     0.049 A 
ATOM     39  N   UNL A   1      41.883  28.263  31.282  1.00  0.00    -0.248 NA
ATOM     40  C   UNL A   1      43.250  26.761  30.131  1.00  0.00     0.031 C 
ATOM     41  C   UNL A   1      39.564  28.962  27.517  1.00  0.00     0.029 A 
ATOM     42  N   UNL A   1      39.752  29.494  29.682  1.00  0.00    -0.354 N 
ATOM     43  C   UNL A   1      42.862  27.779  32.142  1.00  0.00     0.074 A 
ATOM     44  C   UNL A   1      43.655  26.831  31.390  1.00  0.00     0.031 C 
ATOM     45  C   UNL A   1      38.603  29.859  27.800  1.00  0.00     0.029 A 
ATOM     46  C   UNL A   1      38.682  30.217  29.216  1.00  0.00     0.049 A 
ATOM     47  H   UNL A   1      40.071  29.543  30.612  1.00  0.00     0.167 HD
ATOM     48  C   UNL A   1      43.094  28.106  33.437  1.00  0.00     0.037 A 
ATOM     49  C   UNL A   1      37.856  31.063  29.861  1.00  0.00     0.037 A 
ATOM     50  C   UNL A   1      42.299  29.037  34.192  1.00  0.00     0.049 A 
ATOM     51  C   UNL A   1      38.098  31.365  31.318  1.00  0.00     0.074 A 
ATOM     52  C   UNL A   1      42.444  29.424  35.513  1.00  0.00     0.029 A 
ATOM     53  N   UNL A   1      41.202  29.722  33.692  1.00  0.00    -0.354 N 
ATOM     54  N   UNL A   1      39.039  30.915  32.112  1.00  0.00    -0.248 NA
ATOM     55  C   UNL A   1      37.169  32.305  31.963  1.00  0.00     0.031 C 
ATOM     56  C   UNL A   1      41.410  30.314  35.823  1.00  0.00     0.029 A 
ATOM     57  C   UNL A   1      40.652  30.520  34.683  1.00  0.00     0.049 A 
ATOM     58  H   UNL A   1      40.866  29.654  32.770  1.00  0.00     0.167 HD
ATOM     59  C   UNL A   1      38.827  31.528  33.342  1.00  0.00     0.074 A 
ATOM     60  C   UNL A   1      37.684  32.403  33.180  1.00  0.00     0.031 C 
ATOM     61  C   UNL A   1      39.511  31.380  34.503  1.00  0.00     0.037 A 
BRANCH  48  62
ATOM     62  C   UNL A   1      44.254  27.438  34.117  1.00  0.00     0.057 A 
ATOM     63  C   UNL A   1      45.554  27.954  34.034  1.00  0.00     0.134 A 
ATOM     64  C   UNL A   1      44.067  26.284  34.888  1.00  0.00     0.134 A 
ATOM     65  F   UNL A   1      45.804  29.049  33.299  1.00  0.00    -0.206 F 
ATOM     66  C   UNL A   1      46.629  27.335  34.675  1.00  0.00     0.040 A 
ATOM     67  C   UNL A   1      45.130  25.670  35.553  1.00  0.00     0.040 A 
ATOM     68  F   UNL A   1      42.847  25.738  35.012  1.00  0.00    -0.206 F 
ATOM     69  C   UNL A   1      46.416  26.192  35.442  1.00  0.00     0.006 A 
ENDBRANCH  48  62
BRANCH  49  70
ATOM     70  C   UNL A   1      36.711  31.680  29.144  1.00  0.00     0.057 A 
ATOM     71  C   UNL A   1      36.732  33.019  28.739  1.00  0.00     0.134 A 
ATOM     72  C   UNL A   1      35.548  30.946  28.875  1.00  0.00     0.134 A 
ATOM     73  F   UNL A   1      37.807  33.782  28.987  1.00  0.00    -0.206 F 
ATOM     74  C   UNL A   1      35.634  33.614  28.113  1.00  0.00     0.040 A 
ATOM     75  C   UNL A   1      34.454  31.519  28.226  1.00  0.00     0.040 A 
ATOM     76  F   UNL A   1      35.462  29.657  29.236  1.00  0.00    -0.206 F 
ATOM     77  C   UNL A   1      34.492  32.860  27.851  1.00  0.00     0.006 A 
ENDBRANCH  49  70
BRANCH  61  78
ATOM     78  C   UNL A   1      39.049  32.197  35.676  1.00  0.00     0.057 A 
ATOM     79  C   UNL A   1      38.212  31.664  36.665  1.00  0.00     0.134 A 
ATOM     80  C   UNL A   1      39.458  33.528  35.825  1.00  0.00     0.134 A 
ATOM     81  F   UNL A   1      37.776  30.398  36.576  1.00  0.00    -0.206 F 
ATOM     82  C   UNL A   1      37.767  32.436  37.739  1.00  0.00     0.040 A 
ATOM     83  C   UNL A   1      39.044  34.302  36.909  1.00  0.00     0.040 A 
ATOM     84  F   UNL A   1      40.270  34.098  34.921  1.00  0.00    -0.206 F 
ATOM     85  C   UNL A   1      38.187  33.760  37.865  1.00  0.00     0.006 A 
ENDBRANCH  61  78
ENDBRANCH  35  36
ENDBRANCH  28  30
ENDBRANCH  27  28
ENDBRANCH  26  27
ENDBRANCH  25  26
ENDBRANCH  24  25
ENDBRANCH  23  24
ENDBRANCH   1  23
TORSDOF 19
ENDMDL
MODEL 2
REMARK VINA RESULT:     -10.7      1.298      3.140
REMARK SMILES O=C(C[C@H]1C[C@H]2CC[C@@H](C1)N2C(=O)NCCC1CC1)OCCOCCOC(=O)c1ccc(-c2c3nc(c(-c4c(F)cccc4F)c4ccc([nH]4)c(-c4c(F)cccc4F)c4nc(c(-c5c(F)cccc5F)c5ccc2[nH]5)C=C4)C=C3)cc1
REMARK SMILES IDX 21 1 20 2 2 3 1 4 3 5 4 6 5 7 10 8 6 9 9 10 7 11 11 12 8 13
REMARK SMILES IDX 12 14 13 15 14 16 15 18 16 19 17 20 18 21 19 22 22 23 23 24
REMARK SMILES IDX 24 25 25 26 26 27 27 28 28 29 29 30 30 31 82 32 31 33 81 34
REMARK SMILES IDX 32 35 33 36 34 37 75 38 35 39 80 40 74 41 76 42 36 43 79 44
REMARK SMILES IDX 73 45 72 46 37 48 63 49 46 50 62 51 47 52 50 53 61 54 77 55
REMARK SMILES IDX 48 56 49 57 60 59 78 60 51 61 38 62 39 63 44 64 40 65 41 66
REMARK SMILES IDX 43 67 45 68 42 69 64 70 65 71 70 72 66 73 67 74 69 75 71 76
REMARK SMILES IDX 68 77 52 78 53 79 58 80 54 81 55 82 57 83 59 84 56 85
REMARK H PARENT 14 17 76 47 50 58
REMARK Flexibility Score: inf
ROOT
ATOM      1  C   UNL A   1      40.061  21.471  26.855  1.00  0.00     0.261 C 
ENDROOT
BRANCH   1   2
ATOM      2  O   UNL A   1      39.525  22.596  26.112  1.00  0.00    -0.463 OA
BRANCH   2   3
ATOM      3  C   UNL A   1      38.610  23.557  26.337  1.00  0.00     0.306 C 
ATOM      4  O   UNL A   1      38.794  24.335  27.273  1.00  0.00    -0.252 OA
BRANCH   3   5
ATOM      5  C   UNL A   1      37.372  23.684  25.495  1.00  0.00     0.126 C 
BRANCH   5   6
ATOM      6  C   UNL A   1      36.006  23.231  26.041  1.00  0.00     0.004 C 
ATOM      7  C   UNL A   1      34.852  24.273  26.154  1.00  0.00     0.029 C 
ATOM      8  C   UNL A   1      35.507  21.937  25.418  1.00  0.00     0.029 C 
ATOM      9  C   UNL A   1      33.680  24.090  25.138  1.00  0.00     0.087 C 
ATOM     10  C   UNL A   1      34.509  22.133  24.253  1.00  0.00     0.087 C 
ATOM     11  C   UNL A   1      34.191  24.506  23.761  1.00  0.00     0.027 C 
ATOM     12  N   UNL A   1      33.377  22.660  24.960  1.00  0.00    -0.319 N 
ATOM     13  C   UNL A   1      34.678  23.192  23.160  1.00  0.00     0.027 C 
BRANCH  12  14
ATOM     14  C   UNL A   1      32.373  21.990  25.585  1.00  0.00     0.317 C 
ATOM     15  O   UNL A   1      31.693  22.529  26.461  1.00  0.00    -0.249 OA
ATOM     16  N   UNL A   1      32.085  20.693  25.294  1.00  0.00    -0.338 N 
ATOM     17  H   UNL A   1      31.337  20.354  25.838  1.00  0.00     0.165 HD
BRANCH  16  18
ATOM     18  C   UNL A   1      32.598  19.672  24.378  1.00  0.00     0.118 C 
BRANCH  18  19
ATOM     19  C   UNL A   1      32.917  18.332  25.035  1.00  0.00     0.025 C 
BRANCH  19  20
ATOM     20  C   UNL A   1      34.112  17.640  24.463  1.00  0.00    -0.009 C 
ATOM     21  C   UNL A   1      34.087  16.134  24.381  1.00  0.00     0.004 C 
ATOM     22  C   UNL A   1      34.010  16.955  23.126  1.00  0.00     0.004 C 
ENDBRANCH  19  20
ENDBRANCH  18  19
ENDBRANCH  16  18
ENDBRANCH  12  14
ENDBRANCH   5   6
ENDBRANCH   3   5
ENDBRANCH   2   3
ENDBRANCH   1   2
BRANCH   1  23
ATOM     23  C   UNL A   1      41.577  21.275  26.872  1.00  0.00     0.202 C 
BRANCH  23  24
ATOM     24  O   UNL A   1      42.320  21.304  25.657  1.00  0.00    -0.374 OA
BRANCH  24  25
ATOM     25  C   UNL A   1      43.710  21.029  25.676  1.00  0.00     0.202 C 
BRANCH  25  26
ATOM     26  C   UNL A   1      44.594  22.158  25.122  1.00  0.00     0.261 C 
BRANCH  26  27
ATOM     27  O   UNL A   1      44.952  23.173  26.075  1.00  0.00    -0.460 OA
BRANCH  27  28
ATOM     28  C   UNL A   1      44.943  24.442  25.594  1.00  0.00     0.338 C 
ATOM     29  O   UNL A   1      45.551  24.863  24.626  1.00  0.00    -0.246 OA
BRANCH  28  30
ATOM     30  C   UNL A   1      43.977  25.278  26.345  1.00  0.00     0.060 A 
ATOM     31  C   UNL A   1      44.297  26.629  26.535  1.00  0.00     0.016 A 
ATOM     32  C   UNL A   1      42.837  24.737  26.946  1.00  0.00     0.016 A 
ATOM     33  C   UNL A   1      43.528  27.418  27.389  1.00  0.00     0.010 A 
ATOM     34  C   UNL A   1      42.069  25.527  27.814  1.00  0.00     0.010 A 
ATOM     35  C   UNL A   1      42.444  26.857  28.081  1.00  0.00    -0.014 A 
BRANCH  35  36
ATOM     36  C   UNL A   1      41.860  27.609  29.220  1.00  0.00     0.031 A 
ATOM     37  C   UNL A   1      42.537  27.525  30.565  1.00  0.00     0.074 A 
ATOM     38  C   UNL A   1      40.803  28.423  29.051  1.00  0.00     0.049 A 
ATOM     39  N   UNL A   1      42.250  28.142  31.683  1.00  0.00    -0.248 NA
ATOM     40  C   UNL A   1      43.699  26.626  30.658  1.00  0.00     0.031 C 
ATOM     41  C   UNL A   1      40.078  28.616  27.797  1.00  0.00     0.029 A 
ATOM     42  N   UNL A   1      40.161  29.247  29.942  1.00  0.00    -0.354 N 
ATOM     43  C   UNL A   1      43.203  27.720  32.604  1.00  0.00     0.074 A 
ATOM     44  C   UNL A   1      44.049  26.761  31.928  1.00  0.00     0.031 C 
ATOM     45  C   UNL A   1      39.085  29.500  28.000  1.00  0.00     0.029 A 
ATOM     46  C   UNL A   1      39.096  29.922  29.400  1.00  0.00     0.049 A 
ATOM     47  H   UNL A   1      40.439  29.345  30.881  1.00  0.00     0.167 HD
ATOM     48  C   UNL A   1      43.372  28.109  33.891  1.00  0.00     0.037 A 
ATOM     49  C   UNL A   1      38.223  30.774  29.972  1.00  0.00     0.037 A 
ATOM     50  C   UNL A   1      42.523  29.052  34.570  1.00  0.00     0.049 A 
ATOM     51  C   UNL A   1      38.395  31.145  31.423  1.00  0.00     0.074 A 
ATOM     52  C   UNL A   1      42.602  29.500  35.878  1.00  0.00     0.029 A 
ATOM     53  N   UNL A   1      41.433  29.687  33.995  1.00  0.00    -0.354 N 
ATOM     54  N   UNL A   1      39.312  30.755  32.275  1.00  0.00    -0.248 NA
ATOM     55  C   UNL A   1      37.418  32.089  31.985  1.00  0.00     0.031 C 
ATOM     56  C   UNL A   1      41.536  30.377  36.104  1.00  0.00     0.029 A 
ATOM     57  C   UNL A   1      40.822  30.513  34.925  1.00  0.00     0.049 A 
ATOM     58  H   UNL A   1      41.138  29.570  33.064  1.00  0.00     0.167 HD
ATOM     59  C   UNL A   1      39.033  31.416  33.466  1.00  0.00     0.074 A 
ATOM     60  C   UNL A   1      37.879  32.253  33.217  1.00  0.00     0.031 C 
ATOM     61  C   UNL A   1      39.671  31.335  34.660  1.00  0.00     0.037 A 
BRANCH  48  62
ATOM     62  C   UNL A   1      44.517  27.501  34.648  1.00  0.00     0.057 A 
ATOM     63  C   UNL A   1      44.357  26.343  35.420  1.00  0.00     0.134 A 
ATOM     64  C   UNL A   1      45.799  28.061  34.582  1.00  0.00     0.134 A 
ATOM     65  F   UNL A   1      43.152  25.765  35.538  1.00  0.00    -0.206 F 
ATOM     66  C   UNL A   1      45.427  25.775  36.116  1.00  0.00     0.040 A 
ATOM     67  C   UNL A   1      46.880  27.489  35.254  1.00  0.00     0.040 A 
ATOM     68  F   UNL A   1      46.022  29.169  33.859  1.00  0.00    -0.206 F 
ATOM     69  C   UNL A   1      46.694  26.347  36.029  1.00  0.00     0.006 A 
ENDBRANCH  48  62
BRANCH  49  70
ATOM     70  C   UNL A   1      37.095  31.330  29.181  1.00  0.00     0.057 A 
ATOM     71  C   UNL A   1      37.113  32.643  28.699  1.00  0.00     0.134 A 
ATOM     72  C   UNL A   1      35.953  30.563  28.916  1.00  0.00     0.134 A 
ATOM     73  F   UNL A   1      38.168  33.436  28.938  1.00  0.00    -0.206 F 
ATOM     74  C   UNL A   1      36.029  33.183  28.001  1.00  0.00     0.040 A 
ATOM     75  C   UNL A   1      34.874  31.080  28.198  1.00  0.00     0.040 A 
ATOM     76  F   UNL A   1      35.872  29.297  29.349  1.00  0.00    -0.206 F 
ATOM     77  C   UNL A   1      34.907  32.397  27.745  1.00  0.00     0.006 A 
ENDBRANCH  49  70
BRANCH  61  78
ATOM     78  C   UNL A   1      39.141  32.191  35.775  1.00  0.00     0.057 A 
ATOM     79  C   UNL A   1      38.227  31.698  36.715  1.00  0.00     0.134 A 
ATOM     80  C   UNL A   1      39.559  33.520  35.917  1.00  0.00     0.134 A 
ATOM     81  F   UNL A   1      37.778  30.436  36.630  1.00  0.00    -0.206 F 
ATOM     82  C   UNL A   1      37.720  32.506  37.735  1.00  0.00     0.040 A 
ATOM     83  C   UNL A   1      39.082  34.330  36.948  1.00  0.00     0.040 A 
ATOM     84  F   UNL A   1      40.442  34.053  35.058  1.00  0.00    -0.206 F 
ATOM     85  C   UNL A   1      38.151  33.826  37.854  1.00  0.00     0.006 A 
ENDBRANCH  61  78
ENDBRANCH  35  36
ENDBRANCH  28  30
ENDBRANCH  27  28
ENDBRANCH  26  27
ENDBRANCH  25  26
ENDBRANCH  24  25
ENDBRANCH  23  24
ENDBRANCH   1  23
TORSDOF 19
ENDMDL
MODEL 3
REMARK VINA RESULT:     -10.6      4.467      9.888
REMARK SMILES O=C(C[C@H]1C[C@H]2CC[C@@H](C1)N2C(=O)NCCC1CC1)OCCOCCOC(=O)c1ccc(-c2c3nc(c(-c4c(F)cccc4F)c4ccc([nH]4)c(-c4c(F)cccc4F)c4nc(c(-c5c(F)cccc5F)c5ccc2[nH]5)C=C4)C=C3)cc1
REMARK SMILES IDX 21 1 20 2 2 3 1 4 3 5 4 6 5 7 10 8 6 9 9 10 7 11 11 12 8 13
REMARK SMILES IDX 12 14 13 15 14 16 15 18 16 19 17 20 18 21 19 22 22 23 23 24
REMARK SMILES IDX 24 25 25 26 26 27 27 28 28 29 29 30 30 31 82 32 31 33 81 34
REMARK SMILES IDX 32 35 33 36 34 37 75 38 35 39 80 40 74 41 76 42 36 43 79 44
REMARK SMILES IDX 73 45 72 46 37 48 63 49 46 50 62 51 47 52 50 53 61 54 77 55
REMARK SMILES IDX 48 56 49 57 60 59 78 60 51 61 38 62 39 63 44 64 40 65 41 66
REMARK SMILES IDX 43 67 45 68 42 69 64 70 65 71 70 72 66 73 67 74 69 75 71 76
REMARK SMILES IDX 68 77 52 78 53 79 58 80 54 81 55 82 57 83 59 84 56 85
REMARK H PARENT 14 17 76 47 50 58
REMARK Flexibility Score: inf
ROOT
ATOM      1  C   UNL A   1      34.403  32.093  28.291  1.00  0.00     0.261 C 
ENDROOT
BRANCH   1   2
ATOM      2  O   UNL A   1      33.834  31.242  27.263  1.00  0.00    -0.463 OA
BRANCH   2   3
ATOM      3  C   UNL A   1      32.595  30.858  26.903  1.00  0.00     0.306 C 
ATOM      4  O   UNL A   1      31.708  31.710  26.850  1.00  0.00    -0.252 OA
BRANCH   3   5
ATOM      5  C   UNL A   1      32.271  29.424  26.588  1.00  0.00     0.126 C 
BRANCH   5   6
ATOM      6  C   UNL A   1      33.014  28.685  25.462  1.00  0.00     0.004 C 
ATOM      7  C   UNL A   1      33.799  27.382  25.799  1.00  0.00     0.029 C 
ATOM      8  C   UNL A   1      32.175  28.500  24.207  1.00  0.00     0.029 C 
ATOM      9  C   UNL A   1      33.173  26.060  25.253  1.00  0.00     0.087 C 
ATOM     10  C   UNL A   1      31.489  27.119  24.095  1.00  0.00     0.087 C 
ATOM     11  C   UNL A   1      31.925  25.761  26.080  1.00  0.00     0.027 C 
ATOM     12  N   UNL A   1      32.631  26.271  23.901  1.00  0.00    -0.319 N 
ATOM     13  C   UNL A   1      30.809  26.411  25.270  1.00  0.00     0.027 C 
BRANCH  12  14
ATOM     14  C   UNL A   1      33.266  25.947  22.744  1.00  0.00     0.317 C 
ATOM     15  O   UNL A   1      33.690  26.817  21.981  1.00  0.00    -0.249 OA
ATOM     16  N   UNL A   1      33.445  24.654  22.361  1.00  0.00    -0.338 N 
ATOM     17  H   UNL A   1      33.915  24.589  21.498  1.00  0.00     0.165 HD
BRANCH  16  18
ATOM     18  C   UNL A   1      33.120  23.332  22.903  1.00  0.00     0.118 C 
BRANCH  18  19
ATOM     19  C   UNL A   1      34.300  22.593  23.526  1.00  0.00     0.025 C 
BRANCH  19  20
ATOM     20  C   UNL A   1      35.556  23.399  23.602  1.00  0.00    -0.009 C 
ATOM     21  C   UNL A   1      36.175  23.620  24.959  1.00  0.00     0.004 C 
ATOM     22  C   UNL A   1      36.854  22.727  23.963  1.00  0.00     0.004 C 
ENDBRANCH  19  20
ENDBRANCH  18  19
ENDBRANCH  16  18
ENDBRANCH  12  14
ENDBRANCH   5   6
ENDBRANCH   3   5
ENDBRANCH   2   3
ENDBRANCH   1   2
BRANCH   1  23
ATOM     23  C   UNL A   1      33.797  33.482  28.493  1.00  0.00     0.202 C 
BRANCH  23  24
ATOM     24  O   UNL A   1      33.540  33.971  29.806  1.00  0.00    -0.374 OA
BRANCH  24  25
ATOM     25  C   UNL A   1      34.613  34.431  30.609  1.00  0.00     0.202 C 
BRANCH  25  26
ATOM     26  C   UNL A   1      34.614  33.894  32.049  1.00  0.00     0.261 C 
BRANCH  26  27
ATOM     27  O   UNL A   1      34.867  32.483  32.171  1.00  0.00    -0.460 OA
BRANCH  27  28
ATOM     28  C   UNL A   1      35.956  32.158  32.912  1.00  0.00     0.338 C 
ATOM     29  O   UNL A   1      36.167  32.452  34.076  1.00  0.00    -0.246 OA
BRANCH  28  30
ATOM     30  C   UNL A   1      36.858  31.263  32.149  1.00  0.00     0.060 A 
ATOM     31  C   UNL A   1      37.995  30.774  32.804  1.00  0.00     0.016 A 
ATOM     32  C   UNL A   1      36.661  30.992  30.792  1.00  0.00     0.016 A 
ATOM     33  C   UNL A   1      38.976  30.088  32.088  1.00  0.00     0.010 A 
ATOM     34  C   UNL A   1      37.652  30.312  30.069  1.00  0.00     0.010 A 
ATOM     35  C   UNL A   1      38.838  29.904  30.705  1.00  0.00    -0.014 A 
BRANCH  35  36
ATOM     36  C   UNL A   1      40.027  29.481  29.921  1.00  0.00     0.031 A 
ATOM     37  C   UNL A   1      41.149  30.468  29.719  1.00  0.00     0.074 A 
ATOM     38  C   UNL A   1      40.153  28.220  29.470  1.00  0.00     0.049 A 
ATOM     39  N   UNL A   1      42.307  30.305  29.130  1.00  0.00    -0.248 NA
ATOM     40  C   UNL A   1      40.937  31.820  30.261  1.00  0.00     0.031 C 
ATOM     41  C   UNL A   1      39.155  27.164  29.625  1.00  0.00     0.029 A 
ATOM     42  N   UNL A   1      41.183  27.614  28.796  1.00  0.00    -0.354 N 
ATOM     43  C   UNL A   1      42.965  31.524  29.246  1.00  0.00     0.074 A 
ATOM     44  C   UNL A   1      42.062  32.431  29.920  1.00  0.00     0.031 C 
ATOM     45  C   UNL A   1      39.620  26.038  29.056  1.00  0.00     0.029 A 
ATOM     46  C   UNL A   1      40.940  26.299  28.484  1.00  0.00     0.049 A 
ATOM     47  H   UNL A   1      42.018  28.078  28.559  1.00  0.00     0.167 HD
ATOM     48  C   UNL A   1      44.216  31.856  28.845  1.00  0.00     0.037 A 
ATOM     49  C   UNL A   1      41.694  25.411  27.806  1.00  0.00     0.037 A 
ATOM     50  C   UNL A   1      45.112  30.961  28.161  1.00  0.00     0.049 A 
ATOM     51  C   UNL A   1      43.058  25.822  27.316  1.00  0.00     0.074 A 
ATOM     52  C   UNL A   1      46.394  31.206  27.700  1.00  0.00     0.029 A 
ATOM     53  N   UNL A   1      44.814  29.647  27.834  1.00  0.00    -0.354 N 
ATOM     54  N   UNL A   1      43.676  26.972  27.450  1.00  0.00    -0.248 NA
ATOM     55  C   UNL A   1      43.836  24.806  26.593  1.00  0.00     0.031 C 
ATOM     56  C   UNL A   1      46.856  30.052  27.059  1.00  0.00     0.029 A 
ATOM     57  C   UNL A   1      45.882  29.072  27.164  1.00  0.00     0.049 A 
ATOM     58  H   UNL A   1      43.969  29.189  28.047  1.00  0.00     0.167 HD
ATOM     59  C   UNL A   1      44.918  26.811  26.845  1.00  0.00     0.074 A 
ATOM     60  C   UNL A   1      44.975  25.445  26.369  1.00  0.00     0.031 C 
ATOM     61  C   UNL A   1      45.919  27.713  26.693  1.00  0.00     0.037 A 
BRANCH  48  62
ATOM     62  C   UNL A   1      44.681  33.254  29.130  1.00  0.00     0.057 A 
ATOM     63  C   UNL A   1      44.462  34.302  28.226  1.00  0.00     0.134 A 
ATOM     64  C   UNL A   1      45.329  33.564  30.333  1.00  0.00     0.134 A 
ATOM     65  F   UNL A   1      43.862  34.070  27.049  1.00  0.00    -0.206 F 
ATOM     66  C   UNL A   1      44.889  35.604  28.499  1.00  0.00     0.040 A 
ATOM     67  C   UNL A   1      45.738  34.866  30.627  1.00  0.00     0.040 A 
ATOM     68  F   UNL A   1      45.567  32.608  31.244  1.00  0.00    -0.206 F 
ATOM     69  C   UNL A   1      45.524  35.889  29.706  1.00  0.00     0.006 A 
ENDBRANCH  48  62
BRANCH  49  70
ATOM     70  C   UNL A   1      41.175  24.046  27.533  1.00  0.00     0.057 A 
ATOM     71  C   UNL A   1      40.186  23.815  26.572  1.00  0.00     0.134 A 
ATOM     72  C   UNL A   1      41.638  22.940  28.258  1.00  0.00     0.134 A 
ATOM     73  F   UNL A   1      39.684  24.835  25.860  1.00  0.00    -0.206 F 
ATOM     74  C   UNL A   1      39.659  22.539  26.354  1.00  0.00     0.040 A 
ATOM     75  C   UNL A   1      41.141  21.657  28.033  1.00  0.00     0.040 A 
ATOM     76  F   UNL A   1      42.587  23.094  29.194  1.00  0.00    -0.206 F 
ATOM     77  C   UNL A   1      40.141  21.455  27.084  1.00  0.00     0.006 A 
ENDBRANCH  49  70
BRANCH  61  78
ATOM     78  C   UNL A   1      47.164  27.238  26.000  1.00  0.00     0.057 A 
ATOM     79  C   UNL A   1      48.211  26.622  26.699  1.00  0.00     0.134 A 
ATOM     80  C   UNL A   1      47.313  27.386  24.615  1.00  0.00     0.134 A 
ATOM     81  F   UNL A   1      48.136  26.459  28.029  1.00  0.00    -0.206 F 
ATOM     82  C   UNL A   1      49.375  26.205  26.052  1.00  0.00     0.040 A 
ATOM     83  C   UNL A   1      48.460  26.948  23.953  1.00  0.00     0.040 A 
ATOM     84  F   UNL A   1      46.344  27.956  23.882  1.00  0.00    -0.206 F 
ATOM     85  C   UNL A   1      49.500  26.365  24.674  1.00  0.00     0.006 A 
ENDBRANCH  61  78
ENDBRANCH  35  36
ENDBRANCH  28  30
ENDBRANCH  27  28
ENDBRANCH  26  27
ENDBRANCH  25  26
ENDBRANCH  24  25
ENDBRANCH  23  24
ENDBRANCH   1  23
TORSDOF 19
ENDMDL
