MODEL 1
REMARK VINA RESULT:      -9.2      0.000      0.000
REMARK SMILES O=C(OCCOCCOC(=O)c1cccc(Nc2ccnc3ccc(Cl)cc23)c1)c1ccc(-c2c3nc(c(-c4c(F)cccc4F)c4ccc([nH]4)c(-c4c(F)cccc4F)c4nc(c(-c5c(F)cccc5F)c5ccc2[nH]5)C=C4)C=C3)cc1
REMARK SMILES IDX 6 1 5 2 4 3 3 4 2 5 1 6 30 7 31 8 83 9 32 10 82 11 33 12
REMARK SMILES IDX 34 13 35 14 76 15 36 16 81 17 75 18 77 19 37 20 80 21 74 22
REMARK SMILES IDX 73 23 38 25 64 26 47 27 63 28 48 29 51 30 62 31 78 32 49 33
REMARK SMILES IDX 50 34 61 36 79 37 52 38 39 39 40 40 45 41 41 42 42 43 44 44
REMARK SMILES IDX 46 45 43 46 65 47 66 48 71 49 67 50 68 51 70 52 72 53 69 54
REMARK SMILES IDX 53 55 54 56 59 57 55 58 56 59 58 60 60 61 57 62 7 63 8 64
REMARK SMILES IDX 9 65 10 66 11 67 12 68 13 69 29 70 14 71 16 72 15 73 17 74
REMARK SMILES IDX 18 76 19 77 28 78 20 79 22 80 27 81 21 82 23 83 25 84 24 85
REMARK SMILES IDX 26 86
REMARK H PARENT 77 24 51 35 17 75
REMARK Flexibility Score: inf
ROOT
ATOM      1  O   UNL A   1      45.050  21.037  24.472  1.00  0.00    -0.374 OA
ENDROOT
BRANCH   1   2
ATOM      2  C   UNL A   1      45.048  19.761  25.121  1.00  0.00     0.202 C 
BRANCH   2   3
ATOM      3  C   UNL A   1      43.950  18.803  24.654  1.00  0.00     0.261 C 
BRANCH   3   4
ATOM      4  O   UNL A   1      42.933  18.678  25.659  1.00  0.00    -0.460 OA
BRANCH   4   5
ATOM      5  C   UNL A   1      41.902  19.521  25.898  1.00  0.00     0.338 C 
ATOM      6  O   UNL A   1      40.759  19.152  25.637  1.00  0.00    -0.246 OA
BRANCH   5   7
ATOM      7  C   UNL A   1      42.083  20.886  26.476  1.00  0.00     0.060 A 
ATOM      8  C   UNL A   1      42.046  22.068  25.735  1.00  0.00     0.016 A 
ATOM      9  C   UNL A   1      42.207  20.981  27.872  1.00  0.00     0.016 A 
ATOM     10  C   UNL A   1      42.232  23.305  26.342  1.00  0.00     0.010 A 
ATOM     11  C   UNL A   1      42.330  22.226  28.497  1.00  0.00     0.010 A 
ATOM     12  C   UNL A   1      42.370  23.393  27.726  1.00  0.00    -0.014 A 
BRANCH  12  13
ATOM     13  C   UNL A   1      42.631  24.716  28.327  1.00  0.00     0.031 A 
ATOM     14  C   UNL A   1      44.040  25.091  28.666  1.00  0.00     0.074 A 
ATOM     15  C   UNL A   1      41.623  25.597  28.454  1.00  0.00     0.049 A 
ATOM     16  N   UNL A   1      44.499  26.194  29.194  1.00  0.00    -0.248 NA
ATOM     17  C   UNL A   1      45.075  24.092  28.359  1.00  0.00     0.031 C 
ATOM     18  C   UNL A   1      40.233  25.351  28.060  1.00  0.00     0.029 A 
ATOM     19  N   UNL A   1      41.616  26.888  28.913  1.00  0.00    -0.354 N 
ATOM     20  C   UNL A   1      45.871  26.012  29.307  1.00  0.00     0.074 A 
ATOM     21  C   UNL A   1      46.171  24.693  28.797  1.00  0.00     0.031 C 
ATOM     22  C   UNL A   1      39.518  26.471  28.256  1.00  0.00     0.029 A 
ATOM     23  C   UNL A   1      40.383  27.489  28.842  1.00  0.00     0.049 A 
ATOM     24  H   UNL A   1      42.418  27.341  29.261  1.00  0.00     0.167 HD
ATOM     25  C   UNL A   1      46.793  26.870  29.801  1.00  0.00     0.037 A 
ATOM     26  C   UNL A   1      40.001  28.722  29.224  1.00  0.00     0.037 A 
ATOM     27  C   UNL A   1      46.472  28.179  30.303  1.00  0.00     0.049 A 
ATOM     28  C   UNL A   1      41.034  29.634  29.825  1.00  0.00     0.074 A 
ATOM     29  C   UNL A   1      47.308  29.114  30.886  1.00  0.00     0.029 A 
ATOM     30  N   UNL A   1      45.200  28.735  30.274  1.00  0.00    -0.354 N 
ATOM     31  N   UNL A   1      42.320  29.431  29.985  1.00  0.00    -0.248 NA
ATOM     32  C   UNL A   1      40.562  30.934  30.314  1.00  0.00     0.031 C 
ATOM     33  C   UNL A   1      46.532  30.226  31.237  1.00  0.00     0.029 A 
ATOM     34  C   UNL A   1      45.223  29.999  30.839  1.00  0.00     0.049 A 
ATOM     35  H   UNL A   1      44.400  28.297  29.907  1.00  0.00     0.167 HD
ATOM     36  C   UNL A   1      42.817  30.585  30.576  1.00  0.00     0.074 A 
ATOM     37  C   UNL A   1      41.693  31.488  30.731  1.00  0.00     0.031 C 
ATOM     38  C   UNL A   1      44.084  30.872  30.962  1.00  0.00     0.037 A 
BRANCH  25  39
ATOM     39  C   UNL A   1      48.204  26.371  29.878  1.00  0.00     0.057 A 
ATOM     40  C   UNL A   1      48.747  25.846  31.059  1.00  0.00     0.134 A 
ATOM     41  C   UNL A   1      49.049  26.472  28.766  1.00  0.00     0.134 A 
ATOM     42  F   UNL A   1      47.998  25.752  32.168  1.00  0.00    -0.206 F 
ATOM     43  C   UNL A   1      50.090  25.470  31.139  1.00  0.00     0.040 A 
ATOM     44  C   UNL A   1      50.387  26.079  28.829  1.00  0.00     0.040 A 
ATOM     45  F   UNL A   1      48.595  26.972  27.608  1.00  0.00    -0.206 F 
ATOM     46  C   UNL A   1      50.913  25.586  30.021  1.00  0.00     0.006 A 
ENDBRANCH  25  39
BRANCH  26  47
ATOM     47  C   UNL A   1      38.589  29.154  29.059  1.00  0.00     0.057 A 
ATOM     48  C   UNL A   1      38.107  29.606  27.825  1.00  0.00     0.134 A 
ATOM     49  C   UNL A   1      37.687  29.126  30.130  1.00  0.00     0.134 A 
ATOM     50  F   UNL A   1      38.926  29.676  26.766  1.00  0.00    -0.206 F 
ATOM     51  C   UNL A   1      36.784  30.021  27.665  1.00  0.00     0.040 A 
ATOM     52  C   UNL A   1      36.355  29.516  29.978  1.00  0.00     0.040 A 
ATOM     53  F   UNL A   1      38.084  28.705  31.340  1.00  0.00    -0.206 F 
ATOM     54  C   UNL A   1      35.902  29.970  28.742  1.00  0.00     0.006 A 
ENDBRANCH  26  47
BRANCH  38  55
ATOM     55  C   UNL A   1      44.317  32.229  31.554  1.00  0.00     0.057 A 
ATOM     56  C   UNL A   1      44.640  33.333  30.758  1.00  0.00     0.134 A 
ATOM     57  C   UNL A   1      44.177  32.435  32.931  1.00  0.00     0.134 A 
ATOM     58  F   UNL A   1      44.800  33.193  29.432  1.00  0.00    -0.206 F 
ATOM     59  C   UNL A   1      44.835  34.597  31.316  1.00  0.00     0.040 A 
ATOM     60  C   UNL A   1      44.348  33.697  33.498  1.00  0.00     0.040 A 
ATOM     61  F   UNL A   1      43.862  31.414  33.744  1.00  0.00    -0.206 F 
ATOM     62  C   UNL A   1      44.684  34.781  32.689  1.00  0.00     0.006 A 
ENDBRANCH  38  55
ENDBRANCH  12  13
ENDBRANCH   5   7
ENDBRANCH   4   5
ENDBRANCH   3   4
ENDBRANCH   2   3
ENDBRANCH   1   2
BRANCH   1  63
ATOM     63  C   UNL A   1      45.655  22.094  25.234  1.00  0.00     0.202 C 
BRANCH  63  64
ATOM     64  C   UNL A   1      45.812  23.341  24.354  1.00  0.00     0.261 C 
BRANCH  64  65
ATOM     65  O   UNL A   1      45.148  24.435  25.014  1.00  0.00    -0.460 OA
BRANCH  65  66
ATOM     66  C   UNL A   1      45.869  25.586  25.089  1.00  0.00     0.338 C 
ATOM     67  O   UNL A   1      47.011  25.780  24.743  1.00  0.00    -0.246 OA
BRANCH  66  68
ATOM     68  C   UNL A   1      44.884  26.649  25.364  1.00  0.00     0.062 A 
ATOM     69  C   UNL A   1      43.577  26.394  24.943  1.00  0.00     0.016 A 
ATOM     70  C   UNL A   1      45.190  27.775  26.134  1.00  0.00     0.041 A 
ATOM     71  C   UNL A   1      42.541  27.198  25.395  1.00  0.00     0.003 A 
ATOM     72  C   UNL A   1      44.155  28.621  26.545  1.00  0.00     0.039 A 
ATOM     73  C   UNL A   1      42.829  28.286  26.213  1.00  0.00     0.026 A 
BRANCH  72  74
ATOM     74  N   UNL A   1      44.423  29.742  27.349  1.00  0.00    -0.355 N 
ATOM     75  H   UNL A   1      44.245  29.645  28.313  1.00  0.00     0.167 HD
BRANCH  74  76
ATOM     76  C   UNL A   1      44.921  30.993  26.923  1.00  0.00     0.050 A 
ATOM     77  C   UNL A   1      44.043  31.880  26.294  1.00  0.00     0.047 A 
ATOM     78  C   UNL A   1      46.287  31.344  27.040  1.00  0.00     0.025 A 
ATOM     79  C   UNL A   1      44.527  33.090  25.849  1.00  0.00     0.114 A 
ATOM     80  C   UNL A   1      46.670  32.618  26.554  1.00  0.00     0.072 A 
ATOM     81  C   UNL A   1      47.283  30.488  27.567  1.00  0.00     0.033 A 
ATOM     82  N   UNL A   1      45.811  33.473  25.980  1.00  0.00    -0.256 NA
ATOM     83  C   UNL A   1      48.000  33.004  26.649  1.00  0.00     0.030 A 
ATOM     84  C   UNL A   1      48.613  30.897  27.627  1.00  0.00     0.041 A 
ATOM     85  C   UNL A   1      48.976  32.160  27.181  1.00  0.00     0.023 A 
ATOM     86  Cl  UNL A   1      49.816  29.831  28.242  1.00  0.00    -0.084 Cl
ENDBRANCH  74  76
ENDBRANCH  72  74
ENDBRANCH  66  68
ENDBRANCH  65  66
ENDBRANCH  64  65
ENDBRANCH  63  64
ENDBRANCH   1  63
TORSDOF 16
ENDMDL
MODEL 2
REMARK VINA RESULT:      -8.7      4.911      8.033
REMARK SMILES O=C(OCCOCCOC(=O)c1cccc(Nc2ccnc3ccc(Cl)cc23)c1)c1ccc(-c2c3nc(c(-c4c(F)cccc4F)c4ccc([nH]4)c(-c4c(F)cccc4F)c4nc(c(-c5c(F)cccc5F)c5ccc2[nH]5)C=C4)C=C3)cc1
REMARK SMILES IDX 6 1 5 2 4 3 3 4 2 5 1 6 30 7 31 8 83 9 32 10 82 11 33 12
REMARK SMILES IDX 34 13 35 14 76 15 36 16 81 17 75 18 77 19 37 20 80 21 74 22
REMARK SMILES IDX 73 23 38 25 64 26 47 27 63 28 48 29 51 30 62 31 78 32 49 33
REMARK SMILES IDX 50 34 61 36 79 37 52 38 39 39 40 40 45 41 41 42 42 43 44 44
REMARK SMILES IDX 46 45 43 46 65 47 66 48 71 49 67 50 68 51 70 52 72 53 69 54
REMARK SMILES IDX 53 55 54 56 59 57 55 58 56 59 58 60 60 61 57 62 7 63 8 64
REMARK SMILES IDX 9 65 10 66 11 67 12 68 13 69 29 70 14 71 16 72 15 73 17 74
REMARK SMILES IDX 18 76 19 77 28 78 20 79 22 80 27 81 21 82 23 83 25 84 24 85
REMARK SMILES IDX 26 86
REMARK H PARENT 77 24 51 35 17 75
REMARK Flexibility Score: inf
ROOT
ATOM      1  O   UNL A   1      43.323  20.424  24.842  1.00  0.00    -0.374 OA
ENDROOT
BRANCH   1   2
ATOM      2  C   UNL A   1      44.457  21.283  25.013  1.00  0.00     0.202 C 
BRANCH   2   3
ATOM      3  C   UNL A   1      44.522  22.461  24.039  1.00  0.00     0.261 C 
BRANCH   3   4
ATOM      4  O   UNL A   1      43.869  23.611  24.599  1.00  0.00    -0.460 OA
BRANCH   4   5
ATOM      5  C   UNL A   1      44.449  24.733  25.085  1.00  0.00     0.338 C 
ATOM      6  O   UNL A   1      45.516  25.108  24.603  1.00  0.00    -0.246 OA
BRANCH   5   7
ATOM      7  C   UNL A   1      43.848  25.551  26.180  1.00  0.00     0.060 A 
ATOM      8  C   UNL A   1      44.054  26.921  26.345  1.00  0.00     0.016 A 
ATOM      9  C   UNL A   1      42.944  24.907  27.042  1.00  0.00     0.016 A 
ATOM     10  C   UNL A   1      43.467  27.617  27.396  1.00  0.00     0.010 A 
ATOM     11  C   UNL A   1      42.300  25.614  28.062  1.00  0.00     0.010 A 
ATOM     12  C   UNL A   1      42.583  26.970  28.258  1.00  0.00    -0.014 A 
BRANCH  12  13
ATOM     13  C   UNL A   1      42.030  27.725  29.400  1.00  0.00     0.031 A 
ATOM     14  C   UNL A   1      42.798  27.758  30.685  1.00  0.00     0.074 A 
ATOM     15  C   UNL A   1      40.914  28.456  29.234  1.00  0.00     0.049 A 
ATOM     16  N   UNL A   1      42.508  28.356  31.809  1.00  0.00    -0.248 NA
ATOM     17  C   UNL A   1      44.074  27.025  30.703  1.00  0.00     0.031 C 
ATOM     18  C   UNL A   1      40.151  28.560  27.987  1.00  0.00     0.029 A 
ATOM     19  N   UNL A   1      40.248  29.280  30.102  1.00  0.00    -0.354 N 
ATOM     20  C   UNL A   1      43.548  28.051  32.675  1.00  0.00     0.074 A 
ATOM     21  C   UNL A   1      44.477  27.212  31.951  1.00  0.00     0.031 C 
ATOM     22  C   UNL A   1      39.146  29.433  28.161  1.00  0.00     0.029 A 
ATOM     23  C   UNL A   1      39.158  29.902  29.542  1.00  0.00     0.049 A 
ATOM     24  H   UNL A   1      40.523  29.414  31.038  1.00  0.00     0.167 HD
ATOM     25  C   UNL A   1      43.707  28.433  33.964  1.00  0.00     0.037 A 
ATOM     26  C   UNL A   1      38.267  30.745  30.096  1.00  0.00     0.037 A 
ATOM     27  C   UNL A   1      42.770  29.270  34.665  1.00  0.00     0.049 A 
ATOM     28  C   UNL A   1      38.432  31.106  31.545  1.00  0.00     0.074 A 
ATOM     29  C   UNL A   1      42.788  29.673  35.987  1.00  0.00     0.029 A 
ATOM     30  N   UNL A   1      41.642  29.833  34.085  1.00  0.00    -0.354 N 
ATOM     31  N   UNL A   1      39.388  30.764  32.377  1.00  0.00    -0.248 NA
ATOM     32  C   UNL A   1      37.391  31.952  32.138  1.00  0.00     0.031 C 
ATOM     33  C   UNL A   1      41.651  30.458  36.215  1.00  0.00     0.029 A 
ATOM     34  C   UNL A   1      40.947  30.575  35.025  1.00  0.00     0.049 A 
ATOM     35  H   UNL A   1      41.375  29.723  33.145  1.00  0.00     0.167 HD
ATOM     36  C   UNL A   1      39.074  31.367  33.587  1.00  0.00     0.074 A 
ATOM     37  C   UNL A   1      37.846  32.109  33.374  1.00  0.00     0.031 C 
ATOM     38  C   UNL A   1      39.734  31.310  34.769  1.00  0.00     0.037 A 
BRANCH  25  39
ATOM     39  C   UNL A   1      44.896  27.881  34.688  1.00  0.00     0.057 A 
ATOM     40  C   UNL A   1      44.850  26.663  35.380  1.00  0.00     0.134 A 
ATOM     41  C   UNL A   1      46.091  28.611  34.742  1.00  0.00     0.134 A 
ATOM     42  F   UNL A   1      43.726  25.932  35.394  1.00  0.00    -0.206 F 
ATOM     43  C   UNL A   1      45.940  26.208  36.126  1.00  0.00     0.040 A 
ATOM     44  C   UNL A   1      47.193  28.154  35.467  1.00  0.00     0.040 A 
ATOM     45  F   UNL A   1      46.199  29.788  34.108  1.00  0.00    -0.206 F 
ATOM     46  C   UNL A   1      47.115  26.954  36.170  1.00  0.00     0.006 A 
ENDBRANCH  25  39
BRANCH  26  47
ATOM     47  C   UNL A   1      37.147  31.289  29.286  1.00  0.00     0.057 A 
ATOM     48  C   UNL A   1      37.183  32.594  28.780  1.00  0.00     0.134 A 
ATOM     49  C   UNL A   1      36.012  30.520  28.998  1.00  0.00     0.134 A 
ATOM     50  F   UNL A   1      38.232  33.388  29.037  1.00  0.00    -0.206 F 
ATOM     51  C   UNL A   1      36.131  33.115  28.025  1.00  0.00     0.040 A 
ATOM     52  C   UNL A   1      34.964  31.020  28.224  1.00  0.00     0.040 A 
ATOM     53  F   UNL A   1      35.913  29.262  29.452  1.00  0.00    -0.206 F 
ATOM     54  C   UNL A   1      35.019  32.324  27.739  1.00  0.00     0.006 A 
ENDBRANCH  26  47
BRANCH  38  55
ATOM     55  C   UNL A   1      39.156  32.100  35.903  1.00  0.00     0.057 A 
ATOM     56  C   UNL A   1      39.467  33.451  36.093  1.00  0.00     0.134 A 
ATOM     57  C   UNL A   1      38.248  31.508  36.789  1.00  0.00     0.134 A 
ATOM     58  F   UNL A   1      40.342  34.068  35.283  1.00  0.00    -0.206 F 
ATOM     59  C   UNL A   1      38.907  34.183  37.140  1.00  0.00     0.040 A 
ATOM     60  C   UNL A   1      37.665  32.235  37.825  1.00  0.00     0.040 A 
ATOM     61  F   UNL A   1      37.906  30.217  36.652  1.00  0.00    -0.206 F 
ATOM     62  C   UNL A   1      38.000  33.576  38.006  1.00  0.00     0.006 A 
ENDBRANCH  38  55
ENDBRANCH  12  13
ENDBRANCH   5   7
ENDBRANCH   4   5
ENDBRANCH   3   4
ENDBRANCH   2   3
ENDBRANCH   1   2
BRANCH   1  63
ATOM     63  C   UNL A   1      43.251  19.337  25.778  1.00  0.00     0.202 C 
BRANCH  63  64
ATOM     64  C   UNL A   1      41.845  19.272  26.389  1.00  0.00     0.261 C 
BRANCH  64  65
ATOM     65  O   UNL A   1      41.143  20.471  26.009  1.00  0.00    -0.460 OA
BRANCH  65  66
ATOM     66  C   UNL A   1      40.929  21.357  27.019  1.00  0.00     0.338 C 
ATOM     67  O   UNL A   1      41.696  21.706  27.886  1.00  0.00    -0.246 OA
BRANCH  66  68
ATOM     68  C   UNL A   1      39.688  22.068  26.661  1.00  0.00     0.062 A 
ATOM     69  C   UNL A   1      39.532  23.340  27.215  1.00  0.00     0.016 A 
ATOM     70  C   UNL A   1      38.790  21.578  25.708  1.00  0.00     0.041 A 
ATOM     71  C   UNL A   1      38.546  24.186  26.727  1.00  0.00     0.003 A 
ATOM     72  C   UNL A   1      37.759  22.407  25.254  1.00  0.00     0.039 A 
ATOM     73  C   UNL A   1      37.686  23.728  25.733  1.00  0.00     0.026 A 
BRANCH  72  74
ATOM     74  N   UNL A   1      36.860  21.959  24.271  1.00  0.00    -0.355 N 
ATOM     75  H   UNL A   1      37.215  21.878  23.355  1.00  0.00     0.167 HD
BRANCH  74  76
ATOM     76  C   UNL A   1      35.504  21.612  24.454  1.00  0.00     0.050 A 
ATOM     77  C   UNL A   1      35.204  20.340  24.951  1.00  0.00     0.047 A 
ATOM     78  C   UNL A   1      34.444  22.472  24.080  1.00  0.00     0.025 A 
ATOM     79  C   UNL A   1      33.883  19.982  25.106  1.00  0.00     0.114 A 
ATOM     80  C   UNL A   1      33.125  22.001  24.291  1.00  0.00     0.072 A 
ATOM     81  C   UNL A   1      34.627  23.739  23.475  1.00  0.00     0.033 A 
ATOM     82  N   UNL A   1      32.851  20.790  24.798  1.00  0.00    -0.256 NA
ATOM     83  C   UNL A   1      32.055  22.811  23.939  1.00  0.00     0.030 A 
ATOM     84  C   UNL A   1      33.531  24.518  23.113  1.00  0.00     0.041 A 
ATOM     85  C   UNL A   1      32.241  24.065  23.355  1.00  0.00     0.023 A 
ATOM     86  Cl  UNL A   1      33.771  26.041  22.351  1.00  0.00    -0.084 Cl
ENDBRANCH  74  76
ENDBRANCH  72  74
ENDBRANCH  66  68
ENDBRANCH  65  66
ENDBRANCH  64  65
ENDBRANCH  63  64
ENDBRANCH   1  63
TORSDOF 16
ENDMDL
MODEL 3
REMARK VINA RESULT:      -8.4      5.050      7.886
REMARK SMILES O=C(OCCOCCOC(=O)c1cccc(Nc2ccnc3ccc(Cl)cc23)c1)c1ccc(-c2c3nc(c(-c4c(F)cccc4F)c4ccc([nH]4)c(-c4c(F)cccc4F)c4nc(c(-c5c(F)cccc5F)c5ccc2[nH]5)C=C4)C=C3)cc1
REMARK SMILES IDX 6 1 5 2 4 3 3 4 2 5 1 6 30 7 31 8 83 9 32 10 82 11 33 12
REMARK SMILES IDX 34 13 35 14 76 15 36 16 81 17 75 18 77 19 37 20 80 21 74 22
REMARK SMILES IDX 73 23 38 25 64 26 47 27 63 28 48 29 51 30 62 31 78 32 49 33
REMARK SMILES IDX 50 34 61 36 79 37 52 38 39 39 40 40 45 41 41 42 42 43 44 44
REMARK SMILES IDX 46 45 43 46 65 47 66 48 71 49 67 50 68 51 70 52 72 53 69 54
REMARK SMILES IDX 53 55 54 56 59 57 55 58 56 59 58 60 60 61 57 62 7 63 8 64
REMARK SMILES IDX 9 65 10 66 11 67 12 68 13 69 29 70 14 71 16 72 15 73 17 74
REMARK SMILES IDX 18 76 19 77 28 78 20 79 22 80 27 81 21 82 23 83 25 84 24 85
REMARK SMILES IDX 26 86
REMARK H PARENT 77 24 51 35 17 75
REMARK Flexibility Score: inf
ROOT
ATOM      1  O   UNL A   1      41.966  20.914  26.987  1.00  0.00    -0.374 OA
ENDROOT
BRANCH   1   2
ATOM      2  C   UNL A   1      42.849  20.464  25.953  1.00  0.00     0.202 C 
BRANCH   2   3
ATOM      3  C   UNL A   1      43.857  21.509  25.470  1.00  0.00     0.261 C 
BRANCH   3   4
ATOM      4  O   UNL A   1      43.187  22.730  25.124  1.00  0.00    -0.460 OA
BRANCH   4   5
ATOM      5  C   UNL A   1      43.648  23.994  25.272  1.00  0.00     0.338 C 
ATOM      6  O   UNL A   1      44.498  24.412  24.489  1.00  0.00    -0.246 OA
BRANCH   5   7
ATOM      7  C   UNL A   1      43.164  24.917  26.341  1.00  0.00     0.060 A 
ATOM      8  C   UNL A   1      43.517  26.263  26.441  1.00  0.00     0.016 A 
ATOM      9  C   UNL A   1      42.219  24.410  27.249  1.00  0.00     0.016 A 
ATOM     10  C   UNL A   1      43.033  27.061  27.471  1.00  0.00     0.010 A 
ATOM     11  C   UNL A   1      41.679  25.224  28.250  1.00  0.00     0.010 A 
ATOM     12  C   UNL A   1      42.108  26.549  28.379  1.00  0.00    -0.014 A 
BRANCH  12  13
ATOM     13  C   UNL A   1      41.667  27.406  29.497  1.00  0.00     0.031 A 
ATOM     14  C   UNL A   1      42.484  27.437  30.751  1.00  0.00     0.074 A 
ATOM     15  C   UNL A   1      40.612  28.223  29.331  1.00  0.00     0.049 A 
ATOM     16  N   UNL A   1      42.290  28.114  31.851  1.00  0.00    -0.248 NA
ATOM     17  C   UNL A   1      43.693  26.597  30.765  1.00  0.00     0.031 C 
ATOM     18  C   UNL A   1      39.813  28.330  28.107  1.00  0.00     0.029 A 
ATOM     19  N   UNL A   1      40.053  29.145  30.176  1.00  0.00    -0.354 N 
ATOM     20  C   UNL A   1      43.334  27.764  32.695  1.00  0.00     0.074 A 
ATOM     21  C   UNL A   1      44.158  26.811  31.986  1.00  0.00     0.031 C 
ATOM     22  C   UNL A   1      38.893  29.295  28.268  1.00  0.00     0.029 A 
ATOM     23  C   UNL A   1      38.999  29.830  29.621  1.00  0.00     0.049 A 
ATOM     24  H   UNL A   1      40.374  29.301  31.093  1.00  0.00     0.167 HD
ATOM     25  C   UNL A   1      43.574  28.195  33.956  1.00  0.00     0.037 A 
ATOM     26  C   UNL A   1      38.206  30.775  30.159  1.00  0.00     0.037 A 
ATOM     27  C   UNL A   1      42.741  29.144  34.643  1.00  0.00     0.049 A 
ATOM     28  C   UNL A   1      38.457  31.193  31.580  1.00  0.00     0.074 A 
ATOM     29  C   UNL A   1      42.845  29.611  35.940  1.00  0.00     0.029 A 
ATOM     30  N   UNL A   1      41.643  29.775  34.073  1.00  0.00    -0.354 N 
ATOM     31  N   UNL A   1      39.412  30.811  32.396  1.00  0.00    -0.248 NA
ATOM     32  C   UNL A   1      37.516  32.156  32.162  1.00  0.00     0.031 C 
ATOM     33  C   UNL A   1      41.788  30.503  36.164  1.00  0.00     0.029 A 
ATOM     34  C   UNL A   1      41.051  30.621  34.995  1.00  0.00     0.049 A 
ATOM     35  H   UNL A   1      41.331  29.641  33.150  1.00  0.00     0.167 HD
ATOM     36  C   UNL A   1      39.198  31.500  33.582  1.00  0.00     0.074 A 
ATOM     37  C   UNL A   1      38.031  32.335  33.371  1.00  0.00     0.031 C 
ATOM     38  C   UNL A   1      39.897  31.445  34.742  1.00  0.00     0.037 A 
BRANCH  25  39
ATOM     39  C   UNL A   1      44.740  27.579  34.668  1.00  0.00     0.057 A 
ATOM     40  C   UNL A   1      44.621  26.394  35.407  1.00  0.00     0.134 A 
ATOM     41  C   UNL A   1      45.988  28.214  34.659  1.00  0.00     0.134 A 
ATOM     42  F   UNL A   1      43.445  25.754  35.481  1.00  0.00    -0.206 F 
ATOM     43  C   UNL A   1      45.695  25.882  36.139  1.00  0.00     0.040 A 
ATOM     44  C   UNL A   1      47.073  27.699  35.370  1.00  0.00     0.040 A 
ATOM     45  F   UNL A   1      46.167  29.355  33.978  1.00  0.00    -0.206 F 
ATOM     46  C   UNL A   1      46.925  26.535  36.121  1.00  0.00     0.006 A 
ENDBRANCH  25  39
BRANCH  26  47
ATOM     47  C   UNL A   1      37.105  31.373  29.360  1.00  0.00     0.057 A 
ATOM     48  C   UNL A   1      35.913  30.676  29.130  1.00  0.00     0.134 A 
ATOM     49  C   UNL A   1      37.216  32.655  28.806  1.00  0.00     0.134 A 
ATOM     50  F   UNL A   1      35.752  29.437  29.615  1.00  0.00    -0.206 F 
ATOM     51  C   UNL A   1      34.877  31.228  28.373  1.00  0.00     0.040 A 
ATOM     52  C   UNL A   1      36.179  33.228  28.069  1.00  0.00     0.040 A 
ATOM     53  F   UNL A   1      38.332  33.376  28.988  1.00  0.00    -0.206 F 
ATOM     54  C   UNL A   1      35.007  32.511  27.846  1.00  0.00     0.006 A 
ENDBRANCH  26  47
BRANCH  38  55
ATOM     55  C   UNL A   1      39.432  32.339  35.851  1.00  0.00     0.057 A 
ATOM     56  C   UNL A   1      39.937  33.634  36.012  1.00  0.00     0.134 A 
ATOM     57  C   UNL A   1      38.442  31.908  36.741  1.00  0.00     0.134 A 
ATOM     58  F   UNL A   1      40.897  34.097  35.197  1.00  0.00    -0.206 F 
ATOM     59  C   UNL A   1      39.483  34.466  37.036  1.00  0.00     0.040 A 
ATOM     60  C   UNL A   1      37.965  32.738  37.754  1.00  0.00     0.040 A 
ATOM     61  F   UNL A   1      37.916  30.678  36.631  1.00  0.00    -0.206 F 
ATOM     62  C   UNL A   1      38.491  34.020  37.906  1.00  0.00     0.006 A 
ENDBRANCH  38  55
ENDBRANCH  12  13
ENDBRANCH   5   7
ENDBRANCH   4   5
ENDBRANCH   3   4
ENDBRANCH   2   3
ENDBRANCH   1   2
BRANCH   1  63
ATOM     63  C   UNL A   1      40.578  20.622  26.756  1.00  0.00     0.202 C 
BRANCH  63  64
ATOM     64  C   UNL A   1      39.924  21.785  26.000  1.00  0.00     0.261 C 
BRANCH  64  65
ATOM     65  O   UNL A   1      38.496  21.650  26.131  1.00  0.00    -0.460 OA
BRANCH  65  66
ATOM     66  C   UNL A   1      37.787  22.792  25.918  1.00  0.00     0.338 C 
ATOM     67  O   UNL A   1      38.177  23.935  25.958  1.00  0.00    -0.246 OA
BRANCH  66  68
ATOM     68  C   UNL A   1      36.522  22.358  25.297  1.00  0.00     0.062 A 
ATOM     69  C   UNL A   1      36.321  20.978  25.222  1.00  0.00     0.016 A 
ATOM     70  C   UNL A   1      35.512  23.258  24.945  1.00  0.00     0.041 A 
ATOM     71  C   UNL A   1      35.062  20.484  24.912  1.00  0.00     0.003 A 
ATOM     72  C   UNL A   1      34.256  22.762  24.576  1.00  0.00     0.039 A 
ATOM     73  C   UNL A   1      34.033  21.374  24.620  1.00  0.00     0.026 A 
BRANCH  72  74
ATOM     74  N   UNL A   1      33.208  23.639  24.250  1.00  0.00    -0.355 N 
ATOM     75  H   UNL A   1      32.410  23.606  24.827  1.00  0.00     0.167 HD
BRANCH  74  76
ATOM     76  C   UNL A   1      33.176  24.566  23.184  1.00  0.00     0.050 A 
ATOM     77  C   UNL A   1      33.015  24.078  21.883  1.00  0.00     0.047 A 
ATOM     78  C   UNL A   1      33.380  25.953  23.378  1.00  0.00     0.025 A 
ATOM     79  C   UNL A   1      33.012  24.971  20.835  1.00  0.00     0.114 A 
ATOM     80  C   UNL A   1      33.349  26.777  22.228  1.00  0.00     0.072 A 
ATOM     81  C   UNL A   1      33.652  26.545  24.635  1.00  0.00     0.033 A 
ATOM     82  N   UNL A   1      33.163  26.300  20.988  1.00  0.00    -0.256 NA
ATOM     83  C   UNL A   1      33.544  28.144  22.371  1.00  0.00     0.030 A 
ATOM     84  C   UNL A   1      33.865  27.917  24.742  1.00  0.00     0.041 A 
ATOM     85  C   UNL A   1      33.799  28.724  23.615  1.00  0.00     0.023 A 
ATOM     86  Cl  UNL A   1      34.225  28.616  26.272  1.00  0.00    -0.084 Cl
ENDBRANCH  74  76
ENDBRANCH  72  74
ENDBRANCH  66  68
ENDBRANCH  65  66
ENDBRANCH  64  65
ENDBRANCH  63  64
ENDBRANCH   1  63
TORSDOF 16
ENDMDL
