MODEL 1
REMARK VINA RESULT:     -11.4      0.000      0.000
REMARK SMILES C[C@@H]1[C@H](C(=O)OCCOCCOC(=O)c2ccc(-c3c4nc(c(-c5c(F)cccc5F)c5ccc([nH]5)c(-c5c(F)cccc5F)c5nc(c(-c6c(F)cccc6F)c6ccc3[nH]6)C=C5)C=C4)cc2)CCN1C(=O)[C@H](O)c1ccccc1
REMARK SMILES IDX 8 1 7 2 6 3 4 4 5 5 3 6 1 7 2 8 71 9 69 10 70 11 72 12 73 13
REMARK SMILES IDX 74 14 76 15 77 16 81 17 78 18 80 19 79 20 75 21 9 23 10 24
REMARK SMILES IDX 11 25 12 26 13 27 14 28 15 29 16 30 68 31 17 32 67 33 18 34
REMARK SMILES IDX 19 35 20 36 61 37 21 38 66 39 60 40 62 41 22 42 65 43 59 44
REMARK SMILES IDX 58 45 23 47 49 48 32 49 48 50 33 51 36 52 47 53 63 54 34 55
REMARK SMILES IDX 35 56 46 58 64 59 37 60 24 61 25 62 30 63 26 64 27 65 29 66
REMARK SMILES IDX 31 67 28 68 50 69 51 70 56 71 52 72 53 73 55 74 57 75 54 76
REMARK SMILES IDX 38 77 39 78 44 79 40 80 41 81 43 82 45 83 42 84
REMARK H PARENT 75 22 62 46 36 57
REMARK Flexibility Score: inf
ROOT
ATOM      1  C   UNL A   1      34.130  32.647  28.181  1.00  0.00     0.202 C 
ENDROOT
BRANCH   1   2
ATOM      2  C   UNL A   1      34.498  31.248  27.684  1.00  0.00     0.261 C 
BRANCH   2   3
ATOM      3  O   UNL A   1      33.308  30.492  27.396  1.00  0.00    -0.463 OA
BRANCH   3   4
ATOM      4  C   UNL A   1      33.495  29.302  26.785  1.00  0.00     0.311 C 
ATOM      5  O   UNL A   1      34.535  28.654  26.830  1.00  0.00    -0.252 OA
BRANCH   4   6
ATOM      6  C   UNL A   1      32.300  28.826  25.997  1.00  0.00     0.123 C 
ATOM      7  C   UNL A   1      33.348  28.823  23.600  1.00  0.00     0.032 C 
ATOM      8  C   UNL A   1      32.121  29.067  24.482  1.00  0.00     0.096 C 
ATOM      9  N   UNL A   1      31.069  28.082  24.156  1.00  0.00    -0.337 N 
ATOM     10  C   UNL A   1      32.126  27.319  26.132  1.00  0.00     0.039 C 
ATOM     11  C   UNL A   1      30.977  27.049  25.179  1.00  0.00     0.121 C 
BRANCH   9  12
ATOM     12  C   UNL A   1      30.114  28.111  23.151  1.00  0.00     0.256 C 
ATOM     13  O   UNL A   1      30.376  27.600  22.057  1.00  0.00    -0.271 OA
BRANCH  12  14
ATOM     14  C   UNL A   1      28.728  28.761  23.455  1.00  0.00     0.233 C 
BRANCH  14  15
ATOM     15  C   UNL A   1      28.541  30.136  22.821  1.00  0.00    -0.010 A 
ATOM     16  C   UNL A   1      28.300  30.244  21.441  1.00  0.00     0.007 A 
ATOM     17  C   UNL A   1      28.620  31.321  23.574  1.00  0.00     0.007 A 
ATOM     18  C   UNL A   1      28.105  31.493  20.845  1.00  0.00     0.000 A 
ATOM     19  C   UNL A   1      28.414  32.567  22.979  1.00  0.00     0.000 A 
ATOM     20  C   UNL A   1      28.153  32.653  21.615  1.00  0.00     0.000 A 
ENDBRANCH  14  15
BRANCH  14  21
ATOM     21  O   UNL A   1      27.648  27.908  23.075  1.00  0.00    -0.378 OA
ATOM     22  H   UNL A   1      26.915  28.446  22.737  1.00  0.00     0.212 HD
ENDBRANCH  14  21
ENDBRANCH  12  14
ENDBRANCH   9  12
ENDBRANCH   4   6
ENDBRANCH   3   4
ENDBRANCH   2   3
ENDBRANCH   1   2
BRANCH   1  23
ATOM     23  O   UNL A   1      33.942  32.780  29.590  1.00  0.00    -0.374 OA
BRANCH  23  24
ATOM     24  C   UNL A   1      34.387  33.990  30.204  1.00  0.00     0.202 C 
BRANCH  24  25
ATOM     25  C   UNL A   1      34.714  33.917  31.701  1.00  0.00     0.261 C 
BRANCH  25  26
ATOM     26  O   UNL A   1      34.832  32.556  32.159  1.00  0.00    -0.460 OA
BRANCH  26  27
ATOM     27  C   UNL A   1      35.940  32.298  32.892  1.00  0.00     0.338 C 
ATOM     28  O   UNL A   1      36.107  32.524  34.082  1.00  0.00    -0.246 OA
BRANCH  27  29
ATOM     29  C   UNL A   1      36.902  31.506  32.100  1.00  0.00     0.060 A 
ATOM     30  C   UNL A   1      37.944  30.881  32.798  1.00  0.00     0.016 A 
ATOM     31  C   UNL A   1      36.832  31.420  30.708  1.00  0.00     0.016 A 
ATOM     32  C   UNL A   1      38.954  30.221  32.104  1.00  0.00     0.010 A 
ATOM     33  C   UNL A   1      37.851  30.760  30.011  1.00  0.00     0.010 A 
ATOM     34  C   UNL A   1      38.939  30.194  30.703  1.00  0.00    -0.014 A 
BRANCH  34  35
ATOM     35  C   UNL A   1      40.139  29.716  29.972  1.00  0.00     0.031 A 
ATOM     36  C   UNL A   1      41.294  30.660  29.768  1.00  0.00     0.074 A 
ATOM     37  C   UNL A   1      40.226  28.446  29.539  1.00  0.00     0.049 A 
ATOM     38  N   UNL A   1      42.431  30.461  29.153  1.00  0.00    -0.248 NA
ATOM     39  C   UNL A   1      41.144  32.010  30.334  1.00  0.00     0.031 C 
ATOM     40  C   UNL A   1      39.198  27.422  29.712  1.00  0.00     0.029 A 
ATOM     41  N   UNL A   1      41.232  27.803  28.862  1.00  0.00    -0.354 N 
ATOM     42  C   UNL A   1      43.129  31.659  29.252  1.00  0.00     0.074 A 
ATOM     43  C   UNL A   1      42.273  32.590  29.954  1.00  0.00     0.031 C 
ATOM     44  C   UNL A   1      39.625  26.278  29.149  1.00  0.00     0.029 A 
ATOM     45  C   UNL A   1      40.940  26.498  28.550  1.00  0.00     0.049 A 
ATOM     46  H   UNL A   1      42.083  28.237  28.623  1.00  0.00     0.167 HD
ATOM     47  C   UNL A   1      44.375  31.954  28.809  1.00  0.00     0.037 A 
ATOM     48  C   UNL A   1      41.646  25.592  27.845  1.00  0.00     0.037 A 
ATOM     49  C   UNL A   1      45.229  31.027  28.114  1.00  0.00     0.049 A 
ATOM     50  C   UNL A   1      42.998  25.968  27.297  1.00  0.00     0.074 A 
ATOM     51  C   UNL A   1      46.515  31.227  27.644  1.00  0.00     0.029 A 
ATOM     52  N   UNL A   1      44.880  29.726  27.783  1.00  0.00    -0.354 N 
ATOM     53  N   UNL A   1      43.658  27.094  27.419  1.00  0.00    -0.248 NA
ATOM     54  C   UNL A   1      43.704  24.942  26.515  1.00  0.00     0.031 C 
ATOM     55  C   UNL A   1      46.924  30.065  26.980  1.00  0.00     0.029 A 
ATOM     56  C   UNL A   1      45.916  29.122  27.089  1.00  0.00     0.049 A 
ATOM     57  H   UNL A   1      44.024  29.296  28.008  1.00  0.00     0.167 HD
ATOM     58  C   UNL A   1      44.866  26.902  26.760  1.00  0.00     0.074 A 
ATOM     59  C   UNL A   1      44.854  25.547  26.250  1.00  0.00     0.031 C 
ATOM     60  C   UNL A   1      45.895  27.769  26.594  1.00  0.00     0.037 A 
BRANCH  47  61
ATOM     61  C   UNL A   1      44.880  33.348  29.042  1.00  0.00     0.057 A 
ATOM     62  C   UNL A   1      45.654  33.680  30.162  1.00  0.00     0.134 A 
ATOM     63  C   UNL A   1      44.619  34.364  28.114  1.00  0.00     0.134 A 
ATOM     64  F   UNL A   1      45.931  32.756  31.096  1.00  0.00    -0.206 F 
ATOM     65  C   UNL A   1      46.131  34.977  30.361  1.00  0.00     0.040 A 
ATOM     66  C   UNL A   1      45.113  35.657  28.289  1.00  0.00     0.040 A 
ATOM     67  F   UNL A   1      43.888  34.113  27.017  1.00  0.00    -0.206 F 
ATOM     68  C   UNL A   1      45.866  35.969  29.418  1.00  0.00     0.006 A 
ENDBRANCH  47  61
BRANCH  48  69
ATOM     69  C   UNL A   1      41.085  24.239  27.600  1.00  0.00     0.057 A 
ATOM     70  C   UNL A   1      41.571  23.115  28.280  1.00  0.00     0.134 A 
ATOM     71  C   UNL A   1      40.070  24.031  26.658  1.00  0.00     0.134 A 
ATOM     72  F   UNL A   1      42.559  23.245  29.176  1.00  0.00    -0.206 F 
ATOM     73  C   UNL A   1      41.084  21.834  28.017  1.00  0.00     0.040 A 
ATOM     74  C   UNL A   1      39.554  22.759  26.406  1.00  0.00     0.040 A 
ATOM     75  F   UNL A   1      39.560  25.066  25.972  1.00  0.00    -0.206 F 
ATOM     76  C   UNL A   1      40.068  21.655  27.081  1.00  0.00     0.006 A 
ENDBRANCH  48  69
BRANCH  60  77
ATOM     77  C   UNL A   1      47.112  27.269  25.866  1.00  0.00     0.057 A 
ATOM     78  C   UNL A   1      47.309  27.502  24.500  1.00  0.00     0.134 A 
ATOM     79  C   UNL A   1      48.119  26.580  26.555  1.00  0.00     0.134 A 
ATOM     80  F   UNL A   1      46.380  28.147  23.779  1.00  0.00    -0.206 F 
ATOM     81  C   UNL A   1      48.452  27.046  23.839  1.00  0.00     0.040 A 
ATOM     82  C   UNL A   1      49.279  26.144  25.912  1.00  0.00     0.040 A 
ATOM     83  F   UNL A   1      48.000  26.332  27.868  1.00  0.00    -0.206 F 
ATOM     84  C   UNL A   1      49.444  26.371  24.548  1.00  0.00     0.006 A 
ENDBRANCH  60  77
ENDBRANCH  34  35
ENDBRANCH  27  29
ENDBRANCH  26  27
ENDBRANCH  25  26
ENDBRANCH  24  25
ENDBRANCH  23  24
ENDBRANCH   1  23
TORSDOF 18
ENDMDL
MODEL 2
REMARK VINA RESULT:     -11.1      5.470     10.643
REMARK SMILES C[C@@H]1[C@H](C(=O)OCCOCCOC(=O)c2ccc(-c3c4nc(c(-c5c(F)cccc5F)c5ccc([nH]5)c(-c5c(F)cccc5F)c5nc(c(-c6c(F)cccc6F)c6ccc3[nH]6)C=C5)C=C4)cc2)CCN1C(=O)[C@H](O)c1ccccc1
REMARK SMILES IDX 8 1 7 2 6 3 4 4 5 5 3 6 1 7 2 8 71 9 69 10 70 11 72 12 73 13
REMARK SMILES IDX 74 14 76 15 77 16 81 17 78 18 80 19 79 20 75 21 9 23 10 24
REMARK SMILES IDX 11 25 12 26 13 27 14 28 15 29 16 30 68 31 17 32 67 33 18 34
REMARK SMILES IDX 19 35 20 36 61 37 21 38 66 39 60 40 62 41 22 42 65 43 59 44
REMARK SMILES IDX 58 45 23 47 49 48 32 49 48 50 33 51 36 52 47 53 63 54 34 55
REMARK SMILES IDX 35 56 46 58 64 59 37 60 24 61 25 62 30 63 26 64 27 65 29 66
REMARK SMILES IDX 31 67 28 68 50 69 51 70 56 71 52 72 53 73 55 74 57 75 54 76
REMARK SMILES IDX 38 77 39 78 44 79 40 80 41 81 43 82 45 83 42 84
REMARK H PARENT 75 22 62 46 36 57
REMARK Flexibility Score: inf
ROOT
ATOM      1  C   UNL A   1      40.596  20.416  26.300  1.00  0.00     0.202 C 
ENDROOT
BRANCH   1   2
ATOM      2  C   UNL A   1      39.883  21.756  26.109  1.00  0.00     0.261 C 
BRANCH   2   3
ATOM      3  O   UNL A   1      38.459  21.560  26.062  1.00  0.00    -0.463 OA
BRANCH   3   4
ATOM      4  C   UNL A   1      37.729  22.620  25.649  1.00  0.00     0.311 C 
ATOM      5  O   UNL A   1      38.075  23.790  25.767  1.00  0.00    -0.252 OA
BRANCH   4   6
ATOM      6  C   UNL A   1      36.403  22.245  25.035  1.00  0.00     0.123 C 
ATOM      7  C   UNL A   1      34.801  23.329  26.795  1.00  0.00     0.032 C 
ATOM      8  C   UNL A   1      35.080  22.175  25.828  1.00  0.00     0.096 C 
ATOM      9  N   UNL A   1      34.087  22.190  24.734  1.00  0.00    -0.337 N 
ATOM     10  C   UNL A   1      36.063  23.168  23.872  1.00  0.00     0.039 C 
ATOM     11  C   UNL A   1      34.668  22.704  23.500  1.00  0.00     0.121 C 
BRANCH   9  12
ATOM     12  C   UNL A   1      32.807  21.658  24.696  1.00  0.00     0.256 C 
ATOM     13  O   UNL A   1      31.904  22.299  24.148  1.00  0.00    -0.271 OA
BRANCH  12  14
ATOM     14  C   UNL A   1      32.565  20.248  25.321  1.00  0.00     0.233 C 
BRANCH  14  15
ATOM     15  C   UNL A   1      33.065  19.096  24.454  1.00  0.00    -0.010 A 
ATOM     16  C   UNL A   1      34.200  18.367  24.845  1.00  0.00     0.007 A 
ATOM     17  C   UNL A   1      32.435  18.743  23.247  1.00  0.00     0.007 A 
ATOM     18  C   UNL A   1      34.662  17.296  24.077  1.00  0.00     0.000 A 
ATOM     19  C   UNL A   1      32.891  17.664  22.486  1.00  0.00     0.000 A 
ATOM     20  C   UNL A   1      34.003  16.939  22.902  1.00  0.00     0.000 A 
ENDBRANCH  14  15
BRANCH  14  21
ATOM     21  O   UNL A   1      33.130  20.145  26.627  1.00  0.00    -0.378 OA
ATOM     22  H   UNL A   1      33.158  21.024  27.037  1.00  0.00     0.212 HD
ENDBRANCH  14  21
ENDBRANCH  12  14
ENDBRANCH   9  12
ENDBRANCH   4   6
ENDBRANCH   3   4
ENDBRANCH   2   3
ENDBRANCH   1   2
BRANCH   1  23
ATOM     23  O   UNL A   1      41.952  20.361  25.859  1.00  0.00    -0.374 OA
BRANCH  23  24
ATOM     24  C   UNL A   1      42.847  21.360  26.348  1.00  0.00     0.202 C 
BRANCH  24  25
ATOM     25  C   UNL A   1      43.639  22.143  25.294  1.00  0.00     0.261 C 
BRANCH  25  26
ATOM     26  O   UNL A   1      42.996  23.386  24.953  1.00  0.00    -0.460 OA
BRANCH  26  27
ATOM     27  C   UNL A   1      43.733  24.493  25.205  1.00  0.00     0.338 C 
ATOM     28  O   UNL A   1      44.749  24.852  24.626  1.00  0.00    -0.246 OA
BRANCH  27  29
ATOM     29  C   UNL A   1      43.036  25.358  26.178  1.00  0.00     0.060 A 
ATOM     30  C   UNL A   1      43.570  26.635  26.397  1.00  0.00     0.016 A 
ATOM     31  C   UNL A   1      41.928  24.920  26.907  1.00  0.00     0.016 A 
ATOM     32  C   UNL A   1      43.037  27.455  27.388  1.00  0.00     0.010 A 
ATOM     33  C   UNL A   1      41.397  25.744  27.906  1.00  0.00     0.010 A 
ATOM     34  C   UNL A   1      41.975  26.999  28.180  1.00  0.00    -0.014 A 
BRANCH  34  35
ATOM     35  C   UNL A   1      41.587  27.768  29.388  1.00  0.00     0.031 A 
ATOM     36  C   UNL A   1      40.388  28.676  29.322  1.00  0.00     0.074 A 
ATOM     37  C   UNL A   1      42.257  27.625  30.545  1.00  0.00     0.049 A 
ATOM     38  N   UNL A   1      39.876  29.446  30.247  1.00  0.00    -0.248 NA
ATOM     39  C   UNL A   1      39.670  28.721  28.037  1.00  0.00     0.031 C 
ATOM     40  C   UNL A   1      43.406  26.746  30.754  1.00  0.00     0.029 A 
ATOM     41  N   UNL A   1      42.062  28.222  31.766  1.00  0.00    -0.354 N 
ATOM     42  C   UNL A   1      38.783  30.070  29.658  1.00  0.00     0.074 A 
ATOM     43  C   UNL A   1      38.727  29.617  28.285  1.00  0.00     0.031 C 
ATOM     44  C   UNL A   1      43.819  26.866  32.027  1.00  0.00     0.029 A 
ATOM     45  C   UNL A   1      42.985  27.852  32.713  1.00  0.00     0.049 A 
ATOM     46  H   UNL A   1      41.331  28.857  31.945  1.00  0.00     0.167 HD
ATOM     47  C   UNL A   1      37.899  30.934  30.212  1.00  0.00     0.037 A 
ATOM     48  C   UNL A   1      43.149  28.275  33.982  1.00  0.00     0.037 A 
ATOM     49  C   UNL A   1      37.951  31.382  31.579  1.00  0.00     0.049 A 
ATOM     50  C   UNL A   1      42.197  29.293  34.553  1.00  0.00     0.074 A 
ATOM     51  C   UNL A   1      37.087  32.239  32.238  1.00  0.00     0.029 A 
ATOM     52  N   UNL A   1      38.924  31.013  32.495  1.00  0.00    -0.354 N 
ATOM     53  N   UNL A   1      41.153  29.856  33.995  1.00  0.00    -0.248 NA
ATOM     54  C   UNL A   1      42.447  29.731  35.934  1.00  0.00     0.031 C 
ATOM     55  C   UNL A   1      37.570  32.434  33.537  1.00  0.00     0.029 A 
ATOM     56  C   UNL A   1      38.699  31.650  33.705  1.00  0.00     0.049 A 
ATOM     57  H   UNL A   1      39.665  30.391  32.313  1.00  0.00     0.167 HD
ATOM     58  C   UNL A   1      40.604  30.687  34.965  1.00  0.00     0.074 A 
ATOM     59  C   UNL A   1      41.423  30.546  36.150  1.00  0.00     0.031 C 
ATOM     60  C   UNL A   1      39.517  31.494  34.881  1.00  0.00     0.037 A 
BRANCH  47  61
ATOM     61  C   UNL A   1      36.809  31.471  29.330  1.00  0.00     0.057 A 
ATOM     62  C   UNL A   1      36.836  32.779  28.829  1.00  0.00     0.134 A 
ATOM     63  C   UNL A   1      35.738  30.654  28.947  1.00  0.00     0.134 A 
ATOM     64  F   UNL A   1      37.828  33.617  29.168  1.00  0.00    -0.206 F 
ATOM     65  C   UNL A   1      35.824  33.263  27.998  1.00  0.00     0.040 A 
ATOM     66  C   UNL A   1      34.735  31.119  28.094  1.00  0.00     0.040 A 
ATOM     67  F   UNL A   1      35.654  29.390  29.386  1.00  0.00    -0.206 F 
ATOM     68  C   UNL A   1      34.772  32.429  27.622  1.00  0.00     0.006 A 
ENDBRANCH  47  61
BRANCH  48  69
ATOM     69  C   UNL A   1      44.269  27.749  34.803  1.00  0.00     0.057 A 
ATOM     70  C   UNL A   1      44.104  26.629  35.627  1.00  0.00     0.134 A 
ATOM     71  C   UNL A   1      45.523  28.372  34.808  1.00  0.00     0.134 A 
ATOM     72  F   UNL A   1      42.920  26.003  35.686  1.00  0.00    -0.206 F 
ATOM     73  C   UNL A   1      45.138  26.160  36.440  1.00  0.00     0.040 A 
ATOM     74  C   UNL A   1      46.574  27.897  35.594  1.00  0.00     0.040 A 
ATOM     75  F   UNL A   1      45.747  29.449  34.040  1.00  0.00    -0.206 F 
ATOM     76  C   UNL A   1      46.379  26.793  36.421  1.00  0.00     0.006 A 
ENDBRANCH  48  69
BRANCH  60  77
ATOM     77  C   UNL A   1      39.123  32.255  36.115  1.00  0.00     0.057 A 
ATOM     78  C   UNL A   1      39.587  33.552  36.369  1.00  0.00     0.134 A 
ATOM     79  C   UNL A   1      38.234  31.696  37.043  1.00  0.00     0.134 A 
ATOM     80  F   UNL A   1      40.449  34.143  35.528  1.00  0.00    -0.206 F 
ATOM     81  C   UNL A   1      39.200  34.255  37.513  1.00  0.00     0.040 A 
ATOM     82  C   UNL A   1      37.817  32.400  38.174  1.00  0.00     0.040 A 
ATOM     83  F   UNL A   1      37.742  30.462  36.857  1.00  0.00    -0.206 F 
ATOM     84  C   UNL A   1      38.307  33.681  38.415  1.00  0.00     0.006 A 
ENDBRANCH  60  77
ENDBRANCH  34  35
ENDBRANCH  27  29
ENDBRANCH  26  27
ENDBRANCH  25  26
ENDBRANCH  24  25
ENDBRANCH  23  24
ENDBRANCH   1  23
TORSDOF 18
ENDMDL
MODEL 3
REMARK VINA RESULT:     -11.0      1.376      2.887
REMARK SMILES C[C@@H]1[C@H](C(=O)OCCOCCOC(=O)c2ccc(-c3c4nc(c(-c5c(F)cccc5F)c5ccc([nH]5)c(-c5c(F)cccc5F)c5nc(c(-c6c(F)cccc6F)c6ccc3[nH]6)C=C5)C=C4)cc2)CCN1C(=O)[C@H](O)c1ccccc1
REMARK SMILES IDX 8 1 7 2 6 3 4 4 5 5 3 6 1 7 2 8 71 9 69 10 70 11 72 12 73 13
REMARK SMILES IDX 74 14 76 15 77 16 81 17 78 18 80 19 79 20 75 21 9 23 10 24
REMARK SMILES IDX 11 25 12 26 13 27 14 28 15 29 16 30 68 31 17 32 67 33 18 34
REMARK SMILES IDX 19 35 20 36 61 37 21 38 66 39 60 40 62 41 22 42 65 43 59 44
REMARK SMILES IDX 58 45 23 47 49 48 32 49 48 50 33 51 36 52 47 53 63 54 34 55
REMARK SMILES IDX 35 56 46 58 64 59 37 60 24 61 25 62 30 63 26 64 27 65 29 66
REMARK SMILES IDX 31 67 28 68 50 69 51 70 56 71 52 72 53 73 55 74 57 75 54 76
REMARK SMILES IDX 38 77 39 78 44 79 40 80 41 81 43 82 45 83 42 84
REMARK H PARENT 75 22 62 46 36 57
REMARK Flexibility Score: inf
ROOT
ATOM      1  C   UNL A   1      33.989  33.565  29.136  1.00  0.00     0.202 C 
ENDROOT
BRANCH   1   2
ATOM      2  C   UNL A   1      34.443  32.639  28.006  1.00  0.00     0.261 C 
BRANCH   2   3
ATOM      3  O   UNL A   1      33.433  31.651  27.735  1.00  0.00    -0.463 OA
BRANCH   3   4
ATOM      4  C   UNL A   1      33.878  30.458  27.284  1.00  0.00     0.311 C 
ATOM      5  O   UNL A   1      34.861  29.871  27.722  1.00  0.00    -0.252 OA
BRANCH   4   6
ATOM      6  C   UNL A   1      33.063  29.895  26.146  1.00  0.00     0.123 C 
ATOM      7  C   UNL A   1      31.961  27.868  27.378  1.00  0.00     0.032 C 
ATOM      8  C   UNL A   1      32.563  28.434  26.090  1.00  0.00     0.096 C 
ATOM      9  N   UNL A   1      31.519  28.527  25.050  1.00  0.00    -0.337 N 
ATOM     10  C   UNL A   1      31.791  30.705  25.936  1.00  0.00     0.039 C 
ATOM     11  C   UNL A   1      31.082  29.904  24.860  1.00  0.00     0.121 C 
BRANCH   9  12
ATOM     12  C   UNL A   1      31.053  27.555  24.177  1.00  0.00     0.256 C 
ATOM     13  O   UNL A   1      29.991  26.978  24.429  1.00  0.00    -0.271 OA
BRANCH  12  14
ATOM     14  C   UNL A   1      31.879  27.251  22.887  1.00  0.00     0.233 C 
BRANCH  14  15
ATOM     15  C   UNL A   1      32.660  25.942  22.951  1.00  0.00    -0.010 A 
ATOM     16  C   UNL A   1      32.529  24.998  21.918  1.00  0.00     0.007 A 
ATOM     17  C   UNL A   1      33.505  25.629  24.030  1.00  0.00     0.007 A 
ATOM     18  C   UNL A   1      33.252  23.802  21.946  1.00  0.00     0.000 A 
ATOM     19  C   UNL A   1      34.235  24.439  24.051  1.00  0.00     0.000 A 
ATOM     20  C   UNL A   1      34.110  23.527  23.008  1.00  0.00     0.000 A 
ENDBRANCH  14  15
BRANCH  14  21
ATOM     21  O   UNL A   1      31.059  27.264  21.719  1.00  0.00    -0.378 OA
ATOM     22  H   UNL A   1      31.515  27.744  21.010  1.00  0.00     0.212 HD
ENDBRANCH  14  21
ENDBRANCH  12  14
ENDBRANCH   9  12
ENDBRANCH   4   6
ENDBRANCH   3   4
ENDBRANCH   2   3
ENDBRANCH   1   2
BRANCH   1  23
ATOM     23  O   UNL A   1      35.009  34.004  30.033  1.00  0.00    -0.374 OA
BRANCH  23  24
ATOM     24  C   UNL A   1      34.595  34.603  31.261  1.00  0.00     0.202 C 
BRANCH  24  25
ATOM     25  C   UNL A   1      34.114  33.647  32.360  1.00  0.00     0.261 C 
BRANCH  25  26
ATOM     26  O   UNL A   1      34.714  32.343  32.238  1.00  0.00    -0.460 OA
BRANCH  26  27
ATOM     27  C   UNL A   1      35.865  32.180  32.932  1.00  0.00     0.338 C 
ATOM     28  O   UNL A   1      36.068  32.470  34.102  1.00  0.00    -0.246 OA
BRANCH  27  29
ATOM     29  C   UNL A   1      36.836  31.407  32.133  1.00  0.00     0.060 A 
ATOM     30  C   UNL A   1      37.883  30.785  32.827  1.00  0.00     0.016 A 
ATOM     31  C   UNL A   1      36.770  31.334  30.741  1.00  0.00     0.016 A 
ATOM     32  C   UNL A   1      38.901  30.143  32.128  1.00  0.00     0.010 A 
ATOM     33  C   UNL A   1      37.797  30.692  30.039  1.00  0.00     0.010 A 
ATOM     34  C   UNL A   1      38.889  30.130  30.727  1.00  0.00    -0.014 A 
BRANCH  34  35
ATOM     35  C   UNL A   1      40.095  29.672  29.993  1.00  0.00     0.031 A 
ATOM     36  C   UNL A   1      41.234  30.634  29.786  1.00  0.00     0.074 A 
ATOM     37  C   UNL A   1      40.202  28.403  29.560  1.00  0.00     0.049 A 
ATOM     38  N   UNL A   1      42.373  30.454  29.169  1.00  0.00    -0.248 NA
ATOM     39  C   UNL A   1      41.063  31.982  30.353  1.00  0.00     0.031 C 
ATOM     40  C   UNL A   1      39.192  27.362  29.735  1.00  0.00     0.029 A 
ATOM     41  N   UNL A   1      41.218  27.777  28.881  1.00  0.00    -0.354 N 
ATOM     42  C   UNL A   1      43.051  31.663  29.267  1.00  0.00     0.074 A 
ATOM     43  C   UNL A   1      42.181  32.580  29.971  1.00  0.00     0.031 C 
ATOM     44  C   UNL A   1      39.636  26.225  29.171  1.00  0.00     0.029 A 
ATOM     45  C   UNL A   1      40.946  26.468  28.569  1.00  0.00     0.049 A 
ATOM     46  H   UNL A   1      42.060  28.225  28.639  1.00  0.00     0.167 HD
ATOM     47  C   UNL A   1      44.291  31.979  28.821  1.00  0.00     0.037 A 
ATOM     48  C   UNL A   1      41.665  25.574  27.862  1.00  0.00     0.037 A 
ATOM     49  C   UNL A   1      45.160  31.066  28.125  1.00  0.00     0.049 A 
ATOM     50  C   UNL A   1      43.010  25.971  27.311  1.00  0.00     0.074 A 
ATOM     51  C   UNL A   1      46.441  31.287  27.652  1.00  0.00     0.029 A 
ATOM     52  N   UNL A   1      44.831  29.760  27.794  1.00  0.00    -0.354 N 
ATOM     53  N   UNL A   1      43.651  27.108  27.433  1.00  0.00    -0.248 NA
ATOM     54  C   UNL A   1      43.731  24.957  26.528  1.00  0.00     0.031 C 
ATOM     55  C   UNL A   1      46.868  30.133  26.987  1.00  0.00     0.029 A 
ATOM     56  C   UNL A   1      45.875  29.173  27.098  1.00  0.00     0.049 A 
ATOM     57  H   UNL A   1      43.983  29.316  28.021  1.00  0.00     0.167 HD
ATOM     58  C   UNL A   1      44.862  26.936  26.771  1.00  0.00     0.074 A 
ATOM     59  C   UNL A   1      44.870  25.581  26.261  1.00  0.00     0.031 C 
ATOM     60  C   UNL A   1      45.876  27.820  26.602  1.00  0.00     0.037 A 
BRANCH  47  61
ATOM     61  C   UNL A   1      44.774  33.381  29.054  1.00  0.00     0.057 A 
ATOM     62  C   UNL A   1      44.527  34.414  28.140  1.00  0.00     0.134 A 
ATOM     63  C   UNL A   1      45.466  33.709  30.227  1.00  0.00     0.134 A 
ATOM     64  F   UNL A   1      43.881  34.164  26.990  1.00  0.00    -0.206 F 
ATOM     65  C   UNL A   1      44.970  35.717  28.374  1.00  0.00     0.040 A 
ATOM     66  C   UNL A   1      45.889  35.014  30.484  1.00  0.00     0.040 A 
ATOM     67  F   UNL A   1      45.732  32.769  31.146  1.00  0.00    -0.206 F 
ATOM     68  C   UNL A   1      45.647  36.021  29.553  1.00  0.00     0.006 A 
ENDBRANCH  47  61
BRANCH  48  69
ATOM     69  C   UNL A   1      41.126  24.211  27.619  1.00  0.00     0.057 A 
ATOM     70  C   UNL A   1      41.629  23.096  28.302  1.00  0.00     0.134 A 
ATOM     71  C   UNL A   1      40.116  23.986  26.674  1.00  0.00     0.134 A 
ATOM     72  F   UNL A   1      42.612  23.243  29.200  1.00  0.00    -0.206 F 
ATOM     73  C   UNL A   1      41.162  21.807  28.040  1.00  0.00     0.040 A 
ATOM     74  C   UNL A   1      39.621  22.706  26.423  1.00  0.00     0.040 A 
ATOM     75  F   UNL A   1      39.592  25.011  25.986  1.00  0.00    -0.206 F 
ATOM     76  C   UNL A   1      40.151  21.610  27.102  1.00  0.00     0.006 A 
ENDBRANCH  48  69
BRANCH  60  77
ATOM     77  C   UNL A   1      47.099  27.340  25.873  1.00  0.00     0.057 A 
ATOM     78  C   UNL A   1      48.157  26.703  26.533  1.00  0.00     0.134 A 
ATOM     79  C   UNL A   1      47.200  27.482  24.482  1.00  0.00     0.134 A 
ATOM     80  F   UNL A   1      48.129  26.543  27.865  1.00  0.00    -0.206 F 
ATOM     81  C   UNL A   1      49.280  26.247  25.840  1.00  0.00     0.040 A 
ATOM     82  C   UNL A   1      48.304  27.005  23.775  1.00  0.00     0.040 A 
ATOM     83  F   UNL A   1      46.218  28.074  23.785  1.00  0.00    -0.206 F 
ATOM     84  C   UNL A   1      49.353  26.392  24.457  1.00  0.00     0.006 A 
ENDBRANCH  60  77
ENDBRANCH  34  35
ENDBRANCH  27  29
ENDBRANCH  26  27
ENDBRANCH  25  26
ENDBRANCH  24  25
ENDBRANCH  23  24
ENDBRANCH   1  23
TORSDOF 18
ENDMDL
