MODEL 1
REMARK VINA RESULT:     -11.0      0.000      0.000
REMARK SMILES CCC(CC)COc1cc2c(cc1Cl)C=C(C(=O)OCCOCCOC(=O)c1ccc(-c3c4nc(c(-c5c(F)cccc5F)c5ccc([nH]5)c(-c5c(F)cccc5F)c5nc(c(-c6c(F)cccc6F)c6ccc3[nH]6)C=C5)C=C4)cc1)[C@@H](C(F)(F)F)O2
REMARK SMILES IDX 21 1 20 2 19 3 17 4 18 5 16 6 8 7 9 8 13 9 10 10 12 11 14 12
REMARK SMILES IDX 11 13 87 14 15 15 82 16 7 17 6 18 3 19 2 20 1 21 4 22 5 23
REMARK SMILES IDX 83 24 84 25 85 26 86 27 22 28 23 29 24 30 25 31 26 32 27 33
REMARK SMILES IDX 28 34 29 35 81 36 30 37 80 38 31 39 32 40 33 41 74 42 34 43
REMARK SMILES IDX 79 44 73 45 75 46 35 47 78 48 72 49 71 50 36 52 62 53 45 54
REMARK SMILES IDX 61 55 46 56 49 57 60 58 76 59 47 60 48 61 59 63 77 64 50 65
REMARK SMILES IDX 37 66 38 67 43 68 39 69 40 70 42 71 44 72 41 73 63 74 64 75
REMARK SMILES IDX 69 76 65 77 66 78 68 79 70 80 67 81 51 82 52 83 57 84 53 85
REMARK SMILES IDX 54 86 56 87 58 88 55 89
REMARK H PARENT 75 51 49 62
REMARK Flexibility Score: inf
ROOT
ATOM      1  C   UNL A   1      36.392  21.671  25.748  1.00  0.00     0.202 C 
ENDROOT
BRANCH   1   2
ATOM      2  C   UNL A   1      35.209  21.127  24.938  1.00  0.00     0.261 C 
BRANCH   2   3
ATOM      3  O   UNL A   1      34.530  22.143  24.183  1.00  0.00    -0.460 OA
BRANCH   3   4
ATOM      4  C   UNL A   1      33.241  21.830  23.916  1.00  0.00     0.338 C 
ATOM      5  O   UNL A   1      32.704  20.748  24.099  1.00  0.00    -0.246 OA
BRANCH   4   6
ATOM      6  C   UNL A   1      32.483  23.008  23.469  1.00  0.00     0.087 C 
ATOM      7  C   UNL A   1      31.709  27.824  22.511  1.00  0.00     0.141 A 
ATOM      8  C   UNL A   1      30.817  26.760  22.722  1.00  0.00     0.095 A 
ATOM      9  C   UNL A   1      33.088  27.590  22.570  1.00  0.00     0.083 A 
ATOM     10  C   UNL A   1      31.321  25.465  22.889  1.00  0.00     0.131 A 
ATOM     11  C   UNL A   1      33.570  26.289  22.549  1.00  0.00     0.036 A 
ATOM     12  Cl  UNL A   1      34.252  28.852  22.735  1.00  0.00    -0.080 Cl
ATOM     13  C   UNL A   1      32.682  25.229  22.694  1.00  0.00     0.019 A 
ATOM     14  O   UNL A   1      30.466  24.453  23.256  1.00  0.00    -0.475 OA
ATOM     15  C   UNL A   1      33.220  23.891  22.788  1.00  0.00     0.027 C 
ATOM     16  C   UNL A   1      31.082  23.298  23.932  1.00  0.00     0.316 C 
BRANCH   7  17
ATOM     17  O   UNL A   1      31.230  29.098  22.352  1.00  0.00    -0.492 OA
BRANCH  17  18
ATOM     18  C   UNL A   1      30.183  29.451  23.294  1.00  0.00     0.233 C 
BRANCH  18  19
ATOM     19  C   UNL A   1      29.101  30.388  22.692  1.00  0.00     0.026 C 
BRANCH  19  20
ATOM     20  C   UNL A   1      27.886  29.583  22.170  1.00  0.00     0.003 C 
ATOM     21  C   UNL A   1      27.221  28.735  23.246  1.00  0.00     0.004 C 
ENDBRANCH  19  20
BRANCH  19  22
ATOM     22  C   UNL A   1      28.670  31.516  23.657  1.00  0.00     0.003 C 
ATOM     23  C   UNL A   1      28.788  32.932  23.117  1.00  0.00     0.004 C 
ENDBRANCH  19  22
ENDBRANCH  18  19
ENDBRANCH  17  18
ENDBRANCH   7  17
BRANCH  16  24
ATOM     24  C   UNL A   1      31.029  23.449  25.461  1.00  0.00     0.430 C 
ATOM     25  F   UNL A   1      32.222  23.837  25.966  1.00  0.00    -0.167 F 
ATOM     26  F   UNL A   1      30.126  24.394  25.824  1.00  0.00    -0.167 F 
ATOM     27  F   UNL A   1      30.676  22.299  26.078  1.00  0.00    -0.167 F 
ENDBRANCH  16  24
ENDBRANCH   4   6
ENDBRANCH   3   4
ENDBRANCH   2   3
ENDBRANCH   1   2
BRANCH   1  28
ATOM     28  O   UNL A   1      37.633  21.885  25.086  1.00  0.00    -0.374 OA
BRANCH  28  29
ATOM     29  C   UNL A   1      38.846  21.505  25.729  1.00  0.00     0.202 C 
BRANCH  29  30
ATOM     30  C   UNL A   1      39.403  20.092  25.512  1.00  0.00     0.261 C 
BRANCH  30  31
ATOM     31  O   UNL A   1      40.416  19.716  26.457  1.00  0.00    -0.460 OA
BRANCH  31  32
ATOM     32  C   UNL A   1      41.690  19.906  26.023  1.00  0.00     0.338 C 
ATOM     33  O   UNL A   1      42.290  19.262  25.183  1.00  0.00    -0.246 OA
BRANCH  32  34
ATOM     34  C   UNL A   1      42.219  21.158  26.595  1.00  0.00     0.060 A 
ATOM     35  C   UNL A   1      42.734  22.158  25.772  1.00  0.00     0.016 A 
ATOM     36  C   UNL A   1      42.124  21.348  27.981  1.00  0.00     0.016 A 
ATOM     37  C   UNL A   1      43.126  23.371  26.341  1.00  0.00     0.010 A 
ATOM     38  C   UNL A   1      42.514  22.563  28.546  1.00  0.00     0.010 A 
ATOM     39  C   UNL A   1      42.996  23.590  27.726  1.00  0.00    -0.014 A 
BRANCH  39  40
ATOM     40  C   UNL A   1      43.239  24.946  28.275  1.00  0.00     0.031 A 
ATOM     41  C   UNL A   1      44.621  25.433  28.586  1.00  0.00     0.074 A 
ATOM     42  C   UNL A   1      42.178  25.749  28.481  1.00  0.00     0.049 A 
ATOM     43  N   UNL A   1      45.011  26.634  28.934  1.00  0.00    -0.248 NA
ATOM     44  C   UNL A   1      45.705  24.444  28.507  1.00  0.00     0.031 C 
ATOM     45  C   UNL A   1      40.781  25.363  28.270  1.00  0.00     0.029 A 
ATOM     46  N   UNL A   1      42.107  27.053  28.892  1.00  0.00    -0.354 N 
ATOM     47  C   UNL A   1      46.388  26.556  29.087  1.00  0.00     0.074 A 
ATOM     48  C   UNL A   1      46.757  25.175  28.856  1.00  0.00     0.031 C 
ATOM     49  C   UNL A   1      39.994  26.425  28.507  1.00  0.00     0.029 A 
ATOM     50  C   UNL A   1      40.827  27.552  28.911  1.00  0.00     0.049 A 
ATOM     51  H   UNL A   1      42.896  27.582  29.149  1.00  0.00     0.167 HD
ATOM     52  C   UNL A   1      47.263  27.552  29.372  1.00  0.00     0.037 A 
ATOM     53  C   UNL A   1      40.379  28.785  29.206  1.00  0.00     0.037 A 
ATOM     54  C   UNL A   1      46.883  28.918  29.636  1.00  0.00     0.049 A 
ATOM     55  C   UNL A   1      41.368  29.857  29.566  1.00  0.00     0.074 A 
ATOM     56  C   UNL A   1      47.697  30.007  29.900  1.00  0.00     0.029 A 
ATOM     57  N   UNL A   1      45.575  29.379  29.694  1.00  0.00    -0.354 N 
ATOM     58  N   UNL A   1      42.678  29.798  29.605  1.00  0.00    -0.248 NA
ATOM     59  C   UNL A   1      40.814  31.173  29.915  1.00  0.00     0.031 C 
ATOM     60  C   UNL A   1      46.880  31.111  30.173  1.00  0.00     0.029 A 
ATOM     61  C   UNL A   1      45.558  30.727  30.024  1.00  0.00     0.049 A 
ATOM     62  H   UNL A   1      44.776  28.829  29.527  1.00  0.00     0.167 HD
ATOM     63  C   UNL A   1      43.104  31.070  29.963  1.00  0.00     0.074 A 
ATOM     64  C   UNL A   1      41.914  31.887  30.095  1.00  0.00     0.031 C 
ATOM     65  C   UNL A   1      44.365  31.523  30.171  1.00  0.00     0.037 A 
BRANCH  52  66
ATOM     66  C   UNL A   1      48.722  27.193  29.414  1.00  0.00     0.057 A 
ATOM     67  C   UNL A   1      49.332  26.792  30.610  1.00  0.00     0.134 A 
ATOM     68  C   UNL A   1      49.530  27.268  28.271  1.00  0.00     0.134 A 
ATOM     69  F   UNL A   1      48.620  26.709  31.743  1.00  0.00    -0.206 F 
ATOM     70  C   UNL A   1      50.690  26.475  30.665  1.00  0.00     0.040 A 
ATOM     71  C   UNL A   1      50.883  26.926  28.308  1.00  0.00     0.040 A 
ATOM     72  F   UNL A   1      49.008  27.637  27.092  1.00  0.00    -0.206 F 
ATOM     73  C   UNL A   1      51.469  26.533  29.510  1.00  0.00     0.006 A 
ENDBRANCH  52  66
BRANCH  53  74
ATOM     74  C   UNL A   1      38.925  29.087  29.155  1.00  0.00     0.057 A 
ATOM     75  C   UNL A   1      38.124  29.005  30.300  1.00  0.00     0.134 A 
ATOM     76  C   UNL A   1      38.313  29.502  27.967  1.00  0.00     0.134 A 
ATOM     77  F   UNL A   1      38.648  28.607  31.468  1.00  0.00    -0.206 F 
ATOM     78  C   UNL A   1      36.768  29.330  30.266  1.00  0.00     0.040 A 
ATOM     79  C   UNL A   1      36.965  29.858  27.925  1.00  0.00     0.040 A 
ATOM     80  F   UNL A   1      39.033  29.615  26.841  1.00  0.00    -0.206 F 
ATOM     81  C   UNL A   1      36.187  29.770  29.078  1.00  0.00     0.006 A 
ENDBRANCH  53  74
BRANCH  65  82
ATOM     82  C   UNL A   1      44.509  32.971  30.551  1.00  0.00     0.057 A 
ATOM     83  C   UNL A   1      44.485  33.366  31.895  1.00  0.00     0.134 A 
ATOM     84  C   UNL A   1      44.689  33.974  29.588  1.00  0.00     0.134 A 
ATOM     85  F   UNL A   1      44.309  32.461  32.869  1.00  0.00    -0.206 F 
ATOM     86  C   UNL A   1      44.642  34.702  32.267  1.00  0.00     0.040 A 
ATOM     87  C   UNL A   1      44.881  35.309  29.949  1.00  0.00     0.040 A 
ATOM     88  F   UNL A   1      44.739  33.663  28.284  1.00  0.00    -0.206 F 
ATOM     89  C   UNL A   1      44.854  35.676  31.293  1.00  0.00     0.006 A 
ENDBRANCH  65  82
ENDBRANCH  39  40
ENDBRANCH  32  34
ENDBRANCH  31  32
ENDBRANCH  30  31
ENDBRANCH  29  30
ENDBRANCH  28  29
ENDBRANCH   1  28
TORSDOF 20
ENDMDL
MODEL 2
REMARK VINA RESULT:     -10.8      3.928      7.703
REMARK SMILES CCC(CC)COc1cc2c(cc1Cl)C=C(C(=O)OCCOCCOC(=O)c1ccc(-c3c4nc(c(-c5c(F)cccc5F)c5ccc([nH]5)c(-c5c(F)cccc5F)c5nc(c(-c6c(F)cccc6F)c6ccc3[nH]6)C=C5)C=C4)cc1)[C@@H](C(F)(F)F)O2
REMARK SMILES IDX 21 1 20 2 19 3 17 4 18 5 16 6 8 7 9 8 13 9 10 10 12 11 14 12
REMARK SMILES IDX 11 13 87 14 15 15 82 16 7 17 6 18 3 19 2 20 1 21 4 22 5 23
REMARK SMILES IDX 83 24 84 25 85 26 86 27 22 28 23 29 24 30 25 31 26 32 27 33
REMARK SMILES IDX 28 34 29 35 81 36 30 37 80 38 31 39 32 40 33 41 74 42 34 43
REMARK SMILES IDX 79 44 73 45 75 46 35 47 78 48 72 49 71 50 36 52 62 53 45 54
REMARK SMILES IDX 61 55 46 56 49 57 60 58 76 59 47 60 48 61 59 63 77 64 50 65
REMARK SMILES IDX 37 66 38 67 43 68 39 69 40 70 42 71 44 72 41 73 63 74 64 75
REMARK SMILES IDX 69 76 65 77 66 78 68 79 70 80 67 81 51 82 52 83 57 84 53 85
REMARK SMILES IDX 54 86 56 87 58 88 55 89
REMARK H PARENT 75 51 49 62
REMARK Flexibility Score: inf
ROOT
ATOM      1  C   UNL A   1      40.029  19.988  26.280  1.00  0.00     0.202 C 
ENDROOT
BRANCH   1   2
ATOM      2  C   UNL A   1      38.873  20.256  25.309  1.00  0.00     0.261 C 
BRANCH   2   3
ATOM      3  O   UNL A   1      38.011  21.320  25.741  1.00  0.00    -0.460 OA
BRANCH   3   4
ATOM      4  C   UNL A   1      36.707  21.090  25.465  1.00  0.00     0.338 C 
ATOM      5  O   UNL A   1      36.207  20.015  25.166  1.00  0.00    -0.246 OA
BRANCH   4   6
ATOM      6  C   UNL A   1      35.890  22.293  25.682  1.00  0.00     0.087 C 
ATOM      7  C   UNL A   1      31.717  24.875  26.472  1.00  0.00     0.141 A 
ATOM      8  C   UNL A   1      32.970  25.259  25.966  1.00  0.00     0.095 A 
ATOM      9  C   UNL A   1      31.501  23.542  26.842  1.00  0.00     0.083 A 
ATOM     10  C   UNL A   1      34.011  24.325  25.933  1.00  0.00     0.131 A 
ATOM     11  C   UNL A   1      32.579  22.680  26.979  1.00  0.00     0.036 A 
ATOM     12  Cl  UNL A   1      29.929  22.874  27.080  1.00  0.00    -0.080 Cl
ATOM     13  C   UNL A   1      33.835  23.080  26.537  1.00  0.00     0.019 A 
ATOM     14  O   UNL A   1      35.183  24.648  25.291  1.00  0.00    -0.475 OA
ATOM     15  C   UNL A   1      34.916  22.122  26.582  1.00  0.00     0.027 C 
ATOM     16  C   UNL A   1      35.993  23.514  24.812  1.00  0.00     0.316 C 
BRANCH   7  17
ATOM     17  O   UNL A   1      30.686  25.777  26.506  1.00  0.00    -0.492 OA
BRANCH  17  18
ATOM     18  C   UNL A   1      30.203  26.162  25.192  1.00  0.00     0.233 C 
BRANCH  18  19
ATOM     19  C   UNL A   1      30.280  27.690  24.928  1.00  0.00     0.026 C 
BRANCH  19  20
ATOM     20  C   UNL A   1      31.673  28.256  25.294  1.00  0.00     0.003 C 
ATOM     21  C   UNL A   1      31.703  29.777  25.363  1.00  0.00     0.004 C 
ENDBRANCH  19  20
BRANCH  19  22
ATOM     22  C   UNL A   1      29.861  28.080  23.492  1.00  0.00     0.003 C 
ATOM     23  C   UNL A   1      30.886  27.803  22.403  1.00  0.00     0.004 C 
ENDBRANCH  19  22
ENDBRANCH  18  19
ENDBRANCH  17  18
ENDBRANCH   7  17
BRANCH  16  24
ATOM     24  C   UNL A   1      35.673  23.175  23.348  1.00  0.00     0.430 C 
ATOM     25  F   UNL A   1      34.770  22.172  23.254  1.00  0.00    -0.167 F 
ATOM     26  F   UNL A   1      35.136  24.244  22.709  1.00  0.00    -0.167 F 
ATOM     27  F   UNL A   1      36.772  22.804  22.655  1.00  0.00    -0.167 F 
ENDBRANCH  16  24
ENDBRANCH   4   6
ENDBRANCH   3   4
ENDBRANCH   2   3
ENDBRANCH   1   2
BRANCH   1  28
ATOM     28  O   UNL A   1      41.345  19.855  25.755  1.00  0.00    -0.374 OA
BRANCH  28  29
ATOM     29  C   UNL A   1      42.439  20.454  26.445  1.00  0.00     0.202 C 
BRANCH  29  30
ATOM     30  C   UNL A   1      43.292  21.510  25.731  1.00  0.00     0.261 C 
BRANCH  30  31
ATOM     31  O   UNL A   1      42.551  22.662  25.301  1.00  0.00    -0.460 OA
BRANCH  31  32
ATOM     32  C   UNL A   1      43.277  23.809  25.243  1.00  0.00     0.338 C 
ATOM     33  O   UNL A   1      44.176  24.078  24.467  1.00  0.00    -0.246 OA
BRANCH  32  34
ATOM     34  C   UNL A   1      42.697  24.802  26.164  1.00  0.00     0.060 A 
ATOM     35  C   UNL A   1      41.736  24.429  27.103  1.00  0.00     0.016 A 
ATOM     36  C   UNL A   1      43.186  26.115  26.122  1.00  0.00     0.016 A 
ATOM     37  C   UNL A   1      41.289  25.374  28.029  1.00  0.00     0.010 A 
ATOM     38  C   UNL A   1      42.739  27.056  27.051  1.00  0.00     0.010 A 
ATOM     39  C   UNL A   1      41.805  26.684  28.025  1.00  0.00    -0.014 A 
BRANCH  39  40
ATOM     40  C   UNL A   1      41.457  27.608  29.132  1.00  0.00     0.031 A 
ATOM     41  C   UNL A   1      40.283  28.534  29.044  1.00  0.00     0.074 A 
ATOM     42  C   UNL A   1      42.222  27.590  30.239  1.00  0.00     0.049 A 
ATOM     43  N   UNL A   1      39.765  29.295  29.975  1.00  0.00    -0.248 NA
ATOM     44  C   UNL A   1      39.608  28.627  27.742  1.00  0.00     0.031 C 
ATOM     45  C   UNL A   1      43.424  26.773  30.416  1.00  0.00     0.029 A 
ATOM     46  N   UNL A   1      42.093  28.258  31.428  1.00  0.00    -0.354 N 
ATOM     47  C   UNL A   1      38.685  29.936  29.384  1.00  0.00     0.074 A 
ATOM     48  C   UNL A   1      38.662  29.522  27.996  1.00  0.00     0.031 C 
ATOM     49  C   UNL A   1      43.896  26.952  31.660  1.00  0.00     0.029 A 
ATOM     50  C   UNL A   1      43.047  27.913  32.355  1.00  0.00     0.049 A 
ATOM     51  H   UNL A   1      41.387  28.921  31.602  1.00  0.00     0.167 HD
ATOM     52  C   UNL A   1      37.786  30.775  29.955  1.00  0.00     0.037 A 
ATOM     53  C   UNL A   1      43.209  28.317  33.628  1.00  0.00     0.037 A 
ATOM     54  C   UNL A   1      37.837  31.210  31.328  1.00  0.00     0.049 A 
ATOM     55  C   UNL A   1      42.223  29.285  34.219  1.00  0.00     0.074 A 
ATOM     56  C   UNL A   1      36.954  32.030  32.011  1.00  0.00     0.029 A 
ATOM     57  N   UNL A   1      38.843  30.880  32.227  1.00  0.00    -0.354 N 
ATOM     58  N   UNL A   1      41.145  29.804  33.682  1.00  0.00    -0.248 NA
ATOM     59  C   UNL A   1      42.475  29.717  35.601  1.00  0.00     0.031 C 
ATOM     60  C   UNL A   1      37.455  32.241  33.301  1.00  0.00     0.029 A 
ATOM     61  C   UNL A   1      38.621  31.507  33.444  1.00  0.00     0.049 A 
ATOM     62  H   UNL A   1      39.604  30.288  32.028  1.00  0.00     0.167 HD
ATOM     63  C   UNL A   1      40.581  30.606  34.665  1.00  0.00     0.074 A 
ATOM     64  C   UNL A   1      41.418  30.477  35.840  1.00  0.00     0.031 C 
ATOM     65  C   UNL A   1      39.473  31.386  34.601  1.00  0.00     0.037 A 
BRANCH  52  66
ATOM     66  C   UNL A   1      36.667  31.277  29.085  1.00  0.00     0.057 A 
ATOM     67  C   UNL A   1      35.632  30.426  28.677  1.00  0.00     0.134 A 
ATOM     68  C   UNL A   1      36.629  32.603  28.630  1.00  0.00     0.134 A 
ATOM     69  F   UNL A   1      35.612  29.142  29.067  1.00  0.00    -0.206 F 
ATOM     70  C   UNL A   1      34.599  30.875  27.853  1.00  0.00     0.040 A 
ATOM     71  C   UNL A   1      35.586  33.071  27.828  1.00  0.00     0.040 A 
ATOM     72  F   UNL A   1      37.584  33.472  28.989  1.00  0.00    -0.206 F 
ATOM     73  C   UNL A   1      34.569  32.205  27.433  1.00  0.00     0.006 A 
ENDBRANCH  52  66
BRANCH  53  74
ATOM     74  C   UNL A   1      44.335  27.795  34.443  1.00  0.00     0.057 A 
ATOM     75  C   UNL A   1      45.532  28.509  34.575  1.00  0.00     0.134 A 
ATOM     76  C   UNL A   1      44.224  26.587  35.141  1.00  0.00     0.134 A 
ATOM     77  F   UNL A   1      45.704  29.670  33.925  1.00  0.00    -0.206 F 
ATOM     78  C   UNL A   1      46.576  28.043  35.374  1.00  0.00     0.040 A 
ATOM     79  C   UNL A   1      45.248  26.124  35.967  1.00  0.00     0.040 A 
ATOM     80  F   UNL A   1      43.096  25.866  35.067  1.00  0.00    -0.206 F 
ATOM     81  C   UNL A   1      46.430  26.853  36.084  1.00  0.00     0.006 A 
ENDBRANCH  53  74
BRANCH  65  82
ATOM     82  C   UNL A   1      39.108  32.144  35.846  1.00  0.00     0.057 A 
ATOM     83  C   UNL A   1      38.320  31.551  36.842  1.00  0.00     0.134 A 
ATOM     84  C   UNL A   1      39.548  33.456  36.070  1.00  0.00     0.134 A 
ATOM     85  F   UNL A   1      37.857  30.301  36.692  1.00  0.00    -0.206 F 
ATOM     86  C   UNL A   1      37.992  32.232  38.017  1.00  0.00     0.040 A 
ATOM     87  C   UNL A   1      39.255  34.135  37.255  1.00  0.00     0.040 A 
ATOM     88  F   UNL A   1      40.319  34.078  35.165  1.00  0.00    -0.206 F 
ATOM     89  C   UNL A   1      38.472  33.523  38.230  1.00  0.00     0.006 A 
ENDBRANCH  65  82
ENDBRANCH  39  40
ENDBRANCH  32  34
ENDBRANCH  31  32
ENDBRANCH  30  31
ENDBRANCH  29  30
ENDBRANCH  28  29
ENDBRANCH   1  28
TORSDOF 20
ENDMDL
MODEL 3
REMARK VINA RESULT:     -10.6      4.682      9.959
REMARK SMILES CCC(CC)COc1cc2c(cc1Cl)C=C(C(=O)OCCOCCOC(=O)c1ccc(-c3c4nc(c(-c5c(F)cccc5F)c5ccc([nH]5)c(-c5c(F)cccc5F)c5nc(c(-c6c(F)cccc6F)c6ccc3[nH]6)C=C5)C=C4)cc1)[C@@H](C(F)(F)F)O2
REMARK SMILES IDX 21 1 20 2 19 3 17 4 18 5 16 6 8 7 9 8 13 9 10 10 12 11 14 12
REMARK SMILES IDX 11 13 87 14 15 15 82 16 7 17 6 18 3 19 2 20 1 21 4 22 5 23
REMARK SMILES IDX 83 24 84 25 85 26 86 27 22 28 23 29 24 30 25 31 26 32 27 33
REMARK SMILES IDX 28 34 29 35 81 36 30 37 80 38 31 39 32 40 33 41 74 42 34 43
REMARK SMILES IDX 79 44 73 45 75 46 35 47 78 48 72 49 71 50 36 52 62 53 45 54
REMARK SMILES IDX 61 55 46 56 49 57 60 58 76 59 47 60 48 61 59 63 77 64 50 65
REMARK SMILES IDX 37 66 38 67 43 68 39 69 40 70 42 71 44 72 41 73 63 74 64 75
REMARK SMILES IDX 69 76 65 77 66 78 68 79 70 80 67 81 51 82 52 83 57 84 53 85
REMARK SMILES IDX 54 86 56 87 58 88 55 89
REMARK H PARENT 75 51 49 62
REMARK Flexibility Score: inf
ROOT
ATOM      1  C   UNL A   1      31.775  30.715  26.401  1.00  0.00     0.202 C 
ENDROOT
BRANCH   1   2
ATOM      2  C   UNL A   1      31.455  29.608  25.390  1.00  0.00     0.261 C 
BRANCH   2   3
ATOM      3  O   UNL A   1      31.694  28.289  25.905  1.00  0.00    -0.460 OA
BRANCH   3   4
ATOM      4  C   UNL A   1      32.742  27.671  25.313  1.00  0.00     0.338 C 
ATOM      5  O   UNL A   1      33.656  28.212  24.708  1.00  0.00    -0.246 OA
BRANCH   4   6
ATOM      6  C   UNL A   1      32.735  26.225  25.579  1.00  0.00     0.087 C 
ATOM      7  C   UNL A   1      34.341  21.532  25.251  1.00  0.00     0.141 A 
ATOM      8  C   UNL A   1      33.092  22.068  25.606  1.00  0.00     0.095 A 
ATOM      9  C   UNL A   1      35.387  22.394  24.900  1.00  0.00     0.083 A 
ATOM     10  C   UNL A   1      32.943  23.456  25.699  1.00  0.00     0.131 A 
ATOM     11  C   UNL A   1      35.285  23.751  25.174  1.00  0.00     0.036 A 
ATOM     12  Cl  UNL A   1      36.803  21.867  24.070  1.00  0.00    -0.080 Cl
ATOM     13  C   UNL A   1      34.066  24.276  25.586  1.00  0.00     0.019 A 
ATOM     14  O   UNL A   1      31.689  23.987  25.886  1.00  0.00    -0.475 OA
ATOM     15  C   UNL A   1      33.956  25.707  25.750  1.00  0.00     0.027 C 
ATOM     16  C   UNL A   1      31.501  25.378  25.440  1.00  0.00     0.316 C 
BRANCH   7  17
ATOM     17  O   UNL A   1      34.500  20.175  25.150  1.00  0.00    -0.492 OA
BRANCH  17  18
ATOM     18  C   UNL A   1      33.365  19.496  24.552  1.00  0.00     0.233 C 
BRANCH  18  19
ATOM     19  C   UNL A   1      33.608  17.982  24.309  1.00  0.00     0.026 C 
BRANCH  19  20
ATOM     20  C   UNL A   1      33.309  17.152  25.581  1.00  0.00     0.003 C 
ATOM     21  C   UNL A   1      33.480  15.653  25.372  1.00  0.00     0.004 C 
ENDBRANCH  19  20
BRANCH  19  22
ATOM     22  C   UNL A   1      32.853  17.436  23.076  1.00  0.00     0.003 C 
ATOM     23  C   UNL A   1      32.521  18.454  21.997  1.00  0.00     0.004 C 
ENDBRANCH  19  22
ENDBRANCH  18  19
ENDBRANCH  17  18
ENDBRANCH   7  17
BRANCH  16  24
ATOM     24  C   UNL A   1      30.951  25.439  24.006  1.00  0.00     0.430 C 
ATOM     25  F   UNL A   1      30.338  24.285  23.657  1.00  0.00    -0.167 F 
ATOM     26  F   UNL A   1      30.027  26.424  23.882  1.00  0.00    -0.167 F 
ATOM     27  F   UNL A   1      31.920  25.681  23.095  1.00  0.00    -0.167 F 
ENDBRANCH  16  24
ENDBRANCH   4   6
ENDBRANCH   3   4
ENDBRANCH   2   3
ENDBRANCH   1   2
BRANCH   1  28
ATOM     28  O   UNL A   1      32.945  30.592  27.202  1.00  0.00    -0.374 OA
BRANCH  28  29
ATOM     29  C   UNL A   1      33.596  31.766  27.678  1.00  0.00     0.202 C 
BRANCH  29  30
ATOM     30  C   UNL A   1      33.072  33.143  27.252  1.00  0.00     0.261 C 
BRANCH  30  31
ATOM     31  O   UNL A   1      32.341  33.829  28.280  1.00  0.00    -0.460 OA
BRANCH  31  32
ATOM     32  C   UNL A   1      32.962  34.933  28.771  1.00  0.00     0.338 C 
ATOM     33  O   UNL A   1      32.560  36.082  28.748  1.00  0.00    -0.246 OA
BRANCH  32  34
ATOM     34  C   UNL A   1      34.159  34.524  29.528  1.00  0.00     0.060 A 
ATOM     35  C   UNL A   1      34.041  33.896  30.767  1.00  0.00     0.016 A 
ATOM     36  C   UNL A   1      35.416  34.716  28.939  1.00  0.00     0.016 A 
ATOM     37  C   UNL A   1      35.191  33.427  31.403  1.00  0.00     0.010 A 
ATOM     38  C   UNL A   1      36.564  34.244  29.576  1.00  0.00     0.010 A 
ATOM     39  C   UNL A   1      36.456  33.575  30.801  1.00  0.00    -0.014 A 
BRANCH  39  40
ATOM     40  C   UNL A   1      37.633  32.903  31.404  1.00  0.00     0.031 A 
ATOM     41  C   UNL A   1      38.196  33.336  32.722  1.00  0.00     0.074 A 
ATOM     42  C   UNL A   1      38.187  31.873  30.737  1.00  0.00     0.049 A 
ATOM     43  N   UNL A   1      39.126  32.764  33.446  1.00  0.00    -0.248 NA
ATOM     44  C   UNL A   1      37.656  34.574  33.300  1.00  0.00     0.031 C 
ATOM     45  C   UNL A   1      37.762  31.400  29.418  1.00  0.00     0.029 A 
ATOM     46  N   UNL A   1      39.209  31.028  31.082  1.00  0.00    -0.354 N 
ATOM     47  C   UNL A   1      39.263  33.553  34.579  1.00  0.00     0.074 A 
ATOM     48  C   UNL A   1      38.366  34.679  34.417  1.00  0.00     0.031 C 
ATOM     49  C   UNL A   1      38.485  30.319  29.087  1.00  0.00     0.029 A 
ATOM     50  C   UNL A   1      39.439  30.041  30.154  1.00  0.00     0.049 A 
ATOM     51  H   UNL A   1      39.728  31.119  31.913  1.00  0.00     0.167 HD
ATOM     52  C   UNL A   1      40.049  33.343  35.664  1.00  0.00     0.037 A 
ATOM     53  C   UNL A   1      40.313  29.019  30.172  1.00  0.00     0.037 A 
ATOM     54  C   UNL A   1      40.967  32.240  35.803  1.00  0.00     0.049 A 
ATOM     55  C   UNL A   1      41.206  28.839  31.366  1.00  0.00     0.074 A 
ATOM     56  C   UNL A   1      41.781  31.920  36.876  1.00  0.00     0.029 A 
ATOM     57  N   UNL A   1      41.210  31.284  34.825  1.00  0.00    -0.354 N 
ATOM     58  N   UNL A   1      41.253  29.532  32.479  1.00  0.00    -0.248 NA
ATOM     59  C   UNL A   1      42.164  27.726  31.309  1.00  0.00     0.031 C 
ATOM     60  C   UNL A   1      42.556  30.808  36.526  1.00  0.00     0.029 A 
ATOM     61  C   UNL A   1      42.186  30.397  35.256  1.00  0.00     0.049 A 
ATOM     62  H   UNL A   1      40.757  31.244  33.952  1.00  0.00     0.167 HD
ATOM     63  C   UNL A   1      42.229  28.928  33.260  1.00  0.00     0.074 A 
ATOM     64  C   UNL A   1      42.723  27.793  32.507  1.00  0.00     0.031 C 
ATOM     65  C   UNL A   1      42.683  29.283  34.488  1.00  0.00     0.037 A 
BRANCH  52  66
ATOM     66  C   UNL A   1      39.949  34.337  36.787  1.00  0.00     0.057 A 
ATOM     67  C   UNL A   1      39.020  34.166  37.821  1.00  0.00     0.134 A 
ATOM     68  C   UNL A   1      40.759  35.482  36.830  1.00  0.00     0.134 A 
ATOM     69  F   UNL A   1      38.207  33.100  37.837  1.00  0.00    -0.206 F 
ATOM     70  C   UNL A   1      38.904  35.093  38.859  1.00  0.00     0.040 A 
ATOM     71  C   UNL A   1      40.671  36.401  37.877  1.00  0.00     0.040 A 
ATOM     72  F   UNL A   1      41.674  35.703  35.875  1.00  0.00    -0.206 F 
ATOM     73  C   UNL A   1      39.738  36.210  38.894  1.00  0.00     0.006 A 
ENDBRANCH  52  66
BRANCH  53  74
ATOM     74  C   UNL A   1      40.376  28.067  29.033  1.00  0.00     0.057 A 
ATOM     75  C   UNL A   1      39.635  26.879  29.033  1.00  0.00     0.134 A 
ATOM     76  C   UNL A   1      41.151  28.344  27.901  1.00  0.00     0.134 A 
ATOM     77  F   UNL A   1      38.879  26.553  30.091  1.00  0.00    -0.206 F 
ATOM     78  C   UNL A   1      39.659  26.004  27.948  1.00  0.00     0.040 A 
ATOM     79  C   UNL A   1      41.161  27.492  26.796  1.00  0.00     0.040 A 
ATOM     80  F   UNL A   1      41.871  29.474  27.835  1.00  0.00    -0.206 F 
ATOM     81  C   UNL A   1      40.414  26.317  26.819  1.00  0.00     0.006 A 
ENDBRANCH  53  74
BRANCH  65  82
ATOM     82  C   UNL A   1      43.758  28.420  35.087  1.00  0.00     0.057 A 
ATOM     83  C   UNL A   1      45.112  28.724  34.894  1.00  0.00     0.134 A 
ATOM     84  C   UNL A   1      43.456  27.296  35.868  1.00  0.00     0.134 A 
ATOM     85  F   UNL A   1      45.476  29.780  34.151  1.00  0.00    -0.206 F 
ATOM     86  C   UNL A   1      46.124  27.948  35.463  1.00  0.00     0.040 A 
ATOM     87  C   UNL A   1      44.458  26.532  36.470  1.00  0.00     0.040 A 
ATOM     88  F   UNL A   1      42.180  26.957  36.106  1.00  0.00    -0.206 F 
ATOM     89  C   UNL A   1      45.797  26.856  36.264  1.00  0.00     0.006 A 
ENDBRANCH  65  82
ENDBRANCH  39  40
ENDBRANCH  32  34
ENDBRANCH  31  32
ENDBRANCH  30  31
ENDBRANCH  29  30
ENDBRANCH  28  29
ENDBRANCH   1  28
TORSDOF 20
ENDMDL
