MODEL 1
REMARK VINA RESULT:     -10.8      0.000      0.000
REMARK SMILES C[C@@H]1CCCN(C(=O)c2ccc(=O)n([C@H](C)C(=O)OCCOCCOC(=O)c3ccc(-c4c5nc(c(-c6c(F)cccc6F)c6ccc([nH]6)c(-c6c(F)cccc6F)c6nc(c(-c7c(F)cccc7F)c7ccc4[nH]7)C=C6)C=C5)cc3)n2)C1
REMARK SMILES IDX 21 1 20 2 19 3 17 4 18 5 15 6 16 7 14 8 9 9 10 10 82 11
REMARK SMILES IDX 11 12 12 13 13 14 7 15 8 16 6 17 1 18 2 19 3 20 83 21 4 22
REMARK SMILES IDX 5 23 22 24 23 25 24 26 25 27 26 28 27 29 28 30 29 31 81 32
REMARK SMILES IDX 30 33 80 34 31 35 32 36 33 37 74 38 34 39 79 40 73 41 75 42
REMARK SMILES IDX 35 43 78 44 72 45 71 46 36 48 62 49 45 50 61 51 46 52 49 53
REMARK SMILES IDX 60 54 76 55 47 56 48 57 59 59 77 60 50 61 37 62 38 63 43 64
REMARK SMILES IDX 39 65 40 66 42 67 44 68 41 69 63 70 64 71 69 72 65 73 66 74
REMARK SMILES IDX 68 75 70 76 67 77 51 78 52 79 57 80 53 81 54 82 56 83 58 84
REMARK SMILES IDX 55 85
REMARK H PARENT 75 47 49 58
REMARK Flexibility Score: inf
ROOT
ATOM      1  C   UNL A   1      34.904  30.126  27.362  1.00  0.00     0.202 C 
ENDROOT
BRANCH   1   2
ATOM      2  C   UNL A   1      33.820  29.151  26.896  1.00  0.00     0.261 C 
BRANCH   2   3
ATOM      3  O   UNL A   1      33.824  28.981  25.472  1.00  0.00    -0.462 OA
BRANCH   3   4
ATOM      4  C   UNL A   1      32.660  29.323  24.847  1.00  0.00     0.330 C 
ATOM      5  O   UNL A   1      31.850  30.116  25.314  1.00  0.00    -0.250 OA
BRANCH   4   6
ATOM      6  C   UNL A   1      32.436  28.558  23.536  1.00  0.00     0.218 C 
ATOM      7  C   UNL A   1      33.637  27.760  23.012  1.00  0.00     0.046 C 
BRANCH   6   8
ATOM      8  N   UNL A   1      31.231  27.757  23.743  1.00  0.00    -0.215 N 
ATOM      9  C   UNL A   1      30.195  26.112  24.941  1.00  0.00     0.149 A 
ATOM     10  C   UNL A   1      28.907  26.328  24.261  1.00  0.00     0.042 A 
ATOM     11  N   UNL A   1      31.279  26.788  24.725  1.00  0.00    -0.164 NA
ATOM     12  C   UNL A   1      28.890  27.254  23.303  1.00  0.00     0.076 A 
ATOM     13  C   UNL A   1      30.113  28.004  22.949  1.00  0.00     0.267 A 
ATOM     14  O   UNL A   1      30.074  28.787  22.006  1.00  0.00    -0.268 OA
BRANCH   9  15
ATOM     15  C   UNL A   1      30.225  24.983  25.951  1.00  0.00     0.274 C 
ATOM     16  O   UNL A   1      29.397  25.037  26.855  1.00  0.00    -0.267 OA
BRANCH  15  17
ATOM     17  N   UNL A   1      31.189  23.993  25.810  1.00  0.00    -0.337 N 
ATOM     18  C   UNL A   1      32.154  21.843  22.819  1.00  0.00     0.009 C 
ATOM     19  C   UNL A   1      32.297  22.936  23.874  1.00  0.00     0.005 C 
ATOM     20  C   UNL A   1      33.541  22.705  24.747  1.00  0.00     0.007 C 
ATOM     21  C   UNL A   1      31.036  23.008  24.745  1.00  0.00     0.123 C 
ATOM     22  C   UNL A   1      33.637  23.768  25.843  1.00  0.00     0.022 C 
ATOM     23  C   UNL A   1      32.357  23.818  26.671  1.00  0.00     0.120 C 
ENDBRANCH  15  17
ENDBRANCH   9  15
ENDBRANCH   6   8
ENDBRANCH   4   6
ENDBRANCH   3   4
ENDBRANCH   2   3
ENDBRANCH   1   2
BRANCH   1  24
ATOM     24  O   UNL A   1      34.515  31.452  27.699  1.00  0.00    -0.374 OA
BRANCH  24  25
ATOM     25  C   UNL A   1      33.136  31.804  27.627  1.00  0.00     0.202 C 
BRANCH  25  26
ATOM     26  C   UNL A   1      32.767  33.268  27.349  1.00  0.00     0.261 C 
BRANCH  26  27
ATOM     27  O   UNL A   1      32.421  33.999  28.538  1.00  0.00    -0.460 OA
BRANCH  27  28
ATOM     28  C   UNL A   1      33.277  34.998  28.864  1.00  0.00     0.338 C 
ATOM     29  O   UNL A   1      33.089  36.201  28.751  1.00  0.00    -0.246 OA
BRANCH  28  30
ATOM     30  C   UNL A   1      34.434  34.444  29.591  1.00  0.00     0.060 A 
ATOM     31  C   UNL A   1      34.275  33.743  30.786  1.00  0.00     0.016 A 
ATOM     32  C   UNL A   1      35.703  34.590  29.014  1.00  0.00     0.016 A 
ATOM     33  C   UNL A   1      35.393  33.156  31.386  1.00  0.00     0.010 A 
ATOM     34  C   UNL A   1      36.817  34.005  29.615  1.00  0.00     0.010 A 
ATOM     35  C   UNL A   1      36.667  33.262  30.794  1.00  0.00    -0.014 A 
BRANCH  35  36
ATOM     36  C   UNL A   1      37.811  32.487  31.335  1.00  0.00     0.031 A 
ATOM     37  C   UNL A   1      38.393  32.781  32.684  1.00  0.00     0.074 A 
ATOM     38  C   UNL A   1      38.345  31.515  30.571  1.00  0.00     0.049 A 
ATOM     39  N   UNL A   1      39.322  32.132  33.340  1.00  0.00    -0.248 NA
ATOM     40  C   UNL A   1      37.870  33.959  33.388  1.00  0.00     0.031 C 
ATOM     41  C   UNL A   1      37.904  31.172  29.217  1.00  0.00     0.029 A 
ATOM     42  N   UNL A   1      39.370  30.640  30.820  1.00  0.00    -0.354 N 
ATOM     43  C   UNL A   1      39.472  32.799  34.548  1.00  0.00     0.074 A 
ATOM     44  C   UNL A   1      38.576  33.937  34.511  1.00  0.00     0.031 C 
ATOM     45  C   UNL A   1      38.632  30.138  28.769  1.00  0.00     0.029 A 
ATOM     46  C   UNL A   1      39.609  29.767  29.787  1.00  0.00     0.049 A 
ATOM     47  H   UNL A   1      39.885  30.637  31.659  1.00  0.00     0.167 HD
ATOM     48  C   UNL A   1      40.273  32.482  35.595  1.00  0.00     0.037 A 
ATOM     49  C   UNL A   1      40.514  28.777  29.675  1.00  0.00     0.037 A 
ATOM     50  C   UNL A   1      41.209  31.386  35.601  1.00  0.00     0.049 A 
ATOM     51  C   UNL A   1      41.443  28.497  30.824  1.00  0.00     0.074 A 
ATOM     52  C   UNL A   1      42.048  30.972  36.622  1.00  0.00     0.029 A 
ATOM     53  N   UNL A   1      41.457  30.549  34.523  1.00  0.00    -0.354 N 
ATOM     54  N   UNL A   1      41.498  29.065  32.004  1.00  0.00    -0.248 NA
ATOM     55  C   UNL A   1      42.431  27.428  30.625  1.00  0.00     0.031 C 
ATOM     56  C   UNL A   1      42.846  29.927  36.141  1.00  0.00     0.029 A 
ATOM     57  C   UNL A   1      42.460  29.645  34.841  1.00  0.00     0.049 A 
ATOM     58  H   UNL A   1      40.989  30.590  33.657  1.00  0.00     0.167 HD
ATOM     59  C   UNL A   1      42.506  28.406  32.696  1.00  0.00     0.074 A 
ATOM     60  C   UNL A   1      43.018  27.380  31.812  1.00  0.00     0.031 C 
ATOM     61  C   UNL A   1      42.969  28.631  33.951  1.00  0.00     0.037 A 
BRANCH  48  62
ATOM     62  C   UNL A   1      40.176  33.346  36.819  1.00  0.00     0.057 A 
ATOM     63  C   UNL A   1      41.060  34.415  37.020  1.00  0.00     0.134 A 
ATOM     64  C   UNL A   1      39.226  33.101  37.820  1.00  0.00     0.134 A 
ATOM     65  F   UNL A   1      42.001  34.702  36.107  1.00  0.00    -0.206 F 
ATOM     66  C   UNL A   1      41.000  35.208  38.167  1.00  0.00     0.040 A 
ATOM     67  C   UNL A   1      39.139  33.903  38.959  1.00  0.00     0.040 A 
ATOM     68  F   UNL A   1      38.342  32.100  37.688  1.00  0.00    -0.206 F 
ATOM     69  C   UNL A   1      40.032  34.957  39.137  1.00  0.00     0.006 A 
ENDBRANCH  48  62
BRANCH  49  70
ATOM     70  C   UNL A   1      40.585  27.962  28.435  1.00  0.00     0.057 A 
ATOM     71  C   UNL A   1      41.360  28.364  27.341  1.00  0.00     0.134 A 
ATOM     72  C   UNL A   1      39.911  26.739  28.335  1.00  0.00     0.134 A 
ATOM     73  F   UNL A   1      42.023  29.529  27.371  1.00  0.00    -0.206 F 
ATOM     74  C   UNL A   1      41.466  27.578  26.193  1.00  0.00     0.040 A 
ATOM     75  C   UNL A   1      40.033  25.929  27.206  1.00  0.00     0.040 A 
ATOM     76  F   UNL A   1      39.167  26.292  29.357  1.00  0.00    -0.206 F 
ATOM     77  C   UNL A   1      40.811  26.349  26.129  1.00  0.00     0.006 A 
ENDBRANCH  49  70
BRANCH  61  78
ATOM     78  C   UNL A   1      44.063  27.727  34.447  1.00  0.00     0.057 A 
ATOM     79  C   UNL A   1      45.406  28.111  34.347  1.00  0.00     0.134 A 
ATOM     80  C   UNL A   1      43.792  26.477  35.020  1.00  0.00     0.134 A 
ATOM     81  F   UNL A   1      45.740  29.291  33.802  1.00  0.00    -0.206 F 
ATOM     82  C   UNL A   1      46.438  27.288  34.801  1.00  0.00     0.040 A 
ATOM     83  C   UNL A   1      44.813  25.659  35.508  1.00  0.00     0.040 A 
ATOM     84  F   UNL A   1      42.526  26.053  35.162  1.00  0.00    -0.206 F 
ATOM     85  C   UNL A   1      46.142  26.062  35.394  1.00  0.00     0.006 A 
ENDBRANCH  61  78
ENDBRANCH  35  36
ENDBRANCH  28  30
ENDBRANCH  27  28
ENDBRANCH  26  27
ENDBRANCH  25  26
ENDBRANCH  24  25
ENDBRANCH   1  24
TORSDOF 17
ENDMDL
MODEL 2
REMARK VINA RESULT:     -10.7      5.035      9.345
REMARK SMILES C[C@@H]1CCCN(C(=O)c2ccc(=O)n([C@H](C)C(=O)OCCOCCOC(=O)c3ccc(-c4c5nc(c(-c6c(F)cccc6F)c6ccc([nH]6)c(-c6c(F)cccc6F)c6nc(c(-c7c(F)cccc7F)c7ccc4[nH]7)C=C6)C=C5)cc3)n2)C1
REMARK SMILES IDX 21 1 20 2 19 3 17 4 18 5 15 6 16 7 14 8 9 9 10 10 82 11
REMARK SMILES IDX 11 12 12 13 13 14 7 15 8 16 6 17 1 18 2 19 3 20 83 21 4 22
REMARK SMILES IDX 5 23 22 24 23 25 24 26 25 27 26 28 27 29 28 30 29 31 81 32
REMARK SMILES IDX 30 33 80 34 31 35 32 36 33 37 74 38 34 39 79 40 73 41 75 42
REMARK SMILES IDX 35 43 78 44 72 45 71 46 36 48 62 49 45 50 61 51 46 52 49 53
REMARK SMILES IDX 60 54 76 55 47 56 48 57 59 59 77 60 50 61 37 62 38 63 43 64
REMARK SMILES IDX 39 65 40 66 42 67 44 68 41 69 63 70 64 71 69 72 65 73 66 74
REMARK SMILES IDX 68 75 70 76 67 77 51 78 52 79 57 80 53 81 54 82 56 83 58 84
REMARK SMILES IDX 55 85
REMARK H PARENT 75 47 49 58
REMARK Flexibility Score: inf
ROOT
ATOM      1  C   UNL A   1      36.706  20.683  24.635  1.00  0.00     0.202 C 
ENDROOT
BRANCH   1   2
ATOM      2  C   UNL A   1      35.464  19.866  25.001  1.00  0.00     0.261 C 
BRANCH   2   3
ATOM      3  O   UNL A   1      34.412  20.689  25.521  1.00  0.00    -0.462 OA
BRANCH   3   4
ATOM      4  C   UNL A   1      33.233  20.619  24.835  1.00  0.00     0.330 C 
ATOM      5  O   UNL A   1      32.310  19.877  25.152  1.00  0.00    -0.250 OA
BRANCH   4   6
ATOM      6  C   UNL A   1      33.213  21.511  23.586  1.00  0.00     0.218 C 
ATOM      7  C   UNL A   1      31.998  21.345  22.664  1.00  0.00     0.046 C 
BRANCH   6   8
ATOM      8  N   UNL A   1      33.415  22.876  24.068  1.00  0.00    -0.215 N 
ATOM      9  C   UNL A   1      32.692  24.567  25.421  1.00  0.00     0.149 A 
ATOM     10  C   UNL A   1      33.862  25.408  25.116  1.00  0.00     0.042 A 
ATOM     11  N   UNL A   1      32.485  23.375  24.956  1.00  0.00    -0.164 NA
ATOM     12  C   UNL A   1      34.736  24.914  24.240  1.00  0.00     0.076 A 
ATOM     13  C   UNL A   1      34.517  23.596  23.610  1.00  0.00     0.267 A 
ATOM     14  O   UNL A   1      35.302  23.216  22.748  1.00  0.00    -0.268 OA
BRANCH   9  15
ATOM     15  C   UNL A   1      31.655  25.187  26.335  1.00  0.00     0.274 C 
ATOM     16  O   UNL A   1      31.238  24.481  27.248  1.00  0.00    -0.267 OA
BRANCH  15  17
ATOM     17  N   UNL A   1      31.227  26.482  26.068  1.00  0.00    -0.337 N 
ATOM     18  C   UNL A   1      32.550  29.851  27.251  1.00  0.00     0.009 C 
ATOM     19  C   UNL A   1      32.263  28.712  26.277  1.00  0.00     0.005 C 
ATOM     20  C   UNL A   1      31.401  29.193  25.099  1.00  0.00     0.007 C 
ATOM     21  C   UNL A   1      31.580  27.546  27.002  1.00  0.00     0.123 C 
ATOM     22  C   UNL A   1      31.065  28.029  24.165  1.00  0.00     0.022 C 
ATOM     23  C   UNL A   1      30.405  26.887  24.930  1.00  0.00     0.120 C 
ENDBRANCH  15  17
ENDBRANCH   9  15
ENDBRANCH   6   8
ENDBRANCH   4   6
ENDBRANCH   3   4
ENDBRANCH   2   3
ENDBRANCH   1   2
BRANCH   1  24
ATOM     24  O   UNL A   1      37.228  21.582  25.606  1.00  0.00    -0.374 OA
BRANCH  24  25
ATOM     25  C   UNL A   1      38.590  21.454  26.002  1.00  0.00     0.202 C 
BRANCH  25  26
ATOM     26  C   UNL A   1      39.353  20.183  25.603  1.00  0.00     0.261 C 
BRANCH  26  27
ATOM     27  O   UNL A   1      40.361  19.806  26.558  1.00  0.00    -0.460 OA
BRANCH  27  28
ATOM     28  C   UNL A   1      41.635  19.875  26.100  1.00  0.00     0.338 C 
ATOM     29  O   UNL A   1      42.207  19.070  25.379  1.00  0.00    -0.246 OA
BRANCH  28  30
ATOM     30  C   UNL A   1      42.208  21.195  26.421  1.00  0.00     0.060 A 
ATOM     31  C   UNL A   1      42.581  22.091  25.420  1.00  0.00     0.016 A 
ATOM     32  C   UNL A   1      42.315  21.552  27.772  1.00  0.00     0.016 A 
ATOM     33  C   UNL A   1      43.030  23.365  25.778  1.00  0.00     0.010 A 
ATOM     34  C   UNL A   1      42.764  22.823  28.128  1.00  0.00     0.010 A 
ATOM     35  C   UNL A   1      43.103  23.749  27.131  1.00  0.00    -0.014 A 
BRANCH  35  36
ATOM     36  C   UNL A   1      43.404  25.156  27.495  1.00  0.00     0.031 A 
ATOM     37  C   UNL A   1      42.319  26.126  27.851  1.00  0.00     0.074 A 
ATOM     38  C   UNL A   1      44.688  25.562  27.476  1.00  0.00     0.049 A 
ATOM     39  N   UNL A   1      42.424  27.355  28.289  1.00  0.00    -0.248 NA
ATOM     40  C   UNL A   1      40.936  25.660  27.690  1.00  0.00     0.031 C 
ATOM     41  C   UNL A   1      45.828  24.727  27.091  1.00  0.00     0.029 A 
ATOM     42  N   UNL A   1      45.250  26.773  27.786  1.00  0.00    -0.354 N 
ATOM     43  C   UNL A   1      41.125  27.801  28.490  1.00  0.00     0.074 A 
ATOM     44  C   UNL A   1      40.246  26.727  28.073  1.00  0.00     0.031 C 
ATOM     45  C   UNL A   1      46.957  25.442  27.220  1.00  0.00     0.029 A 
ATOM     46  C   UNL A   1      46.619  26.790  27.663  1.00  0.00     0.049 A 
ATOM     47  H   UNL A   1      44.724  27.556  28.068  1.00  0.00     0.167 HD
ATOM     48  C   UNL A   1      40.706  28.990  28.989  1.00  0.00     0.037 A 
ATOM     49  C   UNL A   1      47.501  27.781  27.887  1.00  0.00     0.037 A 
ATOM     50  C   UNL A   1      41.583  30.079  29.342  1.00  0.00     0.049 A 
ATOM     51  C   UNL A   1      47.000  29.116  28.367  1.00  0.00     0.074 A 
ATOM     52  C   UNL A   1      41.255  31.314  29.875  1.00  0.00     0.029 A 
ATOM     53  N   UNL A   1      42.959  30.078  29.164  1.00  0.00    -0.354 N 
ATOM     54  N   UNL A   1      45.777  29.487  28.659  1.00  0.00    -0.248 NA
ATOM     55  C   UNL A   1      48.009  30.167  28.557  1.00  0.00     0.031 C 
ATOM     56  C   UNL A   1      42.423  32.081  29.962  1.00  0.00     0.029 A 
ATOM     57  C   UNL A   1      43.490  31.303  29.544  1.00  0.00     0.049 A 
ATOM     58  H   UNL A   1      43.484  29.318  28.821  1.00  0.00     0.167 HD
ATOM     59  C   UNL A   1      45.874  30.804  29.091  1.00  0.00     0.074 A 
ATOM     60  C   UNL A   1      47.278  31.157  29.046  1.00  0.00     0.031 C 
ATOM     61  C   UNL A   1      44.888  31.647  29.489  1.00  0.00     0.037 A 
BRANCH  48  62
ATOM     62  C   UNL A   1      39.227  29.176  29.170  1.00  0.00     0.057 A 
ATOM     63  C   UNL A   1      38.625  28.992  30.422  1.00  0.00     0.134 A 
ATOM     64  C   UNL A   1      38.390  29.505  28.095  1.00  0.00     0.134 A 
ATOM     65  F   UNL A   1      39.364  28.666  31.493  1.00  0.00    -0.206 F 
ATOM     66  C   UNL A   1      37.247  29.133  30.597  1.00  0.00     0.040 A 
ATOM     67  C   UNL A   1      37.015  29.675  28.263  1.00  0.00     0.040 A 
ATOM     68  F   UNL A   1      38.902  29.705  26.870  1.00  0.00    -0.206 F 
ATOM     69  C   UNL A   1      36.439  29.483  29.517  1.00  0.00     0.006 A 
ENDBRANCH  48  62
BRANCH  49  70
ATOM     70  C   UNL A   1      48.953  27.556  27.674  1.00  0.00     0.057 A 
ATOM     71  C   UNL A   1      49.796  27.178  28.726  1.00  0.00     0.134 A 
ATOM     72  C   UNL A   1      49.522  27.672  26.400  1.00  0.00     0.134 A 
ATOM     73  F   UNL A   1      49.313  27.058  29.971  1.00  0.00    -0.206 F 
ATOM     74  C   UNL A   1      51.151  26.920  28.519  1.00  0.00     0.040 A 
ATOM     75  C   UNL A   1      50.869  27.388  26.174  1.00  0.00     0.040 A 
ATOM     76  F   UNL A   1      48.762  28.014  25.349  1.00  0.00    -0.206 F 
ATOM     77  C   UNL A   1      51.689  27.012  27.236  1.00  0.00     0.006 A 
ENDBRANCH  49  70
BRANCH  61  78
ATOM     78  C   UNL A   1      45.305  33.021  29.935  1.00  0.00     0.057 A 
ATOM     79  C   UNL A   1      45.357  34.083  29.023  1.00  0.00     0.134 A 
ATOM     80  C   UNL A   1      45.658  33.296  31.263  1.00  0.00     0.134 A 
ATOM     81  F   UNL A   1      45.040  33.891  27.734  1.00  0.00    -0.206 F 
ATOM     82  C   UNL A   1      45.740  35.367  29.416  1.00  0.00     0.040 A 
ATOM     83  C   UNL A   1      46.012  34.583  31.675  1.00  0.00     0.040 A 
ATOM     84  F   UNL A   1      45.616  32.329  32.193  1.00  0.00    -0.206 F 
ATOM     85  C   UNL A   1      46.059  35.622  30.747  1.00  0.00     0.006 A 
ENDBRANCH  61  78
ENDBRANCH  35  36
ENDBRANCH  28  30
ENDBRANCH  27  28
ENDBRANCH  26  27
ENDBRANCH  25  26
ENDBRANCH  24  25
ENDBRANCH   1  24
TORSDOF 17
ENDMDL
MODEL 3
REMARK VINA RESULT:     -10.4      3.274      8.541
REMARK SMILES C[C@@H]1CCCN(C(=O)c2ccc(=O)n([C@H](C)C(=O)OCCOCCOC(=O)c3ccc(-c4c5nc(c(-c6c(F)cccc6F)c6ccc([nH]6)c(-c6c(F)cccc6F)c6nc(c(-c7c(F)cccc7F)c7ccc4[nH]7)C=C6)C=C5)cc3)n2)C1
REMARK SMILES IDX 21 1 20 2 19 3 17 4 18 5 15 6 16 7 14 8 9 9 10 10 82 11
REMARK SMILES IDX 11 12 12 13 13 14 7 15 8 16 6 17 1 18 2 19 3 20 83 21 4 22
REMARK SMILES IDX 5 23 22 24 23 25 24 26 25 27 26 28 27 29 28 30 29 31 81 32
REMARK SMILES IDX 30 33 80 34 31 35 32 36 33 37 74 38 34 39 79 40 73 41 75 42
REMARK SMILES IDX 35 43 78 44 72 45 71 46 36 48 62 49 45 50 61 51 46 52 49 53
REMARK SMILES IDX 60 54 76 55 47 56 48 57 59 59 77 60 50 61 37 62 38 63 43 64
REMARK SMILES IDX 39 65 40 66 42 67 44 68 41 69 63 70 64 71 69 72 65 73 66 74
REMARK SMILES IDX 68 75 70 76 67 77 51 78 52 79 57 80 53 81 54 82 56 83 58 84
REMARK SMILES IDX 55 85
REMARK H PARENT 75 47 49 58
REMARK Flexibility Score: inf
ROOT
ATOM      1  C   UNL A   1      39.038  21.724  26.167  1.00  0.00     0.202 C 
ENDROOT
BRANCH   1   2
ATOM      2  C   UNL A   1      38.492  20.659  25.213  1.00  0.00     0.261 C 
BRANCH   2   3
ATOM      3  O   UNL A   1      37.059  20.657  25.170  1.00  0.00    -0.462 OA
BRANCH   3   4
ATOM      4  C   UNL A   1      36.498  21.766  24.606  1.00  0.00     0.330 C 
ATOM      5  O   UNL A   1      36.896  22.267  23.559  1.00  0.00    -0.250 OA
BRANCH   4   6
ATOM      6  C   UNL A   1      35.368  22.364  25.454  1.00  0.00     0.218 C 
ATOM      7  C   UNL A   1      35.758  23.541  26.357  1.00  0.00     0.046 C 
BRANCH   6   8
ATOM      8  N   UNL A   1      34.283  22.662  24.519  1.00  0.00    -0.215 N 
ATOM      9  C   UNL A   1      33.292  24.193  23.145  1.00  0.00     0.149 A 
ATOM     10  C   UNL A   1      32.329  23.208  22.624  1.00  0.00     0.042 A 
ATOM     11  N   UNL A   1      34.223  23.944  24.011  1.00  0.00    -0.164 NA
ATOM     12  C   UNL A   1      32.393  21.983  23.144  1.00  0.00     0.076 A 
ATOM     13  C   UNL A   1      33.377  21.654  24.195  1.00  0.00     0.267 A 
ATOM     14  O   UNL A   1      33.347  20.539  24.705  1.00  0.00    -0.268 OA
BRANCH   9  15
ATOM     15  C   UNL A   1      33.136  25.606  22.624  1.00  0.00     0.274 C 
ATOM     16  O   UNL A   1      33.920  25.955  21.746  1.00  0.00    -0.267 OA
BRANCH  15  17
ATOM     17  N   UNL A   1      32.153  26.414  23.182  1.00  0.00    -0.337 N 
ATOM     18  C   UNL A   1      32.043  28.305  26.486  1.00  0.00     0.009 C 
ATOM     19  C   UNL A   1      32.137  28.110  24.975  1.00  0.00     0.005 C 
ATOM     20  C   UNL A   1      30.985  28.824  24.252  1.00  0.00     0.007 C 
ATOM     21  C   UNL A   1      32.146  26.616  24.627  1.00  0.00     0.123 C 
ATOM     22  C   UNL A   1      31.050  28.567  22.746  1.00  0.00     0.022 C 
ATOM     23  C   UNL A   1      31.076  27.072  22.446  1.00  0.00     0.120 C 
ENDBRANCH  15  17
ENDBRANCH   9  15
ENDBRANCH   6   8
ENDBRANCH   4   6
ENDBRANCH   3   4
ENDBRANCH   2   3
ENDBRANCH   1   2
BRANCH   1  24
ATOM     24  O   UNL A   1      40.349  22.224  25.935  1.00  0.00    -0.374 OA
BRANCH  24  25
ATOM     25  C   UNL A   1      41.465  21.368  26.169  1.00  0.00     0.202 C 
BRANCH  25  26
ATOM     26  C   UNL A   1      42.870  21.886  25.831  1.00  0.00     0.261 C 
BRANCH  26  27
ATOM     27  O   UNL A   1      42.857  23.175  25.192  1.00  0.00    -0.460 OA
BRANCH  27  28
ATOM     28  C   UNL A   1      43.777  24.053  25.662  1.00  0.00     0.338 C 
ATOM     29  O   UNL A   1      44.928  24.197  25.275  1.00  0.00    -0.246 OA
BRANCH  28  30
ATOM     30  C   UNL A   1      43.134  24.994  26.597  1.00  0.00     0.060 A 
ATOM     31  C   UNL A   1      42.084  24.595  27.424  1.00  0.00     0.016 A 
ATOM     32  C   UNL A   1      43.647  26.295  26.676  1.00  0.00     0.016 A 
ATOM     33  C   UNL A   1      41.572  25.499  28.360  1.00  0.00     0.010 A 
ATOM     34  C   UNL A   1      43.135  27.196  27.609  1.00  0.00     0.010 A 
ATOM     35  C   UNL A   1      42.108  26.797  28.475  1.00  0.00    -0.014 A 
BRANCH  35  36
ATOM     36  C   UNL A   1      41.686  27.684  29.587  1.00  0.00     0.031 A 
ATOM     37  C   UNL A   1      40.530  28.627  29.447  1.00  0.00     0.074 A 
ATOM     38  C   UNL A   1      42.388  27.648  30.736  1.00  0.00     0.049 A 
ATOM     39  N   UNL A   1      39.975  29.390  30.354  1.00  0.00    -0.248 NA
ATOM     40  C   UNL A   1      39.919  28.731  28.115  1.00  0.00     0.031 C 
ATOM     41  C   UNL A   1      43.568  26.816  30.976  1.00  0.00     0.029 A 
ATOM     42  N   UNL A   1      42.212  28.326  31.916  1.00  0.00    -0.354 N 
ATOM     43  C   UNL A   1      38.928  30.040  29.716  1.00  0.00     0.074 A 
ATOM     44  C   UNL A   1      38.960  29.623  28.329  1.00  0.00     0.031 C 
ATOM     45  C   UNL A   1      43.991  27.007  32.235  1.00  0.00     0.029 A 
ATOM     46  C   UNL A   1      43.133  27.996  32.880  1.00  0.00     0.049 A 
ATOM     47  H   UNL A   1      41.495  28.985  32.058  1.00  0.00     0.167 HD
ATOM     48  C   UNL A   1      38.017  30.896  30.241  1.00  0.00     0.037 A 
ATOM     49  C   UNL A   1      43.269  28.440  34.143  1.00  0.00     0.037 A 
ATOM     50  C   UNL A   1      38.028  31.358  31.607  1.00  0.00     0.049 A 
ATOM     51  C   UNL A   1      42.289  29.448  34.676  1.00  0.00     0.074 A 
ATOM     52  C   UNL A   1      37.136  32.208  32.239  1.00  0.00     0.029 A 
ATOM     53  N   UNL A   1      39.001  31.039  32.544  1.00  0.00    -0.354 N 
ATOM     54  N   UNL A   1      41.237  29.971  34.095  1.00  0.00    -0.248 NA
ATOM     55  C   UNL A   1      42.514  29.920  36.050  1.00  0.00     0.031 C 
ATOM     56  C   UNL A   1      37.601  32.451  33.536  1.00  0.00     0.029 A 
ATOM     57  C   UNL A   1      38.750  31.702  33.737  1.00  0.00     0.049 A 
ATOM     58  H   UNL A   1      39.758  30.429  32.387  1.00  0.00     0.167 HD
ATOM     59  C   UNL A   1      40.660  30.811  35.039  1.00  0.00     0.074 A 
ATOM     60  C   UNL A   1      41.466  30.709  36.237  1.00  0.00     0.031 C 
ATOM     61  C   UNL A   1      39.562  31.600  34.923  1.00  0.00     0.037 A 
BRANCH  48  62
ATOM     62  C   UNL A   1      36.936  31.396  29.327  1.00  0.00     0.057 A 
ATOM     63  C   UNL A   1      36.962  32.705  28.827  1.00  0.00     0.134 A 
ATOM     64  C   UNL A   1      35.848  30.590  28.963  1.00  0.00     0.134 A 
ATOM     65  F   UNL A   1      37.969  33.534  29.141  1.00  0.00    -0.206 F 
ATOM     66  C   UNL A   1      35.949  33.192  28.000  1.00  0.00     0.040 A 
ATOM     67  C   UNL A   1      34.843  31.057  28.115  1.00  0.00     0.040 A 
ATOM     68  F   UNL A   1      35.765  29.323  29.399  1.00  0.00    -0.206 F 
ATOM     69  C   UNL A   1      34.889  32.364  27.635  1.00  0.00     0.006 A 
ENDBRANCH  48  62
BRANCH  49  70
ATOM     70  C   UNL A   1      44.367  27.931  35.003  1.00  0.00     0.057 A 
ATOM     71  C   UNL A   1      45.596  28.596  35.088  1.00  0.00     0.134 A 
ATOM     72  C   UNL A   1      44.195  26.789  35.795  1.00  0.00     0.134 A 
ATOM     73  F   UNL A   1      45.827  29.691  34.349  1.00  0.00    -0.206 F 
ATOM     74  C   UNL A   1      46.613  28.146  35.931  1.00  0.00     0.040 A 
ATOM     75  C   UNL A   1      45.191  26.346  36.664  1.00  0.00     0.040 A 
ATOM     76  F   UNL A   1      43.033  26.119  35.769  1.00  0.00    -0.206 F 
ATOM     77  C   UNL A   1      46.407  27.025  36.733  1.00  0.00     0.006 A 
ENDBRANCH  49  70
BRANCH  61  78
ATOM     78  C   UNL A   1      39.156  32.386  36.138  1.00  0.00     0.057 A 
ATOM     79  C   UNL A   1      39.644  33.683  36.346  1.00  0.00     0.134 A 
ATOM     80  C   UNL A   1      38.287  31.864  37.106  1.00  0.00     0.134 A 
ATOM     81  F   UNL A   1      40.486  34.244  35.464  1.00  0.00    -0.206 F 
ATOM     82  C   UNL A   1      39.279  34.431  37.466  1.00  0.00     0.040 A 
ATOM     83  C   UNL A   1      37.890  32.615  38.214  1.00  0.00     0.040 A 
ATOM     84  F   UNL A   1      37.769  30.633  36.963  1.00  0.00    -0.206 F 
ATOM     85  C   UNL A   1      38.392  33.901  38.399  1.00  0.00     0.006 A 
ENDBRANCH  61  78
ENDBRANCH  35  36
ENDBRANCH  28  30
ENDBRANCH  27  28
ENDBRANCH  26  27
ENDBRANCH  25  26
ENDBRANCH  24  25
ENDBRANCH   1  24
TORSDOF 17
ENDMDL
