MODEL 1
REMARK VINA RESULT:     -10.5      0.000      0.000
REMARK SMILES O=C(/C=C/c1c(Cl)cccc1Cl)NCC(=O)OCCOCCOC(=O)c1ccc(-c2c3nc(c(-c4c(F)cccc4F)c4ccc([nH]4)c(-c4c(F)cccc4F)c4nc(c(-c5c(F)cccc5F)c5ccc2[nH]5)C=C4)C=C3)cc1
REMARK SMILES IDX 19 1 18 2 17 3 15 4 16 5 14 6 13 7 1 8 2 9 3 11 4 12 5 13
REMARK SMILES IDX 6 14 11 15 7 16 8 17 10 18 12 19 9 20 20 21 21 22 22 23
REMARK SMILES IDX 23 24 24 25 25 26 26 27 27 28 79 29 28 30 78 31 29 32 30 33
REMARK SMILES IDX 31 34 72 35 32 36 77 37 71 38 73 39 33 40 76 41 70 42 69 43
REMARK SMILES IDX 34 45 60 46 43 47 59 48 44 49 47 50 58 51 74 52 45 53 46 54
REMARK SMILES IDX 57 56 75 57 48 58 35 59 36 60 41 61 37 62 38 63 40 64 42 65
REMARK SMILES IDX 39 66 61 67 62 68 67 69 63 70 64 71 66 72 68 73 65 74 49 75
REMARK SMILES IDX 50 76 55 77 51 78 52 79 54 80 56 81 53 82
REMARK H PARENT 13 10 73 44 47 55
REMARK Flexibility Score: inf
ROOT
ATOM      1  C   UNL A   1      40.545  20.779  26.833  1.00  0.00     0.202 C 
ENDROOT
BRANCH   1   2
ATOM      2  C   UNL A   1      39.653  21.802  26.126  1.00  0.00     0.261 C 
BRANCH   2   3
ATOM      3  O   UNL A   1      38.504  21.160  25.546  1.00  0.00    -0.462 OA
BRANCH   3   4
ATOM      4  C   UNL A   1      37.587  22.001  24.992  1.00  0.00     0.325 C 
ATOM      5  O   UNL A   1      37.047  21.825  23.905  1.00  0.00    -0.250 OA
BRANCH   4   6
ATOM      6  C   UNL A   1      37.159  23.110  25.951  1.00  0.00     0.239 C 
BRANCH   6   7
ATOM      7  N   UNL A   1      36.243  24.128  25.451  1.00  0.00    -0.342 N 
ATOM      8  O   UNL A   1      34.361  22.994  26.072  1.00  0.00    -0.270 OA
ATOM      9  C   UNL A   1      34.895  24.001  25.622  1.00  0.00     0.244 C 
ATOM     10  H   UNL A   1      36.603  24.917  24.985  1.00  0.00     0.164 HD
BRANCH   9  11
ATOM     11  C   UNL A   1      34.053  25.164  25.240  1.00  0.00     0.072 C 
ATOM     12  C   UNL A   1      32.841  25.479  25.727  1.00  0.00     0.017 C 
BRANCH  12  13
ATOM     13  C   UNL A   1      32.060  26.603  25.162  1.00  0.00     0.012 A 
ATOM     14  C   UNL A   1      31.070  26.396  24.178  1.00  0.00     0.049 A 
ATOM     15  C   UNL A   1      32.281  27.924  25.593  1.00  0.00     0.049 A 
ATOM     16  Cl  UNL A   1      30.617  24.811  23.643  1.00  0.00    -0.084 Cl
ATOM     17  C   UNL A   1      30.379  27.474  23.610  1.00  0.00     0.021 A 
ATOM     18  C   UNL A   1      31.595  29.000  25.017  1.00  0.00     0.021 A 
ATOM     19  Cl  UNL A   1      33.388  28.292  26.871  1.00  0.00    -0.084 Cl
ATOM     20  C   UNL A   1      30.651  28.777  24.017  1.00  0.00     0.003 A 
ENDBRANCH  12  13
ENDBRANCH   9  11
ENDBRANCH   6   7
ENDBRANCH   4   6
ENDBRANCH   3   4
ENDBRANCH   2   3
ENDBRANCH   1   2
BRANCH   1  21
ATOM     21  O   UNL A   1      41.911  21.159  27.010  1.00  0.00    -0.374 OA
BRANCH  21  22
ATOM     22  C   UNL A   1      42.855  20.714  26.038  1.00  0.00     0.202 C 
BRANCH  22  23
ATOM     23  C   UNL A   1      43.737  21.792  25.394  1.00  0.00     0.261 C 
BRANCH  23  24
ATOM     24  O   UNL A   1      42.983  22.933  24.947  1.00  0.00    -0.460 OA
BRANCH  24  25
ATOM     25  C   UNL A   1      43.650  24.109  25.010  1.00  0.00     0.338 C 
ATOM     26  O   UNL A   1      44.591  24.466  24.309  1.00  0.00    -0.246 OA
BRANCH  25  27
ATOM     27  C   UNL A   1      42.994  25.034  25.951  1.00  0.00     0.060 A 
ATOM     28  C   UNL A   1      43.586  26.288  26.151  1.00  0.00     0.016 A 
ATOM     29  C   UNL A   1      41.876  24.656  26.696  1.00  0.00     0.016 A 
ATOM     30  C   UNL A   1      43.086  27.150  27.125  1.00  0.00     0.010 A 
ATOM     31  C   UNL A   1      41.382  25.516  27.682  1.00  0.00     0.010 A 
ATOM     32  C   UNL A   1      42.001  26.754  27.920  1.00  0.00    -0.014 A 
BRANCH  32  33
ATOM     33  C   UNL A   1      41.578  27.595  29.064  1.00  0.00     0.031 A 
ATOM     34  C   UNL A   1      42.303  27.481  30.374  1.00  0.00     0.074 A 
ATOM     35  C   UNL A   1      40.558  28.460  28.928  1.00  0.00     0.049 A 
ATOM     36  N   UNL A   1      42.075  28.101  31.504  1.00  0.00    -0.248 NA
ATOM     37  C   UNL A   1      43.435  26.544  30.419  1.00  0.00     0.031 C 
ATOM     38  C   UNL A   1      39.792  28.676  27.702  1.00  0.00     0.029 A 
ATOM     39  N   UNL A   1      39.986  29.311  29.839  1.00  0.00    -0.354 N 
ATOM     40  C   UNL A   1      43.033  27.631  32.393  1.00  0.00     0.074 A 
ATOM     41  C   UNL A   1      43.828  26.653  31.681  1.00  0.00     0.031 C 
ATOM     42  C   UNL A   1      38.841  29.595  27.940  1.00  0.00     0.029 A 
ATOM     43  C   UNL A   1      38.914  30.009  29.339  1.00  0.00     0.049 A 
ATOM     44  H   UNL A   1      40.313  29.412  30.762  1.00  0.00     0.167 HD
ATOM     45  C   UNL A   1      43.237  27.991  33.683  1.00  0.00     0.037 A 
ATOM     46  C   UNL A   1      38.077  30.868  29.950  1.00  0.00     0.037 A 
ATOM     47  C   UNL A   1      42.445  28.961  34.392  1.00  0.00     0.049 A 
ATOM     48  C   UNL A   1      38.282  31.198  31.403  1.00  0.00     0.074 A 
ATOM     49  C   UNL A   1      42.594  29.413  35.692  1.00  0.00     0.029 A 
ATOM     50  N   UNL A   1      41.348  29.622  33.863  1.00  0.00    -0.354 N 
ATOM     51  N   UNL A   1      39.212  30.775  32.224  1.00  0.00    -0.248 NA
ATOM     52  C   UNL A   1      37.319  32.127  32.014  1.00  0.00     0.031 C 
ATOM     53  C   UNL A   1      41.559  30.315  35.963  1.00  0.00     0.029 A 
ATOM     54  C   UNL A   1      40.792  30.457  34.818  1.00  0.00     0.049 A 
ATOM     55  H   UNL A   1      41.013  29.515  32.943  1.00  0.00     0.167 HD
ATOM     56  C   UNL A   1      38.960  31.399  33.439  1.00  0.00     0.074 A 
ATOM     57  C   UNL A   1      37.798  32.241  33.245  1.00  0.00     0.031 C 
ATOM     58  C   UNL A   1      39.633  31.287  34.611  1.00  0.00     0.037 A 
BRANCH  45  59
ATOM     59  C   UNL A   1      44.356  27.315  34.419  1.00  0.00     0.057 A 
ATOM     60  C   UNL A   1      44.171  26.096  35.082  1.00  0.00     0.134 A 
ATOM     61  C   UNL A   1      45.641  27.870  34.432  1.00  0.00     0.134 A 
ATOM     62  F   UNL A   1      42.960  25.518  35.118  1.00  0.00    -0.206 F 
ATOM     63  C   UNL A   1      45.221  25.460  35.747  1.00  0.00     0.040 A 
ATOM     64  C   UNL A   1      46.704  27.235  35.074  1.00  0.00     0.040 A 
ATOM     65  F   UNL A   1      45.886  29.034  33.812  1.00  0.00    -0.206 F 
ATOM     66  C   UNL A   1      46.494  26.027  35.739  1.00  0.00     0.006 A 
ENDBRANCH  45  59
BRANCH  46  67
ATOM     67  C   UNL A   1      36.953  31.468  29.190  1.00  0.00     0.057 A 
ATOM     68  C   UNL A   1      35.796  30.734  28.908  1.00  0.00     0.134 A 
ATOM     69  C   UNL A   1      37.016  32.783  28.718  1.00  0.00     0.134 A 
ATOM     70  F   UNL A   1      35.688  29.460  29.313  1.00  0.00    -0.206 F 
ATOM     71  C   UNL A   1      34.745  31.283  28.171  1.00  0.00     0.040 A 
ATOM     72  C   UNL A   1      35.964  33.353  28.000  1.00  0.00     0.040 A 
ATOM     73  F   UNL A   1      38.100  33.537  28.954  1.00  0.00    -0.206 F 
ATOM     74  C   UNL A   1      34.826  32.600  27.720  1.00  0.00     0.006 A 
ENDBRANCH  46  67
BRANCH  58  75
ATOM     75  C   UNL A   1      39.140  32.108  35.765  1.00  0.00     0.057 A 
ATOM     76  C   UNL A   1      39.549  33.434  35.954  1.00  0.00     0.134 A 
ATOM     77  C   UNL A   1      38.219  31.577  36.678  1.00  0.00     0.134 A 
ATOM     78  F   UNL A   1      40.439  33.996  35.122  1.00  0.00    -0.206 F 
ATOM     79  C   UNL A   1      39.076  34.197  37.022  1.00  0.00     0.040 A 
ATOM     80  C   UNL A   1      37.721  32.338  37.737  1.00  0.00     0.040 A 
ATOM     81  F   UNL A   1      37.782  30.316  36.549  1.00  0.00    -0.206 F 
ATOM     82  C   UNL A   1      38.154  33.651  37.914  1.00  0.00     0.006 A 
ENDBRANCH  58  75
ENDBRANCH  32  33
ENDBRANCH  25  27
ENDBRANCH  24  25
ENDBRANCH  23  24
ENDBRANCH  22  23
ENDBRANCH  21  22
ENDBRANCH   1  21
TORSDOF 17
ENDMDL
MODEL 2
REMARK VINA RESULT:     -10.4      2.196      3.582
REMARK SMILES O=C(/C=C/c1c(Cl)cccc1Cl)NCC(=O)OCCOCCOC(=O)c1ccc(-c2c3nc(c(-c4c(F)cccc4F)c4ccc([nH]4)c(-c4c(F)cccc4F)c4nc(c(-c5c(F)cccc5F)c5ccc2[nH]5)C=C4)C=C3)cc1
REMARK SMILES IDX 19 1 18 2 17 3 15 4 16 5 14 6 13 7 1 8 2 9 3 11 4 12 5 13
REMARK SMILES IDX 6 14 11 15 7 16 8 17 10 18 12 19 9 20 20 21 21 22 22 23
REMARK SMILES IDX 23 24 24 25 25 26 26 27 27 28 79 29 28 30 78 31 29 32 30 33
REMARK SMILES IDX 31 34 72 35 32 36 77 37 71 38 73 39 33 40 76 41 70 42 69 43
REMARK SMILES IDX 34 45 60 46 43 47 59 48 44 49 47 50 58 51 74 52 45 53 46 54
REMARK SMILES IDX 57 56 75 57 48 58 35 59 36 60 41 61 37 62 38 63 40 64 42 65
REMARK SMILES IDX 39 66 61 67 62 68 67 69 63 70 64 71 66 72 68 73 65 74 49 75
REMARK SMILES IDX 50 76 55 77 51 78 52 79 54 80 56 81 53 82
REMARK H PARENT 13 10 73 44 47 55
REMARK Flexibility Score: inf
ROOT
ATOM      1  C   UNL A   1      43.632  19.581  25.413  1.00  0.00     0.202 C 
ENDROOT
BRANCH   1   2
ATOM      2  C   UNL A   1      42.242  19.612  26.054  1.00  0.00     0.261 C 
BRANCH   2   3
ATOM      3  O   UNL A   1      41.626  20.898  25.869  1.00  0.00    -0.462 OA
BRANCH   3   4
ATOM      4  C   UNL A   1      40.687  21.230  26.798  1.00  0.00     0.325 C 
ATOM      5  O   UNL A   1      40.767  20.970  27.993  1.00  0.00    -0.250 OA
BRANCH   4   6
ATOM      6  C   UNL A   1      39.593  22.129  26.225  1.00  0.00     0.239 C 
BRANCH   6   7
ATOM      7  N   UNL A   1      38.365  21.496  25.761  1.00  0.00    -0.342 N 
ATOM      8  O   UNL A   1      37.267  23.468  25.417  1.00  0.00    -0.270 OA
ATOM      9  C   UNL A   1      37.311  22.247  25.326  1.00  0.00     0.244 C 
ATOM     10  H   UNL A   1      38.295  20.514  25.760  1.00  0.00     0.164 HD
BRANCH   9  11
ATOM     11  C   UNL A   1      36.172  21.520  24.707  1.00  0.00     0.072 C 
ATOM     12  C   UNL A   1      35.287  20.725  25.332  1.00  0.00     0.017 C 
BRANCH  12  13
ATOM     13  C   UNL A   1      34.274  19.963  24.567  1.00  0.00     0.012 A 
ATOM     14  C   UNL A   1      33.147  20.592  23.997  1.00  0.00     0.049 A 
ATOM     15  C   UNL A   1      34.405  18.574  24.382  1.00  0.00     0.049 A 
ATOM     16  Cl  UNL A   1      32.925  22.310  24.051  1.00  0.00    -0.084 Cl
ATOM     17  C   UNL A   1      32.166  19.851  23.327  1.00  0.00     0.021 A 
ATOM     18  C   UNL A   1      33.418  17.834  23.718  1.00  0.00     0.021 A 
ATOM     19  Cl  UNL A   1      35.796  17.707  24.936  1.00  0.00    -0.084 Cl
ATOM     20  C   UNL A   1      32.293  18.470  23.199  1.00  0.00     0.003 A 
ENDBRANCH  12  13
ENDBRANCH   9  11
ENDBRANCH   6   7
ENDBRANCH   4   6
ENDBRANCH   3   4
ENDBRANCH   2   3
ENDBRANCH   1   2
BRANCH   1  21
ATOM     21  O   UNL A   1      44.378  20.797  25.485  1.00  0.00    -0.374 OA
BRANCH  21  22
ATOM     22  C   UNL A   1      44.979  21.280  24.285  1.00  0.00     0.202 C 
BRANCH  22  23
ATOM     23  C   UNL A   1      44.361  22.541  23.667  1.00  0.00     0.261 C 
BRANCH  23  24
ATOM     24  O   UNL A   1      43.713  23.377  24.642  1.00  0.00    -0.460 OA
BRANCH  24  25
ATOM     25  C   UNL A   1      44.445  24.441  25.048  1.00  0.00     0.338 C 
ATOM     26  O   UNL A   1      45.533  24.801  24.612  1.00  0.00    -0.246 OA
BRANCH  25  27
ATOM     27  C   UNL A   1      43.688  25.261  26.010  1.00  0.00     0.060 A 
ATOM     28  C   UNL A   1      43.997  26.626  26.085  1.00  0.00     0.016 A 
ATOM     29  C   UNL A   1      42.761  24.699  26.888  1.00  0.00     0.016 A 
ATOM     30  C   UNL A   1      43.409  27.422  27.066  1.00  0.00     0.010 A 
ATOM     31  C   UNL A   1      42.180  25.496  27.880  1.00  0.00     0.010 A 
ATOM     32  C   UNL A   1      42.522  26.854  27.991  1.00  0.00    -0.014 A 
BRANCH  32  33
ATOM     33  C   UNL A   1      42.030  27.659  29.133  1.00  0.00     0.031 A 
ATOM     34  C   UNL A   1      42.735  27.575  30.457  1.00  0.00     0.074 A 
ATOM     35  C   UNL A   1      40.964  28.465  28.984  1.00  0.00     0.049 A 
ATOM     36  N   UNL A   1      42.450  28.171  31.586  1.00  0.00    -0.248 NA
ATOM     37  C   UNL A   1      43.919  26.705  30.516  1.00  0.00     0.031 C 
ATOM     38  C   UNL A   1      40.211  28.647  27.745  1.00  0.00     0.029 A 
ATOM     39  N   UNL A   1      40.327  29.273  29.891  1.00  0.00    -0.354 N 
ATOM     40  C   UNL A   1      43.418  27.750  32.490  1.00  0.00     0.074 A 
ATOM     41  C   UNL A   1      44.280  26.825  31.786  1.00  0.00     0.031 C 
ATOM     42  C   UNL A   1      39.203  29.507  27.972  1.00  0.00     0.029 A 
ATOM     43  C   UNL A   1      39.226  29.912  29.376  1.00  0.00     0.049 A 
ATOM     44  H   UNL A   1      40.629  29.385  30.820  1.00  0.00     0.167 HD
ATOM     45  C   UNL A   1      43.576  28.110  33.787  1.00  0.00     0.037 A 
ATOM     46  C   UNL A   1      38.329  30.716  29.977  1.00  0.00     0.037 A 
ATOM     47  C   UNL A   1      42.715  29.026  34.488  1.00  0.00     0.049 A 
ATOM     48  C   UNL A   1      38.487  31.045  31.436  1.00  0.00     0.074 A 
ATOM     49  C   UNL A   1      42.813  29.474  35.794  1.00  0.00     0.029 A 
ATOM     50  N   UNL A   1      41.592  29.627  33.943  1.00  0.00    -0.354 N 
ATOM     51  N   UNL A   1      39.424  30.669  32.272  1.00  0.00    -0.248 NA
ATOM     52  C   UNL A   1      37.461  31.911  32.035  1.00  0.00     0.031 C 
ATOM     53  C   UNL A   1      41.724  30.312  36.052  1.00  0.00     0.029 A 
ATOM     54  C   UNL A   1      40.971  30.420  34.894  1.00  0.00     0.049 A 
ATOM     55  H   UNL A   1      41.281  29.509  33.015  1.00  0.00     0.167 HD
ATOM     56  C   UNL A   1      39.114  31.267  33.486  1.00  0.00     0.074 A 
ATOM     57  C   UNL A   1      37.909  32.042  33.276  1.00  0.00     0.031 C 
ATOM     58  C   UNL A   1      39.770  31.183  34.670  1.00  0.00     0.037 A 
BRANCH  45  59
ATOM     59  C   UNL A   1      44.718  27.493  34.539  1.00  0.00     0.057 A 
ATOM     60  C   UNL A   1      45.951  28.143  34.669  1.00  0.00     0.134 A 
ATOM     61  C   UNL A   1      44.570  26.253  35.172  1.00  0.00     0.134 A 
ATOM     62  F   UNL A   1      46.162  29.328  34.075  1.00  0.00    -0.206 F 
ATOM     63  C   UNL A   1      47.004  27.573  35.388  1.00  0.00     0.040 A 
ATOM     64  C   UNL A   1      45.607  25.682  35.911  1.00  0.00     0.040 A 
ATOM     65  F   UNL A   1      43.413  25.580  35.089  1.00  0.00    -0.206 F 
ATOM     66  C   UNL A   1      46.831  26.342  36.016  1.00  0.00     0.006 A 
ENDBRANCH  45  59
BRANCH  46  67
ATOM     67  C   UNL A   1      37.187  31.257  29.200  1.00  0.00     0.057 A 
ATOM     68  C   UNL A   1      37.203  32.565  28.704  1.00  0.00     0.134 A 
ATOM     69  C   UNL A   1      36.048  30.484  28.949  1.00  0.00     0.134 A 
ATOM     70  F   UNL A   1      38.257  33.362  28.935  1.00  0.00    -0.206 F 
ATOM     71  C   UNL A   1      36.121  33.090  27.994  1.00  0.00     0.040 A 
ATOM     72  C   UNL A   1      34.969  30.988  28.222  1.00  0.00     0.040 A 
ATOM     73  F   UNL A   1      35.971  29.224  29.401  1.00  0.00    -0.206 F 
ATOM     74  C   UNL A   1      35.002  32.297  27.747  1.00  0.00     0.006 A 
ENDBRANCH  46  67
BRANCH  58  75
ATOM     75  C   UNL A   1      39.209  31.964  35.821  1.00  0.00     0.057 A 
ATOM     76  C   UNL A   1      38.282  31.404  36.710  1.00  0.00     0.134 A 
ATOM     77  C   UNL A   1      39.626  33.280  36.063  1.00  0.00     0.134 A 
ATOM     78  F   UNL A   1      37.834  30.154  36.525  1.00  0.00    -0.206 F 
ATOM     79  C   UNL A   1      37.774  32.132  37.787  1.00  0.00     0.040 A 
ATOM     80  C   UNL A   1      39.143  34.009  37.150  1.00  0.00     0.040 A 
ATOM     81  F   UNL A   1      40.517  33.871  35.254  1.00  0.00    -0.206 F 
ATOM     82  C   UNL A   1      38.210  33.436  38.013  1.00  0.00     0.006 A 
ENDBRANCH  58  75
ENDBRANCH  32  33
ENDBRANCH  25  27
ENDBRANCH  24  25
ENDBRANCH  23  24
ENDBRANCH  22  23
ENDBRANCH  21  22
ENDBRANCH   1  21
TORSDOF 17
ENDMDL
MODEL 3
REMARK VINA RESULT:     -10.3      0.838      2.077
REMARK SMILES O=C(/C=C/c1c(Cl)cccc1Cl)NCC(=O)OCCOCCOC(=O)c1ccc(-c2c3nc(c(-c4c(F)cccc4F)c4ccc([nH]4)c(-c4c(F)cccc4F)c4nc(c(-c5c(F)cccc5F)c5ccc2[nH]5)C=C4)C=C3)cc1
REMARK SMILES IDX 19 1 18 2 17 3 15 4 16 5 14 6 13 7 1 8 2 9 3 11 4 12 5 13
REMARK SMILES IDX 6 14 11 15 7 16 8 17 10 18 12 19 9 20 20 21 21 22 22 23
REMARK SMILES IDX 23 24 24 25 25 26 26 27 27 28 79 29 28 30 78 31 29 32 30 33
REMARK SMILES IDX 31 34 72 35 32 36 77 37 71 38 73 39 33 40 76 41 70 42 69 43
REMARK SMILES IDX 34 45 60 46 43 47 59 48 44 49 47 50 58 51 74 52 45 53 46 54
REMARK SMILES IDX 57 56 75 57 48 58 35 59 36 60 41 61 37 62 38 63 40 64 42 65
REMARK SMILES IDX 39 66 61 67 62 68 67 69 63 70 64 71 66 72 68 73 65 74 49 75
REMARK SMILES IDX 50 76 55 77 51 78 52 79 54 80 56 81 53 82
REMARK H PARENT 13 10 73 44 47 55
REMARK Flexibility Score: inf
ROOT
ATOM      1  C   UNL A   1      40.818  20.496  26.347  1.00  0.00     0.202 C 
ENDROOT
BRANCH   1   2
ATOM      2  C   UNL A   1      39.926  21.740  26.373  1.00  0.00     0.261 C 
BRANCH   2   3
ATOM      3  O   UNL A   1      38.593  21.417  25.939  1.00  0.00    -0.462 OA
BRANCH   3   4
ATOM      4  C   UNL A   1      37.779  22.487  25.722  1.00  0.00     0.325 C 
ATOM      5  O   UNL A   1      38.151  23.655  25.710  1.00  0.00    -0.250 OA
BRANCH   4   6
ATOM      6  C   UNL A   1      36.367  22.071  25.313  1.00  0.00     0.239 C 
BRANCH   6   7
ATOM      7  N   UNL A   1      35.372  23.121  25.133  1.00  0.00    -0.342 N 
ATOM      8  O   UNL A   1      35.595  23.191  22.862  1.00  0.00    -0.270 OA
ATOM      9  C   UNL A   1      35.023  23.549  23.884  1.00  0.00     0.244 C 
ATOM     10  H   UNL A   1      34.946  23.527  25.923  1.00  0.00     0.164 HD
BRANCH   9  11
ATOM     11  C   UNL A   1      33.879  24.492  23.788  1.00  0.00     0.072 C 
ATOM     12  C   UNL A   1      33.921  25.773  23.386  1.00  0.00     0.017 C 
BRANCH  12  13
ATOM     13  C   UNL A   1      32.719  26.636  23.459  1.00  0.00     0.012 A 
ATOM     14  C   UNL A   1      32.421  27.394  24.610  1.00  0.00     0.049 A 
ATOM     15  C   UNL A   1      31.831  26.728  22.372  1.00  0.00     0.049 A 
ATOM     16  Cl  UNL A   1      33.489  27.462  25.973  1.00  0.00    -0.084 Cl
ATOM     17  C   UNL A   1      31.251  28.160  24.689  1.00  0.00     0.021 A 
ATOM     18  C   UNL A   1      30.657  27.488  22.456  1.00  0.00     0.021 A 
ATOM     19  Cl  UNL A   1      32.145  25.934  20.867  1.00  0.00    -0.084 Cl
ATOM     20  C   UNL A   1      30.361  28.196  23.618  1.00  0.00     0.003 A 
ENDBRANCH  12  13
ENDBRANCH   9  11
ENDBRANCH   6   7
ENDBRANCH   4   6
ENDBRANCH   3   4
ENDBRANCH   2   3
ENDBRANCH   1   2
BRANCH   1  21
ATOM     21  O   UNL A   1      42.171  20.691  26.763  1.00  0.00    -0.374 OA
BRANCH  21  22
ATOM     22  C   UNL A   1      43.201  20.468  25.801  1.00  0.00     0.202 C 
BRANCH  22  23
ATOM     23  C   UNL A   1      44.025  21.692  25.382  1.00  0.00     0.261 C 
BRANCH  23  24
ATOM     24  O   UNL A   1      43.213  22.856  25.148  1.00  0.00    -0.460 OA
BRANCH  24  25
ATOM     25  C   UNL A   1      43.871  24.034  25.254  1.00  0.00     0.338 C 
ATOM     26  O   UNL A   1      44.839  24.402  24.597  1.00  0.00    -0.246 OA
BRANCH  25  27
ATOM     27  C   UNL A   1      43.172  24.944  26.177  1.00  0.00     0.060 A 
ATOM     28  C   UNL A   1      43.629  26.267  26.257  1.00  0.00     0.016 A 
ATOM     29  C   UNL A   1      42.152  24.499  27.019  1.00  0.00     0.016 A 
ATOM     30  C   UNL A   1      43.093  27.135  27.207  1.00  0.00     0.010 A 
ATOM     31  C   UNL A   1      41.623  25.367  27.980  1.00  0.00     0.010 A 
ATOM     32  C   UNL A   1      42.111  26.679  28.097  1.00  0.00    -0.014 A 
BRANCH  32  33
ATOM     33  C   UNL A   1      41.665  27.547  29.212  1.00  0.00     0.031 A 
ATOM     34  C   UNL A   1      42.376  27.478  30.534  1.00  0.00     0.074 A 
ATOM     35  C   UNL A   1      40.636  28.395  29.040  1.00  0.00     0.049 A 
ATOM     36  N   UNL A   1      42.127  28.126  31.643  1.00  0.00    -0.248 NA
ATOM     37  C   UNL A   1      43.518  26.555  30.618  1.00  0.00     0.031 C 
ATOM     38  C   UNL A   1      39.883  28.568  27.800  1.00  0.00     0.029 A 
ATOM     39  N   UNL A   1      40.044  29.265  29.921  1.00  0.00    -0.354 N 
ATOM     40  C   UNL A   1      43.081  27.692  32.556  1.00  0.00     0.074 A 
ATOM     41  C   UNL A   1      43.894  26.704  31.880  1.00  0.00     0.031 C 
ATOM     42  C   UNL A   1      38.919  29.482  28.002  1.00  0.00     0.029 A 
ATOM     43  C   UNL A   1      38.971  29.935  29.390  1.00  0.00     0.049 A 
ATOM     44  H   UNL A   1      40.359  29.395  30.844  1.00  0.00     0.167 HD
ATOM     45  C   UNL A   1      43.265  28.091  33.837  1.00  0.00     0.037 A 
ATOM     46  C   UNL A   1      38.116  30.801  29.966  1.00  0.00     0.037 A 
ATOM     47  C   UNL A   1      42.454  29.071  34.510  1.00  0.00     0.049 A 
ATOM     48  C   UNL A   1      38.301  31.174  31.412  1.00  0.00     0.074 A 
ATOM     49  C   UNL A   1      42.582  29.560  35.798  1.00  0.00     0.029 A 
ATOM     50  N   UNL A   1      41.355  29.704  33.950  1.00  0.00    -0.354 N 
ATOM     51  N   UNL A   1      39.226  30.785  32.255  1.00  0.00    -0.248 NA
ATOM     52  C   UNL A   1      37.320  32.108  31.985  1.00  0.00     0.031 C 
ATOM     53  C   UNL A   1      41.534  30.457  36.032  1.00  0.00     0.029 A 
ATOM     54  C   UNL A   1      40.779  30.558  34.875  1.00  0.00     0.049 A 
ATOM     55  H   UNL A   1      41.032  29.567  33.029  1.00  0.00     0.167 HD
ATOM     56  C   UNL A   1      38.953  31.440  33.449  1.00  0.00     0.074 A 
ATOM     57  C   UNL A   1      37.783  32.263  33.218  1.00  0.00     0.031 C 
ATOM     58  C   UNL A   1      39.613  31.368  34.631  1.00  0.00     0.037 A 
BRANCH  45  59
ATOM     59  C   UNL A   1      44.383  27.449  34.604  1.00  0.00     0.057 A 
ATOM     60  C   UNL A   1      45.654  28.031  34.681  1.00  0.00     0.134 A 
ATOM     61  C   UNL A   1      44.175  26.255  35.305  1.00  0.00     0.134 A 
ATOM     62  F   UNL A   1      45.922  29.169  34.021  1.00  0.00    -0.206 F 
ATOM     63  C   UNL A   1      46.685  27.440  35.414  1.00  0.00     0.040 A 
ATOM     64  C   UNL A   1      45.191  25.664  36.058  1.00  0.00     0.040 A 
ATOM     65  F   UNL A   1      42.980  25.647  35.276  1.00  0.00    -0.206 F 
ATOM     66  C   UNL A   1      46.452  26.256  36.110  1.00  0.00     0.006 A 
ENDBRANCH  45  59
BRANCH  46  67
ATOM     67  C   UNL A   1      36.994  31.367  29.177  1.00  0.00     0.057 A 
ATOM     68  C   UNL A   1      37.025  32.688  28.720  1.00  0.00     0.134 A 
ATOM     69  C   UNL A   1      35.861  30.604  28.876  1.00  0.00     0.134 A 
ATOM     70  F   UNL A   1      38.074  33.476  28.999  1.00  0.00    -0.206 F 
ATOM     71  C   UNL A   1      35.962  33.236  27.999  1.00  0.00     0.040 A 
ATOM     72  C   UNL A   1      34.801  31.131  28.137  1.00  0.00     0.040 A 
ATOM     73  F   UNL A   1      35.771  29.331  29.289  1.00  0.00    -0.206 F 
ATOM     74  C   UNL A   1      34.849  32.453  27.701  1.00  0.00     0.006 A 
ENDBRANCH  46  67
BRANCH  58  75
ATOM     75  C   UNL A   1      39.097  32.215  35.756  1.00  0.00     0.057 A 
ATOM     76  C   UNL A   1      38.222  31.704  36.723  1.00  0.00     0.134 A 
ATOM     77  C   UNL A   1      39.508  33.548  35.895  1.00  0.00     0.134 A 
ATOM     78  F   UNL A   1      37.781  30.440  36.639  1.00  0.00    -0.206 F 
ATOM     79  C   UNL A   1      37.756  32.493  37.775  1.00  0.00     0.040 A 
ATOM     80  C   UNL A   1      39.068  34.340  36.955  1.00  0.00     0.040 A 
ATOM     81  F   UNL A   1      40.351  34.096  35.007  1.00  0.00    -0.206 F 
ATOM     82  C   UNL A   1      38.185  33.814  37.897  1.00  0.00     0.006 A 
ENDBRANCH  58  75
ENDBRANCH  32  33
ENDBRANCH  25  27
ENDBRANCH  24  25
ENDBRANCH  23  24
ENDBRANCH  22  23
ENDBRANCH  21  22
ENDBRANCH   1  21
TORSDOF 17
ENDMDL
