MODEL 1
REMARK VINA RESULT:     -11.9      0.000      0.000
REMARK SMILES O=C(OCCOCCOC(=O)c1ccc(-c2c3nc(c(-c4c(F)cccc4F)c4ccc([nH]4)c(-c4c(F)cccc4F)c4nc(c(-c5c(F)cccc5F)c5ccc2[nH]5)C=C4)C=C3)cc1)C1=Cc2cc(S(F)(F)(F)(F)F)cc(Br)c2O[C@@H]1C(F)(F)F
REMARK SMILES IDX 7 1 6 2 5 3 4 4 3 5 2 6 1 7 66 8 67 9 82 10 68 11 81 12
REMARK SMILES IDX 69 13 80 14 70 15 78 16 77 17 79 18 83 19 84 20 85 21 86 22
REMARK SMILES IDX 71 23 72 24 73 25 74 26 75 27 76 28 8 29 9 30 10 31 11 32
REMARK SMILES IDX 12 33 13 34 65 35 14 36 64 37 15 38 16 39 17 40 58 41 18 42
REMARK SMILES IDX 63 43 57 44 59 45 19 46 62 47 56 48 55 49 20 51 46 52 29 53
REMARK SMILES IDX 45 54 30 55 33 56 44 57 60 58 31 59 32 60 43 62 61 63 34 64
REMARK SMILES IDX 21 65 22 66 27 67 23 68 24 69 26 70 28 71 25 72 47 73 48 74
REMARK SMILES IDX 53 75 49 76 50 77 52 78 54 79 51 80 35 81 36 82 41 83 37 84
REMARK SMILES IDX 38 85 40 86 42 87 39 88
REMARK H PARENT 59 50 33 61
REMARK Flexibility Score: inf
ROOT
ATOM      1  C   UNL A   1      32.219  29.989  27.186  1.00  0.00     0.202 C 
ENDROOT
BRANCH   1   2
ATOM      2  O   UNL A   1      31.744  30.083  25.851  1.00  0.00    -0.374 OA
BRANCH   2   3
ATOM      3  C   UNL A   1      32.051  28.884  25.155  1.00  0.00     0.202 C 
BRANCH   3   4
ATOM      4  C   UNL A   1      31.626  27.688  25.992  1.00  0.00     0.261 C 
BRANCH   4   5
ATOM      5  O   UNL A   1      31.977  26.489  25.317  1.00  0.00    -0.460 OA
BRANCH   5   6
ATOM      6  C   UNL A   1      33.324  26.259  24.932  1.00  0.00     0.338 C 
ATOM      7  O   UNL A   1      34.265  26.449  25.765  1.00  0.00    -0.246 OA
BRANCH   6   8
ATOM      8  C   UNL A   1      33.642  25.785  23.523  1.00  0.00     0.087 C 
ATOM      9  C   UNL A   1      34.306  24.614  23.333  1.00  0.00     0.027 C 
ATOM     10  C   UNL A   1      33.217  26.621  22.326  1.00  0.00     0.316 C 
ATOM     11  C   UNL A   1      34.732  23.779  24.530  1.00  0.00     0.020 A 
ATOM     12  O   UNL A   1      32.660  24.425  25.499  1.00  0.00    -0.474 OA
ATOM     13  C   UNL A   1      35.948  23.117  24.570  1.00  0.00     0.036 A 
ATOM     14  C   UNL A   1      33.825  23.613  25.485  1.00  0.00     0.142 A 
ATOM     15  C   UNL A   1      35.999  22.069  25.520  1.00  0.00     0.109 A 
ATOM     16  C   UNL A   1      34.004  22.662  26.461  1.00  0.00     0.062 A 
ATOM     17  C   UNL A   1      35.156  21.929  26.526  1.00  0.00     0.044 A 
ATOM     18  Br  UNL A   1      32.586  22.352  27.779  1.00  0.00    -0.047 Br
BRANCH  10  19
ATOM     19  C   UNL A   1      32.282  25.806  21.447  1.00  0.00     0.430 C 
ATOM     20  F   UNL A   1      31.193  26.520  21.176  1.00  0.00    -0.167 F 
ATOM     21  F   UNL A   1      32.901  25.494  20.311  1.00  0.00    -0.167 F 
ATOM     22  F   UNL A   1      31.935  24.691  22.082  1.00  0.00    -0.167 F 
ENDBRANCH  10  19
BRANCH  15  23
ATOM     23  S   UNL A   1      37.310  20.834  25.341  1.00  0.00     0.310 S 
ATOM     24  F   UNL A   1      37.659  21.321  23.873  1.00  0.00    -0.094 F 
ATOM     25  F   UNL A   1      36.257  19.857  24.693  1.00  0.00    -0.094 F 
ATOM     26  F   UNL A   1      38.433  19.770  25.190  1.00  0.00    -0.094 F 
ATOM     27  F   UNL A   1      38.378  21.874  25.862  1.00  0.00    -0.094 F 
ATOM     28  F   UNL A   1      36.204  21.962  25.397  1.00  0.00    -0.094 F 
ENDBRANCH  15  23
ENDBRANCH   6   8
ENDBRANCH   5   6
ENDBRANCH   4   5
ENDBRANCH   3   4
ENDBRANCH   2   3
ENDBRANCH   1   2
BRANCH   1  29
ATOM     29  C   UNL A   1      33.488  30.814  27.331  1.00  0.00     0.261 C 
BRANCH  29  30
ATOM     30  O   UNL A   1      34.585  29.953  27.599  1.00  0.00    -0.460 OA
BRANCH  30  31
ATOM     31  C   UNL A   1      35.555  30.321  28.568  1.00  0.00     0.338 C 
ATOM     32  O   UNL A   1      35.274  31.192  29.450  1.00  0.00    -0.246 OA
BRANCH  31  33
ATOM     33  C   UNL A   1      36.930  29.673  28.550  1.00  0.00     0.060 A 
ATOM     34  C   UNL A   1      37.534  29.252  29.724  1.00  0.00     0.016 A 
ATOM     35  C   UNL A   1      37.593  29.682  27.400  1.00  0.00     0.016 A 
ATOM     36  C   UNL A   1      38.941  29.130  29.634  1.00  0.00     0.010 A 
ATOM     37  C   UNL A   1      38.941  29.419  27.367  1.00  0.00     0.010 A 
ATOM     38  C   UNL A   1      39.614  29.055  28.500  1.00  0.00    -0.014 A 
BRANCH  38  39
ATOM     39  C   UNL A   1      41.061  28.588  28.457  1.00  0.00     0.031 A 
ATOM     40  C   UNL A   1      41.229  27.231  28.183  1.00  0.00     0.074 A 
ATOM     41  C   UNL A   1      42.100  29.500  28.524  1.00  0.00     0.049 A 
ATOM     42  N   UNL A   1      42.369  26.590  27.913  1.00  0.00    -0.248 NA
ATOM     43  C   UNL A   1      40.130  26.254  28.145  1.00  0.00     0.031 C 
ATOM     44  C   UNL A   1      41.936  30.874  28.791  1.00  0.00     0.029 A 
ATOM     45  N   UNL A   1      43.446  29.262  28.352  1.00  0.00    -0.354 N 
ATOM     46  C   UNL A   1      42.128  25.298  27.685  1.00  0.00     0.074 A 
ATOM     47  C   UNL A   1      40.686  25.061  27.837  1.00  0.00     0.031 C 
ATOM     48  C   UNL A   1      43.166  31.452  28.792  1.00  0.00     0.029 A 
ATOM     49  C   UNL A   1      44.119  30.452  28.525  1.00  0.00     0.049 A 
ATOM     50  H   UNL A   1      43.856  28.392  28.143  1.00  0.00     0.167 HD
ATOM     51  C   UNL A   1      43.055  24.307  27.355  1.00  0.00     0.037 A 
ATOM     52  C   UNL A   1      45.486  30.670  28.459  1.00  0.00     0.037 A 
ATOM     53  C   UNL A   1      44.418  24.535  27.246  1.00  0.00     0.049 A 
ATOM     54  C   UNL A   1      46.419  29.666  28.185  1.00  0.00     0.074 A 
ATOM     55  C   UNL A   1      45.364  23.549  26.907  1.00  0.00     0.029 A 
ATOM     56  N   UNL A   1      45.093  25.719  27.442  1.00  0.00    -0.354 N 
ATOM     57  N   UNL A   1      46.175  28.383  27.919  1.00  0.00    -0.248 NA
ATOM     58  C   UNL A   1      47.871  29.880  28.144  1.00  0.00     0.031 C 
ATOM     59  C   UNL A   1      46.595  24.129  26.908  1.00  0.00     0.029 A 
ATOM     60  C   UNL A   1      46.436  25.486  27.249  1.00  0.00     0.049 A 
ATOM     61  H   UNL A   1      44.686  26.583  27.681  1.00  0.00     0.167 HD
ATOM     62  C   UNL A   1      47.318  27.735  27.690  1.00  0.00     0.074 A 
ATOM     63  C   UNL A   1      48.428  28.688  27.839  1.00  0.00     0.031 C 
ATOM     64  C   UNL A   1      47.482  26.389  27.359  1.00  0.00     0.037 A 
BRANCH  51  65
ATOM     65  C   UNL A   1      42.540  22.899  27.101  1.00  0.00     0.057 A 
ATOM     66  C   UNL A   1      42.312  22.449  25.810  1.00  0.00     0.134 A 
ATOM     67  C   UNL A   1      42.303  22.125  28.153  1.00  0.00     0.134 A 
ATOM     68  F   UNL A   1      42.766  23.080  24.731  1.00  0.00    -0.206 F 
ATOM     69  C   UNL A   1      41.554  21.256  25.745  1.00  0.00     0.040 A 
ATOM     70  C   UNL A   1      41.680  20.910  28.000  1.00  0.00     0.040 A 
ATOM     71  F   UNL A   1      42.671  22.530  29.364  1.00  0.00    -0.206 F 
ATOM     72  C   UNL A   1      41.373  20.428  26.758  1.00  0.00     0.006 A 
ENDBRANCH  51  65
BRANCH  52  73
ATOM     73  C   UNL A   1      45.998  32.081  28.697  1.00  0.00     0.057 A 
ATOM     74  C   UNL A   1      46.116  32.927  27.606  1.00  0.00     0.134 A 
ATOM     75  C   UNL A   1      46.316  32.486  29.921  1.00  0.00     0.134 A 
ATOM     76  F   UNL A   1      45.581  32.660  26.419  1.00  0.00    -0.206 F 
ATOM     77  C   UNL A   1      46.860  34.101  27.870  1.00  0.00     0.040 A 
ATOM     78  C   UNL A   1      46.917  33.705  30.120  1.00  0.00     0.040 A 
ATOM     79  F   UNL A   1      46.050  31.704  30.963  1.00  0.00    -0.206 F 
ATOM     80  C   UNL A   1      47.120  34.568  29.078  1.00  0.00     0.006 A 
ENDBRANCH  52  73
BRANCH  64  81
ATOM     81  C   UNL A   1      48.892  25.883  27.103  1.00  0.00     0.057 A 
ATOM     82  C   UNL A   1      49.716  25.480  28.141  1.00  0.00     0.134 A 
ATOM     83  C   UNL A   1      49.344  25.962  25.857  1.00  0.00     0.134 A 
ATOM     84  F   UNL A   1      49.256  25.144  29.343  1.00  0.00    -0.206 F 
ATOM     85  C   UNL A   1      51.091  25.459  27.808  1.00  0.00     0.040 A 
ATOM     86  C   UNL A   1      50.680  25.796  25.585  1.00  0.00     0.040 A 
ATOM     87  F   UNL A   1      48.494  26.205  24.863  1.00  0.00    -0.206 F 
ATOM     88  C   UNL A   1      51.562  25.456  26.574  1.00  0.00     0.006 A 
ENDBRANCH  64  81
ENDBRANCH  38  39
ENDBRANCH  31  33
ENDBRANCH  30  31
ENDBRANCH  29  30
ENDBRANCH   1  29
TORSDOF 16
ENDMDL
MODEL 2
REMARK VINA RESULT:     -11.8      4.582      8.131
REMARK SMILES O=C(OCCOCCOC(=O)c1ccc(-c2c3nc(c(-c4c(F)cccc4F)c4ccc([nH]4)c(-c4c(F)cccc4F)c4nc(c(-c5c(F)cccc5F)c5ccc2[nH]5)C=C4)C=C3)cc1)C1=Cc2cc(S(F)(F)(F)(F)F)cc(Br)c2O[C@@H]1C(F)(F)F
REMARK SMILES IDX 7 1 6 2 5 3 4 4 3 5 2 6 1 7 66 8 67 9 82 10 68 11 81 12
REMARK SMILES IDX 69 13 80 14 70 15 78 16 77 17 79 18 83 19 84 20 85 21 86 22
REMARK SMILES IDX 71 23 72 24 73 25 74 26 75 27 76 28 8 29 9 30 10 31 11 32
REMARK SMILES IDX 12 33 13 34 65 35 14 36 64 37 15 38 16 39 17 40 58 41 18 42
REMARK SMILES IDX 63 43 57 44 59 45 19 46 62 47 56 48 55 49 20 51 46 52 29 53
REMARK SMILES IDX 45 54 30 55 33 56 44 57 60 58 31 59 32 60 43 62 61 63 34 64
REMARK SMILES IDX 21 65 22 66 27 67 23 68 24 69 26 70 28 71 25 72 47 73 48 74
REMARK SMILES IDX 53 75 49 76 50 77 52 78 54 79 51 80 35 81 36 82 41 83 37 84
REMARK SMILES IDX 38 85 40 86 42 87 39 88
REMARK H PARENT 59 50 33 61
REMARK Flexibility Score: inf
ROOT
ATOM      1  C   UNL A   1      31.509  32.052  26.694  1.00  0.00     0.202 C 
ENDROOT
BRANCH   1   2
ATOM      2  O   UNL A   1      31.996  30.799  26.238  1.00  0.00    -0.374 OA
BRANCH   2   3
ATOM      3  C   UNL A   1      32.904  30.268  27.193  1.00  0.00     0.202 C 
BRANCH   3   4
ATOM      4  C   UNL A   1      33.618  29.065  26.599  1.00  0.00     0.261 C 
BRANCH   4   5
ATOM      5  O   UNL A   1      32.953  27.876  27.000  1.00  0.00    -0.460 OA
BRANCH   5   6
ATOM      6  C   UNL A   1      31.739  27.495  26.372  1.00  0.00     0.338 C 
ATOM      7  O   UNL A   1      30.762  27.083  27.073  1.00  0.00    -0.246 OA
BRANCH   6   8
ATOM      8  C   UNL A   1      31.606  27.580  24.860  1.00  0.00     0.087 C 
ATOM      9  C   UNL A   1      32.280  26.704  24.068  1.00  0.00     0.027 C 
ATOM     10  C   UNL A   1      30.720  28.644  24.233  1.00  0.00     0.316 C 
ATOM     11  C   UNL A   1      33.167  25.640  24.695  1.00  0.00     0.020 A 
ATOM     12  O   UNL A   1      31.493  25.479  26.374  1.00  0.00    -0.474 OA
ATOM     13  C   UNL A   1      34.384  25.278  24.142  1.00  0.00     0.036 A 
ATOM     14  C   UNL A   1      32.659  24.984  25.731  1.00  0.00     0.142 A 
ATOM     15  C   UNL A   1      34.858  24.016  24.576  1.00  0.00     0.109 A 
ATOM     16  C   UNL A   1      33.251  23.832  26.189  1.00  0.00     0.062 A 
ATOM     17  C   UNL A   1      34.424  23.383  25.649  1.00  0.00     0.044 A 
ATOM     18  Br  UNL A   1      32.402  22.817  27.635  1.00  0.00    -0.047 Br
BRANCH  10  19
ATOM     19  C   UNL A   1      29.628  27.975  23.413  1.00  0.00     0.430 C 
ATOM     20  F   UNL A   1      28.509  28.688  23.498  1.00  0.00    -0.167 F 
ATOM     21  F   UNL A   1      30.012  27.901  22.141  1.00  0.00    -0.167 F 
ATOM     22  F   UNL A   1      29.409  26.749  23.882  1.00  0.00    -0.167 F 
ENDBRANCH  10  19
BRANCH  15  23
ATOM     23  S   UNL A   1      36.148  23.217  23.589  1.00  0.00     0.310 S 
ATOM     24  F   UNL A   1      36.069  21.885  24.444  1.00  0.00    -0.094 F 
ATOM     25  F   UNL A   1      37.217  23.737  24.623  1.00  0.00    -0.094 F 
ATOM     26  F   UNL A   1      37.259  22.535  22.741  1.00  0.00    -0.094 F 
ATOM     27  F   UNL A   1      35.052  22.588  22.642  1.00  0.00    -0.094 F 
ATOM     28  F   UNL A   1      35.001  23.809  24.500  1.00  0.00    -0.094 F 
ENDBRANCH  15  23
ENDBRANCH   6   8
ENDBRANCH   5   6
ENDBRANCH   4   5
ENDBRANCH   3   4
ENDBRANCH   2   3
ENDBRANCH   1   2
BRANCH   1  29
ATOM     29  C   UNL A   1      32.590  32.753  27.500  1.00  0.00     0.261 C 
BRANCH  29  30
ATOM     30  O   UNL A   1      32.255  34.125  27.652  1.00  0.00    -0.460 OA
BRANCH  30  31
ATOM     31  C   UNL A   1      32.902  34.907  28.644  1.00  0.00     0.338 C 
ATOM     32  O   UNL A   1      32.365  35.982  29.057  1.00  0.00    -0.246 OA
BRANCH  31  33
ATOM     33  C   UNL A   1      34.239  34.459  29.212  1.00  0.00     0.060 A 
ATOM     34  C   UNL A   1      35.422  34.712  28.536  1.00  0.00     0.016 A 
ATOM     35  C   UNL A   1      34.214  33.675  30.284  1.00  0.00     0.016 A 
ATOM     36  C   UNL A   1      36.486  33.855  28.901  1.00  0.00     0.010 A 
ATOM     37  C   UNL A   1      35.331  32.971  30.663  1.00  0.00     0.010 A 
ATOM     38  C   UNL A   1      36.518  33.128  30.002  1.00  0.00    -0.014 A 
BRANCH  38  39
ATOM     39  C   UNL A   1      37.806  32.499  30.511  1.00  0.00     0.031 A 
ATOM     40  C   UNL A   1      38.316  33.071  31.677  1.00  0.00     0.074 A 
ATOM     41  C   UNL A   1      38.309  31.349  29.928  1.00  0.00     0.049 A 
ATOM     42  N   UNL A   1      39.316  32.618  32.435  1.00  0.00    -0.248 NA
ATOM     43  C   UNL A   1      37.805  34.313  32.279  1.00  0.00     0.031 C 
ATOM     44  C   UNL A   1      37.794  30.761  28.756  1.00  0.00     0.029 A 
ATOM     45  N   UNL A   1      39.368  30.579  30.355  1.00  0.00    -0.354 N 
ATOM     46  C   UNL A   1      39.503  33.426  33.481  1.00  0.00     0.074 A 
ATOM     47  C   UNL A   1      38.539  34.530  33.392  1.00  0.00     0.031 C 
ATOM     48  C   UNL A   1      38.539  29.661  28.474  1.00  0.00     0.029 A 
ATOM     49  C   UNL A   1      39.531  29.540  29.465  1.00  0.00     0.049 A 
ATOM     50  H   UNL A   1      39.914  30.743  31.157  1.00  0.00     0.167 HD
ATOM     51  C   UNL A   1      40.441  33.283  34.506  1.00  0.00     0.037 A 
ATOM     52  C   UNL A   1      40.487  28.536  29.498  1.00  0.00     0.037 A 
ATOM     53  C   UNL A   1      41.368  32.255  34.562  1.00  0.00     0.049 A 
ATOM     54  C   UNL A   1      41.462  28.427  30.493  1.00  0.00     0.074 A 
ATOM     55  C   UNL A   1      42.314  32.093  35.592  1.00  0.00     0.029 A 
ATOM     56  N   UNL A   1      41.547  31.230  33.659  1.00  0.00    -0.354 N 
ATOM     57  N   UNL A   1      41.623  29.211  31.559  1.00  0.00    -0.248 NA
ATOM     58  C   UNL A   1      42.498  27.387  30.521  1.00  0.00     0.031 C 
ATOM     59  C   UNL A   1      43.060  30.991  35.310  1.00  0.00     0.029 A 
ATOM     60  C   UNL A   1      42.592  30.447  34.098  1.00  0.00     0.049 A 
ATOM     61  H   UNL A   1      41.019  31.083  32.841  1.00  0.00     0.167 HD
ATOM     62  C   UNL A   1      42.651  28.781  32.294  1.00  0.00     0.074 A 
ATOM     63  C   UNL A   1      43.233  27.606  31.633  1.00  0.00     0.031 C 
ATOM     64  C   UNL A   1      43.124  29.320  33.492  1.00  0.00     0.037 A 
BRANCH  51  65
ATOM     65  C   UNL A   1      40.444  34.314  35.624  1.00  0.00     0.057 A 
ATOM     66  C   UNL A   1      39.711  34.108  36.781  1.00  0.00     0.134 A 
ATOM     67  C   UNL A   1      41.157  35.420  35.447  1.00  0.00     0.134 A 
ATOM     68  F   UNL A   1      39.195  32.928  37.113  1.00  0.00    -0.206 F 
ATOM     69  C   UNL A   1      39.563  35.267  37.580  1.00  0.00     0.040 A 
ATOM     70  C   UNL A   1      41.066  36.460  36.340  1.00  0.00     0.040 A 
ATOM     71  F   UNL A   1      41.965  35.522  34.396  1.00  0.00    -0.206 F 
ATOM     72  C   UNL A   1      40.315  36.348  37.476  1.00  0.00     0.006 A 
ENDBRANCH  51  65
BRANCH  52  73
ATOM     73  C   UNL A   1      40.472  27.497  28.389  1.00  0.00     0.057 A 
ATOM     74  C   UNL A   1      41.265  27.719  27.275  1.00  0.00     0.134 A 
ATOM     75  C   UNL A   1      39.722  26.407  28.496  1.00  0.00     0.134 A 
ATOM     76  F   UNL A   1      42.212  28.650  27.232  1.00  0.00    -0.206 F 
ATOM     77  C   UNL A   1      40.975  26.862  26.186  1.00  0.00     0.040 A 
ATOM     78  C   UNL A   1      39.591  25.542  27.437  1.00  0.00     0.040 A 
ATOM     79  F   UNL A   1      39.091  26.150  29.638  1.00  0.00    -0.206 F 
ATOM     80  C   UNL A   1      40.300  25.731  26.282  1.00  0.00     0.006 A 
ENDBRANCH  52  73
BRANCH  64  81
ATOM     81  C   UNL A   1      44.293  28.628  34.173  1.00  0.00     0.057 A 
ATOM     82  C   UNL A   1      45.604  28.978  33.894  1.00  0.00     0.134 A 
ATOM     83  C   UNL A   1      44.009  27.591  34.951  1.00  0.00     0.134 A 
ATOM     84  F   UNL A   1      45.942  30.139  33.340  1.00  0.00    -0.206 F 
ATOM     85  C   UNL A   1      46.551  27.990  34.251  1.00  0.00     0.040 A 
ATOM     86  C   UNL A   1      45.002  26.742  35.376  1.00  0.00     0.040 A 
ATOM     87  F   UNL A   1      42.751  27.371  35.323  1.00  0.00    -0.206 F 
ATOM     88  C   UNL A   1      46.314  26.994  35.086  1.00  0.00     0.006 A 
ENDBRANCH  64  81
ENDBRANCH  38  39
ENDBRANCH  31  33
ENDBRANCH  30  31
ENDBRANCH  29  30
ENDBRANCH   1  29
TORSDOF 16
ENDMDL
MODEL 3
REMARK VINA RESULT:     -11.8      2.005      2.740
REMARK SMILES O=C(OCCOCCOC(=O)c1ccc(-c2c3nc(c(-c4c(F)cccc4F)c4ccc([nH]4)c(-c4c(F)cccc4F)c4nc(c(-c5c(F)cccc5F)c5ccc2[nH]5)C=C4)C=C3)cc1)C1=Cc2cc(S(F)(F)(F)(F)F)cc(Br)c2O[C@@H]1C(F)(F)F
REMARK SMILES IDX 7 1 6 2 5 3 4 4 3 5 2 6 1 7 66 8 67 9 82 10 68 11 81 12
REMARK SMILES IDX 69 13 80 14 70 15 78 16 77 17 79 18 83 19 84 20 85 21 86 22
REMARK SMILES IDX 71 23 72 24 73 25 74 26 75 27 76 28 8 29 9 30 10 31 11 32
REMARK SMILES IDX 12 33 13 34 65 35 14 36 64 37 15 38 16 39 17 40 58 41 18 42
REMARK SMILES IDX 63 43 57 44 59 45 19 46 62 47 56 48 55 49 20 51 46 52 29 53
REMARK SMILES IDX 45 54 30 55 33 56 44 57 60 58 31 59 32 60 43 62 61 63 34 64
REMARK SMILES IDX 21 65 22 66 27 67 23 68 24 69 26 70 28 71 25 72 47 73 48 74
REMARK SMILES IDX 53 75 49 76 50 77 52 78 54 79 51 80 35 81 36 82 41 83 37 84
REMARK SMILES IDX 38 85 40 86 42 87 39 88
REMARK H PARENT 59 50 33 61
REMARK Flexibility Score: inf
ROOT
ATOM      1  C   UNL A   1      32.955  29.000  26.190  1.00  0.00     0.202 C 
ENDROOT
BRANCH   1   2
ATOM      2  O   UNL A   1      32.675  27.991  25.231  1.00  0.00    -0.374 OA
BRANCH   2   3
ATOM      3  C   UNL A   1      33.648  26.962  25.330  1.00  0.00     0.202 C 
BRANCH   3   4
ATOM      4  C   UNL A   1      33.800  26.276  23.981  1.00  0.00     0.261 C 
BRANCH   4   5
ATOM      5  O   UNL A   1      34.067  24.896  24.180  1.00  0.00    -0.460 OA
BRANCH   5   6
ATOM      6  C   UNL A   1      33.191  23.918  23.640  1.00  0.00     0.338 C 
ATOM      7  O   UNL A   1      33.457  23.375  22.522  1.00  0.00    -0.246 OA
BRANCH   6   8
ATOM      8  C   UNL A   1      31.935  23.521  24.399  1.00  0.00     0.087 C 
ATOM      9  C   UNL A   1      31.793  22.249  24.858  1.00  0.00     0.027 C 
ATOM     10  C   UNL A   1      30.839  24.544  24.643  1.00  0.00     0.316 C 
ATOM     11  C   UNL A   1      32.889  21.224  24.613  1.00  0.00     0.020 A 
ATOM     12  O   UNL A   1      34.407  23.013  24.992  1.00  0.00    -0.474 OA
ATOM     13  C   UNL A   1      32.606  19.905  24.302  1.00  0.00     0.036 A 
ATOM     14  C   UNL A   1      34.134  21.628  24.835  1.00  0.00     0.142 A 
ATOM     15  C   UNL A   1      33.685  19.018  24.534  1.00  0.00     0.109 A 
ATOM     16  C   UNL A   1      35.161  20.719  24.914  1.00  0.00     0.062 A 
ATOM     17  C   UNL A   1      34.943  19.390  24.677  1.00  0.00     0.044 A 
ATOM     18  Br  UNL A   1      36.964  21.335  25.374  1.00  0.00    -0.047 Br
BRANCH  10  19
ATOM     19  C   UNL A   1      30.631  24.716  26.139  1.00  0.00     0.430 C 
ATOM     20  F   UNL A   1      29.759  23.811  26.573  1.00  0.00    -0.167 F 
ATOM     21  F   UNL A   1      31.791  24.552  26.770  1.00  0.00    -0.167 F 
ATOM     22  F   UNL A   1      30.162  25.936  26.385  1.00  0.00    -0.167 F 
ENDBRANCH  10  19
BRANCH  15  23
ATOM     23  S   UNL A   1      33.312  17.250  24.642  1.00  0.00     0.310 S 
ATOM     24  F   UNL A   1      31.773  17.489  24.340  1.00  0.00    -0.094 F 
ATOM     25  F   UNL A   1      32.973  17.448  26.168  1.00  0.00    -0.094 F 
ATOM     26  F   UNL A   1      32.994  15.731  24.740  1.00  0.00    -0.094 F 
ATOM     27  F   UNL A   1      33.519  17.097  23.084  1.00  0.00    -0.094 F 
ATOM     28  F   UNL A   1      33.528  18.809  24.504  1.00  0.00    -0.094 F 
ENDBRANCH  15  23
ENDBRANCH   6   8
ENDBRANCH   5   6
ENDBRANCH   4   5
ENDBRANCH   3   4
ENDBRANCH   2   3
ENDBRANCH   1   2
BRANCH   1  29
ATOM     29  C   UNL A   1      34.430  28.957  26.554  1.00  0.00     0.261 C 
BRANCH  29  30
ATOM     30  O   UNL A   1      34.576  29.107  27.959  1.00  0.00    -0.460 OA
BRANCH  30  31
ATOM     31  C   UNL A   1      35.452  30.095  28.479  1.00  0.00     0.338 C 
ATOM     32  O   UNL A   1      34.983  31.186  28.932  1.00  0.00    -0.246 OA
BRANCH  31  33
ATOM     33  C   UNL A   1      36.952  29.848  28.494  1.00  0.00     0.060 A 
ATOM     34  C   UNL A   1      37.715  30.025  27.350  1.00  0.00     0.016 A 
ATOM     35  C   UNL A   1      37.469  29.298  29.587  1.00  0.00     0.016 A 
ATOM     36  C   UNL A   1      38.942  29.322  27.364  1.00  0.00     0.010 A 
ATOM     37  C   UNL A   1      38.728  28.749  29.566  1.00  0.00     0.010 A 
ATOM     38  C   UNL A   1      39.514  28.836  28.451  1.00  0.00    -0.014 A 
BRANCH  38  39
ATOM     39  C   UNL A   1      40.970  28.398  28.462  1.00  0.00     0.031 A 
ATOM     40  C   UNL A   1      41.177  27.049  28.171  1.00  0.00     0.074 A 
ATOM     41  C   UNL A   1      41.987  29.327  28.591  1.00  0.00     0.049 A 
ATOM     42  N   UNL A   1      42.340  26.436  27.938  1.00  0.00    -0.248 NA
ATOM     43  C   UNL A   1      40.100  26.052  28.067  1.00  0.00     0.031 C 
ATOM     44  C   UNL A   1      41.785  30.692  28.876  1.00  0.00     0.029 A 
ATOM     45  N   UNL A   1      43.343  29.118  28.473  1.00  0.00    -0.354 N 
ATOM     46  C   UNL A   1      42.135  25.143  27.676  1.00  0.00     0.074 A 
ATOM     47  C   UNL A   1      40.692  24.876  27.761  1.00  0.00     0.031 C 
ATOM     48  C   UNL A   1      43.002  31.293  28.941  1.00  0.00     0.029 A 
ATOM     49  C   UNL A   1      43.985  30.317  28.697  1.00  0.00     0.049 A 
ATOM     50  H   UNL A   1      43.779  28.260  28.266  1.00  0.00     0.167 HD
ATOM     51  C   UNL A   1      43.094  24.177  27.368  1.00  0.00     0.037 A 
ATOM     52  C   UNL A   1      45.349  30.562  28.694  1.00  0.00     0.037 A 
ATOM     53  C   UNL A   1      44.456  24.433  27.323  1.00  0.00     0.049 A 
ATOM     54  C   UNL A   1      46.313  29.582  28.443  1.00  0.00     0.074 A 
ATOM     55  C   UNL A   1      45.435  23.472  27.007  1.00  0.00     0.029 A 
ATOM     56  N   UNL A   1      45.098  25.626  27.571  1.00  0.00    -0.354 N 
ATOM     57  N   UNL A   1      46.105  28.299  28.143  1.00  0.00    -0.248 NA
ATOM     58  C   UNL A   1      47.761  29.825  28.469  1.00  0.00     0.031 C 
ATOM     59  C   UNL A   1      46.653  24.074  27.073  1.00  0.00     0.029 A 
ATOM     60  C   UNL A   1      46.453  25.421  27.431  1.00  0.00     0.049 A 
ATOM     61  H   UNL A   1      44.664  26.477  27.807  1.00  0.00     0.167 HD
ATOM     62  C   UNL A   1      47.271  27.679  27.952  1.00  0.00     0.074 A 
ATOM     63  C   UNL A   1      48.353  28.649  28.166  1.00  0.00     0.031 C 
ATOM     64  C   UNL A   1      47.475  26.342  27.603  1.00  0.00     0.037 A 
BRANCH  51  65
ATOM     65  C   UNL A   1      42.619  22.765  27.066  1.00  0.00     0.057 A 
ATOM     66  C   UNL A   1      42.378  22.361  25.763  1.00  0.00     0.134 A 
ATOM     67  C   UNL A   1      42.429  21.941  28.090  1.00  0.00     0.134 A 
ATOM     68  F   UNL A   1      42.788  23.050  24.702  1.00  0.00    -0.206 F 
ATOM     69  C   UNL A   1      41.657  21.148  25.663  1.00  0.00     0.040 A 
ATOM     70  C   UNL A   1      41.842  20.713  27.899  1.00  0.00     0.040 A 
ATOM     71  F   UNL A   1      42.811  22.307  29.309  1.00  0.00    -0.206 F 
ATOM     72  C   UNL A   1      41.523  20.273  26.645  1.00  0.00     0.006 A 
ENDBRANCH  51  65
BRANCH  52  73
ATOM     73  C   UNL A   1      45.822  31.978  28.980  1.00  0.00     0.057 A 
ATOM     74  C   UNL A   1      46.066  32.332  30.297  1.00  0.00     0.134 A 
ATOM     75  C   UNL A   1      46.000  32.843  27.989  1.00  0.00     0.134 A 
ATOM     76  F   UNL A   1      46.147  31.446  31.284  1.00  0.00    -0.206 F 
ATOM     77  C   UNL A   1      46.220  33.725  30.497  1.00  0.00     0.040 A 
ATOM     78  C   UNL A   1      46.282  34.162  28.254  1.00  0.00     0.040 A 
ATOM     79  F   UNL A   1      45.903  32.431  26.729  1.00  0.00    -0.206 F 
ATOM     80  C   UNL A   1      46.477  34.595  29.537  1.00  0.00     0.006 A 
ENDBRANCH  52  73
BRANCH  64  81
ATOM     81  C   UNL A   1      48.905  25.868  27.400  1.00  0.00     0.057 A 
ATOM     82  C   UNL A   1      49.693  25.469  28.466  1.00  0.00     0.134 A 
ATOM     83  C   UNL A   1      49.405  25.972  26.174  1.00  0.00     0.134 A 
ATOM     84  F   UNL A   1      49.192  25.108  29.644  1.00  0.00    -0.206 F 
ATOM     85  C   UNL A   1      51.081  25.480  28.189  1.00  0.00     0.040 A 
ATOM     86  C   UNL A   1      50.755  25.837  25.956  1.00  0.00     0.040 A 
ATOM     87  F   UNL A   1      48.592  26.210  25.149  1.00  0.00    -0.206 F 
ATOM     88  C   UNL A   1      51.602  25.502  26.976  1.00  0.00     0.006 A 
ENDBRANCH  64  81
ENDBRANCH  38  39
ENDBRANCH  31  33
ENDBRANCH  30  31
ENDBRANCH  29  30
ENDBRANCH   1  29
TORSDOF 16
ENDMDL
