MODEL 1
REMARK VINA RESULT:     -10.8      0.000      0.000
REMARK SMILES CC(C)[C@@H](NS(=O)(=O)c1ccc(Cl)c([N+](=O)[O-])c1)C(=O)OCCOCCOC(=O)c1ccc(-c2c3nc(c(-c4c(F)cccc4F)c4ccc([nH]4)c(-c4c(F)cccc4F)c4nc(c(-c5c(F)cccc5F)c5ccc2[nH]5)C=C4)C=C3)cc1
REMARK SMILES IDX 23 1 22 2 21 3 19 4 20 5 4 6 2 7 1 8 3 9 5 10 6 12 7 13 8 14
REMARK SMILES IDX 9 15 10 16 18 17 11 18 14 19 12 20 13 21 15 22 16 23 17 24
REMARK SMILES IDX 24 25 25 26 26 27 27 28 28 29 29 30 30 31 31 32 83 33 32 34
REMARK SMILES IDX 82 35 33 36 34 37 35 38 76 39 36 40 81 41 75 42 77 43 37 44
REMARK SMILES IDX 80 45 74 46 73 47 38 49 64 50 47 51 63 52 48 53 51 54 62 55
REMARK SMILES IDX 78 56 49 57 50 58 61 60 79 61 52 62 39 63 40 64 45 65 41 66
REMARK SMILES IDX 42 67 44 68 46 69 43 70 65 71 66 72 71 73 67 74 68 75 70 76
REMARK SMILES IDX 72 77 69 78 53 79 54 80 59 81 55 82 56 83 58 84 60 85 57 86
REMARK H PARENT 5 11 77 48 51 59
REMARK Flexibility Score: inf
ROOT
ATOM      1  C   UNL A   1      32.885  29.698  25.554  1.00  0.00     0.202 C 
ENDROOT
BRANCH   1   2
ATOM      2  C   UNL A   1      32.434  28.971  24.284  1.00  0.00     0.261 C 
BRANCH   2   3
ATOM      3  O   UNL A   1      31.074  29.112  23.849  1.00  0.00    -0.462 OA
BRANCH   3   4
ATOM      4  C   UNL A   1      30.717  28.272  22.834  1.00  0.00     0.324 C 
ATOM      5  O   UNL A   1      30.003  28.597  21.892  1.00  0.00    -0.250 OA
BRANCH   4   6
ATOM      6  C   UNL A   1      31.147  26.823  23.070  1.00  0.00     0.182 C 
BRANCH   6   7
ATOM      7  C   UNL A   1      30.155  25.948  23.881  1.00  0.00     0.012 C 
ATOM      8  C   UNL A   1      30.631  25.808  25.338  1.00  0.00     0.009 C 
ATOM      9  C   UNL A   1      28.733  26.516  23.910  1.00  0.00     0.009 C 
ENDBRANCH   6   7
BRANCH   6  10
ATOM     10  N   UNL A   1      31.403  26.191  21.741  1.00  0.00    -0.197 NA
ATOM     11  H   UNL A   1      31.087  26.852  21.032  1.00  0.00     0.142 HD
BRANCH  10  12
ATOM     12  S   UNL A   1      32.979  25.742  21.332  1.00  0.00     0.241 S 
ATOM     13  O   UNL A   1      32.969  25.240  19.980  1.00  0.00    -0.207 OA
ATOM     14  O   UNL A   1      33.813  26.857  21.725  1.00  0.00    -0.207 OA
BRANCH  12  15
ATOM     15  C   UNL A   1      33.350  24.417  22.457  1.00  0.00     0.089 A 
ATOM     16  C   UNL A   1      32.589  23.246  22.404  1.00  0.00     0.024 A 
ATOM     17  C   UNL A   1      34.418  24.534  23.352  1.00  0.00     0.109 A 
ATOM     18  C   UNL A   1      32.919  22.169  23.236  1.00  0.00     0.029 A 
ATOM     19  C   UNL A   1      34.767  23.428  24.144  1.00  0.00     0.289 A 
ATOM     20  C   UNL A   1      34.016  22.248  24.106  1.00  0.00     0.118 A 
ATOM     21  Cl  UNL A   1      34.342  20.852  25.070  1.00  0.00    -0.077 Cl
BRANCH  19  22
ATOM     22  N   UNL A   1      35.991  23.524  24.926  1.00  0.00     0.064 N 
ATOM     23  O   UNL A   1      37.041  23.175  24.369  1.00  0.00    -0.258 OA
ATOM     24  O   UNL A   1      35.897  23.904  26.100  1.00  0.00    -0.258 OA
ENDBRANCH  19  22
ENDBRANCH  12  15
ENDBRANCH  10  12
ENDBRANCH   6  10
ENDBRANCH   4   6
ENDBRANCH   3   4
ENDBRANCH   2   3
ENDBRANCH   1   2
BRANCH   1  25
ATOM     25  O   UNL A   1      31.896  30.207  26.431  1.00  0.00    -0.374 OA
BRANCH  25  26
ATOM     26  C   UNL A   1      31.289  31.457  26.116  1.00  0.00     0.202 C 
BRANCH  26  27
ATOM     27  C   UNL A   1      31.379  32.558  27.174  1.00  0.00     0.261 C 
BRANCH  27  28
ATOM     28  O   UNL A   1      32.520  33.414  26.952  1.00  0.00    -0.460 OA
BRANCH  28  29
ATOM     29  C   UNL A   1      33.191  33.736  28.084  1.00  0.00     0.338 C 
ATOM     30  O   UNL A   1      32.790  34.426  29.008  1.00  0.00    -0.246 OA
BRANCH  29  31
ATOM     31  C   UNL A   1      34.465  33.002  28.174  1.00  0.00     0.060 A 
ATOM     32  C   UNL A   1      34.392  31.631  28.456  1.00  0.00     0.016 A 
ATOM     33  C   UNL A   1      35.688  33.673  28.205  1.00  0.00     0.016 A 
ATOM     34  C   UNL A   1      35.527  30.949  28.884  1.00  0.00     0.010 A 
ATOM     35  C   UNL A   1      36.828  32.987  28.640  1.00  0.00     0.010 A 
ATOM     36  C   UNL A   1      36.732  31.644  29.053  1.00  0.00    -0.014 A 
BRANCH  36  37
ATOM     37  C   UNL A   1      37.780  31.038  29.914  1.00  0.00     0.031 A 
ATOM     38  C   UNL A   1      38.741  30.057  29.288  1.00  0.00     0.074 A 
ATOM     39  C   UNL A   1      37.945  31.412  31.194  1.00  0.00     0.049 A 
ATOM     40  N   UNL A   1      39.753  29.424  29.825  1.00  0.00    -0.248 NA
ATOM     41  C   UNL A   1      38.535  29.754  27.862  1.00  0.00     0.031 C 
ATOM     42  C   UNL A   1      37.122  32.391  31.901  1.00  0.00     0.029 A 
ATOM     43  N   UNL A   1      38.873  31.014  32.123  1.00  0.00    -0.354 N 
ATOM     44  C   UNL A   1      40.297  28.648  28.808  1.00  0.00     0.074 A 
ATOM     45  C   UNL A   1      39.485  28.861  27.630  1.00  0.00     0.031 C 
ATOM     46  C   UNL A   1      37.584  32.517  33.158  1.00  0.00     0.029 A 
ATOM     47  C   UNL A   1      38.717  31.613  33.348  1.00  0.00     0.049 A 
ATOM     48  H   UNL A   1      39.583  30.360  31.930  1.00  0.00     0.167 HD
ATOM     49  C   UNL A   1      41.384  27.842  28.841  1.00  0.00     0.037 A 
ATOM     50  C   UNL A   1      39.408  31.444  34.492  1.00  0.00     0.037 A 
ATOM     51  C   UNL A   1      42.206  27.637  30.002  1.00  0.00     0.049 A 
ATOM     52  C   UNL A   1      40.577  30.495  34.523  1.00  0.00     0.074 A 
ATOM     53  C   UNL A   1      43.333  26.843  30.133  1.00  0.00     0.029 A 
ATOM     54  N   UNL A   1      41.991  28.235  31.233  1.00  0.00    -0.354 N 
ATOM     55  N   UNL A   1      41.084  29.774  33.552  1.00  0.00    -0.248 NA
ATOM     56  C   UNL A   1      41.274  30.342  35.809  1.00  0.00     0.031 C 
ATOM     57  C   UNL A   1      43.776  26.931  31.458  1.00  0.00     0.029 A 
ATOM     58  C   UNL A   1      42.952  27.813  32.136  1.00  0.00     0.049 A 
ATOM     59  H   UNL A   1      41.262  28.865  31.436  1.00  0.00     0.167 HD
ATOM     60  C   UNL A   1      42.176  29.110  34.100  1.00  0.00     0.074 A 
ATOM     61  C   UNL A   1      42.262  29.519  35.487  1.00  0.00     0.031 C 
ATOM     62  C   UNL A   1      43.033  28.242  33.509  1.00  0.00     0.037 A 
BRANCH  49  63
ATOM     63  C   UNL A   1      41.733  27.102  27.582  1.00  0.00     0.057 A 
ATOM     64  C   UNL A   1      42.478  27.698  26.557  1.00  0.00     0.134 A 
ATOM     65  C   UNL A   1      41.335  25.772  27.405  1.00  0.00     0.134 A 
ATOM     66  F   UNL A   1      42.875  28.975  26.657  1.00  0.00    -0.206 F 
ATOM     67  C   UNL A   1      42.798  27.001  25.390  1.00  0.00     0.040 A 
ATOM     68  C   UNL A   1      41.669  25.057  26.254  1.00  0.00     0.040 A 
ATOM     69  F   UNL A   1      40.621  25.143  28.351  1.00  0.00    -0.206 F 
ATOM     70  C   UNL A   1      42.399  25.674  25.239  1.00  0.00     0.006 A 
ENDBRANCH  49  63
BRANCH  50  71
ATOM     71  C   UNL A   1      39.012  32.187  35.715  1.00  0.00     0.057 A 
ATOM     72  C   UNL A   1      38.199  31.600  36.692  1.00  0.00     0.134 A 
ATOM     73  C   UNL A   1      39.414  33.513  35.920  1.00  0.00     0.134 A 
ATOM     74  F   UNL A   1      37.762  30.343  36.539  1.00  0.00    -0.206 F 
ATOM     75  C   UNL A   1      37.786  32.311  37.820  1.00  0.00     0.040 A 
ATOM     76  C   UNL A   1      39.028  34.226  37.054  1.00  0.00     0.040 A 
ATOM     77  F   UNL A   1      40.193  34.130  35.020  1.00  0.00    -0.206 F 
ATOM     78  C   UNL A   1      38.204  33.628  38.005  1.00  0.00     0.006 A 
ENDBRANCH  50  71
BRANCH  62  79
ATOM     79  C   UNL A   1      44.163  27.710  34.341  1.00  0.00     0.057 A 
ATOM     80  C   UNL A   1      45.381  28.390  34.457  1.00  0.00     0.134 A 
ATOM     81  C   UNL A   1      44.011  26.523  35.069  1.00  0.00     0.134 A 
ATOM     82  F   UNL A   1      45.592  29.527  33.778  1.00  0.00    -0.206 F 
ATOM     83  C   UNL A   1      46.417  27.897  35.252  1.00  0.00     0.040 A 
ATOM     84  C   UNL A   1      45.032  26.032  35.886  1.00  0.00     0.040 A 
ATOM     85  F   UNL A   1      42.865  25.828  35.009  1.00  0.00    -0.206 F 
ATOM     86  C   UNL A   1      46.241  26.718  35.973  1.00  0.00     0.006 A 
ENDBRANCH  62  79
ENDBRANCH  36  37
ENDBRANCH  29  31
ENDBRANCH  28  29
ENDBRANCH  27  28
ENDBRANCH  26  27
ENDBRANCH  25  26
ENDBRANCH   1  25
TORSDOF 19
ENDMDL
MODEL 2
REMARK VINA RESULT:     -10.7      4.100      7.072
REMARK SMILES CC(C)[C@@H](NS(=O)(=O)c1ccc(Cl)c([N+](=O)[O-])c1)C(=O)OCCOCCOC(=O)c1ccc(-c2c3nc(c(-c4c(F)cccc4F)c4ccc([nH]4)c(-c4c(F)cccc4F)c4nc(c(-c5c(F)cccc5F)c5ccc2[nH]5)C=C4)C=C3)cc1
REMARK SMILES IDX 23 1 22 2 21 3 19 4 20 5 4 6 2 7 1 8 3 9 5 10 6 12 7 13 8 14
REMARK SMILES IDX 9 15 10 16 18 17 11 18 14 19 12 20 13 21 15 22 16 23 17 24
REMARK SMILES IDX 24 25 25 26 26 27 27 28 28 29 29 30 30 31 31 32 83 33 32 34
REMARK SMILES IDX 82 35 33 36 34 37 35 38 76 39 36 40 81 41 75 42 77 43 37 44
REMARK SMILES IDX 80 45 74 46 73 47 38 49 64 50 47 51 63 52 48 53 51 54 62 55
REMARK SMILES IDX 78 56 49 57 50 58 61 60 79 61 52 62 39 63 40 64 45 65 41 66
REMARK SMILES IDX 42 67 44 68 46 69 43 70 65 71 66 72 71 73 67 74 68 75 70 76
REMARK SMILES IDX 72 77 69 78 53 79 54 80 59 81 55 82 56 83 58 84 60 85 57 86
REMARK H PARENT 5 11 77 48 51 59
REMARK Flexibility Score: inf
ROOT
ATOM      1  C   UNL A   1      35.606  33.342  28.709  1.00  0.00     0.202 C 
ENDROOT
BRANCH   1   2
ATOM      2  C   UNL A   1      35.345  32.263  27.654  1.00  0.00     0.261 C 
BRANCH   2   3
ATOM      3  O   UNL A   1      34.554  31.121  28.010  1.00  0.00    -0.462 OA
BRANCH   3   4
ATOM      4  C   UNL A   1      34.937  29.959  27.405  1.00  0.00     0.324 C 
ATOM      5  O   UNL A   1      36.105  29.624  27.236  1.00  0.00    -0.250 OA
BRANCH   4   6
ATOM      6  C   UNL A   1      33.769  29.185  26.789  1.00  0.00     0.182 C 
BRANCH   6   7
ATOM      7  C   UNL A   1      32.368  29.498  27.375  1.00  0.00     0.012 C 
ATOM      8  C   UNL A   1      31.605  30.465  26.453  1.00  0.00     0.009 C 
ATOM      9  C   UNL A   1      31.498  28.250  27.561  1.00  0.00     0.009 C 
ENDBRANCH   6   7
BRANCH   6  10
ATOM     10  N   UNL A   1      33.766  29.442  25.317  1.00  0.00    -0.197 NA
ATOM     11  H   UNL A   1      34.629  29.941  25.100  1.00  0.00     0.142 HD
BRANCH  10  12
ATOM     12  S   UNL A   1      33.671  28.134  24.253  1.00  0.00     0.241 S 
ATOM     13  O   UNL A   1      34.382  28.480  23.048  1.00  0.00    -0.207 OA
ATOM     14  O   UNL A   1      34.021  26.971  25.038  1.00  0.00    -0.207 OA
BRANCH  12  15
ATOM     15  C   UNL A   1      31.934  27.998  23.901  1.00  0.00     0.089 A 
ATOM     16  C   UNL A   1      31.226  26.893  24.382  1.00  0.00     0.024 A 
ATOM     17  C   UNL A   1      31.279  29.009  23.190  1.00  0.00     0.109 A 
ATOM     18  C   UNL A   1      29.844  26.812  24.173  1.00  0.00     0.029 A 
ATOM     19  C   UNL A   1      29.886  28.938  23.032  1.00  0.00     0.289 A 
ATOM     20  C   UNL A   1      29.161  27.838  23.504  1.00  0.00     0.118 A 
ATOM     21  Cl  UNL A   1      27.455  27.642  23.322  1.00  0.00    -0.077 Cl
BRANCH  19  22
ATOM     22  N   UNL A   1      29.219  30.093  22.448  1.00  0.00     0.064 N 
ATOM     23  O   UNL A   1      29.283  30.212  21.216  1.00  0.00    -0.258 OA
ATOM     24  O   UNL A   1      28.674  30.894  23.216  1.00  0.00    -0.258 OA
ENDBRANCH  19  22
ENDBRANCH  12  15
ENDBRANCH  10  12
ENDBRANCH   6  10
ENDBRANCH   4   6
ENDBRANCH   3   4
ENDBRANCH   2   3
ENDBRANCH   1   2
BRANCH   1  25
ATOM     25  O   UNL A   1      34.626  33.564  29.707  1.00  0.00    -0.374 OA
BRANCH  25  26
ATOM     26  C   UNL A   1      35.057  33.979  31.000  1.00  0.00     0.202 C 
BRANCH  26  27
ATOM     27  C   UNL A   1      34.515  33.195  32.197  1.00  0.00     0.261 C 
BRANCH  27  28
ATOM     28  O   UNL A   1      34.987  31.831  32.196  1.00  0.00    -0.460 OA
BRANCH  28  29
ATOM     29  C   UNL A   1      36.209  31.674  32.759  1.00  0.00     0.338 C 
ATOM     30  O   UNL A   1      36.595  32.131  33.823  1.00  0.00    -0.246 OA
BRANCH  29  31
ATOM     31  C   UNL A   1      37.024  30.710  32.000  1.00  0.00     0.060 A 
ATOM     32  C   UNL A   1      38.031  30.034  32.701  1.00  0.00     0.016 A 
ATOM     33  C   UNL A   1      36.953  30.639  30.608  1.00  0.00     0.016 A 
ATOM     34  C   UNL A   1      39.042  29.376  32.006  1.00  0.00     0.010 A 
ATOM     35  C   UNL A   1      37.972  29.982  29.909  1.00  0.00     0.010 A 
ATOM     36  C   UNL A   1      39.059  29.416  30.605  1.00  0.00    -0.014 A 
BRANCH  36  37
ATOM     37  C   UNL A   1      40.336  29.118  29.908  1.00  0.00     0.031 A 
ATOM     38  C   UNL A   1      40.511  27.754  29.287  1.00  0.00     0.074 A 
ATOM     39  C   UNL A   1      41.282  30.057  29.740  1.00  0.00     0.049 A 
ATOM     40  N   UNL A   1      41.519  27.273  28.604  1.00  0.00    -0.248 NA
ATOM     41  C   UNL A   1      39.397  26.807  29.457  1.00  0.00     0.031 C 
ATOM     42  C   UNL A   1      41.211  31.429  30.239  1.00  0.00     0.029 A 
ATOM     43  N   UNL A   1      42.489  29.994  29.090  1.00  0.00    -0.354 N 
ATOM     44  C   UNL A   1      41.162  25.972  28.269  1.00  0.00     0.074 A 
ATOM     45  C   UNL A   1      39.862  25.724  28.853  1.00  0.00     0.031 C 
ATOM     46  C   UNL A   1      42.331  32.080  29.875  1.00  0.00     0.029 A 
ATOM     47  C   UNL A   1      43.203  31.166  29.140  1.00  0.00     0.049 A 
ATOM     48  H   UNL A   1      42.813  29.186  28.631  1.00  0.00     0.167 HD
ATOM     49  C   UNL A   1      41.844  25.065  27.530  1.00  0.00     0.037 A 
ATOM     50  C   UNL A   1      44.424  31.461  28.653  1.00  0.00     0.037 A 
ATOM     51  C   UNL A   1      43.129  25.308  26.934  1.00  0.00     0.049 A 
ATOM     52  C   UNL A   1      45.192  30.417  27.885  1.00  0.00     0.074 A 
ATOM     53  C   UNL A   1      43.898  24.454  26.163  1.00  0.00     0.029 A 
ATOM     54  N   UNL A   1      43.834  26.496  27.041  1.00  0.00    -0.354 N 
ATOM     55  N   UNL A   1      44.839  29.194  27.570  1.00  0.00    -0.248 NA
ATOM     56  C   UNL A   1      46.527  30.799  27.400  1.00  0.00     0.031 C 
ATOM     57  C   UNL A   1      45.088  25.114  25.836  1.00  0.00     0.029 A 
ATOM     58  C   UNL A   1      45.038  26.393  26.366  1.00  0.00     0.049 A 
ATOM     59  H   UNL A   1      43.524  27.296  27.526  1.00  0.00     0.167 HD
ATOM     60  C   UNL A   1      45.891  28.674  26.824  1.00  0.00     0.074 A 
ATOM     61  C   UNL A   1      46.891  29.716  26.727  1.00  0.00     0.031 C 
ATOM     62  C   UNL A   1      46.016  27.445  26.265  1.00  0.00     0.037 A 
BRANCH  49  63
ATOM     63  C   UNL A   1      41.217  23.714  27.345  1.00  0.00     0.057 A 
ATOM     64  C   UNL A   1      40.121  23.518  26.495  1.00  0.00     0.134 A 
ATOM     65  C   UNL A   1      41.730  22.594  28.009  1.00  0.00     0.134 A 
ATOM     66  F   UNL A   1      39.572  24.554  25.842  1.00  0.00    -0.206 F 
ATOM     67  C   UNL A   1      39.545  22.257  26.328  1.00  0.00     0.040 A 
ATOM     68  C   UNL A   1      41.178  21.325  27.833  1.00  0.00     0.040 A 
ATOM     69  F   UNL A   1      42.779  22.715  28.836  1.00  0.00    -0.206 F 
ATOM     70  C   UNL A   1      40.078  21.155  26.993  1.00  0.00     0.006 A 
ENDBRANCH  49  63
BRANCH  50  71
ATOM     71  C   UNL A   1      45.007  32.808  28.878  1.00  0.00     0.057 A 
ATOM     72  C   UNL A   1      45.776  33.086  30.014  1.00  0.00     0.134 A 
ATOM     73  C   UNL A   1      44.783  33.855  27.977  1.00  0.00     0.134 A 
ATOM     74  F   UNL A   1      46.003  32.131  30.926  1.00  0.00    -0.206 F 
ATOM     75  C   UNL A   1      46.287  34.363  30.254  1.00  0.00     0.040 A 
ATOM     76  C   UNL A   1      45.308  35.129  28.192  1.00  0.00     0.040 A 
ATOM     77  F   UNL A   1      44.055  33.650  26.869  1.00  0.00    -0.206 F 
ATOM     78  C   UNL A   1      46.056  35.389  29.338  1.00  0.00     0.006 A 
ENDBRANCH  50  71
BRANCH  62  79
ATOM     79  C   UNL A   1      47.255  27.173  25.464  1.00  0.00     0.057 A 
ATOM     80  C   UNL A   1      47.381  27.586  24.132  1.00  0.00     0.134 A 
ATOM     81  C   UNL A   1      48.352  26.526  26.049  1.00  0.00     0.134 A 
ATOM     82  F   UNL A   1      46.363  28.200  23.512  1.00  0.00    -0.206 F 
ATOM     83  C   UNL A   1      48.546  27.346  23.403  1.00  0.00     0.040 A 
ATOM     84  C   UNL A   1      49.532  26.303  25.336  1.00  0.00     0.040 A 
ATOM     85  F   UNL A   1      48.300  26.115  27.324  1.00  0.00    -0.206 F 
ATOM     86  C   UNL A   1      49.628  26.708  24.007  1.00  0.00     0.006 A 
ENDBRANCH  62  79
ENDBRANCH  36  37
ENDBRANCH  29  31
ENDBRANCH  28  29
ENDBRANCH  27  28
ENDBRANCH  26  27
ENDBRANCH  25  26
ENDBRANCH   1  25
TORSDOF 19
ENDMDL
MODEL 3
REMARK VINA RESULT:     -10.5      1.560      2.508
REMARK SMILES CC(C)[C@@H](NS(=O)(=O)c1ccc(Cl)c([N+](=O)[O-])c1)C(=O)OCCOCCOC(=O)c1ccc(-c2c3nc(c(-c4c(F)cccc4F)c4ccc([nH]4)c(-c4c(F)cccc4F)c4nc(c(-c5c(F)cccc5F)c5ccc2[nH]5)C=C4)C=C3)cc1
REMARK SMILES IDX 23 1 22 2 21 3 19 4 20 5 4 6 2 7 1 8 3 9 5 10 6 12 7 13 8 14
REMARK SMILES IDX 9 15 10 16 18 17 11 18 14 19 12 20 13 21 15 22 16 23 17 24
REMARK SMILES IDX 24 25 25 26 26 27 27 28 28 29 29 30 30 31 31 32 83 33 32 34
REMARK SMILES IDX 82 35 33 36 34 37 35 38 76 39 36 40 81 41 75 42 77 43 37 44
REMARK SMILES IDX 80 45 74 46 73 47 38 49 64 50 47 51 63 52 48 53 51 54 62 55
REMARK SMILES IDX 78 56 49 57 50 58 61 60 79 61 52 62 39 63 40 64 45 65 41 66
REMARK SMILES IDX 42 67 44 68 46 69 43 70 65 71 66 72 71 73 67 74 68 75 70 76
REMARK SMILES IDX 72 77 69 78 53 79 54 80 59 81 55 82 56 83 58 84 60 85 57 86
REMARK H PARENT 5 11 77 48 51 59
REMARK Flexibility Score: inf
ROOT
ATOM      1  C   UNL A   1      32.401  29.710  25.861  1.00  0.00     0.202 C 
ENDROOT
BRANCH   1   2
ATOM      2  C   UNL A   1      31.838  29.454  24.460  1.00  0.00     0.261 C 
BRANCH   2   3
ATOM      3  O   UNL A   1      30.761  28.519  24.305  1.00  0.00    -0.462 OA
BRANCH   3   4
ATOM      4  C   UNL A   1      30.727  27.895  23.091  1.00  0.00     0.324 C 
ATOM      5  O   UNL A   1      30.092  28.305  22.125  1.00  0.00    -0.250 OA
BRANCH   4   6
ATOM      6  C   UNL A   1      31.417  26.530  23.094  1.00  0.00     0.182 C 
BRANCH   6   7
ATOM      7  C   UNL A   1      32.492  26.313  21.998  1.00  0.00     0.012 C 
ATOM      8  C   UNL A   1      33.792  27.049  22.369  1.00  0.00     0.009 C 
ATOM      9  C   UNL A   1      32.842  24.838  21.777  1.00  0.00     0.009 C 
ENDBRANCH   6   7
BRANCH   6  10
ATOM     10  N   UNL A   1      32.026  26.320  24.442  1.00  0.00    -0.197 NA
ATOM     11  H   UNL A   1      31.933  27.199  24.951  1.00  0.00     0.142 HD
BRANCH  10  12
ATOM     12  S   UNL A   1      31.414  25.104  25.442  1.00  0.00     0.241 S 
ATOM     13  O   UNL A   1      31.492  25.561  26.807  1.00  0.00    -0.207 OA
ATOM     14  O   UNL A   1      30.159  24.705  24.842  1.00  0.00    -0.207 OA
BRANCH  12  15
ATOM     15  C   UNL A   1      32.538  23.749  25.202  1.00  0.00     0.089 A 
ATOM     16  C   UNL A   1      33.881  23.906  25.557  1.00  0.00     0.024 A 
ATOM     17  C   UNL A   1      32.071  22.528  24.704  1.00  0.00     0.109 A 
ATOM     18  C   UNL A   1      34.759  22.822  25.439  1.00  0.00     0.029 A 
ATOM     19  C   UNL A   1      32.952  21.437  24.638  1.00  0.00     0.289 A 
ATOM     20  C   UNL A   1      34.300  21.577  24.987  1.00  0.00     0.118 A 
ATOM     21  Cl  UNL A   1      35.467  20.306  24.902  1.00  0.00    -0.077 Cl
BRANCH  19  22
ATOM     22  N   UNL A   1      32.389  20.141  24.289  1.00  0.00     0.064 N 
ATOM     23  O   UNL A   1      32.145  19.367  25.225  1.00  0.00    -0.258 OA
ATOM     24  O   UNL A   1      32.232  19.884  23.089  1.00  0.00    -0.258 OA
ENDBRANCH  19  22
ENDBRANCH  12  15
ENDBRANCH  10  12
ENDBRANCH   6  10
ENDBRANCH   4   6
ENDBRANCH   3   4
ENDBRANCH   2   3
ENDBRANCH   1   2
BRANCH   1  25
ATOM     25  O   UNL A   1      31.691  30.572  26.730  1.00  0.00    -0.374 OA
BRANCH  25  26
ATOM     26  C   UNL A   1      31.078  31.735  26.179  1.00  0.00     0.202 C 
BRANCH  26  27
ATOM     27  C   UNL A   1      31.692  33.086  26.552  1.00  0.00     0.261 C 
BRANCH  27  28
ATOM     28  O   UNL A   1      32.235  33.070  27.890  1.00  0.00    -0.460 OA
BRANCH  28  29
ATOM     29  C   UNL A   1      33.310  33.879  28.054  1.00  0.00     0.338 C 
ATOM     30  O   UNL A   1      33.303  35.085  28.241  1.00  0.00    -0.246 OA
BRANCH  29  31
ATOM     31  C   UNL A   1      34.554  33.096  28.152  1.00  0.00     0.060 A 
ATOM     32  C   UNL A   1      34.431  31.742  28.489  1.00  0.00     0.016 A 
ATOM     33  C   UNL A   1      35.804  33.717  28.135  1.00  0.00     0.016 A 
ATOM     34  C   UNL A   1      35.546  31.031  28.925  1.00  0.00     0.010 A 
ATOM     35  C   UNL A   1      36.923  33.002  28.578  1.00  0.00     0.010 A 
ATOM     36  C   UNL A   1      36.780  31.681  29.046  1.00  0.00    -0.014 A 
BRANCH  36  37
ATOM     37  C   UNL A   1      37.819  31.066  29.912  1.00  0.00     0.031 A 
ATOM     38  C   UNL A   1      38.773  30.075  29.292  1.00  0.00     0.074 A 
ATOM     39  C   UNL A   1      37.981  31.442  31.192  1.00  0.00     0.049 A 
ATOM     40  N   UNL A   1      39.776  29.433  29.835  1.00  0.00    -0.248 NA
ATOM     41  C   UNL A   1      38.569  29.772  27.866  1.00  0.00     0.031 C 
ATOM     42  C   UNL A   1      37.165  32.430  31.894  1.00  0.00     0.029 A 
ATOM     43  N   UNL A   1      38.902  31.036  32.126  1.00  0.00    -0.354 N 
ATOM     44  C   UNL A   1      40.317  28.650  28.821  1.00  0.00     0.074 A 
ATOM     45  C   UNL A   1      39.511  28.868  27.640  1.00  0.00     0.031 C 
ATOM     46  C   UNL A   1      37.623  32.554  33.153  1.00  0.00     0.029 A 
ATOM     47  C   UNL A   1      38.746  31.639  33.349  1.00  0.00     0.049 A 
ATOM     48  H   UNL A   1      39.606  30.375  31.937  1.00  0.00     0.167 HD
ATOM     49  C   UNL A   1      41.396  27.833  28.861  1.00  0.00     0.037 A 
ATOM     50  C   UNL A   1      39.431  31.466  34.496  1.00  0.00     0.037 A 
ATOM     51  C   UNL A   1      42.210  27.622  30.026  1.00  0.00     0.049 A 
ATOM     52  C   UNL A   1      40.590  30.505  34.534  1.00  0.00     0.074 A 
ATOM     53  C   UNL A   1      43.328  26.818  30.163  1.00  0.00     0.029 A 
ATOM     54  N   UNL A   1      41.996  28.225  31.255  1.00  0.00    -0.354 N 
ATOM     55  N   UNL A   1      41.094  29.777  33.567  1.00  0.00    -0.248 NA
ATOM     56  C   UNL A   1      41.280  30.348  35.824  1.00  0.00     0.031 C 
ATOM     57  C   UNL A   1      43.767  26.903  31.490  1.00  0.00     0.029 A 
ATOM     58  C   UNL A   1      42.949  27.795  32.163  1.00  0.00     0.049 A 
ATOM     59  H   UNL A   1      41.272  28.863  31.454  1.00  0.00     0.167 HD
ATOM     60  C   UNL A   1      42.177  29.103  34.121  1.00  0.00     0.074 A 
ATOM     61  C   UNL A   1      42.261  29.514  35.507  1.00  0.00     0.031 C 
ATOM     62  C   UNL A   1      43.028  28.226  33.535  1.00  0.00     0.037 A 
BRANCH  49  63
ATOM     63  C   UNL A   1      41.742  27.088  27.605  1.00  0.00     0.057 A 
ATOM     64  C   UNL A   1      41.279  25.789  27.364  1.00  0.00     0.134 A 
ATOM     65  C   UNL A   1      42.532  27.688  26.617  1.00  0.00     0.134 A 
ATOM     66  F   UNL A   1      40.531  25.152  28.279  1.00  0.00    -0.206 F 
ATOM     67  C   UNL A   1      41.606  25.104  26.192  1.00  0.00     0.040 A 
ATOM     68  C   UNL A   1      42.846  27.023  25.431  1.00  0.00     0.040 A 
ATOM     69  F   UNL A   1      43.007  28.930  26.786  1.00  0.00    -0.206 F 
ATOM     70  C   UNL A   1      42.386  25.724  25.218  1.00  0.00     0.006 A 
ENDBRANCH  49  63
BRANCH  50  71
ATOM     71  C   UNL A   1      39.037  32.215  35.716  1.00  0.00     0.057 A 
ATOM     72  C   UNL A   1      39.501  33.514  35.954  1.00  0.00     0.134 A 
ATOM     73  C   UNL A   1      38.209  31.638  36.686  1.00  0.00     0.134 A 
ATOM     74  F   UNL A   1      40.317  34.110  35.073  1.00  0.00    -0.206 F 
ATOM     75  C   UNL A   1      39.171  34.205  37.121  1.00  0.00     0.040 A 
ATOM     76  C   UNL A   1      37.852  32.326  37.846  1.00  0.00     0.040 A 
ATOM     77  F   UNL A   1      37.731  30.396  36.516  1.00  0.00    -0.206 F 
ATOM     78  C   UNL A   1      38.340  33.611  38.070  1.00  0.00     0.006 A 
ENDBRANCH  50  71
BRANCH  62  79
ATOM     79  C   UNL A   1      44.149  27.685  34.373  1.00  0.00     0.057 A 
ATOM     80  C   UNL A   1      44.033  26.480  35.076  1.00  0.00     0.134 A 
ATOM     81  C   UNL A   1      45.376  28.359  34.439  1.00  0.00     0.134 A 
ATOM     82  F   UNL A   1      42.881  25.792  35.061  1.00  0.00    -0.206 F 
ATOM     83  C   UNL A   1      45.090  25.974  35.834  1.00  0.00     0.040 A 
ATOM     84  C   UNL A   1      46.448  27.851  35.175  1.00  0.00     0.040 A 
ATOM     85  F   UNL A   1      45.556  29.513  33.780  1.00  0.00    -0.206 F 
ATOM     86  C   UNL A   1      46.304  26.658  35.880  1.00  0.00     0.006 A 
ENDBRANCH  62  79
ENDBRANCH  36  37
ENDBRANCH  29  31
ENDBRANCH  28  29
ENDBRANCH  27  28
ENDBRANCH  26  27
ENDBRANCH  25  26
ENDBRANCH   1  25
TORSDOF 19
ENDMDL
