MODEL 1
REMARK VINA RESULT:     -11.4      0.000      0.000
REMARK SMILES O=C(OCCOCCOC(=O)[C@@H]1CC2(CC[NH2+]CC2)C[N@H+]1Cc1cccc2nonc12)c1ccc(-c2c3nc(c(-c4c(F)cccc4F)c4ccc([nH]4)c(-c4c(F)cccc4F)c4nc(c(-c5c(F)cccc5F)c5ccc2[nH]5)C=C4)C=C3)cc1
REMARK SMILES IDX 6 1 5 2 4 3 3 4 2 5 1 6 32 7 33 8 85 9 34 10 84 11 35 12
REMARK SMILES IDX 36 13 37 14 78 15 38 16 83 17 77 18 79 19 39 20 82 21 76 22
REMARK SMILES IDX 75 23 40 25 66 26 49 27 65 28 50 29 53 30 64 31 80 32 51 33
REMARK SMILES IDX 52 34 63 36 81 37 54 38 41 39 42 40 47 41 43 42 44 43 46 44
REMARK SMILES IDX 48 45 45 46 67 47 68 48 73 49 69 50 70 51 72 52 74 53 71 54
REMARK SMILES IDX 55 55 56 56 61 57 57 58 58 59 60 60 62 61 59 62 7 63 8 64
REMARK SMILES IDX 9 65 10 66 11 67 12 68 13 69 21 70 14 71 20 72 15 74 19 75
REMARK SMILES IDX 16 76 18 77 17 78 22 81 23 82 24 83 31 84 25 85 27 86 30 87
REMARK SMILES IDX 26 88 28 89 29 90
REMARK H PARENT 79 24 53 35 21 73 17 79 17 80
REMARK Flexibility Score: inf
ROOT
ATOM      1  O   UNL A   1      33.625  28.016  25.849  1.00  0.00    -0.374 OA
ENDROOT
BRANCH   1   2
ATOM      2  C   UNL A   1      33.405  28.526  27.158  1.00  0.00     0.202 C 
BRANCH   2   3
ATOM      3  C   UNL A   1      32.872  29.961  27.225  1.00  0.00     0.261 C 
BRANCH   3   4
ATOM      4  O   UNL A   1      33.848  30.923  26.804  1.00  0.00    -0.460 OA
BRANCH   4   5
ATOM      5  C   UNL A   1      34.626  31.695  27.601  1.00  0.00     0.338 C 
ATOM      6  O   UNL A   1      34.411  32.908  27.614  1.00  0.00    -0.246 OA
BRANCH   5   7
ATOM      7  C   UNL A   1      35.768  31.183  28.431  1.00  0.00     0.060 A 
ATOM      8  C   UNL A   1      36.659  30.291  27.808  1.00  0.00     0.016 A 
ATOM      9  C   UNL A   1      36.002  31.473  29.773  1.00  0.00     0.016 A 
ATOM     10  C   UNL A   1      37.720  29.711  28.515  1.00  0.00     0.010 A 
ATOM     11  C   UNL A   1      37.003  30.853  30.496  1.00  0.00     0.010 A 
ATOM     12  C   UNL A   1      37.896  29.993  29.873  1.00  0.00    -0.014 A 
BRANCH  12  13
ATOM     13  C   UNL A   1      39.025  29.413  30.632  1.00  0.00     0.031 A 
ATOM     14  C   UNL A   1      39.449  28.049  30.126  1.00  0.00     0.074 A 
ATOM     15  C   UNL A   1      40.042  30.262  30.883  1.00  0.00     0.049 A 
ATOM     16  N   UNL A   1      40.329  27.829  29.192  1.00  0.00    -0.248 NA
ATOM     17  C   UNL A   1      38.663  26.862  30.478  1.00  0.00     0.031 C 
ATOM     18  C   UNL A   1      40.764  31.017  29.854  1.00  0.00     0.029 A 
ATOM     19  N   UNL A   1      40.843  30.322  32.000  1.00  0.00    -0.354 N 
ATOM     20  C   UNL A   1      40.180  26.507  28.785  1.00  0.00     0.074 A 
ATOM     21  C   UNL A   1      39.143  25.948  29.622  1.00  0.00     0.031 C 
ATOM     22  C   UNL A   1      41.976  31.339  30.340  1.00  0.00     0.029 A 
ATOM     23  C   UNL A   1      42.091  30.849  31.711  1.00  0.00     0.049 A 
ATOM     24  H   UNL A   1      40.563  30.025  32.897  1.00  0.00     0.167 HD
ATOM     25  C   UNL A   1      40.905  25.939  27.782  1.00  0.00     0.037 A 
ATOM     26  C   UNL A   1      43.233  30.541  32.378  1.00  0.00     0.037 A 
ATOM     27  C   UNL A   1      41.935  26.719  27.131  1.00  0.00     0.049 A 
ATOM     28  C   UNL A   1      43.929  29.610  31.423  1.00  0.00     0.074 A 
ATOM     29  C   UNL A   1      42.626  26.686  25.933  1.00  0.00     0.029 A 
ATOM     30  N   UNL A   1      42.476  27.772  27.816  1.00  0.00    -0.354 N 
ATOM     31  N   UNL A   1      44.639  29.948  30.377  1.00  0.00    -0.248 NA
ATOM     32  C   UNL A   1      43.528  28.190  31.452  1.00  0.00     0.031 C 
ATOM     33  C   UNL A   1      43.745  27.572  26.062  1.00  0.00     0.029 A 
ATOM     34  C   UNL A   1      43.722  28.090  27.345  1.00  0.00     0.049 A 
ATOM     35  H   UNL A   1      42.027  28.241  28.556  1.00  0.00     0.167 HD
ATOM     36  C   UNL A   1      44.501  28.870  29.506  1.00  0.00     0.074 A 
ATOM     37  C   UNL A   1      43.963  27.767  30.271  1.00  0.00     0.031 C 
ATOM     38  C   UNL A   1      44.513  28.983  28.149  1.00  0.00     0.037 A 
BRANCH  25  39
ATOM     39  C   UNL A   1      40.853  24.480  27.494  1.00  0.00     0.057 A 
ATOM     40  C   UNL A   1      41.732  23.534  28.024  1.00  0.00     0.134 A 
ATOM     41  C   UNL A   1      39.750  23.999  26.771  1.00  0.00     0.134 A 
ATOM     42  F   UNL A   1      42.825  23.912  28.701  1.00  0.00    -0.206 F 
ATOM     43  C   UNL A   1      41.494  22.161  27.881  1.00  0.00     0.040 A 
ATOM     44  C   UNL A   1      39.502  22.635  26.619  1.00  0.00     0.040 A 
ATOM     45  F   UNL A   1      38.880  24.859  26.216  1.00  0.00    -0.206 F 
ATOM     46  C   UNL A   1      40.369  21.709  27.189  1.00  0.00     0.006 A 
ENDBRANCH  25  39
BRANCH  26  47
ATOM     47  C   UNL A   1      43.117  30.369  33.855  1.00  0.00     0.057 A 
ATOM     48  C   UNL A   1      42.487  29.313  34.519  1.00  0.00     0.134 A 
ATOM     49  C   UNL A   1      43.664  31.373  34.682  1.00  0.00     0.134 A 
ATOM     50  F   UNL A   1      42.028  28.245  33.858  1.00  0.00    -0.206 F 
ATOM     51  C   UNL A   1      42.289  29.322  35.905  1.00  0.00     0.040 A 
ATOM     52  C   UNL A   1      43.490  31.385  36.070  1.00  0.00     0.040 A 
ATOM     53  F   UNL A   1      44.369  32.385  34.149  1.00  0.00    -0.206 F 
ATOM     54  C   UNL A   1      42.774  30.367  36.683  1.00  0.00     0.006 A 
ENDBRANCH  26  47
BRANCH  38  55
ATOM     55  C   UNL A   1      45.186  30.158  27.562  1.00  0.00     0.057 A 
ATOM     56  C   UNL A   1      46.578  30.238  27.465  1.00  0.00     0.134 A 
ATOM     57  C   UNL A   1      44.433  31.256  27.132  1.00  0.00     0.134 A 
ATOM     58  F   UNL A   1      47.355  29.216  27.852  1.00  0.00    -0.206 F 
ATOM     59  C   UNL A   1      47.202  31.380  26.962  1.00  0.00     0.040 A 
ATOM     60  C   UNL A   1      45.045  32.396  26.616  1.00  0.00     0.040 A 
ATOM     61  F   UNL A   1      43.095  31.251  27.239  1.00  0.00    -0.206 F 
ATOM     62  C   UNL A   1      46.434  32.462  26.534  1.00  0.00     0.006 A 
ENDBRANCH  38  55
ENDBRANCH  12  13
ENDBRANCH   5   7
ENDBRANCH   4   5
ENDBRANCH   3   4
ENDBRANCH   2   3
ENDBRANCH   1   2
BRANCH   1  63
ATOM     63  C   UNL A   1      33.401  26.608  25.713  1.00  0.00     0.202 C 
BRANCH  63  64
ATOM     64  C   UNL A   1      32.240  26.098  26.578  1.00  0.00     0.261 C 
BRANCH  64  65
ATOM     65  O   UNL A   1      32.169  24.661  26.457  1.00  0.00    -0.459 OA
BRANCH  65  66
ATOM     66  C   UNL A   1      30.941  24.096  26.313  1.00  0.00     0.365 C 
ATOM     67  O   UNL A   1      29.937  24.454  26.920  1.00  0.00    -0.245 OA
BRANCH  66  68
ATOM     68  C   UNL A   1      30.929  22.999  25.227  1.00  0.00     0.296 C 
ATOM     69  C   UNL A   1      31.762  21.742  25.547  1.00  0.00     0.091 C 
ATOM     70  N   UNL A   1      31.488  23.506  23.943  1.00  0.00    -0.319 N 
ATOM     71  C   UNL A   1      32.635  21.459  24.302  1.00  0.00     0.036 C 
ATOM     72  C   UNL A   1      31.943  22.310  23.224  1.00  0.00     0.270 C 
ATOM     73  H   UNL A   1      32.258  24.155  24.108  1.00  0.00     0.349 HD
ATOM     74  C   UNL A   1      32.639  19.969  23.916  1.00  0.00     0.074 C 
ATOM     75  C   UNL A   1      34.112  21.874  24.507  1.00  0.00     0.074 C 
ATOM     76  C   UNL A   1      33.444  19.119  24.904  1.00  0.00     0.261 C 
ATOM     77  C   UNL A   1      34.891  20.961  25.451  1.00  0.00     0.261 C 
ATOM     78  N   UNL A   1      34.830  19.571  25.011  1.00  0.00    -0.346 N 
ATOM     79  H   UNL A   1      35.280  19.490  24.099  1.00  0.00     0.346 HD
ATOM     80  H   UNL A   1      35.310  18.991  25.698  1.00  0.00     0.346 HD
BRANCH  70  81
ATOM     81  C   UNL A   1      30.527  24.318  23.165  1.00  0.00     0.302 C 
BRANCH  81  82
ATOM     82  C   UNL A   1      30.940  25.767  23.137  1.00  0.00     0.038 A 
ATOM     83  C   UNL A   1      30.084  26.810  23.584  1.00  0.00     0.012 A 
ATOM     84  C   UNL A   1      32.151  26.246  22.575  1.00  0.00     0.144 A 
ATOM     85  C   UNL A   1      30.372  28.196  23.437  1.00  0.00     0.003 A 
ATOM     86  C   UNL A   1      32.431  27.667  22.406  1.00  0.00     0.135 A 
ATOM     87  N   UNL A   1      33.193  25.564  22.087  1.00  0.00    -0.049 NA
ATOM     88  C   UNL A   1      31.543  28.673  22.827  1.00  0.00     0.034 A 
ATOM     89  N   UNL A   1      33.604  27.793  21.781  1.00  0.00    -0.050 NA
ATOM     90  O   UNL A   1      34.069  26.508  21.583  1.00  0.00    -0.243 OA
ENDBRANCH  81  82
ENDBRANCH  70  81
ENDBRANCH  66  68
ENDBRANCH  65  66
ENDBRANCH  64  65
ENDBRANCH  63  64
ENDBRANCH   1  63
TORSDOF 16
ENDMDL
MODEL 2
REMARK VINA RESULT:     -11.2      1.902      2.585
REMARK SMILES O=C(OCCOCCOC(=O)[C@@H]1CC2(CC[NH2+]CC2)C[N@H+]1Cc1cccc2nonc12)c1ccc(-c2c3nc(c(-c4c(F)cccc4F)c4ccc([nH]4)c(-c4c(F)cccc4F)c4nc(c(-c5c(F)cccc5F)c5ccc2[nH]5)C=C4)C=C3)cc1
REMARK SMILES IDX 6 1 5 2 4 3 3 4 2 5 1 6 32 7 33 8 85 9 34 10 84 11 35 12
REMARK SMILES IDX 36 13 37 14 78 15 38 16 83 17 77 18 79 19 39 20 82 21 76 22
REMARK SMILES IDX 75 23 40 25 66 26 49 27 65 28 50 29 53 30 64 31 80 32 51 33
REMARK SMILES IDX 52 34 63 36 81 37 54 38 41 39 42 40 47 41 43 42 44 43 46 44
REMARK SMILES IDX 48 45 45 46 67 47 68 48 73 49 69 50 70 51 72 52 74 53 71 54
REMARK SMILES IDX 55 55 56 56 61 57 57 58 58 59 60 60 62 61 59 62 7 63 8 64
REMARK SMILES IDX 9 65 10 66 11 67 12 68 13 69 21 70 14 71 20 72 15 74 19 75
REMARK SMILES IDX 16 76 18 77 17 78 22 81 23 82 24 83 31 84 25 85 27 86 30 87
REMARK SMILES IDX 26 88 28 89 29 90
REMARK H PARENT 79 24 53 35 21 73 17 79 17 80
REMARK Flexibility Score: inf
ROOT
ATOM      1  O   UNL A   1      33.764  27.932  26.626  1.00  0.00    -0.374 OA
ENDROOT
BRANCH   1   2
ATOM      2  C   UNL A   1      33.794  29.026  25.717  1.00  0.00     0.202 C 
BRANCH   2   3
ATOM      3  C   UNL A   1      32.783  30.143  25.997  1.00  0.00     0.261 C 
BRANCH   3   4
ATOM      4  O   UNL A   1      32.938  30.698  27.310  1.00  0.00    -0.460 OA
BRANCH   4   5
ATOM      5  C   UNL A   1      33.828  31.645  27.692  1.00  0.00     0.338 C 
ATOM      6  O   UNL A   1      33.663  32.793  27.275  1.00  0.00    -0.246 OA
BRANCH   5   7
ATOM      7  C   UNL A   1      35.036  31.383  28.546  1.00  0.00     0.060 A 
ATOM      8  C   UNL A   1      35.059  31.981  29.818  1.00  0.00     0.016 A 
ATOM      9  C   UNL A   1      36.155  30.641  28.178  1.00  0.00     0.016 A 
ATOM     10  C   UNL A   1      36.167  31.848  30.665  1.00  0.00     0.010 A 
ATOM     11  C   UNL A   1      37.280  30.561  28.978  1.00  0.00     0.010 A 
ATOM     12  C   UNL A   1      37.290  31.130  30.243  1.00  0.00    -0.014 A 
BRANCH  12  13
ATOM     13  C   UNL A   1      38.460  30.953  31.130  1.00  0.00     0.031 A 
ATOM     14  C   UNL A   1      39.342  29.786  30.731  1.00  0.00     0.074 A 
ATOM     15  C   UNL A   1      39.127  32.086  31.430  1.00  0.00     0.049 A 
ATOM     16  N   UNL A   1      40.336  29.841  29.894  1.00  0.00    -0.248 NA
ATOM     17  C   UNL A   1      38.938  28.417  31.068  1.00  0.00     0.031 C 
ATOM     18  C   UNL A   1      39.676  33.013  30.436  1.00  0.00     0.029 A 
ATOM     19  N   UNL A   1      39.750  32.417  32.611  1.00  0.00    -0.354 N 
ATOM     20  C   UNL A   1      40.653  28.533  29.540  1.00  0.00     0.074 A 
ATOM     21  C   UNL A   1      39.765  27.688  30.305  1.00  0.00     0.031 C 
ATOM     22  C   UNL A   1      40.669  33.712  31.013  1.00  0.00     0.029 A 
ATOM     23  C   UNL A   1      40.791  33.308  32.412  1.00  0.00     0.049 A 
ATOM     24  H   UNL A   1      39.488  32.063  33.492  1.00  0.00     0.167 HD
ATOM     25  C   UNL A   1      41.618  28.208  28.636  1.00  0.00     0.037 A 
ATOM     26  C   UNL A   1      41.898  33.392  33.194  1.00  0.00     0.037 A 
ATOM     27  C   UNL A   1      42.411  29.264  28.044  1.00  0.00     0.049 A 
ATOM     28  C   UNL A   1      42.945  32.714  32.353  1.00  0.00     0.074 A 
ATOM     29  C   UNL A   1      43.196  29.432  26.917  1.00  0.00     0.029 A 
ATOM     30  N   UNL A   1      42.521  30.446  28.723  1.00  0.00    -0.354 N 
ATOM     31  N   UNL A   1      43.615  33.241  31.361  1.00  0.00    -0.248 NA
ATOM     32  C   UNL A   1      43.011  31.241  32.415  1.00  0.00     0.031 C 
ATOM     33  C   UNL A   1      43.960  30.629  27.104  1.00  0.00     0.029 A 
ATOM     34  C   UNL A   1      43.644  31.136  28.352  1.00  0.00     0.049 A 
ATOM     35  H   UNL A   1      41.873  30.761  29.395  1.00  0.00     0.167 HD
ATOM     36  C   UNL A   1      43.913  32.161  30.535  1.00  0.00     0.074 A 
ATOM     37  C   UNL A   1      43.675  30.958  31.301  1.00  0.00     0.031 C 
ATOM     38  C   UNL A   1      44.028  32.248  29.180  1.00  0.00     0.037 A 
BRANCH  25  39
ATOM     39  C   UNL A   1      42.058  26.804  28.416  1.00  0.00     0.057 A 
ATOM     40  C   UNL A   1      43.003  26.136  29.197  1.00  0.00     0.134 A 
ATOM     41  C   UNL A   1      41.359  26.046  27.463  1.00  0.00     0.134 A 
ATOM     42  F   UNL A   1      43.733  26.794  30.107  1.00  0.00    -0.206 F 
ATOM     43  C   UNL A   1      43.210  24.757  29.065  1.00  0.00     0.040 A 
ATOM     44  C   UNL A   1      41.556  24.672  27.321  1.00  0.00     0.040 A 
ATOM     45  F   UNL A   1      40.453  26.634  26.666  1.00  0.00    -0.206 F 
ATOM     46  C   UNL A   1      42.475  24.020  28.136  1.00  0.00     0.006 A 
ENDBRANCH  25  39
BRANCH  26  47
ATOM     47  C   UNL A   1      41.693  33.218  34.661  1.00  0.00     0.057 A 
ATOM     48  C   UNL A   1      41.377  32.025  35.317  1.00  0.00     0.134 A 
ATOM     49  C   UNL A   1      41.791  34.361  35.482  1.00  0.00     0.134 A 
ATOM     50  F   UNL A   1      41.364  30.854  34.672  1.00  0.00    -0.206 F 
ATOM     51  C   UNL A   1      41.045  31.993  36.677  1.00  0.00     0.040 A 
ATOM     52  C   UNL A   1      41.481  34.340  36.846  1.00  0.00     0.040 A 
ATOM     53  F   UNL A   1      42.179  35.539  34.966  1.00  0.00    -0.206 F 
ATOM     54  C   UNL A   1      41.078  33.153  37.442  1.00  0.00     0.006 A 
ENDBRANCH  26  47
BRANCH  38  55
ATOM     55  C   UNL A   1      44.353  33.566  28.600  1.00  0.00     0.057 A 
ATOM     56  C   UNL A   1      43.358  34.488  28.263  1.00  0.00     0.134 A 
ATOM     57  C   UNL A   1      45.682  33.901  28.321  1.00  0.00     0.134 A 
ATOM     58  F   UNL A   1      42.066  34.229  28.513  1.00  0.00    -0.206 F 
ATOM     59  C   UNL A   1      43.677  35.706  27.662  1.00  0.00     0.040 A 
ATOM     60  C   UNL A   1      46.013  35.119  27.733  1.00  0.00     0.040 A 
ATOM     61  F   UNL A   1      46.675  33.036  28.585  1.00  0.00    -0.206 F 
ATOM     62  C   UNL A   1      45.009  36.024  27.397  1.00  0.00     0.006 A 
ENDBRANCH  38  55
ENDBRANCH  12  13
ENDBRANCH   5   7
ENDBRANCH   4   5
ENDBRANCH   3   4
ENDBRANCH   2   3
ENDBRANCH   1   2
BRANCH   1  63
ATOM     63  C   UNL A   1      33.514  26.660  26.019  1.00  0.00     0.202 C 
BRANCH  63  64
ATOM     64  C   UNL A   1      32.195  26.023  26.478  1.00  0.00     0.261 C 
BRANCH  64  65
ATOM     65  O   UNL A   1      32.284  24.593  26.297  1.00  0.00    -0.459 OA
BRANCH  65  66
ATOM     66  C   UNL A   1      31.133  23.872  26.364  1.00  0.00     0.365 C 
ATOM     67  O   UNL A   1      30.215  24.102  27.144  1.00  0.00    -0.245 OA
BRANCH  66  68
ATOM     68  C   UNL A   1      31.070  22.775  25.281  1.00  0.00     0.296 C 
ATOM     69  C   UNL A   1      31.935  21.527  25.552  1.00  0.00     0.091 C 
ATOM     70  N   UNL A   1      31.550  23.286  23.966  1.00  0.00    -0.319 N 
ATOM     71  C   UNL A   1      32.738  21.252  24.259  1.00  0.00     0.036 C 
ATOM     72  C   UNL A   1      31.975  22.095  23.222  1.00  0.00     0.270 C 
ATOM     73  H   UNL A   1      32.320  23.944  24.087  1.00  0.00     0.349 HD
ATOM     74  C   UNL A   1      32.735  19.762  23.874  1.00  0.00     0.074 C 
ATOM     75  C   UNL A   1      34.219  21.683  24.378  1.00  0.00     0.074 C 
ATOM     76  C   UNL A   1      33.605  18.922  24.813  1.00  0.00     0.261 C 
ATOM     77  C   UNL A   1      35.061  20.780  25.276  1.00  0.00     0.261 C 
ATOM     78  N   UNL A   1      34.990  19.389  24.840  1.00  0.00    -0.346 N 
ATOM     79  H   UNL A   1      35.387  19.312  23.904  1.00  0.00     0.346 HD
ATOM     80  H   UNL A   1      35.515  18.814  25.499  1.00  0.00     0.346 HD
BRANCH  70  81
ATOM     81  C   UNL A   1      30.536  24.087  23.245  1.00  0.00     0.302 C 
BRANCH  81  82
ATOM     82  C   UNL A   1      30.938  25.539  23.181  1.00  0.00     0.038 A 
ATOM     83  C   UNL A   1      30.054  26.589  23.551  1.00  0.00     0.012 A 
ATOM     84  C   UNL A   1      32.168  26.008  22.656  1.00  0.00     0.144 A 
ATOM     85  C   UNL A   1      30.336  27.971  23.366  1.00  0.00     0.003 A 
ATOM     86  C   UNL A   1      32.443  27.425  22.446  1.00  0.00     0.135 A 
ATOM     87  N   UNL A   1      33.237  25.319  22.240  1.00  0.00    -0.049 NA
ATOM     88  C   UNL A   1      31.529  28.437  22.790  1.00  0.00     0.034 A 
ATOM     89  N   UNL A   1      33.642  27.540  21.869  1.00  0.00    -0.050 NA
ATOM     90  O   UNL A   1      34.126  26.253  21.739  1.00  0.00    -0.243 OA
ENDBRANCH  81  82
ENDBRANCH  70  81
ENDBRANCH  66  68
ENDBRANCH  65  66
ENDBRANCH  64  65
ENDBRANCH  63  64
ENDBRANCH   1  63
TORSDOF 16
ENDMDL
MODEL 3
REMARK VINA RESULT:     -11.2      2.385      7.368
REMARK SMILES O=C(OCCOCCOC(=O)[C@@H]1CC2(CC[NH2+]CC2)C[N@H+]1Cc1cccc2nonc12)c1ccc(-c2c3nc(c(-c4c(F)cccc4F)c4ccc([nH]4)c(-c4c(F)cccc4F)c4nc(c(-c5c(F)cccc5F)c5ccc2[nH]5)C=C4)C=C3)cc1
REMARK SMILES IDX 6 1 5 2 4 3 3 4 2 5 1 6 32 7 33 8 85 9 34 10 84 11 35 12
REMARK SMILES IDX 36 13 37 14 78 15 38 16 83 17 77 18 79 19 39 20 82 21 76 22
REMARK SMILES IDX 75 23 40 25 66 26 49 27 65 28 50 29 53 30 64 31 80 32 51 33
REMARK SMILES IDX 52 34 63 36 81 37 54 38 41 39 42 40 47 41 43 42 44 43 46 44
REMARK SMILES IDX 48 45 45 46 67 47 68 48 73 49 69 50 70 51 72 52 74 53 71 54
REMARK SMILES IDX 55 55 56 56 61 57 57 58 58 59 60 60 62 61 59 62 7 63 8 64
REMARK SMILES IDX 9 65 10 66 11 67 12 68 13 69 21 70 14 71 20 72 15 74 19 75
REMARK SMILES IDX 16 76 18 77 17 78 22 81 23 82 24 83 31 84 25 85 27 86 30 87
REMARK SMILES IDX 26 88 28 89 29 90
REMARK H PARENT 79 24 53 35 21 73 17 79 17 80
REMARK Flexibility Score: inf
ROOT
ATOM      1  O   UNL A   1      35.878  21.854  24.306  1.00  0.00    -0.374 OA
ENDROOT
BRANCH   1   2
ATOM      2  C   UNL A   1      37.173  21.349  24.607  1.00  0.00     0.202 C 
BRANCH   2   3
ATOM      3  C   UNL A   1      37.922  22.080  25.726  1.00  0.00     0.261 C 
BRANCH   3   4
ATOM      4  O   UNL A   1      39.189  21.475  26.017  1.00  0.00    -0.460 OA
BRANCH   4   5
ATOM      5  C   UNL A   1      40.097  21.891  26.932  1.00  0.00     0.338 C 
ATOM      6  O   UNL A   1      40.557  21.052  27.710  1.00  0.00    -0.246 OA
BRANCH   5   7
ATOM      7  C   UNL A   1      40.545  23.315  27.103  1.00  0.00     0.060 A 
ATOM      8  C   UNL A   1      41.847  23.629  26.678  1.00  0.00     0.016 A 
ATOM      9  C   UNL A   1      39.806  24.342  27.684  1.00  0.00     0.016 A 
ATOM     10  C   UNL A   1      42.378  24.914  26.850  1.00  0.00     0.010 A 
ATOM     11  C   UNL A   1      40.345  25.593  27.921  1.00  0.00     0.010 A 
ATOM     12  C   UNL A   1      41.622  25.908  27.478  1.00  0.00    -0.014 A 
BRANCH  12  13
ATOM     13  C   UNL A   1      42.151  27.278  27.646  1.00  0.00     0.031 A 
ATOM     14  C   UNL A   1      41.069  28.339  27.672  1.00  0.00     0.074 A 
ATOM     15  C   UNL A   1      43.096  27.414  28.600  1.00  0.00     0.049 A 
ATOM     16  N   UNL A   1      40.439  28.752  28.734  1.00  0.00    -0.248 NA
ATOM     17  C   UNL A   1      40.450  28.782  26.418  1.00  0.00     0.031 C 
ATOM     18  C   UNL A   1      42.923  27.013  30.000  1.00  0.00     0.029 A 
ATOM     19  N   UNL A   1      44.193  28.243  28.596  1.00  0.00    -0.354 N 
ATOM     20  C   UNL A   1      39.315  29.449  28.304  1.00  0.00     0.074 A 
ATOM     21  C   UNL A   1      39.375  29.451  26.861  1.00  0.00     0.031 C 
ATOM     22  C   UNL A   1      43.789  27.717  30.750  1.00  0.00     0.029 A 
ATOM     23  C   UNL A   1      44.590  28.576  29.881  1.00  0.00     0.049 A 
ATOM     24  H   UNL A   1      44.642  28.562  27.780  1.00  0.00     0.167 HD
ATOM     25  C   UNL A   1      38.390  29.985  29.149  1.00  0.00     0.037 A 
ATOM     26  C   UNL A   1      45.210  29.735  30.223  1.00  0.00     0.037 A 
ATOM     27  C   UNL A   1      38.601  29.885  30.577  1.00  0.00     0.049 A 
ATOM     28  C   UNL A   1      44.102  30.521  30.870  1.00  0.00     0.074 A 
ATOM     29  C   UNL A   1      37.830  29.961  31.723  1.00  0.00     0.029 A 
ATOM     30  N   UNL A   1      39.880  29.715  31.029  1.00  0.00    -0.354 N 
ATOM     31  N   UNL A   1      43.670  30.398  32.098  1.00  0.00    -0.248 NA
ATOM     32  C   UNL A   1      43.195  31.268  29.978  1.00  0.00     0.031 C 
ATOM     33  C   UNL A   1      38.727  30.096  32.832  1.00  0.00     0.029 A 
ATOM     34  C   UNL A   1      40.014  30.133  32.326  1.00  0.00     0.049 A 
ATOM     35  H   UNL A   1      40.614  29.339  30.489  1.00  0.00     0.167 HD
ATOM     36  C   UNL A   1      42.333  30.783  32.032  1.00  0.00     0.074 A 
ATOM     37  C   UNL A   1      42.144  31.459  30.768  1.00  0.00     0.031 C 
ATOM     38  C   UNL A   1      41.354  30.273  32.830  1.00  0.00     0.037 A 
BRANCH  25  39
ATOM     39  C   UNL A   1      37.302  30.879  28.669  1.00  0.00     0.057 A 
ATOM     40  C   UNL A   1      36.054  30.441  28.223  1.00  0.00     0.134 A 
ATOM     41  C   UNL A   1      37.480  32.262  28.828  1.00  0.00     0.134 A 
ATOM     42  F   UNL A   1      35.813  29.140  28.016  1.00  0.00    -0.206 F 
ATOM     43  C   UNL A   1      35.009  31.345  27.990  1.00  0.00     0.040 A 
ATOM     44  C   UNL A   1      36.449  33.172  28.598  1.00  0.00     0.040 A 
ATOM     45  F   UNL A   1      38.665  32.748  29.232  1.00  0.00    -0.206 F 
ATOM     46  C   UNL A   1      35.201  32.712  28.191  1.00  0.00     0.006 A 
ENDBRANCH  25  39
BRANCH  26  47
ATOM     47  C   UNL A   1      46.220  30.259  29.259  1.00  0.00     0.057 A 
ATOM     48  C   UNL A   1      45.957  30.828  28.011  1.00  0.00     0.134 A 
ATOM     49  C   UNL A   1      47.584  30.153  29.608  1.00  0.00     0.134 A 
ATOM     50  F   UNL A   1      44.708  31.088  27.609  1.00  0.00    -0.206 F 
ATOM     51  C   UNL A   1      46.981  31.144  27.108  1.00  0.00     0.040 A 
ATOM     52  C   UNL A   1      48.617  30.482  28.725  1.00  0.00     0.040 A 
ATOM     53  F   UNL A   1      47.942  29.705  30.823  1.00  0.00    -0.206 F 
ATOM     54  C   UNL A   1      48.313  30.954  27.456  1.00  0.00     0.006 A 
ENDBRANCH  26  47
BRANCH  38  55
ATOM     55  C   UNL A   1      41.756  29.690  34.125  1.00  0.00     0.057 A 
ATOM     56  C   UNL A   1      42.085  30.490  35.223  1.00  0.00     0.134 A 
ATOM     57  C   UNL A   1      41.869  28.302  34.265  1.00  0.00     0.134 A 
ATOM     58  F   UNL A   1      41.989  31.826  35.155  1.00  0.00    -0.206 F 
ATOM     59  C   UNL A   1      42.520  29.925  36.423  1.00  0.00     0.040 A 
ATOM     60  C   UNL A   1      42.290  27.727  35.462  1.00  0.00     0.040 A 
ATOM     61  F   UNL A   1      41.606  27.487  33.231  1.00  0.00    -0.206 F 
ATOM     62  C   UNL A   1      42.621  28.540  36.544  1.00  0.00     0.006 A 
ENDBRANCH  38  55
ENDBRANCH  12  13
ENDBRANCH   5   7
ENDBRANCH   4   5
ENDBRANCH   3   4
ENDBRANCH   2   3
ENDBRANCH   1   2
BRANCH   1  63
ATOM     63  C   UNL A   1      35.867  22.958  23.394  1.00  0.00     0.202 C 
BRANCH  63  64
ATOM     64  C   UNL A   1      34.523  23.129  22.673  1.00  0.00     0.261 C 
BRANCH  64  65
ATOM     65  O   UNL A   1      34.298  24.536  22.440  1.00  0.00    -0.459 OA
BRANCH  65  66
ATOM     66  C   UNL A   1      33.671  25.249  23.413  1.00  0.00     0.365 C 
ATOM     67  O   UNL A   1      34.218  25.664  24.430  1.00  0.00    -0.245 OA
BRANCH  66  68
ATOM     68  C   UNL A   1      32.203  25.558  23.054  1.00  0.00     0.296 C 
ATOM     69  C   UNL A   1      31.871  27.051  22.855  1.00  0.00     0.091 C 
ATOM     70  N   UNL A   1      31.277  25.107  24.131  1.00  0.00    -0.319 N 
ATOM     71  C   UNL A   1      30.602  27.339  23.692  1.00  0.00     0.036 C 
ATOM     72  C   UNL A   1      30.069  25.923  23.966  1.00  0.00     0.270 C 
ATOM     73  H   UNL A   1      31.693  25.240  25.053  1.00  0.00     0.349 HD
ATOM     74  C   UNL A   1      29.571  28.181  22.920  1.00  0.00     0.074 C 
ATOM     75  C   UNL A   1      30.916  28.103  25.001  1.00  0.00     0.074 C 
ATOM     76  C   UNL A   1      30.019  29.636  22.757  1.00  0.00     0.261 C 
ATOM     77  C   UNL A   1      31.298  29.566  24.792  1.00  0.00     0.261 C 
ATOM     78  N   UNL A   1      30.268  30.280  24.046  1.00  0.00    -0.346 N 
ATOM     79  H   UNL A   1      29.405  30.284  24.589  1.00  0.00     0.346 HD
ATOM     80  H   UNL A   1      30.589  31.233  23.877  1.00  0.00     0.346 HD
BRANCH  70  81
ATOM     81  C   UNL A   1      31.003  23.654  24.095  1.00  0.00     0.302 C 
BRANCH  81  82
ATOM     82  C   UNL A   1      31.758  22.932  25.183  1.00  0.00     0.038 A 
ATOM     83  C   UNL A   1      32.101  23.557  26.413  1.00  0.00     0.012 A 
ATOM     84  C   UNL A   1      32.290  21.624  25.059  1.00  0.00     0.144 A 
ATOM     85  C   UNL A   1      32.938  22.967  27.401  1.00  0.00     0.003 A 
ATOM     86  C   UNL A   1      33.166  21.033  26.063  1.00  0.00     0.135 A 
ATOM     87  N   UNL A   1      32.150  20.737  24.067  1.00  0.00    -0.049 NA
ATOM     88  C   UNL A   1      33.515  21.696  27.254  1.00  0.00     0.034 A 
ATOM     89  N   UNL A   1      33.562  19.836  25.625  1.00  0.00    -0.050 NA
ATOM     90  O   UNL A   1      32.944  19.655  24.403  1.00  0.00    -0.243 OA
ENDBRANCH  81  82
ENDBRANCH  70  81
ENDBRANCH  66  68
ENDBRANCH  65  66
ENDBRANCH  64  65
ENDBRANCH  63  64
ENDBRANCH   1  63
TORSDOF 16
ENDMDL
