MODEL 1
REMARK VINA RESULT:     -11.6      0.000      0.000
REMARK SMILES COc1ccc(C[NH2+]Cc2cccn2-c2sc(C)c(C)c2C(=O)OCCOCCOC(=O)c2ccc(-c3c4nc(c(-c5c(F)cccc5F)c5ccc([nH]5)c(-c5c(F)cccc5F)c5nc(c(-c6c(F)cccc6F)c6ccc3[nH]6)C=C5)C=C4)cc2)cc1
REMARK SMILES IDX 25 1 24 2 22 3 23 4 21 5 15 6 16 7 17 8 19 9 18 10 20 11
REMARK SMILES IDX 14 12 10 13 11 14 12 15 13 16 9 17 8 18 7 21 6 22 3 23 4 24
REMARK SMILES IDX 88 25 5 26 87 27 2 28 1 29 26 30 27 31 28 32 29 33 30 34
REMARK SMILES IDX 31 35 32 36 33 37 34 38 86 39 35 40 85 41 36 42 37 43 38 44
REMARK SMILES IDX 79 45 39 46 84 47 78 48 80 49 40 50 83 51 77 52 76 53 41 55
REMARK SMILES IDX 67 56 50 57 66 58 51 59 54 60 65 61 81 62 52 63 53 64 64 66
REMARK SMILES IDX 82 67 55 68 42 69 43 70 48 71 44 72 45 73 47 74 49 75 46 76
REMARK SMILES IDX 68 77 69 78 74 79 70 80 71 81 73 82 75 83 72 84 56 85 57 86
REMARK SMILES IDX 62 87 58 88 59 89 61 90 63 91 60 92
REMARK H PARENT 8 19 8 20 80 54 54 65
REMARK Flexibility Score: inf
ROOT
ATOM      1  C   UNL A   1      35.844  23.250  24.138  1.00  0.00     0.261 C 
ENDROOT
BRANCH   1   2
ATOM      2  O   UNL A   1      35.119  24.400  24.618  1.00  0.00    -0.460 OA
BRANCH   2   3
ATOM      3  C   UNL A   1      34.290  24.996  23.707  1.00  0.00     0.341 C 
ATOM      4  O   UNL A   1      34.291  24.726  22.510  1.00  0.00    -0.246 OA
BRANCH   3   5
ATOM      5  C   UNL A   1      33.315  25.937  24.281  1.00  0.00     0.098 A 
ATOM      6  C   UNL A   1      32.233  25.656  25.104  1.00  0.00     0.115 A 
ATOM      7  S   UNL A   1      31.544  27.052  25.775  1.00  0.00    -0.122 S 
ATOM      8  C   UNL A   1      32.470  28.082  24.802  1.00  0.00     0.007 A 
ATOM      9  C   UNL A   1      33.309  27.370  23.960  1.00  0.00    -0.021 A 
ATOM     10  C   UNL A   1      32.275  29.557  24.915  1.00  0.00     0.057 C 
ATOM     11  C   UNL A   1      34.084  27.997  22.837  1.00  0.00     0.046 C 
BRANCH   6  12
ATOM     12  N   UNL A   1      31.738  24.423  25.558  1.00  0.00    -0.306 N 
ATOM     13  C   UNL A   1      31.301  23.310  24.813  1.00  0.00     0.078 A 
ATOM     14  C   UNL A   1      30.968  22.313  25.726  1.00  0.00     0.029 A 
ATOM     15  C   UNL A   1      31.140  22.811  27.029  1.00  0.00     0.020 A 
ATOM     16  C   UNL A   1      31.591  24.098  26.899  1.00  0.00     0.092 A 
BRANCH  13  17
ATOM     17  C   UNL A   1      31.140  23.225  23.307  1.00  0.00     0.316 C 
BRANCH  17  18
ATOM     18  N   UNL A   1      32.180  22.493  22.557  1.00  0.00    -0.338 N 
ATOM     19  H   UNL A   1      32.361  22.982  21.679  1.00  0.00     0.346 HD
ATOM     20  H   UNL A   1      33.022  22.454  23.131  1.00  0.00     0.346 HD
BRANCH  18  21
ATOM     21  C   UNL A   1      31.765  21.129  22.261  1.00  0.00     0.297 C 
BRANCH  21  22
ATOM     22  C   UNL A   1      32.436  20.007  23.039  1.00  0.00     0.006 A 
ATOM     23  C   UNL A   1      33.903  17.753  24.033  1.00  0.00     0.118 A 
ATOM     24  C   UNL A   1      34.011  19.024  24.619  1.00  0.00     0.047 A 
ATOM     25  C   UNL A   1      33.040  17.608  22.973  1.00  0.00     0.047 A 
ATOM     26  C   UNL A   1      33.289  20.145  24.127  1.00  0.00     0.013 A 
ATOM     27  C   UNL A   1      32.328  18.718  22.529  1.00  0.00     0.013 A 
BRANCH  23  28
ATOM     28  O   UNL A   1      34.665  16.739  24.548  1.00  0.00    -0.497 OA
ATOM     29  C   UNL A   1      34.033  15.906  25.528  1.00  0.00     0.278 C 
ENDBRANCH  23  28
ENDBRANCH  21  22
ENDBRANCH  18  21
ENDBRANCH  17  18
ENDBRANCH  13  17
ENDBRANCH   6  12
ENDBRANCH   3   5
ENDBRANCH   2   3
ENDBRANCH   1   2
BRANCH   1  30
ATOM     30  C   UNL A   1      36.456  22.383  25.244  1.00  0.00     0.202 C 
BRANCH  30  31
ATOM     31  O   UNL A   1      37.847  22.113  25.190  1.00  0.00    -0.374 OA
BRANCH  31  32
ATOM     32  C   UNL A   1      38.257  20.770  25.306  1.00  0.00     0.202 C 
BRANCH  32  33
ATOM     33  C   UNL A   1      39.714  20.423  25.599  1.00  0.00     0.261 C 
BRANCH  33  34
ATOM     34  O   UNL A   1      40.187  19.076  25.826  1.00  0.00    -0.460 OA
BRANCH  34  35
ATOM     35  C   UNL A   1      41.551  18.977  25.866  1.00  0.00     0.338 C 
ATOM     36  O   UNL A   1      42.164  17.928  25.738  1.00  0.00    -0.246 OA
BRANCH  35  37
ATOM     37  C   UNL A   1      42.246  20.202  26.373  1.00  0.00     0.060 A 
ATOM     38  C   UNL A   1      41.988  20.610  27.684  1.00  0.00     0.016 A 
ATOM     39  C   UNL A   1      42.844  21.110  25.507  1.00  0.00     0.016 A 
ATOM     40  C   UNL A   1      42.205  21.937  28.067  1.00  0.00     0.010 A 
ATOM     41  C   UNL A   1      42.840  22.474  25.813  1.00  0.00     0.010 A 
ATOM     42  C   UNL A   1      42.579  22.895  27.116  1.00  0.00    -0.014 A 
BRANCH  42  43
ATOM     43  C   UNL A   1      42.996  24.254  27.579  1.00  0.00     0.031 A 
ATOM     44  C   UNL A   1      41.753  25.161  27.759  1.00  0.00     0.074 A 
ATOM     45  C   UNL A   1      44.336  24.556  27.628  1.00  0.00     0.049 A 
ATOM     46  N   UNL A   1      41.572  26.397  27.404  1.00  0.00    -0.248 NA
ATOM     47  C   UNL A   1      40.484  24.587  28.297  1.00  0.00     0.031 C 
ATOM     48  C   UNL A   1      45.433  23.566  27.543  1.00  0.00     0.029 A 
ATOM     49  N   UNL A   1      45.059  25.735  27.753  1.00  0.00    -0.354 N 
ATOM     50  C   UNL A   1      40.266  26.768  27.802  1.00  0.00     0.074 A 
ATOM     51  C   UNL A   1      39.601  25.575  28.198  1.00  0.00     0.031 C 
ATOM     52  C   UNL A   1      46.642  24.176  27.516  1.00  0.00     0.029 A 
ATOM     53  C   UNL A   1      46.471  25.618  27.578  1.00  0.00     0.049 A 
ATOM     54  H   UNL A   1      44.625  26.597  27.950  1.00  0.00     0.167 HD
ATOM     55  C   UNL A   1      39.849  28.058  27.937  1.00  0.00     0.037 A 
ATOM     56  C   UNL A   1      47.422  26.603  27.436  1.00  0.00     0.037 A 
ATOM     57  C   UNL A   1      40.901  28.940  27.581  1.00  0.00     0.049 A 
ATOM     58  C   UNL A   1      46.698  27.865  27.627  1.00  0.00     0.074 A 
ATOM     59  C   UNL A   1      41.455  29.268  26.373  1.00  0.00     0.029 A 
ATOM     60  N   UNL A   1      41.751  29.307  28.593  1.00  0.00    -0.354 N 
ATOM     61  N   UNL A   1      46.312  28.336  28.773  1.00  0.00    -0.248 NA
ATOM     62  C   UNL A   1      46.316  28.636  26.435  1.00  0.00     0.031 C 
ATOM     63  C   UNL A   1      42.824  29.400  26.674  1.00  0.00     0.029 A 
ATOM     64  C   UNL A   1      43.011  29.372  28.062  1.00  0.00     0.049 A 
ATOM     65  H   UNL A   1      41.501  29.491  29.528  1.00  0.00     0.167 HD
ATOM     66  C   UNL A   1      45.366  29.256  28.394  1.00  0.00     0.074 A 
ATOM     67  C   UNL A   1      45.669  29.632  27.033  1.00  0.00     0.031 C 
ATOM     68  C   UNL A   1      44.132  29.204  28.954  1.00  0.00     0.037 A 
BRANCH  55  69
ATOM     69  C   UNL A   1      38.653  28.657  28.618  1.00  0.00     0.057 A 
ATOM     70  C   UNL A   1      37.971  29.704  27.955  1.00  0.00     0.134 A 
ATOM     71  C   UNL A   1      38.371  28.513  29.981  1.00  0.00     0.134 A 
ATOM     72  F   UNL A   1      38.123  29.902  26.636  1.00  0.00    -0.206 F 
ATOM     73  C   UNL A   1      37.181  30.634  28.634  1.00  0.00     0.040 A 
ATOM     74  C   UNL A   1      37.538  29.410  30.660  1.00  0.00     0.040 A 
ATOM     75  F   UNL A   1      38.962  27.569  30.725  1.00  0.00    -0.206 F 
ATOM     76  C   UNL A   1      36.981  30.500  29.999  1.00  0.00     0.006 A 
ENDBRANCH  55  69
BRANCH  56  77
ATOM     77  C   UNL A   1      48.894  26.764  27.072  1.00  0.00     0.057 A 
ATOM     78  C   UNL A   1      49.883  27.361  27.857  1.00  0.00     0.134 A 
ATOM     79  C   UNL A   1      49.399  26.254  25.834  1.00  0.00     0.134 A 
ATOM     80  F   UNL A   1      49.572  28.013  28.982  1.00  0.00    -0.206 F 
ATOM     81  C   UNL A   1      51.254  27.342  27.499  1.00  0.00     0.040 A 
ATOM     82  C   UNL A   1      50.754  26.186  25.489  1.00  0.00     0.040 A 
ATOM     83  F   UNL A   1      48.595  25.795  24.867  1.00  0.00    -0.206 F 
ATOM     84  C   UNL A   1      51.699  26.718  26.336  1.00  0.00     0.006 A 
ENDBRANCH  56  77
BRANCH  68  85
ATOM     85  C   UNL A   1      44.109  28.586  30.336  1.00  0.00     0.057 A 
ATOM     86  C   UNL A   1      44.723  29.256  31.403  1.00  0.00     0.134 A 
ATOM     87  C   UNL A   1      43.630  27.298  30.620  1.00  0.00     0.134 A 
ATOM     88  F   UNL A   1      45.207  30.494  31.229  1.00  0.00    -0.206 F 
ATOM     89  C   UNL A   1      44.867  28.673  32.669  1.00  0.00     0.040 A 
ATOM     90  C   UNL A   1      43.761  26.701  31.882  1.00  0.00     0.040 A 
ATOM     91  F   UNL A   1      43.034  26.569  29.678  1.00  0.00    -0.206 F 
ATOM     92  C   UNL A   1      44.390  27.389  32.912  1.00  0.00     0.006 A 
ENDBRANCH  68  85
ENDBRANCH  42  43
ENDBRANCH  35  37
ENDBRANCH  34  35
ENDBRANCH  33  34
ENDBRANCH  32  33
ENDBRANCH  31  32
ENDBRANCH  30  31
ENDBRANCH   1  30
TORSDOF 20
ENDMDL
MODEL 2
REMARK VINA RESULT:     -11.3      3.323      8.413
REMARK SMILES COc1ccc(C[NH2+]Cc2cccn2-c2sc(C)c(C)c2C(=O)OCCOCCOC(=O)c2ccc(-c3c4nc(c(-c5c(F)cccc5F)c5ccc([nH]5)c(-c5c(F)cccc5F)c5nc(c(-c6c(F)cccc6F)c6ccc3[nH]6)C=C5)C=C4)cc2)cc1
REMARK SMILES IDX 25 1 24 2 22 3 23 4 21 5 15 6 16 7 17 8 19 9 18 10 20 11
REMARK SMILES IDX 14 12 10 13 11 14 12 15 13 16 9 17 8 18 7 21 6 22 3 23 4 24
REMARK SMILES IDX 88 25 5 26 87 27 2 28 1 29 26 30 27 31 28 32 29 33 30 34
REMARK SMILES IDX 31 35 32 36 33 37 34 38 86 39 35 40 85 41 36 42 37 43 38 44
REMARK SMILES IDX 79 45 39 46 84 47 78 48 80 49 40 50 83 51 77 52 76 53 41 55
REMARK SMILES IDX 67 56 50 57 66 58 51 59 54 60 65 61 81 62 52 63 53 64 64 66
REMARK SMILES IDX 82 67 55 68 42 69 43 70 48 71 44 72 45 73 47 74 49 75 46 76
REMARK SMILES IDX 68 77 69 78 74 79 70 80 71 81 73 82 75 83 72 84 56 85 57 86
REMARK SMILES IDX 62 87 58 88 59 89 61 90 63 91 60 92
REMARK H PARENT 8 19 8 20 80 54 54 65
REMARK Flexibility Score: inf
ROOT
ATOM      1  C   UNL A   1      37.019  23.413  26.051  1.00  0.00     0.261 C 
ENDROOT
BRANCH   1   2
ATOM      2  O   UNL A   1      36.590  24.074  24.843  1.00  0.00    -0.460 OA
BRANCH   2   3
ATOM      3  C   UNL A   1      36.189  23.248  23.830  1.00  0.00     0.341 C 
ATOM      4  O   UNL A   1      36.951  22.797  22.980  1.00  0.00    -0.246 OA
BRANCH   3   5
ATOM      5  C   UNL A   1      34.771  22.855  23.876  1.00  0.00     0.098 A 
ATOM      6  C   UNL A   1      33.658  23.621  23.557  1.00  0.00     0.115 A 
ATOM      7  S   UNL A   1      32.237  22.700  23.466  1.00  0.00    -0.122 S 
ATOM      8  C   UNL A   1      32.987  21.322  24.103  1.00  0.00     0.007 A 
ATOM      9  C   UNL A   1      34.323  21.554  24.388  1.00  0.00    -0.021 A 
ATOM     10  C   UNL A   1      32.176  20.087  24.314  1.00  0.00     0.057 C 
ATOM     11  C   UNL A   1      35.184  20.597  25.160  1.00  0.00     0.046 C 
BRANCH   6  12
ATOM     12  N   UNL A   1      33.567  24.967  23.169  1.00  0.00    -0.306 N 
ATOM     13  C   UNL A   1      33.767  26.131  23.939  1.00  0.00     0.078 A 
ATOM     14  C   UNL A   1      33.625  27.218  23.080  1.00  0.00     0.029 A 
ATOM     15  C   UNL A   1      33.285  26.747  21.800  1.00  0.00     0.020 A 
ATOM     16  C   UNL A   1      33.239  25.380  21.886  1.00  0.00     0.092 A 
BRANCH  13  17
ATOM     17  C   UNL A   1      34.012  26.206  25.434  1.00  0.00     0.316 C 
BRANCH  17  18
ATOM     18  N   UNL A   1      32.915  26.732  26.272  1.00  0.00    -0.338 N 
ATOM     19  H   UNL A   1      33.039  26.397  27.227  1.00  0.00     0.346 HD
ATOM     20  H   UNL A   1      32.944  27.751  26.236  1.00  0.00     0.346 HD
BRANCH  18  21
ATOM     21  C   UNL A   1      31.614  26.295  25.783  1.00  0.00     0.297 C 
BRANCH  21  22
ATOM     22  C   UNL A   1      30.807  27.283  24.955  1.00  0.00     0.006 A 
ATOM     23  C   UNL A   1      29.760  29.340  23.254  1.00  0.00     0.118 A 
ATOM     24  C   UNL A   1      29.364  27.999  23.125  1.00  0.00     0.047 A 
ATOM     25  C   UNL A   1      30.653  29.650  24.251  1.00  0.00     0.047 A 
ATOM     26  C   UNL A   1      29.883  26.975  23.963  1.00  0.00     0.013 A 
ATOM     27  C   UNL A   1      31.125  28.631  25.073  1.00  0.00     0.013 A 
BRANCH  23  28
ATOM     28  O   UNL A   1      29.237  30.254  22.379  1.00  0.00    -0.497 OA
ATOM     29  C   UNL A   1      27.815  30.418  22.408  1.00  0.00     0.278 C 
ENDBRANCH  23  28
ENDBRANCH  21  22
ENDBRANCH  18  21
ENDBRANCH  17  18
ENDBRANCH  13  17
ENDBRANCH   6  12
ENDBRANCH   3   5
ENDBRANCH   2   3
ENDBRANCH   1   2
BRANCH   1  30
ATOM     30  C   UNL A   1      38.527  23.151  26.127  1.00  0.00     0.202 C 
BRANCH  30  31
ATOM     31  O   UNL A   1      38.989  21.832  25.885  1.00  0.00    -0.374 OA
BRANCH  31  32
ATOM     32  C   UNL A   1      40.086  21.376  26.642  1.00  0.00     0.202 C 
BRANCH  32  33
ATOM     33  C   UNL A   1      41.510  21.506  26.107  1.00  0.00     0.261 C 
BRANCH  33  34
ATOM     34  O   UNL A   1      42.079  22.749  25.635  1.00  0.00    -0.460 OA
BRANCH  34  35
ATOM     35  C   UNL A   1      43.230  23.100  26.282  1.00  0.00     0.338 C 
ATOM     36  O   UNL A   1      44.248  22.423  26.283  1.00  0.00    -0.246 OA
BRANCH  35  37
ATOM     37  C   UNL A   1      43.079  24.238  27.243  1.00  0.00     0.060 A 
ATOM     38  C   UNL A   1      42.029  24.187  28.163  1.00  0.00     0.016 A 
ATOM     39  C   UNL A   1      43.708  25.459  27.030  1.00  0.00     0.016 A 
ATOM     40  C   UNL A   1      41.543  25.360  28.748  1.00  0.00     0.010 A 
ATOM     41  C   UNL A   1      43.084  26.645  27.425  1.00  0.00     0.010 A 
ATOM     42  C   UNL A   1      42.030  26.608  28.338  1.00  0.00    -0.014 A 
BRANCH  42  43
ATOM     43  C   UNL A   1      41.645  27.828  29.110  1.00  0.00     0.031 A 
ATOM     44  C   UNL A   1      42.457  27.904  30.428  1.00  0.00     0.074 A 
ATOM     45  C   UNL A   1      40.586  28.586  28.669  1.00  0.00     0.049 A 
ATOM     46  N   UNL A   1      42.060  28.198  31.629  1.00  0.00    -0.248 NA
ATOM     47  C   UNL A   1      43.886  27.474  30.447  1.00  0.00     0.031 C 
ATOM     48  C   UNL A   1      39.964  28.478  27.331  1.00  0.00     0.029 A 
ATOM     49  N   UNL A   1      39.813  29.592  29.235  1.00  0.00    -0.354 N 
ATOM     50  C   UNL A   1      43.189  28.134  32.478  1.00  0.00     0.074 A 
ATOM     51  C   UNL A   1      44.237  27.535  31.728  1.00  0.00     0.031 C 
ATOM     52  C   UNL A   1      38.879  29.283  27.229  1.00  0.00     0.029 A 
ATOM     53  C   UNL A   1      38.673  29.998  28.477  1.00  0.00     0.049 A 
ATOM     54  H   UNL A   1      40.037  29.999  30.103  1.00  0.00     0.167 HD
ATOM     55  C   UNL A   1      43.252  28.721  33.706  1.00  0.00     0.037 A 
ATOM     56  C   UNL A   1      37.616  30.800  28.844  1.00  0.00     0.037 A 
ATOM     57  C   UNL A   1      42.016  29.354  33.998  1.00  0.00     0.049 A 
ATOM     58  C   UNL A   1      37.952  31.285  30.188  1.00  0.00     0.074 A 
ATOM     59  C   UNL A   1      40.784  28.855  34.324  1.00  0.00     0.029 A 
ATOM     60  N   UNL A   1      41.893  30.657  33.588  1.00  0.00    -0.354 N 
ATOM     61  N   UNL A   1      38.814  32.220  30.448  1.00  0.00    -0.248 NA
ATOM     62  C   UNL A   1      37.321  30.631  31.342  1.00  0.00     0.031 C 
ATOM     63  C   UNL A   1      39.901  29.726  33.658  1.00  0.00     0.029 A 
ATOM     64  C   UNL A   1      40.605  30.826  33.154  1.00  0.00     0.049 A 
ATOM     65  H   UNL A   1      42.599  31.343  33.603  1.00  0.00     0.167 HD
ATOM     66  C   UNL A   1      39.062  32.010  31.782  1.00  0.00     0.074 A 
ATOM     67  C   UNL A   1      37.914  31.316  32.316  1.00  0.00     0.031 C 
ATOM     68  C   UNL A   1      40.344  31.880  32.204  1.00  0.00     0.037 A 
BRANCH  55  69
ATOM     69  C   UNL A   1      44.411  29.032  34.609  1.00  0.00     0.057 A 
ATOM     70  C   UNL A   1      44.395  28.488  35.914  1.00  0.00     0.134 A 
ATOM     71  C   UNL A   1      45.313  30.080  34.395  1.00  0.00     0.134 A 
ATOM     72  F   UNL A   1      43.608  27.444  36.218  1.00  0.00    -0.206 F 
ATOM     73  C   UNL A   1      45.119  29.046  36.969  1.00  0.00     0.040 A 
ATOM     74  C   UNL A   1      46.082  30.614  35.437  1.00  0.00     0.040 A 
ATOM     75  F   UNL A   1      45.414  30.691  33.208  1.00  0.00    -0.206 F 
ATOM     76  C   UNL A   1      45.951  30.130  36.735  1.00  0.00     0.006 A 
ENDBRANCH  55  69
BRANCH  56  77
ATOM     77  C   UNL A   1      36.246  31.233  28.336  1.00  0.00     0.057 A 
ATOM     78  C   UNL A   1      35.209  30.392  27.925  1.00  0.00     0.134 A 
ATOM     79  C   UNL A   1      35.897  32.619  28.269  1.00  0.00     0.134 A 
ATOM     80  F   UNL A   1      35.399  29.075  27.791  1.00  0.00    -0.206 F 
ATOM     81  C   UNL A   1      33.918  30.877  27.599  1.00  0.00     0.040 A 
ATOM     82  C   UNL A   1      34.615  33.110  27.996  1.00  0.00     0.040 A 
ATOM     83  F   UNL A   1      36.795  33.594  28.457  1.00  0.00    -0.206 F 
ATOM     84  C   UNL A   1      33.605  32.232  27.674  1.00  0.00     0.006 A 
ENDBRANCH  56  77
BRANCH  68  85
ATOM     85  C   UNL A   1      41.355  32.584  31.326  1.00  0.00     0.057 A 
ATOM     86  C   UNL A   1      41.364  33.984  31.267  1.00  0.00     0.134 A 
ATOM     87  C   UNL A   1      42.221  31.931  30.435  1.00  0.00     0.134 A 
ATOM     88  F   UNL A   1      40.574  34.695  32.084  1.00  0.00    -0.206 F 
ATOM     89  C   UNL A   1      42.171  34.690  30.364  1.00  0.00     0.040 A 
ATOM     90  C   UNL A   1      43.039  32.621  29.529  1.00  0.00     0.040 A 
ATOM     91  F   UNL A   1      42.289  30.601  30.401  1.00  0.00    -0.206 F 
ATOM     92  C   UNL A   1      43.010  34.009  29.487  1.00  0.00     0.006 A 
ENDBRANCH  68  85
ENDBRANCH  42  43
ENDBRANCH  35  37
ENDBRANCH  34  35
ENDBRANCH  33  34
ENDBRANCH  32  33
ENDBRANCH  31  32
ENDBRANCH  30  31
ENDBRANCH   1  30
TORSDOF 20
ENDMDL
MODEL 3
REMARK VINA RESULT:     -11.1      4.315      9.285
REMARK SMILES COc1ccc(C[NH2+]Cc2cccn2-c2sc(C)c(C)c2C(=O)OCCOCCOC(=O)c2ccc(-c3c4nc(c(-c5c(F)cccc5F)c5ccc([nH]5)c(-c5c(F)cccc5F)c5nc(c(-c6c(F)cccc6F)c6ccc3[nH]6)C=C5)C=C4)cc2)cc1
REMARK SMILES IDX 25 1 24 2 22 3 23 4 21 5 15 6 16 7 17 8 19 9 18 10 20 11
REMARK SMILES IDX 14 12 10 13 11 14 12 15 13 16 9 17 8 18 7 21 6 22 3 23 4 24
REMARK SMILES IDX 88 25 5 26 87 27 2 28 1 29 26 30 27 31 28 32 29 33 30 34
REMARK SMILES IDX 31 35 32 36 33 37 34 38 86 39 35 40 85 41 36 42 37 43 38 44
REMARK SMILES IDX 79 45 39 46 84 47 78 48 80 49 40 50 83 51 77 52 76 53 41 55
REMARK SMILES IDX 67 56 50 57 66 58 51 59 54 60 65 61 81 62 52 63 53 64 64 66
REMARK SMILES IDX 82 67 55 68 42 69 43 70 48 71 44 72 45 73 47 74 49 75 46 76
REMARK SMILES IDX 68 77 69 78 74 79 70 80 71 81 73 82 75 83 72 84 56 85 57 86
REMARK SMILES IDX 62 87 58 88 59 89 61 90 63 91 60 92
REMARK H PARENT 8 19 8 20 80 54 54 65
REMARK Flexibility Score: inf
ROOT
ATOM      1  C   UNL A   1      33.102  29.253  25.031  1.00  0.00     0.261 C 
ENDROOT
BRANCH   1   2
ATOM      2  O   UNL A   1      33.715  27.961  24.846  1.00  0.00    -0.460 OA
BRANCH   2   3
ATOM      3  C   UNL A   1      33.076  27.125  23.973  1.00  0.00     0.341 C 
ATOM      4  O   UNL A   1      33.229  27.166  22.757  1.00  0.00    -0.246 OA
BRANCH   3   5
ATOM      5  C   UNL A   1      32.240  26.091  24.607  1.00  0.00     0.098 A 
ATOM      6  C   UNL A   1      32.561  24.764  24.858  1.00  0.00     0.115 A 
ATOM      7  S   UNL A   1      31.431  23.999  25.864  1.00  0.00    -0.122 S 
ATOM      8  C   UNL A   1      30.350  25.300  25.785  1.00  0.00     0.007 A 
ATOM      9  C   UNL A   1      30.843  26.324  24.992  1.00  0.00    -0.021 A 
ATOM     10  C   UNL A   1      29.044  25.203  26.500  1.00  0.00     0.057 C 
ATOM     11  C   UNL A   1      30.023  27.505  24.559  1.00  0.00     0.046 C 
BRANCH   6  12
ATOM     12  N   UNL A   1      33.716  24.035  24.532  1.00  0.00    -0.306 N 
ATOM     13  C   UNL A   1      34.104  23.490  23.292  1.00  0.00     0.078 A 
ATOM     14  C   UNL A   1      35.361  22.918  23.474  1.00  0.00     0.029 A 
ATOM     15  C   UNL A   1      35.733  23.051  24.823  1.00  0.00     0.020 A 
ATOM     16  C   UNL A   1      34.710  23.716  25.446  1.00  0.00     0.092 A 
BRANCH  13  17
ATOM     17  C   UNL A   1      33.288  23.454  22.014  1.00  0.00     0.316 C 
BRANCH  17  18
ATOM     18  N   UNL A   1      32.528  22.219  21.733  1.00  0.00    -0.338 N 
ATOM     19  H   UNL A   1      31.694  22.459  21.196  1.00  0.00     0.346 HD
ATOM     20  H   UNL A   1      33.129  21.585  21.208  1.00  0.00     0.346 HD
BRANCH  18  21
ATOM     21  C   UNL A   1      32.122  21.551  22.962  1.00  0.00     0.297 C 
BRANCH  21  22
ATOM     22  C   UNL A   1      32.556  20.105  23.151  1.00  0.00     0.006 A 
ATOM     23  C   UNL A   1      33.140  17.425  23.983  1.00  0.00     0.118 A 
ATOM     24  C   UNL A   1      32.525  17.700  22.752  1.00  0.00     0.047 A 
ATOM     25  C   UNL A   1      33.486  18.491  24.779  1.00  0.00     0.047 A 
ATOM     26  C   UNL A   1      32.230  19.027  22.337  1.00  0.00     0.013 A 
ATOM     27  C   UNL A   1      33.207  19.779  24.335  1.00  0.00     0.013 A 
BRANCH  23  28
ATOM     28  O   UNL A   1      33.351  16.114  24.319  1.00  0.00    -0.497 OA
ATOM     29  C   UNL A   1      32.559  15.601  25.397  1.00  0.00     0.278 C 
ENDBRANCH  23  28
ENDBRANCH  21  22
ENDBRANCH  18  21
ENDBRANCH  17  18
ENDBRANCH  13  17
ENDBRANCH   6  12
ENDBRANCH   3   5
ENDBRANCH   2   3
ENDBRANCH   1   2
BRANCH   1  30
ATOM     30  C   UNL A   1      32.882  29.644  26.496  1.00  0.00     0.202 C 
BRANCH  30  31
ATOM     31  O   UNL A   1      32.398  30.948  26.775  1.00  0.00    -0.374 OA
BRANCH  31  32
ATOM     32  C   UNL A   1      33.170  31.762  27.627  1.00  0.00     0.202 C 
BRANCH  32  33
ATOM     33  C   UNL A   1      33.193  33.278  27.445  1.00  0.00     0.261 C 
BRANCH  33  34
ATOM     34  O   UNL A   1      32.207  34.169  28.015  1.00  0.00    -0.460 OA
BRANCH  34  35
ATOM     35  C   UNL A   1      32.750  35.157  28.789  1.00  0.00     0.338 C 
ATOM     36  O   UNL A   1      32.396  36.326  28.751  1.00  0.00    -0.246 OA
BRANCH  35  37
ATOM     37  C   UNL A   1      34.018  34.773  29.486  1.00  0.00     0.060 A 
ATOM     38  C   UNL A   1      35.214  34.857  28.770  1.00  0.00     0.016 A 
ATOM     39  C   UNL A   1      34.005  34.031  30.662  1.00  0.00     0.016 A 
ATOM     40  C   UNL A   1      36.326  34.105  29.160  1.00  0.00     0.010 A 
ATOM     41  C   UNL A   1      35.023  33.109  30.917  1.00  0.00     0.010 A 
ATOM     42  C   UNL A   1      36.221  33.178  30.205  1.00  0.00    -0.014 A 
BRANCH  42  43
ATOM     43  C   UNL A   1      37.462  32.535  30.733  1.00  0.00     0.031 A 
ATOM     44  C   UNL A   1      37.761  31.231  29.950  1.00  0.00     0.074 A 
ATOM     45  C   UNL A   1      38.049  33.051  31.863  1.00  0.00     0.049 A 
ATOM     46  N   UNL A   1      38.129  30.066  30.391  1.00  0.00    -0.248 NA
ATOM     47  C   UNL A   1      37.498  31.168  28.482  1.00  0.00     0.031 C 
ATOM     48  C   UNL A   1      37.737  34.372  32.455  1.00  0.00     0.029 A 
ATOM     49  N   UNL A   1      39.013  32.591  32.750  1.00  0.00    -0.354 N 
ATOM     50  C   UNL A   1      38.279  29.214  29.272  1.00  0.00     0.074 A 
ATOM     51  C   UNL A   1      37.727  29.900  28.155  1.00  0.00     0.031 C 
ATOM     52  C   UNL A   1      38.400  34.555  33.621  1.00  0.00     0.029 A 
ATOM     53  C   UNL A   1      39.211  33.387  33.919  1.00  0.00     0.049 A 
ATOM     54  H   UNL A   1      39.529  31.768  32.584  1.00  0.00     0.167 HD
ATOM     55  C   UNL A   1      38.991  28.053  29.289  1.00  0.00     0.037 A 
ATOM     56  C   UNL A   1      39.923  33.104  35.063  1.00  0.00     0.037 A 
ATOM     57  C   UNL A   1      39.507  27.828  30.591  1.00  0.00     0.049 A 
ATOM     58  C   UNL A   1      40.576  31.817  34.799  1.00  0.00     0.074 A 
ATOM     59  C   UNL A   1      38.910  27.453  31.763  1.00  0.00     0.029 A 
ATOM     60  N   UNL A   1      40.741  28.369  30.854  1.00  0.00    -0.354 N 
ATOM     61  N   UNL A   1      41.623  31.653  34.050  1.00  0.00    -0.248 NA
ATOM     62  C   UNL A   1      39.976  30.601  35.367  1.00  0.00     0.031 C 
ATOM     63  C   UNL A   1      39.604  28.205  32.730  1.00  0.00     0.029 A 
ATOM     64  C   UNL A   1      40.720  28.818  32.147  1.00  0.00     0.049 A 
ATOM     65  H   UNL A   1      41.499  28.423  30.228  1.00  0.00     0.167 HD
ATOM     66  C   UNL A   1      41.579  30.304  33.796  1.00  0.00     0.074 A 
ATOM     67  C   UNL A   1      40.818  29.703  34.866  1.00  0.00     0.031 C 
ATOM     68  C   UNL A   1      41.636  29.870  32.513  1.00  0.00     0.037 A 
BRANCH  55  69
ATOM     69  C   UNL A   1      39.519  27.187  28.183  1.00  0.00     0.057 A 
ATOM     70  C   UNL A   1      39.439  25.784  28.347  1.00  0.00     0.134 A 
ATOM     71  C   UNL A   1      40.387  27.635  27.181  1.00  0.00     0.134 A 
ATOM     72  F   UNL A   1      38.599  25.240  29.241  1.00  0.00    -0.206 F 
ATOM     73  C   UNL A   1      40.275  24.899  27.663  1.00  0.00     0.040 A 
ATOM     74  C   UNL A   1      41.192  26.750  26.453  1.00  0.00     0.040 A 
ATOM     75  F   UNL A   1      40.563  28.939  26.934  1.00  0.00    -0.206 F 
ATOM     76  C   UNL A   1      41.174  25.386  26.727  1.00  0.00     0.006 A 
ENDBRANCH  55  69
BRANCH  56  77
ATOM     77  C   UNL A   1      40.146  33.654  36.467  1.00  0.00     0.057 A 
ATOM     78  C   UNL A   1      39.161  33.910  37.425  1.00  0.00     0.134 A 
ATOM     79  C   UNL A   1      41.467  33.935  36.939  1.00  0.00     0.134 A 
ATOM     80  F   UNL A   1      37.863  33.836  37.117  1.00  0.00    -0.206 F 
ATOM     81  C   UNL A   1      39.473  34.290  38.754  1.00  0.00     0.040 A 
ATOM     82  C   UNL A   1      41.793  34.264  38.260  1.00  0.00     0.040 A 
ATOM     83  F   UNL A   1      42.535  33.918  36.132  1.00  0.00    -0.206 F 
ATOM     84  C   UNL A   1      40.789  34.427  39.187  1.00  0.00     0.006 A 
ENDBRANCH  56  77
BRANCH  68  85
ATOM     85  C   UNL A   1      42.356  30.816  31.575  1.00  0.00     0.057 A 
ATOM     86  C   UNL A   1      43.732  31.028  31.730  1.00  0.00     0.134 A 
ATOM     87  C   UNL A   1      41.718  31.626  30.623  1.00  0.00     0.134 A 
ATOM     88  F   UNL A   1      44.429  30.297  32.612  1.00  0.00    -0.206 F 
ATOM     89  C   UNL A   1      44.427  31.998  30.995  1.00  0.00     0.040 A 
ATOM     90  C   UNL A   1      42.398  32.598  29.876  1.00  0.00     0.040 A 
ATOM     91  F   UNL A   1      40.410  31.513  30.399  1.00  0.00    -0.206 F 
ATOM     92  C   UNL A   1      43.760  32.791  30.068  1.00  0.00     0.006 A 
ENDBRANCH  68  85
ENDBRANCH  42  43
ENDBRANCH  35  37
ENDBRANCH  34  35
ENDBRANCH  33  34
ENDBRANCH  32  33
ENDBRANCH  31  32
ENDBRANCH  30  31
ENDBRANCH   1  30
TORSDOF 20
ENDMDL
