MODEL 1
REMARK VINA RESULT:     -11.5      0.000      0.000
REMARK SMILES C[NH2+][C@H]1CC[C@@H](Nc2ccc(C(=O)OCCOCCOC(=O)c3ccc(-c4c5nc(c(-c6c(F)cccc6F)c6ccc([nH]6)c(-c6c(F)cccc6F)c6nc(c(-c7c(F)cccc7F)c7ccc4[nH]7)C=C6)C=C5)cc3)c(F)c2F)CC1
REMARK SMILES IDX 16 1 15 2 14 3 12 4 13 5 11 6 8 7 9 8 79 9 10 10 77 11 80 12
REMARK SMILES IDX 78 13 7 14 6 16 3 17 82 18 4 19 81 20 5 21 2 22 1 23 17 26
REMARK SMILES IDX 18 27 19 28 20 29 21 30 22 31 23 32 24 33 76 34 25 35 75 36
REMARK SMILES IDX 26 37 27 38 28 39 69 40 29 41 74 42 68 43 70 44 30 45 73 46
REMARK SMILES IDX 67 47 66 48 31 50 57 51 40 52 56 53 41 54 44 55 55 56 71 57
REMARK SMILES IDX 42 58 43 59 54 61 72 62 45 63 32 64 33 65 38 66 34 67 35 68
REMARK SMILES IDX 37 69 39 70 36 71 58 72 59 73 64 74 60 75 61 76 63 77 65 78
REMARK SMILES IDX 62 79 46 80 47 81 52 82 48 83 49 84 51 85 53 86 50 87
REMARK H PARENT 7 15 2 24 2 25 70 49 44 60
REMARK Flexibility Score: inf
ROOT
ATOM      1  C   UNL A   1      33.544  35.437  30.189  1.00  0.00     0.202 C 
ENDROOT
BRANCH   1   2
ATOM      2  C   UNL A   1      33.289  34.594  28.937  1.00  0.00     0.261 C 
BRANCH   2   3
ATOM      3  O   UNL A   1      33.854  33.279  29.080  1.00  0.00    -0.460 OA
BRANCH   3   4
ATOM      4  C   UNL A   1      34.585  32.839  28.032  1.00  0.00     0.341 C 
ATOM      5  O   UNL A   1      35.535  33.405  27.506  1.00  0.00    -0.246 OA
BRANCH   4   6
ATOM      6  C   UNL A   1      34.218  31.456  27.693  1.00  0.00     0.099 A 
ATOM      7  C   UNL A   1      33.668  28.788  26.961  1.00  0.00     0.074 A 
ATOM      8  C   UNL A   1      34.907  29.131  27.506  1.00  0.00     0.030 A 
ATOM      9  C   UNL A   1      32.700  29.806  26.844  1.00  0.00     0.182 A 
ATOM     10  C   UNL A   1      35.191  30.460  27.846  1.00  0.00     0.021 A 
ATOM     11  C   UNL A   1      32.960  31.122  27.214  1.00  0.00     0.175 A 
ATOM     12  F   UNL A   1      31.484  29.492  26.363  1.00  0.00    -0.201 F 
ATOM     13  F   UNL A   1      31.998  32.046  27.077  1.00  0.00    -0.203 F 
BRANCH   7  14
ATOM     14  N   UNL A   1      33.347  27.504  26.558  1.00  0.00    -0.380 N 
ATOM     15  H   UNL A   1      32.865  26.938  27.203  1.00  0.00     0.160 HD
BRANCH  14  16
ATOM     16  C   UNL A   1      33.663  26.914  25.263  1.00  0.00     0.079 C 
ATOM     17  C   UNL A   1      31.661  24.704  24.914  1.00  0.00     0.182 C 
ATOM     18  C   UNL A   1      31.285  26.180  24.705  1.00  0.00     0.067 C 
ATOM     19  C   UNL A   1      32.838  24.573  25.893  1.00  0.00     0.067 C 
ATOM     20  C   UNL A   1      32.487  27.028  24.288  1.00  0.00     0.031 C 
ATOM     21  C   UNL A   1      34.034  25.437  25.478  1.00  0.00     0.031 C 
BRANCH  17  22
ATOM     22  N   UNL A   1      30.481  23.989  25.420  1.00  0.00    -0.346 N 
ATOM     23  C   UNL A   1      30.783  23.140  26.566  1.00  0.00     0.331 C 
ATOM     24  H   UNL A   1      29.780  24.675  25.699  1.00  0.00     0.346 HD
ATOM     25  H   UNL A   1      30.144  23.385  24.671  1.00  0.00     0.346 HD
ENDBRANCH  17  22
ENDBRANCH  14  16
ENDBRANCH   7  14
ENDBRANCH   4   6
ENDBRANCH   3   4
ENDBRANCH   2   3
ENDBRANCH   1   2
BRANCH   1  26
ATOM     26  O   UNL A   1      33.101  34.865  31.421  1.00  0.00    -0.374 OA
BRANCH  26  27
ATOM     27  C   UNL A   1      34.060  34.779  32.476  1.00  0.00     0.202 C 
BRANCH  27  28
ATOM     28  C   UNL A   1      34.110  33.445  33.231  1.00  0.00     0.261 C 
BRANCH  28  29
ATOM     29  O   UNL A   1      34.947  32.483  32.565  1.00  0.00    -0.460 OA
BRANCH  29  30
ATOM     30  C   UNL A   1      36.123  32.235  33.186  1.00  0.00     0.338 C 
ATOM     31  O   UNL A   1      36.412  32.482  34.348  1.00  0.00    -0.246 OA
BRANCH  30  32
ATOM     32  C   UNL A   1      37.015  31.455  32.309  1.00  0.00     0.060 A 
ATOM     33  C   UNL A   1      38.029  30.714  32.927  1.00  0.00     0.016 A 
ATOM     34  C   UNL A   1      36.928  31.512  30.915  1.00  0.00     0.016 A 
ATOM     35  C   UNL A   1      39.000  30.080  32.157  1.00  0.00     0.010 A 
ATOM     36  C   UNL A   1      37.908  30.879  30.141  1.00  0.00     0.010 A 
ATOM     37  C   UNL A   1      38.973  30.198  30.760  1.00  0.00    -0.014 A 
BRANCH  37  38
ATOM     38  C   UNL A   1      40.149  29.744  29.979  1.00  0.00     0.031 A 
ATOM     39  C   UNL A   1      41.290  30.699  29.756  1.00  0.00     0.074 A 
ATOM     40  C   UNL A   1      40.234  28.477  29.534  1.00  0.00     0.049 A 
ATOM     41  N   UNL A   1      42.429  30.505  29.140  1.00  0.00    -0.248 NA
ATOM     42  C   UNL A   1      41.128  32.055  30.306  1.00  0.00     0.031 C 
ATOM     43  C   UNL A   1      39.215  27.447  29.718  1.00  0.00     0.029 A 
ATOM     44  N   UNL A   1      41.235  27.844  28.841  1.00  0.00    -0.354 N 
ATOM     45  C   UNL A   1      43.119  31.708  29.233  1.00  0.00     0.074 A 
ATOM     46  C   UNL A   1      42.256  32.638  29.930  1.00  0.00     0.031 C 
ATOM     47  C   UNL A   1      39.643  26.306  29.151  1.00  0.00     0.029 A 
ATOM     48  C   UNL A   1      40.955  26.532  28.547  1.00  0.00     0.049 A 
ATOM     49  H   UNL A   1      42.073  28.288  28.579  1.00  0.00     0.167 HD
ATOM     50  C   UNL A   1      44.363  32.007  28.791  1.00  0.00     0.037 A 
ATOM     51  C   UNL A   1      41.673  25.624  27.860  1.00  0.00     0.037 A 
ATOM     52  C   UNL A   1      45.222  31.085  28.098  1.00  0.00     0.049 A 
ATOM     53  C   UNL A   1      43.024  26.004  27.314  1.00  0.00     0.074 A 
ATOM     54  C   UNL A   1      46.504  31.292  27.621  1.00  0.00     0.029 A 
ATOM     55  N   UNL A   1      44.884  29.779  27.780  1.00  0.00    -0.354 N 
ATOM     56  N   UNL A   1      43.676  27.135  27.432  1.00  0.00    -0.248 NA
ATOM     57  C   UNL A   1      43.741  24.978  26.543  1.00  0.00     0.031 C 
ATOM     58  C   UNL A   1      46.926  30.125  26.976  1.00  0.00     0.029 A 
ATOM     59  C   UNL A   1      45.923  29.176  27.092  1.00  0.00     0.049 A 
ATOM     60  H   UNL A   1      44.030  29.345  28.009  1.00  0.00     0.167 HD
ATOM     61  C   UNL A   1      44.887  26.948  26.777  1.00  0.00     0.074 A 
ATOM     62  C   UNL A   1      44.885  25.590  26.274  1.00  0.00     0.031 C 
ATOM     63  C   UNL A   1      45.910  27.820  26.606  1.00  0.00     0.037 A 
BRANCH  50  64
ATOM     64  C   UNL A   1      44.866  33.399  29.035  1.00  0.00     0.057 A 
ATOM     65  C   UNL A   1      44.614  34.442  28.135  1.00  0.00     0.134 A 
ATOM     66  C   UNL A   1      45.579  33.707  30.200  1.00  0.00     0.134 A 
ATOM     67  F   UNL A   1      43.949  34.210  26.993  1.00  0.00    -0.206 F 
ATOM     68  C   UNL A   1      45.070  35.740  28.376  1.00  0.00     0.040 A 
ATOM     69  C   UNL A   1      46.019  35.004  30.464  1.00  0.00     0.040 A 
ATOM     70  F   UNL A   1      45.850  32.754  31.105  1.00  0.00    -0.206 F 
ATOM     71  C   UNL A   1      45.769  36.025  29.548  1.00  0.00     0.006 A 
ENDBRANCH  50  64
BRANCH  51  72
ATOM     72  C   UNL A   1      41.132  24.259  27.637  1.00  0.00     0.057 A 
ATOM     73  C   UNL A   1      41.631  23.157  28.340  1.00  0.00     0.134 A 
ATOM     74  C   UNL A   1      40.128  24.021  26.691  1.00  0.00     0.134 A 
ATOM     75  F   UNL A   1      42.611  23.317  29.241  1.00  0.00    -0.206 F 
ATOM     76  C   UNL A   1      41.165  21.862  28.096  1.00  0.00     0.040 A 
ATOM     77  C   UNL A   1      39.636  22.737  26.455  1.00  0.00     0.040 A 
ATOM     78  F   UNL A   1      39.610  25.036  25.982  1.00  0.00    -0.206 F 
ATOM     79  C   UNL A   1      40.162  21.651  27.152  1.00  0.00     0.006 A 
ENDBRANCH  51  72
BRANCH  63  80
ATOM     80  C   UNL A   1      47.123  27.325  25.875  1.00  0.00     0.057 A 
ATOM     81  C   UNL A   1      48.152  26.640  26.532  1.00  0.00     0.134 A 
ATOM     82  C   UNL A   1      47.244  27.503  24.491  1.00  0.00     0.134 A 
ATOM     83  F   UNL A   1      48.103  26.447  27.859  1.00  0.00    -0.206 F 
ATOM     84  C   UNL A   1      49.270  26.168  25.842  1.00  0.00     0.040 A 
ATOM     85  C   UNL A   1      48.344  27.015  23.786  1.00  0.00     0.040 A 
ATOM     86  F   UNL A   1      46.288  28.143  23.801  1.00  0.00    -0.206 F 
ATOM     87  C   UNL A   1      49.365  26.350  24.463  1.00  0.00     0.006 A 
ENDBRANCH  63  80
ENDBRANCH  37  38
ENDBRANCH  30  32
ENDBRANCH  29  30
ENDBRANCH  28  29
ENDBRANCH  27  28
ENDBRANCH  26  27
ENDBRANCH   1  26
TORSDOF 17
ENDMDL
MODEL 2
REMARK VINA RESULT:     -11.3      5.330     10.842
REMARK SMILES C[NH2+][C@H]1CC[C@@H](Nc2ccc(C(=O)OCCOCCOC(=O)c3ccc(-c4c5nc(c(-c6c(F)cccc6F)c6ccc([nH]6)c(-c6c(F)cccc6F)c6nc(c(-c7c(F)cccc7F)c7ccc4[nH]7)C=C6)C=C5)cc3)c(F)c2F)CC1
REMARK SMILES IDX 16 1 15 2 14 3 12 4 13 5 11 6 8 7 9 8 79 9 10 10 77 11 80 12
REMARK SMILES IDX 78 13 7 14 6 16 3 17 82 18 4 19 81 20 5 21 2 22 1 23 17 26
REMARK SMILES IDX 18 27 19 28 20 29 21 30 22 31 23 32 24 33 76 34 25 35 75 36
REMARK SMILES IDX 26 37 27 38 28 39 69 40 29 41 74 42 68 43 70 44 30 45 73 46
REMARK SMILES IDX 67 47 66 48 31 50 57 51 40 52 56 53 41 54 44 55 55 56 71 57
REMARK SMILES IDX 42 58 43 59 54 61 72 62 45 63 32 64 33 65 38 66 34 67 35 68
REMARK SMILES IDX 37 69 39 70 36 71 58 72 59 73 64 74 60 75 61 76 63 77 65 78
REMARK SMILES IDX 62 79 46 80 47 81 52 82 48 83 49 84 51 85 53 86 50 87
REMARK H PARENT 7 15 2 24 2 25 70 49 44 60
REMARK Flexibility Score: inf
ROOT
ATOM      1  C   UNL A   1      44.446  18.991  25.042  1.00  0.00     0.202 C 
ENDROOT
BRANCH   1   2
ATOM      2  C   UNL A   1      43.201  18.350  25.659  1.00  0.00     0.261 C 
BRANCH   2   3
ATOM      3  O   UNL A   1      42.033  19.153  25.407  1.00  0.00    -0.460 OA
BRANCH   3   4
ATOM      4  C   UNL A   1      41.418  19.651  26.502  1.00  0.00     0.341 C 
ATOM      5  O   UNL A   1      41.865  19.699  27.641  1.00  0.00    -0.246 OA
BRANCH   4   6
ATOM      6  C   UNL A   1      40.169  20.330  26.126  1.00  0.00     0.099 A 
ATOM      7  C   UNL A   1      37.792  21.565  25.243  1.00  0.00     0.074 A 
ATOM      8  C   UNL A   1      38.042  20.223  24.951  1.00  0.00     0.030 A 
ATOM      9  C   UNL A   1      38.738  22.251  26.030  1.00  0.00     0.182 A 
ATOM     10  C   UNL A   1      39.234  19.615  25.366  1.00  0.00     0.021 A 
ATOM     11  C   UNL A   1      39.907  21.645  26.479  1.00  0.00     0.175 A 
ATOM     12  F   UNL A   1      38.499  23.532  26.362  1.00  0.00    -0.201 F 
ATOM     13  F   UNL A   1      40.770  22.351  27.224  1.00  0.00    -0.203 F 
BRANCH   7  14
ATOM     14  N   UNL A   1      36.658  22.234  24.816  1.00  0.00    -0.380 N 
ATOM     15  H   UNL A   1      36.754  22.824  24.033  1.00  0.00     0.160 HD
BRANCH  14  16
ATOM     16  C   UNL A   1      35.336  22.143  25.423  1.00  0.00     0.079 C 
ATOM     17  C   UNL A   1      33.743  24.335  24.132  1.00  0.00     0.182 C 
ATOM     18  C   UNL A   1      34.043  23.013  23.405  1.00  0.00     0.067 C 
ATOM     19  C   UNL A   1      34.823  24.640  25.180  1.00  0.00     0.067 C 
ATOM     20  C   UNL A   1      34.254  21.854  24.379  1.00  0.00     0.031 C 
ATOM     21  C   UNL A   1      35.040  23.469  26.145  1.00  0.00     0.031 C 
BRANCH  17  22
ATOM     22  N   UNL A   1      33.668  25.410  23.133  1.00  0.00    -0.346 N 
ATOM     23  C   UNL A   1      32.990  24.999  21.910  1.00  0.00     0.331 C 
ATOM     24  H   UNL A   1      33.160  26.196  23.538  1.00  0.00     0.346 HD
ATOM     25  H   UNL A   1      34.624  25.664  22.883  1.00  0.00     0.346 HD
ENDBRANCH  17  22
ENDBRANCH  14  16
ENDBRANCH   7  14
ENDBRANCH   4   6
ENDBRANCH   3   4
ENDBRANCH   2   3
ENDBRANCH   1   2
BRANCH   1  26
ATOM     26  O   UNL A   1      44.219  20.176  24.276  1.00  0.00    -0.374 OA
BRANCH  26  27
ATOM     27  C   UNL A   1      44.681  21.406  24.836  1.00  0.00     0.202 C 
BRANCH  27  28
ATOM     28  C   UNL A   1      44.595  22.634  23.922  1.00  0.00     0.261 C 
BRANCH  28  29
ATOM     29  O   UNL A   1      43.765  23.665  24.487  1.00  0.00    -0.460 OA
BRANCH  29  30
ATOM     30  C   UNL A   1      44.445  24.710  25.013  1.00  0.00     0.338 C 
ATOM     31  O   UNL A   1      45.577  25.074  24.727  1.00  0.00    -0.246 OA
BRANCH  30  32
ATOM     32  C   UNL A   1      43.573  25.497  25.903  1.00  0.00     0.060 A 
ATOM     33  C   UNL A   1      43.905  26.843  26.094  1.00  0.00     0.016 A 
ATOM     34  C   UNL A   1      42.511  24.922  26.607  1.00  0.00     0.016 A 
ATOM     35  C   UNL A   1      43.222  27.604  27.039  1.00  0.00     0.010 A 
ATOM     36  C   UNL A   1      41.828  25.686  27.560  1.00  0.00     0.010 A 
ATOM     37  C   UNL A   1      42.210  27.017  27.811  1.00  0.00    -0.014 A 
BRANCH  37  38
ATOM     38  C   UNL A   1      41.679  27.759  28.981  1.00  0.00     0.031 A 
ATOM     39  C   UNL A   1      42.399  27.656  30.299  1.00  0.00     0.074 A 
ATOM     40  C   UNL A   1      40.613  28.570  28.858  1.00  0.00     0.049 A 
ATOM     41  N   UNL A   1      42.137  28.246  31.437  1.00  0.00    -0.248 NA
ATOM     42  C   UNL A   1      43.576  26.773  30.336  1.00  0.00     0.031 C 
ATOM     43  C   UNL A   1      39.853  28.784  27.629  1.00  0.00     0.029 A 
ATOM     44  N   UNL A   1      39.993  29.370  29.784  1.00  0.00    -0.354 N 
ATOM     45  C   UNL A   1      43.116  27.811  32.322  1.00  0.00     0.074 A 
ATOM     46  C   UNL A   1      43.955  26.878  31.601  1.00  0.00     0.031 C 
ATOM     47  C   UNL A   1      38.865  29.663  27.876  1.00  0.00     0.029 A 
ATOM     48  C   UNL A   1      38.911  30.053  29.284  1.00  0.00     0.049 A 
ATOM     49  H   UNL A   1      40.294  29.447  30.718  1.00  0.00     0.167 HD
ATOM     50  C   UNL A   1      43.309  28.167  33.614  1.00  0.00     0.037 A 
ATOM     51  C   UNL A   1      38.053  30.889  29.897  1.00  0.00     0.037 A 
ATOM     52  C   UNL A   1      42.478  29.095  34.334  1.00  0.00     0.049 A 
ATOM     53  C   UNL A   1      38.246  31.212  31.356  1.00  0.00     0.074 A 
ATOM     54  C   UNL A   1      42.599  29.527  35.643  1.00  0.00     0.029 A 
ATOM     55  N   UNL A   1      41.365  29.730  33.805  1.00  0.00    -0.354 N 
ATOM     56  N   UNL A   1      39.190  30.816  32.174  1.00  0.00    -0.248 NA
ATOM     57  C   UNL A   1      37.253  32.103  31.975  1.00  0.00     0.031 C 
ATOM     58  C   UNL A   1      41.536  30.392  35.919  1.00  0.00     0.029 A 
ATOM     59  C   UNL A   1      40.778  30.533  34.768  1.00  0.00     0.049 A 
ATOM     60  H   UNL A   1      41.040  29.626  32.881  1.00  0.00     0.167 HD
ATOM     61  C   UNL A   1      38.923  31.429  33.392  1.00  0.00     0.074 A 
ATOM     62  C   UNL A   1      37.734  32.235  33.202  1.00  0.00     0.031 C 
ATOM     63  C   UNL A   1      39.600  31.336  34.562  1.00  0.00     0.037 A 
BRANCH  50  64
ATOM     64  C   UNL A   1      44.463  27.539  34.338  1.00  0.00     0.057 A 
ATOM     65  C   UNL A   1      45.721  28.153  34.393  1.00  0.00     0.134 A 
ATOM     66  C   UNL A   1      44.305  26.325  35.017  1.00  0.00     0.134 A 
ATOM     67  F   UNL A   1      45.942  29.310  33.751  1.00  0.00    -0.206 F 
ATOM     68  C   UNL A   1      46.786  27.573  35.084  1.00  0.00     0.040 A 
ATOM     69  C   UNL A   1      45.355  25.746  35.730  1.00  0.00     0.040 A 
ATOM     70  F   UNL A   1      43.124  25.687  35.008  1.00  0.00    -0.206 F 
ATOM     71  C   UNL A   1      46.602  26.368  35.761  1.00  0.00     0.006 A 
ENDBRANCH  50  64
BRANCH  51  72
ATOM     72  C   UNL A   1      36.921  31.482  29.142  1.00  0.00     0.057 A 
ATOM     73  C   UNL A   1      36.957  32.811  28.705  1.00  0.00     0.134 A 
ATOM     74  C   UNL A   1      35.762  30.745  28.871  1.00  0.00     0.134 A 
ATOM     75  F   UNL A   1      38.029  33.577  28.956  1.00  0.00    -0.206 F 
ATOM     76  C   UNL A   1      35.874  33.392  28.041  1.00  0.00     0.040 A 
ATOM     77  C   UNL A   1      34.682  31.305  28.188  1.00  0.00     0.040 A 
ATOM     78  F   UNL A   1      35.664  29.467  29.267  1.00  0.00    -0.206 F 
ATOM     79  C   UNL A   1      34.733  32.637  27.779  1.00  0.00     0.006 A 
ENDBRANCH  51  72
BRANCH  63  80
ATOM     80  C   UNL A   1      39.093  32.147  35.718  1.00  0.00     0.057 A 
ATOM     81  C   UNL A   1      39.425  33.499  35.873  1.00  0.00     0.134 A 
ATOM     82  C   UNL A   1      38.231  31.578  36.665  1.00  0.00     0.134 A 
ATOM     83  F   UNL A   1      40.255  34.099  35.007  1.00  0.00    -0.206 F 
ATOM     84  C   UNL A   1      38.936  34.251  36.943  1.00  0.00     0.040 A 
ATOM     85  C   UNL A   1      37.716  32.326  37.724  1.00  0.00     0.040 A 
ATOM     86  F   UNL A   1      37.867  30.292  36.568  1.00  0.00    -0.206 F 
ATOM     87  C   UNL A   1      38.073  33.666  37.868  1.00  0.00     0.006 A 
ENDBRANCH  63  80
ENDBRANCH  37  38
ENDBRANCH  30  32
ENDBRANCH  29  30
ENDBRANCH  28  29
ENDBRANCH  27  28
ENDBRANCH  26  27
ENDBRANCH   1  26
TORSDOF 17
ENDMDL
MODEL 3
REMARK VINA RESULT:     -11.2      5.199     10.521
REMARK SMILES C[NH2+][C@H]1CC[C@@H](Nc2ccc(C(=O)OCCOCCOC(=O)c3ccc(-c4c5nc(c(-c6c(F)cccc6F)c6ccc([nH]6)c(-c6c(F)cccc6F)c6nc(c(-c7c(F)cccc7F)c7ccc4[nH]7)C=C6)C=C5)cc3)c(F)c2F)CC1
REMARK SMILES IDX 16 1 15 2 14 3 12 4 13 5 11 6 8 7 9 8 79 9 10 10 77 11 80 12
REMARK SMILES IDX 78 13 7 14 6 16 3 17 82 18 4 19 81 20 5 21 2 22 1 23 17 26
REMARK SMILES IDX 18 27 19 28 20 29 21 30 22 31 23 32 24 33 76 34 25 35 75 36
REMARK SMILES IDX 26 37 27 38 28 39 69 40 29 41 74 42 68 43 70 44 30 45 73 46
REMARK SMILES IDX 67 47 66 48 31 50 57 51 40 52 56 53 41 54 44 55 55 56 71 57
REMARK SMILES IDX 42 58 43 59 54 61 72 62 45 63 32 64 33 65 38 66 34 67 35 68
REMARK SMILES IDX 37 69 39 70 36 71 58 72 59 73 64 74 60 75 61 76 63 77 65 78
REMARK SMILES IDX 62 79 46 80 47 81 52 82 48 83 49 84 51 85 53 86 50 87
REMARK H PARENT 7 15 2 24 2 25 70 49 44 60
REMARK Flexibility Score: inf
ROOT
ATOM      1  C   UNL A   1      43.407  19.837  25.579  1.00  0.00     0.202 C 
ENDROOT
BRANCH   1   2
ATOM      2  C   UNL A   1      42.676  20.934  26.357  1.00  0.00     0.261 C 
BRANCH   2   3
ATOM      3  O   UNL A   1      41.276  20.949  26.028  1.00  0.00    -0.460 OA
BRANCH   3   4
ATOM      4  C   UNL A   1      40.459  21.473  26.969  1.00  0.00     0.341 C 
ATOM      5  O   UNL A   1      40.709  21.632  28.157  1.00  0.00    -0.246 OA
BRANCH   4   6
ATOM      6  C   UNL A   1      39.249  22.030  26.347  1.00  0.00     0.099 A 
ATOM      7  C   UNL A   1      36.891  23.179  25.307  1.00  0.00     0.074 A 
ATOM      8  C   UNL A   1      37.798  23.957  26.031  1.00  0.00     0.030 A 
ATOM      9  C   UNL A   1      37.225  21.829  25.077  1.00  0.00     0.182 A 
ATOM     10  C   UNL A   1      38.956  23.382  26.570  1.00  0.00     0.021 A 
ATOM     11  C   UNL A   1      38.392  21.258  25.577  1.00  0.00     0.175 A 
ATOM     12  F   UNL A   1      36.390  21.070  24.345  1.00  0.00    -0.201 F 
ATOM     13  F   UNL A   1      38.653  19.967  25.325  1.00  0.00    -0.203 F 
BRANCH   7  14
ATOM     14  N   UNL A   1      35.706  23.677  24.794  1.00  0.00    -0.380 N 
ATOM     15  H   UNL A   1      35.593  23.648  23.817  1.00  0.00     0.160 HD
BRANCH  14  16
ATOM     16  C   UNL A   1      34.612  24.242  25.574  1.00  0.00     0.079 C 
ATOM     17  C   UNL A   1      32.541  22.071  25.681  1.00  0.00     0.182 C 
ATOM     18  C   UNL A   1      33.803  22.033  26.559  1.00  0.00     0.067 C 
ATOM     19  C   UNL A   1      32.792  22.877  24.398  1.00  0.00     0.067 C 
ATOM     20  C   UNL A   1      34.348  23.432  26.847  1.00  0.00     0.031 C 
ATOM     21  C   UNL A   1      33.352  24.274  24.692  1.00  0.00     0.031 C 
BRANCH  17  22
ATOM     22  N   UNL A   1      32.154  20.691  25.361  1.00  0.00    -0.346 N 
ATOM     23  C   UNL A   1      33.295  19.786  25.290  1.00  0.00     0.331 C 
ATOM     24  H   UNL A   1      31.518  20.355  26.084  1.00  0.00     0.346 HD
ATOM     25  H   UNL A   1      31.713  20.701  24.442  1.00  0.00     0.346 HD
ENDBRANCH  17  22
ENDBRANCH  14  16
ENDBRANCH   7  14
ENDBRANCH   4   6
ENDBRANCH   3   4
ENDBRANCH   2   3
ENDBRANCH   1   2
BRANCH   1  26
ATOM     26  O   UNL A   1      44.029  20.252  24.361  1.00  0.00    -0.374 OA
BRANCH  26  27
ATOM     27  C   UNL A   1      45.054  21.241  24.463  1.00  0.00     0.202 C 
BRANCH  27  28
ATOM     28  C   UNL A   1      44.762  22.584  23.783  1.00  0.00     0.261 C 
BRANCH  28  29
ATOM     29  O   UNL A   1      43.949  23.438  24.607  1.00  0.00    -0.460 OA
BRANCH  29  30
ATOM     30  C   UNL A   1      44.557  24.578  25.007  1.00  0.00     0.338 C 
ATOM     31  O   UNL A   1      45.624  25.026  24.609  1.00  0.00    -0.246 OA
BRANCH  30  32
ATOM     32  C   UNL A   1      43.678  25.343  25.909  1.00  0.00     0.060 A 
ATOM     33  C   UNL A   1      43.973  26.700  26.089  1.00  0.00     0.016 A 
ATOM     34  C   UNL A   1      42.647  24.739  26.634  1.00  0.00     0.016 A 
ATOM     35  C   UNL A   1      43.284  27.444  27.043  1.00  0.00     0.010 A 
ATOM     36  C   UNL A   1      41.958  25.487  27.597  1.00  0.00     0.010 A 
ATOM     37  C   UNL A   1      42.304  26.830  27.836  1.00  0.00    -0.014 A 
BRANCH  37  38
ATOM     38  C   UNL A   1      41.771  27.561  29.012  1.00  0.00     0.031 A 
ATOM     39  C   UNL A   1      42.487  27.441  30.331  1.00  0.00     0.074 A 
ATOM     40  C   UNL A   1      40.709  28.377  28.894  1.00  0.00     0.049 A 
ATOM     41  N   UNL A   1      42.223  28.018  31.475  1.00  0.00    -0.248 NA
ATOM     42  C   UNL A   1      43.660  26.552  30.363  1.00  0.00     0.031 C 
ATOM     43  C   UNL A   1      39.954  28.609  27.664  1.00  0.00     0.029 A 
ATOM     44  N   UNL A   1      40.089  29.169  29.827  1.00  0.00    -0.354 N 
ATOM     45  C   UNL A   1      43.197  27.570  32.359  1.00  0.00     0.074 A 
ATOM     46  C   UNL A   1      44.035  26.642  31.630  1.00  0.00     0.031 C 
ATOM     47  C   UNL A   1      38.969  29.488  27.918  1.00  0.00     0.029 A 
ATOM     48  C   UNL A   1      39.011  29.862  29.331  1.00  0.00     0.049 A 
ATOM     49  H   UNL A   1      40.387  29.234  30.762  1.00  0.00     0.167 HD
ATOM     50  C   UNL A   1      43.386  27.911  33.655  1.00  0.00     0.037 A 
ATOM     51  C   UNL A   1      38.154  30.695  29.950  1.00  0.00     0.037 A 
ATOM     52  C   UNL A   1      42.556  28.833  34.382  1.00  0.00     0.049 A 
ATOM     53  C   UNL A   1      38.343  31.000  31.413  1.00  0.00     0.074 A 
ATOM     54  C   UNL A   1      42.675  29.250  35.696  1.00  0.00     0.029 A 
ATOM     55  N   UNL A   1      41.448  29.479  33.856  1.00  0.00    -0.354 N 
ATOM     56  N   UNL A   1      39.283  30.591  32.230  1.00  0.00    -0.248 NA
ATOM     57  C   UNL A   1      37.352  31.888  32.038  1.00  0.00     0.031 C 
ATOM     58  C   UNL A   1      41.613  30.116  35.979  1.00  0.00     0.029 A 
ATOM     59  C   UNL A   1      40.860  30.273  34.827  1.00  0.00     0.049 A 
ATOM     60  H   UNL A   1      41.126  29.386  32.930  1.00  0.00     0.167 HD
ATOM     61  C   UNL A   1      39.014  31.192  33.454  1.00  0.00     0.074 A 
ATOM     62  C   UNL A   1      37.829  32.004  33.269  1.00  0.00     0.031 C 
ATOM     63  C   UNL A   1      39.687  31.083  34.625  1.00  0.00     0.037 A 
BRANCH  50  64
ATOM     64  C   UNL A   1      44.535  27.270  34.376  1.00  0.00     0.057 A 
ATOM     65  C   UNL A   1      44.391  26.057  35.062  1.00  0.00     0.134 A 
ATOM     66  C   UNL A   1      45.807  27.855  34.355  1.00  0.00     0.134 A 
ATOM     67  F   UNL A   1      43.195  25.453  35.132  1.00  0.00    -0.206 F 
ATOM     68  C   UNL A   1      45.468  25.456  35.716  1.00  0.00     0.040 A 
ATOM     69  C   UNL A   1      46.897  27.253  34.986  1.00  0.00     0.040 A 
ATOM     70  F   UNL A   1      46.014  29.015  33.713  1.00  0.00    -0.206 F 
ATOM     71  C   UNL A   1      46.728  26.052  35.673  1.00  0.00     0.006 A 
ENDBRANCH  50  64
BRANCH  51  72
ATOM     72  C   UNL A   1      37.027  31.301  29.197  1.00  0.00     0.057 A 
ATOM     73  C   UNL A   1      35.879  30.563  28.890  1.00  0.00     0.134 A 
ATOM     74  C   UNL A   1      37.089  32.621  28.736  1.00  0.00     0.134 A 
ATOM     75  F   UNL A   1      35.772  29.285  29.283  1.00  0.00    -0.206 F 
ATOM     76  C   UNL A   1      34.838  31.110  28.135  1.00  0.00     0.040 A 
ATOM     77  C   UNL A   1      36.047  33.188  28.002  1.00  0.00     0.040 A 
ATOM     78  F   UNL A   1      38.165  33.380  28.995  1.00  0.00    -0.206 F 
ATOM     79  C   UNL A   1      34.921  32.428  27.691  1.00  0.00     0.006 A 
ENDBRANCH  51  72
BRANCH  63  80
ATOM     80  C   UNL A   1      39.178  31.883  35.788  1.00  0.00     0.057 A 
ATOM     81  C   UNL A   1      38.264  31.353  36.706  1.00  0.00     0.134 A 
ATOM     82  C   UNL A   1      39.641  33.187  36.013  1.00  0.00     0.134 A 
ATOM     83  F   UNL A   1      37.774  30.116  36.540  1.00  0.00    -0.206 F 
ATOM     84  C   UNL A   1      37.808  32.099  37.795  1.00  0.00     0.040 A 
ATOM     85  C   UNL A   1      39.212  33.933  37.111  1.00  0.00     0.040 A 
ATOM     86  F   UNL A   1      40.525  33.750  35.177  1.00  0.00    -0.206 F 
ATOM     87  C   UNL A   1      38.288  33.391  38.003  1.00  0.00     0.006 A 
ENDBRANCH  63  80
ENDBRANCH  37  38
ENDBRANCH  30  32
ENDBRANCH  29  30
ENDBRANCH  28  29
ENDBRANCH  27  28
ENDBRANCH  26  27
ENDBRANCH   1  26
TORSDOF 17
ENDMDL
