MODEL 1
REMARK VINA RESULT:     -11.2      0.000      0.000
REMARK SMILES CCc1cccc(NC(=O)N2CCO[C@@H](CC(=O)OCCOCCOC(=O)c3ccc(-c4c5nc(c(-c6c(F)cccc6F)c6ccc([nH]6)c(-c6c(F)cccc6F)c6nc(c(-c7c(F)cccc7F)c7ccc4[nH]7)C=C6)C=C5)cc3)C2)c1
REMARK SMILES IDX 21 1 20 2 19 3 17 4 18 5 16 6 15 7 11 8 12 9 82 10 13 11
REMARK SMILES IDX 14 12 9 13 8 14 10 16 7 17 3 18 4 19 83 20 5 21 6 22 2 23
REMARK SMILES IDX 1 24 22 25 23 26 24 27 25 28 26 29 27 30 28 31 29 32 81 33
REMARK SMILES IDX 30 34 80 35 31 36 32 37 33 38 74 39 34 40 79 41 73 42 75 43
REMARK SMILES IDX 35 44 78 45 72 46 71 47 36 49 62 50 45 51 61 52 46 53 49 54
REMARK SMILES IDX 60 55 76 56 47 57 48 58 59 60 77 61 50 62 37 63 38 64 43 65
REMARK SMILES IDX 39 66 40 67 42 68 44 69 41 70 63 71 64 72 69 73 65 74 66 75
REMARK SMILES IDX 68 76 70 77 67 78 51 79 52 80 57 81 53 82 54 83 56 84 58 85
REMARK SMILES IDX 55 86
REMARK H PARENT 8 15 75 48 49 59
REMARK Flexibility Score: inf
ROOT
ATOM      1  C   UNL A   1      34.436  34.297  28.018  1.00  0.00     0.202 C 
ENDROOT
BRANCH   1   2
ATOM      2  C   UNL A   1      33.924  32.862  27.890  1.00  0.00     0.261 C 
BRANCH   2   3
ATOM      3  O   UNL A   1      34.991  31.932  27.620  1.00  0.00    -0.463 OA
BRANCH   3   4
ATOM      4  C   UNL A   1      34.629  30.626  27.554  1.00  0.00     0.308 C 
ATOM      5  O   UNL A   1      35.407  29.688  27.443  1.00  0.00    -0.252 OA
BRANCH   4   6
ATOM      6  C   UNL A   1      33.136  30.453  27.545  1.00  0.00     0.156 C 
BRANCH   6   7
ATOM      7  C   UNL A   1      32.505  29.551  26.486  1.00  0.00     0.149 C 
ATOM      8  N   UNL A   1      32.564  28.483  24.277  1.00  0.00    -0.320 N 
ATOM      9  C   UNL A   1      32.497  27.157  24.890  1.00  0.00     0.150 C 
ATOM     10  C   UNL A   1      33.224  29.488  25.121  1.00  0.00     0.154 C 
ATOM     11  C   UNL A   1      31.878  27.233  26.286  1.00  0.00     0.182 C 
ATOM     12  O   UNL A   1      32.513  28.230  27.095  1.00  0.00    -0.374 OA
BRANCH   8  13
ATOM     13  C   UNL A   1      32.575  28.619  22.916  1.00  0.00     0.322 C 
ATOM     14  N   UNL A   1      31.396  28.666  22.224  1.00  0.00    -0.308 N 
ATOM     15  H   UNL A   1      31.497  28.516  21.256  1.00  0.00     0.171 HD
ATOM     16  O   UNL A   1      33.632  28.694  22.290  1.00  0.00    -0.248 OA
BRANCH  14  17
ATOM     17  C   UNL A   1      30.062  28.887  22.629  1.00  0.00     0.043 A 
ATOM     18  C   UNL A   1      28.233  30.469  22.977  1.00  0.00    -0.046 A 
ATOM     19  C   UNL A   1      27.360  29.397  23.198  1.00  0.00     0.004 A 
ATOM     20  C   UNL A   1      29.577  30.203  22.656  1.00  0.00     0.029 A 
ATOM     21  C   UNL A   1      27.851  28.100  23.249  1.00  0.00     0.002 A 
ATOM     22  C   UNL A   1      29.209  27.866  23.034  1.00  0.00     0.026 A 
BRANCH  18  23
ATOM     23  C   UNL A   1      27.721  31.877  23.143  1.00  0.00     0.032 C 
ATOM     24  C   UNL A   1      28.779  32.942  22.917  1.00  0.00     0.009 C 
ENDBRANCH  18  23
ENDBRANCH  14  17
ENDBRANCH   8  13
ENDBRANCH   6   7
ENDBRANCH   4   6
ENDBRANCH   3   4
ENDBRANCH   2   3
ENDBRANCH   1   2
BRANCH   1  25
ATOM     25  O   UNL A   1      34.943  34.674  29.295  1.00  0.00    -0.374 OA
BRANCH  25  26
ATOM     26  C   UNL A   1      33.998  34.793  30.358  1.00  0.00     0.202 C 
BRANCH  26  27
ATOM     27  C   UNL A   1      34.360  34.092  31.674  1.00  0.00     0.261 C 
BRANCH  27  28
ATOM     28  O   UNL A   1      34.885  32.770  31.457  1.00  0.00    -0.460 OA
BRANCH  28  29
ATOM     29  C   UNL A   1      35.766  32.330  32.388  1.00  0.00     0.338 C 
ATOM     30  O   UNL A   1      35.619  32.323  33.603  1.00  0.00    -0.246 OA
BRANCH  29  31
ATOM     31  C   UNL A   1      36.896  31.656  31.722  1.00  0.00     0.060 A 
ATOM     32  C   UNL A   1      37.844  30.998  32.515  1.00  0.00     0.016 A 
ATOM     33  C   UNL A   1      37.038  31.685  30.338  1.00  0.00     0.016 A 
ATOM     34  C   UNL A   1      38.942  30.372  31.920  1.00  0.00     0.010 A 
ATOM     35  C   UNL A   1      38.126  31.042  29.741  1.00  0.00     0.010 A 
ATOM     36  C   UNL A   1      39.100  30.404  30.527  1.00  0.00    -0.014 A 
BRANCH  36  37
ATOM     37  C   UNL A   1      40.331  29.870  29.891  1.00  0.00     0.031 A 
ATOM     38  C   UNL A   1      41.500  30.791  29.675  1.00  0.00     0.074 A 
ATOM     39  C   UNL A   1      40.407  28.585  29.499  1.00  0.00     0.049 A 
ATOM     40  N   UNL A   1      42.637  30.564  29.066  1.00  0.00    -0.248 NA
ATOM     41  C   UNL A   1      41.368  32.155  30.211  1.00  0.00     0.031 C 
ATOM     42  C   UNL A   1      39.355  27.585  29.669  1.00  0.00     0.029 A 
ATOM     43  N   UNL A   1      41.416  27.906  28.860  1.00  0.00    -0.354 N 
ATOM     44  C   UNL A   1      43.345  31.757  29.133  1.00  0.00     0.074 A 
ATOM     45  C   UNL A   1      42.500  32.714  29.812  1.00  0.00     0.031 C 
ATOM     46  C   UNL A   1      39.770  26.420  29.142  1.00  0.00     0.029 A 
ATOM     47  C   UNL A   1      41.099  26.604  28.559  1.00  0.00     0.049 A 
ATOM     48  H   UNL A   1      42.285  28.314  28.639  1.00  0.00     0.167 HD
ATOM     49  C   UNL A   1      44.593  32.027  28.681  1.00  0.00     0.037 A 
ATOM     50  C   UNL A   1      41.786  25.676  27.863  1.00  0.00     0.037 A 
ATOM     51  C   UNL A   1      45.436  31.071  28.013  1.00  0.00     0.049 A 
ATOM     52  C   UNL A   1      43.139  26.025  27.299  1.00  0.00     0.074 A 
ATOM     53  C   UNL A   1      46.731  31.239  27.553  1.00  0.00     0.029 A 
ATOM     54  N   UNL A   1      45.065  29.774  27.698  1.00  0.00    -0.354 N 
ATOM     55  N   UNL A   1      43.818  27.142  27.405  1.00  0.00    -0.248 NA
ATOM     56  C   UNL A   1      43.819  24.985  26.511  1.00  0.00     0.031 C 
ATOM     57  C   UNL A   1      47.122  30.062  26.908  1.00  0.00     0.029 A 
ATOM     58  C   UNL A   1      46.091  29.141  27.016  1.00  0.00     0.049 A 
ATOM     59  H   UNL A   1      44.200  29.362  27.926  1.00  0.00     0.167 HD
ATOM     60  C   UNL A   1      45.008  26.933  26.718  1.00  0.00     0.074 A 
ATOM     61  C   UNL A   1      44.968  25.576  26.215  1.00  0.00     0.031 C 
ATOM     62  C   UNL A   1      46.040  27.789  26.521  1.00  0.00     0.037 A 
BRANCH  49  63
ATOM     63  C   UNL A   1      45.115  33.421  28.875  1.00  0.00     0.057 A 
ATOM     64  C   UNL A   1      44.877  34.439  27.943  1.00  0.00     0.134 A 
ATOM     65  C   UNL A   1      45.832  33.759  30.030  1.00  0.00     0.134 A 
ATOM     66  F   UNL A   1      44.206  34.180  26.810  1.00  0.00    -0.206 F 
ATOM     67  C   UNL A   1      45.353  35.736  28.140  1.00  0.00     0.040 A 
ATOM     68  C   UNL A   1      46.289  35.059  30.252  1.00  0.00     0.040 A 
ATOM     69  F   UNL A   1      46.091  32.834  30.967  1.00  0.00    -0.206 F 
ATOM     70  C   UNL A   1      46.056  36.051  29.302  1.00  0.00     0.006 A 
ENDBRANCH  49  63
BRANCH  50  71
ATOM     71  C   UNL A   1      41.201  24.329  27.636  1.00  0.00     0.057 A 
ATOM     72  C   UNL A   1      41.673  23.207  28.328  1.00  0.00     0.134 A 
ATOM     73  C   UNL A   1      40.174  24.126  26.706  1.00  0.00     0.134 A 
ATOM     74  F   UNL A   1      42.673  23.332  29.212  1.00  0.00    -0.206 F 
ATOM     75  C   UNL A   1      41.157  21.932  28.092  1.00  0.00     0.040 A 
ATOM     76  C   UNL A   1      39.630  22.861  26.481  1.00  0.00     0.040 A 
ATOM     77  F   UNL A   1      39.679  25.159  26.007  1.00  0.00    -0.206 F 
ATOM     78  C   UNL A   1      40.127  21.757  27.170  1.00  0.00     0.006 A 
ENDBRANCH  50  71
BRANCH  62  79
ATOM     79  C   UNL A   1      47.224  27.284  25.747  1.00  0.00     0.057 A 
ATOM     80  C   UNL A   1      47.363  27.522  24.373  1.00  0.00     0.134 A 
ATOM     81  C   UNL A   1      48.267  26.607  26.394  1.00  0.00     0.134 A 
ATOM     82  F   UNL A   1      46.396  28.153  23.691  1.00  0.00    -0.206 F 
ATOM     83  C   UNL A   1      48.490  27.092  23.670  1.00  0.00     0.040 A 
ATOM     84  C   UNL A   1      49.410  26.198  25.707  1.00  0.00     0.040 A 
ATOM     85  F   UNL A   1      48.202  26.356  27.711  1.00  0.00    -0.206 F 
ATOM     86  C   UNL A   1      49.522  26.437  24.339  1.00  0.00     0.006 A 
ENDBRANCH  62  79
ENDBRANCH  36  37
ENDBRANCH  29  31
ENDBRANCH  28  29
ENDBRANCH  27  28
ENDBRANCH  26  27
ENDBRANCH  25  26
ENDBRANCH   1  25
TORSDOF 18
ENDMDL
MODEL 2
REMARK VINA RESULT:     -10.8      5.221      9.921
REMARK SMILES CCc1cccc(NC(=O)N2CCO[C@@H](CC(=O)OCCOCCOC(=O)c3ccc(-c4c5nc(c(-c6c(F)cccc6F)c6ccc([nH]6)c(-c6c(F)cccc6F)c6nc(c(-c7c(F)cccc7F)c7ccc4[nH]7)C=C6)C=C5)cc3)C2)c1
REMARK SMILES IDX 21 1 20 2 19 3 17 4 18 5 16 6 15 7 11 8 12 9 82 10 13 11
REMARK SMILES IDX 14 12 9 13 8 14 10 16 7 17 3 18 4 19 83 20 5 21 6 22 2 23
REMARK SMILES IDX 1 24 22 25 23 26 24 27 25 28 26 29 27 30 28 31 29 32 81 33
REMARK SMILES IDX 30 34 80 35 31 36 32 37 33 38 74 39 34 40 79 41 73 42 75 43
REMARK SMILES IDX 35 44 78 45 72 46 71 47 36 49 62 50 45 51 61 52 46 53 49 54
REMARK SMILES IDX 60 55 76 56 47 57 48 58 59 60 77 61 50 62 37 63 38 64 43 65
REMARK SMILES IDX 39 66 40 67 42 68 44 69 41 70 63 71 64 72 69 73 65 74 66 75
REMARK SMILES IDX 68 76 70 77 67 78 51 79 52 80 57 81 53 82 54 83 56 84 58 85
REMARK SMILES IDX 55 86
REMARK H PARENT 8 15 75 48 49 59
REMARK Flexibility Score: inf
ROOT
ATOM      1  C   UNL A   1      39.893  20.751  26.411  1.00  0.00     0.202 C 
ENDROOT
BRANCH   1   2
ATOM      2  C   UNL A   1      39.182  22.055  26.047  1.00  0.00     0.261 C 
BRANCH   2   3
ATOM      3  O   UNL A   1      38.245  21.874  24.968  1.00  0.00    -0.463 OA
BRANCH   3   4
ATOM      4  C   UNL A   1      37.172  21.092  25.247  1.00  0.00     0.308 C 
ATOM      5  O   UNL A   1      37.022  19.942  24.856  1.00  0.00    -0.252 OA
BRANCH   4   6
ATOM      6  C   UNL A   1      36.122  21.830  26.031  1.00  0.00     0.156 C 
BRANCH   6   7
ATOM      7  C   UNL A   1      34.762  22.084  25.384  1.00  0.00     0.149 C 
ATOM      8  N   UNL A   1      33.386  22.519  23.398  1.00  0.00    -0.320 N 
ATOM      9  C   UNL A   1      32.612  21.301  23.638  1.00  0.00     0.150 C 
ATOM     10  C   UNL A   1      34.771  22.439  23.881  1.00  0.00     0.154 C 
ATOM     11  C   UNL A   1      32.687  20.890  25.109  1.00  0.00     0.182 C 
ATOM     12  O   UNL A   1      34.039  20.836  25.578  1.00  0.00    -0.374 OA
BRANCH   8  13
ATOM     13  C   UNL A   1      33.071  23.347  22.357  1.00  0.00     0.322 C 
ATOM     14  N   UNL A   1      32.259  24.428  22.564  1.00  0.00    -0.308 N 
ATOM     15  H   UNL A   1      31.891  24.813  21.736  1.00  0.00     0.171 HD
ATOM     16  O   UNL A   1      33.500  23.139  21.222  1.00  0.00    -0.248 OA
BRANCH  14  17
ATOM     17  C   UNL A   1      31.843  25.097  23.735  1.00  0.00     0.043 A 
ATOM     18  C   UNL A   1      32.387  26.642  25.548  1.00  0.00    -0.046 A 
ATOM     19  C   UNL A   1      31.044  26.642  25.939  1.00  0.00     0.004 A 
ATOM     20  C   UNL A   1      32.773  25.894  24.419  1.00  0.00     0.029 A 
ATOM     21  C   UNL A   1      30.138  25.796  25.314  1.00  0.00     0.002 A 
ATOM     22  C   UNL A   1      30.563  24.981  24.267  1.00  0.00     0.026 A 
BRANCH  18  23
ATOM     23  C   UNL A   1      33.393  27.400  26.378  1.00  0.00     0.032 C 
ATOM     24  C   UNL A   1      33.562  28.849  25.959  1.00  0.00     0.009 C 
ENDBRANCH  18  23
ENDBRANCH  14  17
ENDBRANCH   8  13
ENDBRANCH   6   7
ENDBRANCH   4   6
ENDBRANCH   3   4
ENDBRANCH   2   3
ENDBRANCH   1   2
BRANCH   1  25
ATOM     25  O   UNL A   1      41.110  20.483  25.719  1.00  0.00    -0.374 OA
BRANCH  25  26
ATOM     26  C   UNL A   1      42.306  21.028  26.276  1.00  0.00     0.202 C 
BRANCH  26  27
ATOM     27  C   UNL A   1      43.273  21.698  25.290  1.00  0.00     0.261 C 
BRANCH  27  28
ATOM     28  O   UNL A   1      42.819  23.002  24.887  1.00  0.00    -0.460 OA
BRANCH  28  29
ATOM     29  C   UNL A   1      43.691  24.017  25.098  1.00  0.00     0.338 C 
ATOM     30  O   UNL A   1      44.712  24.261  24.468  1.00  0.00    -0.246 OA
BRANCH  29  31
ATOM     31  C   UNL A   1      43.139  24.944  26.103  1.00  0.00     0.060 A 
ATOM     32  C   UNL A   1      43.647  26.248  26.162  1.00  0.00     0.016 A 
ATOM     33  C   UNL A   1      42.149  24.537  26.993  1.00  0.00     0.016 A 
ATOM     34  C   UNL A   1      43.166  27.145  27.119  1.00  0.00     0.010 A 
ATOM     35  C   UNL A   1      41.654  25.440  27.938  1.00  0.00     0.010 A 
ATOM     36  C   UNL A   1      42.176  26.742  28.026  1.00  0.00    -0.014 A 
BRANCH  36  37
ATOM     37  C   UNL A   1      41.758  27.632  29.138  1.00  0.00     0.031 A 
ATOM     38  C   UNL A   1      42.493  27.561  30.448  1.00  0.00     0.074 A 
ATOM     39  C   UNL A   1      40.729  28.488  28.991  1.00  0.00     0.049 A 
ATOM     40  N   UNL A   1      42.247  28.180  31.575  1.00  0.00    -0.248 NA
ATOM     41  C   UNL A   1      43.658  26.664  30.497  1.00  0.00     0.031 C 
ATOM     42  C   UNL A   1      39.949  28.670  27.769  1.00  0.00     0.029 A 
ATOM     43  N   UNL A   1      40.156  29.355  29.889  1.00  0.00    -0.354 N 
ATOM     44  C   UNL A   1      43.215  27.738  32.467  1.00  0.00     0.074 A 
ATOM     45  C   UNL A   1      44.032  26.774  31.762  1.00  0.00     0.031 C 
ATOM     46  C   UNL A   1      38.993  29.588  27.994  1.00  0.00     0.029 A 
ATOM     47  C   UNL A   1      39.067  30.025  29.387  1.00  0.00     0.049 A 
ATOM     48  H   UNL A   1      40.494  29.486  30.804  1.00  0.00     0.167 HD
ATOM     49  C   UNL A   1      43.414  28.111  33.754  1.00  0.00     0.037 A 
ATOM     50  C   UNL A   1      38.207  30.869  29.992  1.00  0.00     0.037 A 
ATOM     51  C   UNL A   1      42.606  29.075  34.451  1.00  0.00     0.049 A 
ATOM     52  C   UNL A   1      38.400  31.207  31.448  1.00  0.00     0.074 A 
ATOM     53  C   UNL A   1      42.752  29.548  35.744  1.00  0.00     0.029 A 
ATOM     54  N   UNL A   1      41.493  29.706  33.918  1.00  0.00    -0.354 N 
ATOM     55  N   UNL A   1      39.343  30.816  32.271  1.00  0.00    -0.248 NA
ATOM     56  C   UNL A   1      37.402  32.097  32.062  1.00  0.00     0.031 C 
ATOM     57  C   UNL A   1      41.694  30.420  36.013  1.00  0.00     0.029 A 
ATOM     58  C   UNL A   1      40.919  30.534  34.869  1.00  0.00     0.049 A 
ATOM     59  H   UNL A   1      41.158  29.584  33.001  1.00  0.00     0.167 HD
ATOM     60  C   UNL A   1      39.066  31.427  33.487  1.00  0.00     0.074 A 
ATOM     61  C   UNL A   1      37.877  32.230  33.292  1.00  0.00     0.031 C 
ATOM     62  C   UNL A   1      39.736  31.330  34.662  1.00  0.00     0.037 A 
BRANCH  49  63
ATOM     63  C   UNL A   1      44.540  27.455  34.500  1.00  0.00     0.057 A 
ATOM     64  C   UNL A   1      45.826  28.007  34.539  1.00  0.00     0.134 A 
ATOM     65  C   UNL A   1      44.323  26.274  35.223  1.00  0.00     0.134 A 
ATOM     66  F   UNL A   1      46.104  29.131  33.860  1.00  0.00    -0.206 F 
ATOM     67  C   UNL A   1      46.862  27.398  35.248  1.00  0.00     0.040 A 
ATOM     68  C   UNL A   1      45.343  25.671  35.959  1.00  0.00     0.040 A 
ATOM     69  F   UNL A   1      43.113  25.694  35.234  1.00  0.00    -0.206 F 
ATOM     70  C   UNL A   1      46.619  26.228  35.968  1.00  0.00     0.006 A 
ENDBRANCH  49  63
BRANCH  50  71
ATOM     71  C   UNL A   1      37.066  31.442  29.232  1.00  0.00     0.057 A 
ATOM     72  C   UNL A   1      37.114  32.746  28.723  1.00  0.00     0.134 A 
ATOM     73  C   UNL A   1      35.890  30.712  29.017  1.00  0.00     0.134 A 
ATOM     74  F   UNL A   1      38.201  33.506  28.918  1.00  0.00    -0.206 F 
ATOM     75  C   UNL A   1      36.032  33.306  28.043  1.00  0.00     0.040 A 
ATOM     76  C   UNL A   1      34.812  31.249  28.315  1.00  0.00     0.040 A 
ATOM     77  F   UNL A   1      35.778  29.458  29.482  1.00  0.00    -0.206 F 
ATOM     78  C   UNL A   1      34.877  32.554  27.832  1.00  0.00     0.006 A 
ENDBRANCH  50  71
BRANCH  62  79
ATOM     79  C   UNL A   1      39.217  32.125  35.826  1.00  0.00     0.057 A 
ATOM     80  C   UNL A   1      39.601  33.455  36.042  1.00  0.00     0.134 A 
ATOM     81  C   UNL A   1      38.273  31.575  36.704  1.00  0.00     0.134 A 
ATOM     82  F   UNL A   1      40.510  34.038  35.245  1.00  0.00    -0.206 F 
ATOM     83  C   UNL A   1      39.077  34.203  37.097  1.00  0.00     0.040 A 
ATOM     84  C   UNL A   1      37.721  32.322  37.746  1.00  0.00     0.040 A 
ATOM     85  F   UNL A   1      37.854  30.310  36.548  1.00  0.00    -0.206 F 
ATOM     86  C   UNL A   1      38.126  33.640  37.946  1.00  0.00     0.006 A 
ENDBRANCH  62  79
ENDBRANCH  36  37
ENDBRANCH  29  31
ENDBRANCH  28  29
ENDBRANCH  27  28
ENDBRANCH  26  27
ENDBRANCH  25  26
ENDBRANCH   1  25
TORSDOF 18
ENDMDL
MODEL 3
REMARK VINA RESULT:     -10.6      1.814      3.431
REMARK SMILES CCc1cccc(NC(=O)N2CCO[C@@H](CC(=O)OCCOCCOC(=O)c3ccc(-c4c5nc(c(-c6c(F)cccc6F)c6ccc([nH]6)c(-c6c(F)cccc6F)c6nc(c(-c7c(F)cccc7F)c7ccc4[nH]7)C=C6)C=C5)cc3)C2)c1
REMARK SMILES IDX 21 1 20 2 19 3 17 4 18 5 16 6 15 7 11 8 12 9 82 10 13 11
REMARK SMILES IDX 14 12 9 13 8 14 10 16 7 17 3 18 4 19 83 20 5 21 6 22 2 23
REMARK SMILES IDX 1 24 22 25 23 26 24 27 25 28 26 29 27 30 28 31 29 32 81 33
REMARK SMILES IDX 30 34 80 35 31 36 32 37 33 38 74 39 34 40 79 41 73 42 75 43
REMARK SMILES IDX 35 44 78 45 72 46 71 47 36 49 62 50 45 51 61 52 46 53 49 54
REMARK SMILES IDX 60 55 76 56 47 57 48 58 59 60 77 61 50 62 37 63 38 64 43 65
REMARK SMILES IDX 39 66 40 67 42 68 44 69 41 70 63 71 64 72 69 73 65 74 66 75
REMARK SMILES IDX 68 76 70 77 67 78 51 79 52 80 57 81 53 82 54 83 56 84 58 85
REMARK SMILES IDX 55 86
REMARK H PARENT 8 15 75 48 49 59
REMARK Flexibility Score: inf
ROOT
ATOM      1  C   UNL A   1      34.375  32.616  28.002  1.00  0.00     0.202 C 
ENDROOT
BRANCH   1   2
ATOM      2  C   UNL A   1      34.363  31.089  27.918  1.00  0.00     0.261 C 
BRANCH   2   3
ATOM      3  O   UNL A   1      33.425  30.612  26.935  1.00  0.00    -0.463 OA
BRANCH   3   4
ATOM      4  C   UNL A   1      33.756  29.446  26.324  1.00  0.00     0.308 C 
ATOM      5  O   UNL A   1      34.384  28.535  26.846  1.00  0.00    -0.252 OA
BRANCH   4   6
ATOM      6  C   UNL A   1      33.337  29.425  24.880  1.00  0.00     0.156 C 
BRANCH   6   7
ATOM      7  C   UNL A   1      32.790  28.128  24.290  1.00  0.00     0.149 C 
ATOM      8  N   UNL A   1      30.899  26.721  23.603  1.00  0.00    -0.320 N 
ATOM      9  C   UNL A   1      31.397  26.682  22.228  1.00  0.00     0.150 C 
ATOM     10  C   UNL A   1      31.256  27.950  24.323  1.00  0.00     0.154 C 
ATOM     11  C   UNL A   1      32.900  26.959  22.186  1.00  0.00     0.182 C 
ATOM     12  O   UNL A   1      33.241  28.148  22.908  1.00  0.00    -0.374 OA
BRANCH   8  13
ATOM     13  C   UNL A   1      29.776  26.024  23.955  1.00  0.00     0.322 C 
ATOM     14  N   UNL A   1      29.889  24.771  24.492  1.00  0.00    -0.308 N 
ATOM     15  H   UNL A   1      29.050  24.257  24.483  1.00  0.00     0.171 HD
ATOM     16  O   UNL A   1      28.653  26.499  23.792  1.00  0.00    -0.248 OA
BRANCH  14  17
ATOM     17  C   UNL A   1      30.977  24.072  25.057  1.00  0.00     0.043 A 
ATOM     18  C   UNL A   1      32.731  22.392  24.788  1.00  0.00    -0.046 A 
ATOM     19  C   UNL A   1      33.286  22.789  26.010  1.00  0.00     0.004 A 
ATOM     20  C   UNL A   1      31.595  23.065  24.300  1.00  0.00     0.029 A 
ATOM     21  C   UNL A   1      32.635  23.729  26.797  1.00  0.00     0.002 A 
ATOM     22  C   UNL A   1      31.450  24.307  26.344  1.00  0.00     0.026 A 
BRANCH  18  23
ATOM     23  C   UNL A   1      33.333  21.219  24.056  1.00  0.00     0.032 C 
ATOM     24  C   UNL A   1      32.461  19.976  24.075  1.00  0.00     0.009 C 
ENDBRANCH  18  23
ENDBRANCH  14  17
ENDBRANCH   8  13
ENDBRANCH   6   7
ENDBRANCH   4   6
ENDBRANCH   3   4
ENDBRANCH   2   3
ENDBRANCH   1   2
BRANCH   1  25
ATOM     25  O   UNL A   1      33.638  33.193  29.077  1.00  0.00    -0.374 OA
BRANCH  25  26
ATOM     26  C   UNL A   1      34.291  34.208  29.839  1.00  0.00     0.202 C 
BRANCH  26  27
ATOM     27  C   UNL A   1      34.533  33.898  31.322  1.00  0.00     0.261 C 
BRANCH  27  28
ATOM     28  O   UNL A   1      34.802  32.502  31.546  1.00  0.00    -0.460 OA
BRANCH  28  29
ATOM     29  C   UNL A   1      35.775  32.231  32.449  1.00  0.00     0.338 C 
ATOM     30  O   UNL A   1      35.710  32.346  33.666  1.00  0.00    -0.246 OA
BRANCH  29  31
ATOM     31  C   UNL A   1      36.908  31.571  31.775  1.00  0.00     0.060 A 
ATOM     32  C   UNL A   1      37.869  30.922  32.560  1.00  0.00     0.016 A 
ATOM     33  C   UNL A   1      37.041  31.605  30.389  1.00  0.00     0.016 A 
ATOM     34  C   UNL A   1      38.970  30.310  31.956  1.00  0.00     0.010 A 
ATOM     35  C   UNL A   1      38.132  30.975  29.784  1.00  0.00     0.010 A 
ATOM     36  C   UNL A   1      39.118  30.346  30.562  1.00  0.00    -0.014 A 
BRANCH  36  37
ATOM     37  C   UNL A   1      40.351  29.828  29.917  1.00  0.00     0.031 A 
ATOM     38  C   UNL A   1      41.513  30.759  29.707  1.00  0.00     0.074 A 
ATOM     39  C   UNL A   1      40.434  28.547  29.510  1.00  0.00     0.049 A 
ATOM     40  N   UNL A   1      42.649  30.546  29.093  1.00  0.00    -0.248 NA
ATOM     41  C   UNL A   1      41.373  32.116  30.259  1.00  0.00     0.031 C 
ATOM     42  C   UNL A   1      39.389  27.539  29.673  1.00  0.00     0.029 A 
ATOM     43  N   UNL A   1      41.445  27.883  28.861  1.00  0.00    -0.354 N 
ATOM     44  C   UNL A   1      43.350  31.742  29.171  1.00  0.00     0.074 A 
ATOM     45  C   UNL A   1      42.500  32.687  29.863  1.00  0.00     0.031 C 
ATOM     46  C   UNL A   1      39.810  26.383  29.131  1.00  0.00     0.029 A 
ATOM     47  C   UNL A   1      41.136  26.582  28.546  1.00  0.00     0.049 A 
ATOM     48  H   UNL A   1      42.311  28.298  28.642  1.00  0.00     0.167 HD
ATOM     49  C   UNL A   1      44.595  32.025  28.719  1.00  0.00     0.037 A 
ATOM     50  C   UNL A   1      41.827  25.666  27.839  1.00  0.00     0.037 A 
ATOM     51  C   UNL A   1      45.442  31.083  28.038  1.00  0.00     0.049 A 
ATOM     52  C   UNL A   1      43.176  26.030  27.274  1.00  0.00     0.074 A 
ATOM     53  C   UNL A   1      46.735  31.264  27.576  1.00  0.00     0.029 A 
ATOM     54  N   UNL A   1      45.078  29.787  27.710  1.00  0.00    -0.354 N 
ATOM     55  N   UNL A   1      43.848  27.150  27.391  1.00  0.00    -0.248 NA
ATOM     56  C   UNL A   1      43.860  25.003  26.473  1.00  0.00     0.031 C 
ATOM     57  C   UNL A   1      47.131  30.097  26.917  1.00  0.00     0.029 A 
ATOM     58  C   UNL A   1      46.107  29.168  27.018  1.00  0.00     0.049 A 
ATOM     59  H   UNL A   1      44.217  29.367  27.935  1.00  0.00     0.167 HD
ATOM     60  C   UNL A   1      45.037  26.956  26.699  1.00  0.00     0.074 A 
ATOM     61  C   UNL A   1      45.005  25.604  26.180  1.00  0.00     0.031 C 
ATOM     62  C   UNL A   1      46.064  27.821  26.508  1.00  0.00     0.037 A 
BRANCH  49  63
ATOM     63  C   UNL A   1      45.108  33.421  28.927  1.00  0.00     0.057 A 
ATOM     64  C   UNL A   1      45.850  33.777  30.059  1.00  0.00     0.134 A 
ATOM     65  C   UNL A   1      44.889  34.412  27.961  1.00  0.00     0.134 A 
ATOM     66  F   UNL A   1      46.087  32.879  31.028  1.00  0.00    -0.206 F 
ATOM     67  C   UNL A   1      46.336  35.074  30.236  1.00  0.00     0.040 A 
ATOM     68  C   UNL A   1      45.394  35.704  28.113  1.00  0.00     0.040 A 
ATOM     69  F   UNL A   1      44.191  34.137  26.849  1.00  0.00    -0.206 F 
ATOM     70  C   UNL A   1      46.114  36.041  29.256  1.00  0.00     0.006 A 
ENDBRANCH  49  63
BRANCH  50  71
ATOM     71  C   UNL A   1      41.250  24.318  27.598  1.00  0.00     0.057 A 
ATOM     72  C   UNL A   1      40.208  24.127  26.683  1.00  0.00     0.134 A 
ATOM     73  C   UNL A   1      41.709  23.192  28.294  1.00  0.00     0.134 A 
ATOM     74  F   UNL A   1      39.706  25.170  26.006  1.00  0.00    -0.206 F 
ATOM     75  C   UNL A   1      39.633  22.871  26.481  1.00  0.00     0.040 A 
ATOM     76  C   UNL A   1      41.164  21.926  28.080  1.00  0.00     0.040 A 
ATOM     77  F   UNL A   1      42.704  23.307  29.187  1.00  0.00    -0.206 F 
ATOM     78  C   UNL A   1      40.116  21.764  27.176  1.00  0.00     0.006 A 
ENDBRANCH  50  71
BRANCH  62  79
ATOM     79  C   UNL A   1      47.248  27.332  25.725  1.00  0.00     0.057 A 
ATOM     80  C   UNL A   1      47.369  27.564  24.349  1.00  0.00     0.134 A 
ATOM     81  C   UNL A   1      48.310  26.678  26.365  1.00  0.00     0.134 A 
ATOM     82  F   UNL A   1      46.384  28.174  23.673  1.00  0.00    -0.206 F 
ATOM     83  C   UNL A   1      48.497  27.151  23.636  1.00  0.00     0.040 A 
ATOM     84  C   UNL A   1      49.453  26.285  25.670  1.00  0.00     0.040 A 
ATOM     85  F   UNL A   1      48.262  26.434  27.684  1.00  0.00    -0.206 F 
ATOM     86  C   UNL A   1      49.546  26.518  24.299  1.00  0.00     0.006 A 
ENDBRANCH  62  79
ENDBRANCH  36  37
ENDBRANCH  29  31
ENDBRANCH  28  29
ENDBRANCH  27  28
ENDBRANCH  26  27
ENDBRANCH  25  26
ENDBRANCH   1  25
TORSDOF 18
ENDMDL
