MODEL 1
REMARK VINA RESULT:     -11.6      0.000      0.000
REMARK SMILES C[C@@H](C(=O)OCCOCCOC(=O)c1ccc(-c2c3nc(c(-c4c(F)cccc4F)c4ccc([nH]4)c(-c4c(F)cccc4F)c4nc(c(-c5c(F)cccc5F)c5ccc2[nH]5)C=C4)C=C3)cc1)n1ccc(C(=O)N2CC[NH+](Cc3cccc(F)c3)CC2)n1
REMARK SMILES IDX 7 1 6 2 5 3 3 4 4 5 2 6 1 7 68 8 69 9 88 10 70 11 71 12
REMARK SMILES IDX 72 13 73 14 74 15 75 16 87 17 76 18 86 19 77 20 78 22 79 23
REMARK SMILES IDX 80 24 85 25 81 26 83 27 82 28 84 29 8 30 9 31 10 32 11 33
REMARK SMILES IDX 12 34 13 35 14 36 15 37 67 38 16 39 66 40 17 41 18 42 19 43
REMARK SMILES IDX 60 44 20 45 65 46 59 47 61 48 21 49 64 50 58 51 57 52 22 54
REMARK SMILES IDX 48 55 31 56 47 57 32 58 35 59 46 60 62 61 33 62 34 63 45 65
REMARK SMILES IDX 63 66 36 67 23 68 24 69 29 70 25 71 26 72 28 73 30 74 27 75
REMARK SMILES IDX 49 76 50 77 55 78 51 79 52 80 54 81 56 82 53 83 37 84 38 85
REMARK SMILES IDX 43 86 39 87 40 88 42 89 44 90 41 91
REMARK H PARENT 77 21 61 53 35 64
REMARK Flexibility Score: inf
ROOT
ATOM      1  C   UNL A   1      33.199  35.103  30.092  1.00  0.00     0.202 C 
ENDROOT
BRANCH   1   2
ATOM      2  C   UNL A   1      34.215  34.514  29.112  1.00  0.00     0.261 C 
BRANCH   2   3
ATOM      3  O   UNL A   1      34.108  33.082  29.088  1.00  0.00    -0.462 OA
BRANCH   3   4
ATOM      4  C   UNL A   1      34.811  32.461  28.097  1.00  0.00     0.330 C 
ATOM      5  O   UNL A   1      35.571  33.056  27.341  1.00  0.00    -0.250 OA
BRANCH   4   6
ATOM      6  C   UNL A   1      34.562  30.955  28.074  1.00  0.00     0.213 C 
ATOM      7  C   UNL A   1      35.831  30.133  27.846  1.00  0.00     0.046 C 
BRANCH   6   8
ATOM      8  N   UNL A   1      33.468  30.634  27.159  1.00  0.00    -0.258 N 
ATOM      9  C   UNL A   1      32.248  31.237  27.004  1.00  0.00     0.110 A 
ATOM     10  N   UNL A   1      33.675  29.670  26.254  1.00  0.00    -0.167 NA
ATOM     11  C   UNL A   1      31.636  30.605  25.944  1.00  0.00     0.056 A 
ATOM     12  C   UNL A   1      32.551  29.610  25.521  1.00  0.00     0.150 A 
BRANCH  12  13
ATOM     13  C   UNL A   1      32.426  28.671  24.396  1.00  0.00     0.274 C 
ATOM     14  O   UNL A   1      31.946  29.029  23.320  1.00  0.00    -0.267 OA
ATOM     15  N   UNL A   1      32.924  27.378  24.603  1.00  0.00    -0.326 N 
ATOM     16  C   UNL A   1      33.205  26.574  23.426  1.00  0.00     0.181 C 
ATOM     17  C   UNL A   1      32.644  26.662  25.852  1.00  0.00     0.181 C 
ATOM     18  C   UNL A   1      34.036  25.309  23.713  1.00  0.00     0.284 C 
ATOM     19  C   UNL A   1      33.489  25.395  26.063  1.00  0.00     0.284 C 
ATOM     20  N   UNL A   1      33.650  24.526  24.891  1.00  0.00    -0.328 N 
ATOM     21  H   UNL A   1      34.437  23.912  25.096  1.00  0.00     0.348 HD
BRANCH  20  22
ATOM     22  C   UNL A   1      32.623  23.501  24.691  1.00  0.00     0.299 C 
BRANCH  22  23
ATOM     23  C   UNL A   1      33.065  22.058  24.658  1.00  0.00     0.009 A 
ATOM     24  C   UNL A   1      32.208  21.052  24.180  1.00  0.00     0.010 A 
ATOM     25  C   UNL A   1      34.350  21.696  25.081  1.00  0.00     0.048 A 
ATOM     26  C   UNL A   1      32.657  19.733  24.051  1.00  0.00     0.004 A 
ATOM     27  C   UNL A   1      34.793  20.385  24.932  1.00  0.00     0.123 A 
ATOM     28  C   UNL A   1      33.962  19.404  24.410  1.00  0.00     0.039 A 
ATOM     29  F   UNL A   1      36.050  20.074  25.276  1.00  0.00    -0.207 F 
ENDBRANCH  22  23
ENDBRANCH  20  22
ENDBRANCH  12  13
ENDBRANCH   6   8
ENDBRANCH   4   6
ENDBRANCH   3   4
ENDBRANCH   2   3
ENDBRANCH   1   2
BRANCH   1  30
ATOM     30  O   UNL A   1      33.299  34.639  31.439  1.00  0.00    -0.374 OA
BRANCH  30  31
ATOM     31  C   UNL A   1      34.020  35.449  32.371  1.00  0.00     0.202 C 
BRANCH  31  32
ATOM     32  C   UNL A   1      35.345  34.877  32.891  1.00  0.00     0.261 C 
BRANCH  32  33
ATOM     33  O   UNL A   1      35.725  33.662  32.215  1.00  0.00    -0.460 OA
BRANCH  33  34
ATOM     34  C   UNL A   1      36.412  32.779  32.982  1.00  0.00     0.338 C 
ATOM     35  O   UNL A   1      36.245  32.548  34.173  1.00  0.00    -0.246 OA
BRANCH  34  36
ATOM     36  C   UNL A   1      37.320  31.966  32.154  1.00  0.00     0.060 A 
ATOM     37  C   UNL A   1      38.292  31.207  32.820  1.00  0.00     0.016 A 
ATOM     38  C   UNL A   1      37.296  32.020  30.759  1.00  0.00     0.016 A 
ATOM     39  C   UNL A   1      39.276  30.538  32.093  1.00  0.00     0.010 A 
ATOM     40  C   UNL A   1      38.292  31.356  30.032  1.00  0.00     0.010 A 
ATOM     41  C   UNL A   1      39.306  30.643  30.696  1.00  0.00    -0.014 A 
BRANCH  41  42
ATOM     42  C   UNL A   1      40.485  30.130  29.955  1.00  0.00     0.031 A 
ATOM     43  C   UNL A   1      41.643  31.053  29.689  1.00  0.00     0.074 A 
ATOM     44  C   UNL A   1      40.547  28.846  29.559  1.00  0.00     0.049 A 
ATOM     45  N   UNL A   1      42.764  30.818  29.058  1.00  0.00    -0.248 NA
ATOM     46  C   UNL A   1      41.520  32.423  30.211  1.00  0.00     0.031 C 
ATOM     47  C   UNL A   1      39.510  27.841  29.787  1.00  0.00     0.029 A 
ATOM     48  N   UNL A   1      41.527  28.172  28.877  1.00  0.00    -0.354 N 
ATOM     49  C   UNL A   1      43.480  32.008  29.106  1.00  0.00     0.074 A 
ATOM     50  C   UNL A   1      42.654  32.972  29.801  1.00  0.00     0.031 C 
ATOM     51  C   UNL A   1      39.907  26.677  29.242  1.00  0.00     0.029 A 
ATOM     52  C   UNL A   1      41.211  26.863  28.609  1.00  0.00     0.049 A 
ATOM     53  H   UNL A   1      42.378  28.587  28.604  1.00  0.00     0.167 HD
ATOM     54  C   UNL A   1      44.718  32.272  28.624  1.00  0.00     0.037 A 
ATOM     55  C   UNL A   1      41.890  25.927  27.918  1.00  0.00     0.037 A 
ATOM     56  C   UNL A   1      45.543  31.319  27.930  1.00  0.00     0.049 A 
ATOM     57  C   UNL A   1      43.235  26.263  27.333  1.00  0.00     0.074 A 
ATOM     58  C   UNL A   1      46.814  31.492  27.412  1.00  0.00     0.029 A 
ATOM     59  N   UNL A   1      45.172  30.012  27.651  1.00  0.00    -0.354 N 
ATOM     60  N   UNL A   1      43.910  27.386  27.401  1.00  0.00    -0.248 NA
ATOM     61  C   UNL A   1      43.915  25.201  26.576  1.00  0.00     0.031 C 
ATOM     62  C   UNL A   1      47.198  30.302  26.787  1.00  0.00     0.029 A 
ATOM     63  C   UNL A   1      46.182  29.375  26.952  1.00  0.00     0.049 A 
ATOM     64  H   UNL A   1      44.317  29.600  27.913  1.00  0.00     0.167 HD
ATOM     65  C   UNL A   1      45.099  27.158  26.719  1.00  0.00     0.074 A 
ATOM     66  C   UNL A   1      45.060  25.787  26.255  1.00  0.00     0.031 C 
ATOM     67  C   UNL A   1      46.132  28.008  26.500  1.00  0.00     0.037 A 
BRANCH  54  68
ATOM     68  C   UNL A   1      45.249  33.661  28.819  1.00  0.00     0.057 A 
ATOM     69  C   UNL A   1      44.995  34.683  27.896  1.00  0.00     0.134 A 
ATOM     70  C   UNL A   1      46.000  33.986  29.955  1.00  0.00     0.134 A 
ATOM     71  F   UNL A   1      44.295  34.431  26.780  1.00  0.00    -0.206 F 
ATOM     72  C   UNL A   1      45.484  35.975  28.087  1.00  0.00     0.040 A 
ATOM     73  C   UNL A   1      46.477  35.280  30.169  1.00  0.00     0.040 A 
ATOM     74  F   UNL A   1      46.277  33.053  30.880  1.00  0.00    -0.206 F 
ATOM     75  C   UNL A   1      46.223  36.279  29.229  1.00  0.00     0.006 A 
ENDBRANCH  54  68
BRANCH  55  76
ATOM     76  C   UNL A   1      41.301  24.579  27.723  1.00  0.00     0.057 A 
ATOM     77  C   UNL A   1      41.765  23.472  28.444  1.00  0.00     0.134 A 
ATOM     78  C   UNL A   1      40.275  24.363  26.797  1.00  0.00     0.134 A 
ATOM     79  F   UNL A   1      42.764  23.613  29.327  1.00  0.00    -0.206 F 
ATOM     80  C   UNL A   1      41.238  22.196  28.239  1.00  0.00     0.040 A 
ATOM     81  C   UNL A   1      39.723  23.096  26.599  1.00  0.00     0.040 A 
ATOM     82  F   UNL A   1      39.788  25.384  26.075  1.00  0.00    -0.206 F 
ATOM     83  C   UNL A   1      40.210  22.007  27.317  1.00  0.00     0.006 A 
ENDBRANCH  55  76
BRANCH  67  84
ATOM     84  C   UNL A   1      47.316  27.474  25.749  1.00  0.00     0.057 A 
ATOM     85  C   UNL A   1      48.365  26.814  26.400  1.00  0.00     0.134 A 
ATOM     86  C   UNL A   1      47.386  27.586  24.354  1.00  0.00     0.134 A 
ATOM     87  F   UNL A   1      48.363  26.686  27.735  1.00  0.00    -0.206 F 
ATOM     88  C   UNL A   1      49.452  26.299  25.691  1.00  0.00     0.040 A 
ATOM     89  C   UNL A   1      48.455  27.055  23.633  1.00  0.00     0.040 A 
ATOM     90  F   UNL A   1      46.408  28.200  23.670  1.00  0.00    -0.206 F 
ATOM     91  C   UNL A   1      49.496  26.414  24.302  1.00  0.00     0.006 A 
ENDBRANCH  67  84
ENDBRANCH  41  42
ENDBRANCH  34  36
ENDBRANCH  33  34
ENDBRANCH  32  33
ENDBRANCH  31  32
ENDBRANCH  30  31
ENDBRANCH   1  30
TORSDOF 18
ENDMDL
MODEL 2
REMARK VINA RESULT:     -11.2      4.011      9.362
REMARK SMILES C[C@@H](C(=O)OCCOCCOC(=O)c1ccc(-c2c3nc(c(-c4c(F)cccc4F)c4ccc([nH]4)c(-c4c(F)cccc4F)c4nc(c(-c5c(F)cccc5F)c5ccc2[nH]5)C=C4)C=C3)cc1)n1ccc(C(=O)N2CC[NH+](Cc3cccc(F)c3)CC2)n1
REMARK SMILES IDX 7 1 6 2 5 3 3 4 4 5 2 6 1 7 68 8 69 9 88 10 70 11 71 12
REMARK SMILES IDX 72 13 73 14 74 15 75 16 87 17 76 18 86 19 77 20 78 22 79 23
REMARK SMILES IDX 80 24 85 25 81 26 83 27 82 28 84 29 8 30 9 31 10 32 11 33
REMARK SMILES IDX 12 34 13 35 14 36 15 37 67 38 16 39 66 40 17 41 18 42 19 43
REMARK SMILES IDX 60 44 20 45 65 46 59 47 61 48 21 49 64 50 58 51 57 52 22 54
REMARK SMILES IDX 48 55 31 56 47 57 32 58 35 59 46 60 62 61 33 62 34 63 45 65
REMARK SMILES IDX 63 66 36 67 23 68 24 69 29 70 25 71 26 72 28 73 30 74 27 75
REMARK SMILES IDX 49 76 50 77 55 78 51 79 52 80 54 81 56 82 53 83 37 84 38 85
REMARK SMILES IDX 43 86 39 87 40 88 42 89 44 90 41 91
REMARK H PARENT 77 21 61 53 35 64
REMARK Flexibility Score: inf
ROOT
ATOM      1  C   UNL A   1      36.559  23.151  25.284  1.00  0.00     0.202 C 
ENDROOT
BRANCH   1   2
ATOM      2  C   UNL A   1      36.272  22.252  24.081  1.00  0.00     0.261 C 
BRANCH   2   3
ATOM      3  O   UNL A   1      34.996  21.610  24.234  1.00  0.00    -0.462 OA
BRANCH   3   4
ATOM      4  C   UNL A   1      35.023  20.399  24.862  1.00  0.00     0.330 C 
ATOM      5  O   UNL A   1      36.023  19.692  24.909  1.00  0.00    -0.250 OA
BRANCH   4   6
ATOM      6  C   UNL A   1      33.685  20.062  25.514  1.00  0.00     0.213 C 
ATOM      7  C   UNL A   1      32.646  19.529  24.526  1.00  0.00     0.046 C 
BRANCH   6   8
ATOM      8  N   UNL A   1      33.218  21.183  26.328  1.00  0.00    -0.258 N 
ATOM      9  C   UNL A   1      33.715  21.680  27.503  1.00  0.00     0.110 A 
ATOM     10  N   UNL A   1      32.210  21.922  25.852  1.00  0.00    -0.167 NA
ATOM     11  C   UNL A   1      32.964  22.797  27.798  1.00  0.00     0.056 A 
ATOM     12  C   UNL A   1      32.013  22.897  26.754  1.00  0.00     0.150 A 
BRANCH  12  13
ATOM     13  C   UNL A   1      30.989  23.932  26.545  1.00  0.00     0.274 C 
ATOM     14  O   UNL A   1      29.900  23.873  27.115  1.00  0.00    -0.267 OA
ATOM     15  N   UNL A   1      31.342  24.999  25.707  1.00  0.00    -0.326 N 
ATOM     16  C   UNL A   1      30.555  26.216  25.809  1.00  0.00     0.181 C 
ATOM     17  C   UNL A   1      32.035  24.753  24.438  1.00  0.00     0.181 C 
ATOM     18  C   UNL A   1      31.185  27.432  25.106  1.00  0.00     0.284 C 
ATOM     19  C   UNL A   1      32.617  26.013  23.776  1.00  0.00     0.284 C 
ATOM     20  N   UNL A   1      31.750  27.197  23.773  1.00  0.00    -0.328 N 
ATOM     21  H   UNL A   1      32.354  27.994  23.574  1.00  0.00     0.348 HD
BRANCH  20  22
ATOM     22  C   UNL A   1      30.834  27.334  22.638  1.00  0.00     0.299 C 
BRANCH  22  23
ATOM     23  C   UNL A   1      29.704  28.328  22.760  1.00  0.00     0.009 A 
ATOM     24  C   UNL A   1      29.894  29.679  22.425  1.00  0.00     0.010 A 
ATOM     25  C   UNL A   1      28.435  27.917  23.188  1.00  0.00     0.048 A 
ATOM     26  C   UNL A   1      28.820  30.576  22.437  1.00  0.00     0.004 A 
ATOM     27  C   UNL A   1      27.370  28.812  23.179  1.00  0.00     0.123 A 
ATOM     28  C   UNL A   1      27.549  30.134  22.796  1.00  0.00     0.039 A 
ATOM     29  F   UNL A   1      26.148  28.382  23.523  1.00  0.00    -0.207 F 
ENDBRANCH  22  23
ENDBRANCH  20  22
ENDBRANCH  12  13
ENDBRANCH   6   8
ENDBRANCH   4   6
ENDBRANCH   3   4
ENDBRANCH   2   3
ENDBRANCH   1   2
BRANCH   1  30
ATOM     30  O   UNL A   1      37.746  22.842  26.016  1.00  0.00    -0.374 OA
BRANCH  30  31
ATOM     31  C   UNL A   1      38.563  21.770  25.538  1.00  0.00     0.202 C 
BRANCH  31  32
ATOM     32  C   UNL A   1      39.697  21.311  26.464  1.00  0.00     0.261 C 
BRANCH  32  33
ATOM     33  O   UNL A   1      40.032  19.921  26.279  1.00  0.00    -0.460 OA
BRANCH  33  34
ATOM     34  C   UNL A   1      41.361  19.668  26.186  1.00  0.00     0.338 C 
ATOM     35  O   UNL A   1      41.892  18.645  25.771  1.00  0.00    -0.246 OA
BRANCH  34  36
ATOM     36  C   UNL A   1      42.145  20.875  26.499  1.00  0.00     0.060 A 
ATOM     37  C   UNL A   1      42.289  21.218  27.850  1.00  0.00     0.016 A 
ATOM     38  C   UNL A   1      42.641  21.714  25.499  1.00  0.00     0.016 A 
ATOM     39  C   UNL A   1      42.886  22.427  28.205  1.00  0.00     0.010 A 
ATOM     40  C   UNL A   1      43.231  22.932  25.858  1.00  0.00     0.010 A 
ATOM     41  C   UNL A   1      43.324  23.310  27.210  1.00  0.00    -0.014 A 
BRANCH  41  42
ATOM     42  C   UNL A   1      43.736  24.684  27.589  1.00  0.00     0.031 A 
ATOM     43  C   UNL A   1      42.683  25.680  27.993  1.00  0.00     0.074 A 
ATOM     44  C   UNL A   1      45.034  25.033  27.615  1.00  0.00     0.049 A 
ATOM     45  N   UNL A   1      42.818  26.931  28.353  1.00  0.00    -0.248 NA
ATOM     46  C   UNL A   1      41.293  25.198  27.995  1.00  0.00     0.031 C 
ATOM     47  C   UNL A   1      46.153  24.153  27.284  1.00  0.00     0.029 A 
ATOM     48  N   UNL A   1      45.628  26.228  27.936  1.00  0.00    -0.354 N 
ATOM     49  C   UNL A   1      41.533  27.384  28.625  1.00  0.00     0.074 A 
ATOM     50  C   UNL A   1      40.630  26.286  28.360  1.00  0.00     0.031 C 
ATOM     51  C   UNL A   1      47.301  24.843  27.407  1.00  0.00     0.029 A 
ATOM     52  C   UNL A   1      46.994  26.216  27.803  1.00  0.00     0.049 A 
ATOM     53  H   UNL A   1      45.122  27.019  28.232  1.00  0.00     0.167 HD
ATOM     54  C   UNL A   1      41.141  28.603  29.067  1.00  0.00     0.037 A 
ATOM     55  C   UNL A   1      47.894  27.206  27.966  1.00  0.00     0.037 A 
ATOM     56  C   UNL A   1      42.034  29.700  29.331  1.00  0.00     0.049 A 
ATOM     57  C   UNL A   1      47.428  28.572  28.392  1.00  0.00     0.074 A 
ATOM     58  C   UNL A   1      41.730  30.971  29.788  1.00  0.00     0.029 A 
ATOM     59  N   UNL A   1      43.408  29.658  29.153  1.00  0.00    -0.354 N 
ATOM     60  N   UNL A   1      46.212  28.984  28.665  1.00  0.00    -0.248 NA
ATOM     61  C   UNL A   1      48.459  29.611  28.537  1.00  0.00     0.031 C 
ATOM     62  C   UNL A   1      42.917  31.709  29.852  1.00  0.00     0.029 A 
ATOM     63  C   UNL A   1      43.963  30.885  29.473  1.00  0.00     0.049 A 
ATOM     64  H   UNL A   1      43.913  28.870  28.845  1.00  0.00     0.167 HD
ATOM     65  C   UNL A   1      46.336  30.318  29.034  1.00  0.00     0.074 A 
ATOM     66  C   UNL A   1      47.745  30.644  28.963  1.00  0.00     0.031 C 
ATOM     67  C   UNL A   1      45.368  31.194  29.401  1.00  0.00     0.037 A 
BRANCH  54  68
ATOM     68  C   UNL A   1      39.672  28.818  29.276  1.00  0.00     0.057 A 
ATOM     69  C   UNL A   1      39.073  28.640  30.529  1.00  0.00     0.134 A 
ATOM     70  C   UNL A   1      38.853  29.235  28.220  1.00  0.00     0.134 A 
ATOM     71  F   UNL A   1      39.801  28.227  31.578  1.00  0.00    -0.206 F 
ATOM     72  C   UNL A   1      37.707  28.851  30.720  1.00  0.00     0.040 A 
ATOM     73  C   UNL A   1      37.489  29.470  28.403  1.00  0.00     0.040 A 
ATOM     74  F   UNL A   1      39.366  29.427  26.994  1.00  0.00    -0.206 F 
ATOM     75  C   UNL A   1      36.911  29.273  29.656  1.00  0.00     0.006 A 
ENDBRANCH  54  68
BRANCH  55  76
ATOM     76  C   UNL A   1      49.332  26.949  27.710  1.00  0.00     0.057 A 
ATOM     77  C   UNL A   1      49.877  27.079  26.427  1.00  0.00     0.134 A 
ATOM     78  C   UNL A   1      50.191  26.546  28.738  1.00  0.00     0.134 A 
ATOM     79  F   UNL A   1      49.097  27.438  25.397  1.00  0.00    -0.206 F 
ATOM     80  C   UNL A   1      51.222  26.805  26.174  1.00  0.00     0.040 A 
ATOM     81  C   UNL A   1      51.543  26.290  28.504  1.00  0.00     0.040 A 
ATOM     82  F   UNL A   1      49.728  26.402  29.990  1.00  0.00    -0.206 F 
ATOM     83  C   UNL A   1      52.060  26.413  27.217  1.00  0.00     0.006 A 
ENDBRANCH  55  76
BRANCH  67  84
ATOM     84  C   UNL A   1      45.801  32.579  29.781  1.00  0.00     0.057 A 
ATOM     85  C   UNL A   1      45.848  33.619  28.844  1.00  0.00     0.134 A 
ATOM     86  C   UNL A   1      46.134  32.885  31.107  1.00  0.00     0.134 A 
ATOM     87  F   UNL A   1      45.554  33.388  27.556  1.00  0.00    -0.206 F 
ATOM     88  C   UNL A   1      46.229  34.912  29.210  1.00  0.00     0.040 A 
ATOM     89  C   UNL A   1      46.495  34.177  31.489  1.00  0.00     0.040 A 
ATOM     90  F   UNL A   1      46.101  31.934  32.053  1.00  0.00    -0.206 F 
ATOM     91  C   UNL A   1      46.548  35.194  30.538  1.00  0.00     0.006 A 
ENDBRANCH  67  84
ENDBRANCH  41  42
ENDBRANCH  34  36
ENDBRANCH  33  34
ENDBRANCH  32  33
ENDBRANCH  31  32
ENDBRANCH  30  31
ENDBRANCH   1  30
TORSDOF 18
ENDMDL
MODEL 3
REMARK VINA RESULT:     -11.2      3.912      8.956
REMARK SMILES C[C@@H](C(=O)OCCOCCOC(=O)c1ccc(-c2c3nc(c(-c4c(F)cccc4F)c4ccc([nH]4)c(-c4c(F)cccc4F)c4nc(c(-c5c(F)cccc5F)c5ccc2[nH]5)C=C4)C=C3)cc1)n1ccc(C(=O)N2CC[NH+](Cc3cccc(F)c3)CC2)n1
REMARK SMILES IDX 7 1 6 2 5 3 3 4 4 5 2 6 1 7 68 8 69 9 88 10 70 11 71 12
REMARK SMILES IDX 72 13 73 14 74 15 75 16 87 17 76 18 86 19 77 20 78 22 79 23
REMARK SMILES IDX 80 24 85 25 81 26 83 27 82 28 84 29 8 30 9 31 10 32 11 33
REMARK SMILES IDX 12 34 13 35 14 36 15 37 67 38 16 39 66 40 17 41 18 42 19 43
REMARK SMILES IDX 60 44 20 45 65 46 59 47 61 48 21 49 64 50 58 51 57 52 22 54
REMARK SMILES IDX 48 55 31 56 47 57 32 58 35 59 46 60 62 61 33 62 34 63 45 65
REMARK SMILES IDX 63 66 36 67 23 68 24 69 29 70 25 71 26 72 28 73 30 74 27 75
REMARK SMILES IDX 49 76 50 77 55 78 51 79 52 80 54 81 56 82 53 83 37 84 38 85
REMARK SMILES IDX 43 86 39 87 40 88 42 89 44 90 41 91
REMARK H PARENT 77 21 61 53 35 64
REMARK Flexibility Score: inf
ROOT
ATOM      1  C   UNL A   1      36.909  23.110  25.172  1.00  0.00     0.202 C 
ENDROOT
BRANCH   1   2
ATOM      2  C   UNL A   1      36.490  22.164  24.047  1.00  0.00     0.261 C 
BRANCH   2   3
ATOM      3  O   UNL A   1      35.168  21.657  24.290  1.00  0.00    -0.462 OA
BRANCH   3   4
ATOM      4  C   UNL A   1      35.113  20.400  24.818  1.00  0.00     0.330 C 
ATOM      5  O   UNL A   1      36.072  19.637  24.832  1.00  0.00    -0.250 OA
BRANCH   4   6
ATOM      6  C   UNL A   1      33.740  20.086  25.407  1.00  0.00     0.213 C 
ATOM      7  C   UNL A   1      32.720  19.633  24.361  1.00  0.00     0.046 C 
BRANCH   6   8
ATOM      8  N   UNL A   1      33.283  21.189  26.251  1.00  0.00    -0.258 N 
ATOM      9  C   UNL A   1      33.831  21.702  27.396  1.00  0.00     0.110 A 
ATOM     10  N   UNL A   1      32.223  21.893  25.838  1.00  0.00    -0.167 NA
ATOM     11  C   UNL A   1      33.061  22.791  27.739  1.00  0.00     0.056 A 
ATOM     12  C   UNL A   1      32.046  22.859  26.753  1.00  0.00     0.150 A 
BRANCH  12  13
ATOM     13  C   UNL A   1      30.976  23.857  26.609  1.00  0.00     0.274 C 
ATOM     14  O   UNL A   1      29.896  23.719  27.183  1.00  0.00    -0.267 OA
ATOM     15  N   UNL A   1      31.273  24.983  25.829  1.00  0.00    -0.326 N 
ATOM     16  C   UNL A   1      30.435  26.157  26.003  1.00  0.00     0.181 C 
ATOM     17  C   UNL A   1      31.965  24.839  24.544  1.00  0.00     0.181 C 
ATOM     18  C   UNL A   1      31.004  27.436  25.364  1.00  0.00     0.284 C 
ATOM     19  C   UNL A   1      32.484  26.158  23.948  1.00  0.00     0.284 C 
ATOM     20  N   UNL A   1      31.566  27.300  24.016  1.00  0.00    -0.328 N 
ATOM     21  H   UNL A   1      32.133  28.133  23.857  1.00  0.00     0.348 HD
BRANCH  20  22
ATOM     22  C   UNL A   1      30.634  27.458  22.897  1.00  0.00     0.299 C 
BRANCH  22  23
ATOM     23  C   UNL A   1      29.560  28.512  23.017  1.00  0.00     0.009 A 
ATOM     24  C   UNL A   1      28.200  28.168  22.947  1.00  0.00     0.010 A 
ATOM     25  C   UNL A   1      29.900  29.856  23.226  1.00  0.00     0.048 A 
ATOM     26  C   UNL A   1      27.207  29.129  23.165  1.00  0.00     0.004 A 
ATOM     27  C   UNL A   1      28.906  30.800  23.459  1.00  0.00     0.123 A 
ATOM     28  C   UNL A   1      27.564  30.447  23.443  1.00  0.00     0.039 A 
ATOM     29  F   UNL A   1      29.254  32.066  23.729  1.00  0.00    -0.207 F 
ENDBRANCH  22  23
ENDBRANCH  20  22
ENDBRANCH  12  13
ENDBRANCH   6   8
ENDBRANCH   4   6
ENDBRANCH   3   4
ENDBRANCH   2   3
ENDBRANCH   1   2
BRANCH   1  30
ATOM     30  O   UNL A   1      37.971  22.645  26.007  1.00  0.00    -0.374 OA
BRANCH  30  31
ATOM     31  C   UNL A   1      38.639  21.440  25.626  1.00  0.00     0.202 C 
BRANCH  31  32
ATOM     32  C   UNL A   1      39.837  21.021  26.487  1.00  0.00     0.261 C 
BRANCH  32  33
ATOM     33  O   UNL A   1      40.339  19.715  26.138  1.00  0.00    -0.460 OA
BRANCH  33  34
ATOM     34  C   UNL A   1      41.690  19.611  26.134  1.00  0.00     0.338 C 
ATOM     35  O   UNL A   1      42.356  18.631  25.825  1.00  0.00    -0.246 OA
BRANCH  34  36
ATOM     36  C   UNL A   1      42.315  20.920  26.397  1.00  0.00     0.060 A 
ATOM     37  C   UNL A   1      42.503  21.287  27.737  1.00  0.00     0.016 A 
ATOM     38  C   UNL A   1      42.615  21.815  25.369  1.00  0.00     0.016 A 
ATOM     39  C   UNL A   1      42.945  22.570  28.054  1.00  0.00     0.010 A 
ATOM     40  C   UNL A   1      43.049  23.107  25.691  1.00  0.00     0.010 A 
ATOM     41  C   UNL A   1      43.181  23.502  27.035  1.00  0.00    -0.014 A 
BRANCH  41  42
ATOM     42  C   UNL A   1      43.419  24.922  27.390  1.00  0.00     0.031 A 
ATOM     43  C   UNL A   1      44.788  25.511  27.180  1.00  0.00     0.074 A 
ATOM     44  C   UNL A   1      42.421  25.695  27.853  1.00  0.00     0.049 A 
ATOM     45  N   UNL A   1      45.218  26.722  27.427  1.00  0.00    -0.248 NA
ATOM     46  C   UNL A   1      45.806  24.613  26.612  1.00  0.00     0.031 C 
ATOM     47  C   UNL A   1      41.043  25.258  28.065  1.00  0.00     0.029 A 
ATOM     48  N   UNL A   1      42.419  27.014  28.231  1.00  0.00    -0.354 N 
ATOM     49  C   UNL A   1      46.553  26.732  27.045  1.00  0.00     0.074 A 
ATOM     50  C   UNL A   1      46.871  25.400  26.578  1.00  0.00     0.031 C 
ATOM     51  C   UNL A   1      40.328  26.290  28.548  1.00  0.00     0.029 A 
ATOM     52  C   UNL A   1      41.204  27.451  28.700  1.00  0.00     0.049 A 
ATOM     53  H   UNL A   1      43.213  27.593  28.173  1.00  0.00     0.167 HD
ATOM     54  C   UNL A   1      47.433  27.761  27.069  1.00  0.00     0.037 A 
ATOM     55  C   UNL A   1      40.845  28.645  29.208  1.00  0.00     0.037 A 
ATOM     56  C   UNL A   1      47.124  29.088  27.534  1.00  0.00     0.049 A 
ATOM     57  C   UNL A   1      41.859  29.755  29.289  1.00  0.00     0.074 A 
ATOM     58  C   UNL A   1      47.948  30.198  27.589  1.00  0.00     0.029 A 
ATOM     59  N   UNL A   1      45.890  29.480  28.030  1.00  0.00    -0.354 N 
ATOM     60  N   UNL A   1      43.114  29.758  28.907  1.00  0.00    -0.248 NA
ATOM     61  C   UNL A   1      41.406  31.028  29.869  1.00  0.00     0.031 C 
ATOM     62  C   UNL A   1      47.224  31.253  28.154  1.00  0.00     0.029 A 
ATOM     63  C   UNL A   1      45.937  30.810  28.412  1.00  0.00     0.049 A 
ATOM     64  H   UNL A   1      45.099  28.899  28.099  1.00  0.00     0.167 HD
ATOM     65  C   UNL A   1      43.591  31.035  29.177  1.00  0.00     0.074 A 
ATOM     66  C   UNL A   1      42.488  31.783  29.745  1.00  0.00     0.031 C 
ATOM     67  C   UNL A   1      44.831  31.543  28.972  1.00  0.00     0.037 A 
BRANCH  54  68
ATOM     68  C   UNL A   1      48.828  27.485  26.592  1.00  0.00     0.057 A 
ATOM     69  C   UNL A   1      49.167  27.539  25.234  1.00  0.00     0.134 A 
ATOM     70  C   UNL A   1      49.849  27.187  27.503  1.00  0.00     0.134 A 
ATOM     71  F   UNL A   1      48.230  27.804  24.311  1.00  0.00    -0.206 F 
ATOM     72  C   UNL A   1      50.468  27.290  24.798  1.00  0.00     0.040 A 
ATOM     73  C   UNL A   1      51.159  26.957  27.081  1.00  0.00     0.040 A 
ATOM     74  F   UNL A   1      49.591  27.122  28.819  1.00  0.00    -0.206 F 
ATOM     75  C   UNL A   1      51.471  27.003  25.723  1.00  0.00     0.006 A 
ENDBRANCH  54  68
BRANCH  55  76
ATOM     76  C   UNL A   1      39.461  28.854  29.701  1.00  0.00     0.057 A 
ATOM     77  C   UNL A   1      38.462  29.367  28.865  1.00  0.00     0.134 A 
ATOM     78  C   UNL A   1      39.111  28.565  31.024  1.00  0.00     0.134 A 
ATOM     79  F   UNL A   1      38.745  29.687  27.594  1.00  0.00    -0.206 F 
ATOM     80  C   UNL A   1      37.168  29.598  29.334  1.00  0.00     0.040 A 
ATOM     81  C   UNL A   1      37.815  28.769  31.499  1.00  0.00     0.040 A 
ATOM     82  F   UNL A   1      40.025  28.072  31.874  1.00  0.00    -0.206 F 
ATOM     83  C   UNL A   1      36.840  29.294  30.654  1.00  0.00     0.006 A 
ENDBRANCH  55  76
BRANCH  67  84
ATOM     84  C   UNL A   1      45.056  32.981  29.336  1.00  0.00     0.057 A 
ATOM     85  C   UNL A   1      45.578  33.353  30.581  1.00  0.00     0.134 A 
ATOM     86  C   UNL A   1      44.785  34.001  28.415  1.00  0.00     0.134 A 
ATOM     87  F   UNL A   1      45.845  32.423  31.511  1.00  0.00    -0.206 F 
ATOM     88  C   UNL A   1      45.806  34.691  30.904  1.00  0.00     0.040 A 
ATOM     89  C   UNL A   1      45.031  35.341  28.718  1.00  0.00     0.040 A 
ATOM     90  F   UNL A   1      44.291  33.710  27.202  1.00  0.00    -0.206 F 
ATOM     91  C   UNL A   1      45.538  35.690  29.968  1.00  0.00     0.006 A 
ENDBRANCH  67  84
ENDBRANCH  41  42
ENDBRANCH  34  36
ENDBRANCH  33  34
ENDBRANCH  32  33
ENDBRANCH  31  32
ENDBRANCH  30  31
ENDBRANCH   1  30
TORSDOF 18
ENDMDL
