MODEL 1
REMARK VINA RESULT:     -10.8      0.000      0.000
REMARK SMILES O=C(COc1ccc(F)cc1)Nc1sccc1C(=O)OCCOCCOC(=O)c1ccc(-c2c3nc(c(-c4c(F)cccc4F)c4ccc([nH]4)c(-c4c(F)cccc4F)c4nc(c(-c5c(F)cccc5F)c5ccc2[nH]5)C=C4)C=C3)cc1
REMARK SMILES IDX 22 1 21 2 20 3 18 4 19 5 17 6 13 7 14 8 15 9 16 10 12 11
REMARK SMILES IDX 1 12 2 13 3 15 4 16 5 17 6 18 11 19 7 20 10 21 8 22 9 23
REMARK SMILES IDX 23 24 24 25 25 26 26 27 27 28 28 29 29 30 30 31 82 32 31 33
REMARK SMILES IDX 81 34 32 35 33 36 34 37 75 38 35 39 80 40 74 41 76 42 36 43
REMARK SMILES IDX 79 44 73 45 72 46 37 48 63 49 46 50 62 51 47 52 50 53 61 54
REMARK SMILES IDX 77 55 48 56 49 57 60 59 78 60 51 61 38 62 39 63 44 64 40 65
REMARK SMILES IDX 41 66 43 67 45 68 42 69 64 70 65 71 70 72 66 73 67 74 69 75
REMARK SMILES IDX 71 76 68 77 52 78 53 79 58 80 54 81 55 82 57 83 59 84 56 85
REMARK H PARENT 12 14 76 47 50 58
REMARK Flexibility Score: inf
ROOT
ATOM      1  C   UNL A   1      32.193  29.640  27.218  1.00  0.00     0.202 C 
ENDROOT
BRANCH   1   2
ATOM      2  C   UNL A   1      33.388  28.692  27.103  1.00  0.00     0.261 C 
BRANCH   2   3
ATOM      3  O   UNL A   1      33.011  27.598  26.257  1.00  0.00    -0.460 OA
BRANCH   3   4
ATOM      4  C   UNL A   1      33.461  27.647  24.973  1.00  0.00     0.341 C 
ATOM      5  O   UNL A   1      34.214  28.506  24.528  1.00  0.00    -0.246 OA
BRANCH   4   6
ATOM      6  C   UNL A   1      33.157  26.417  24.252  1.00  0.00     0.094 A 
ATOM      7  C   UNL A   1      32.004  26.102  23.559  1.00  0.00     0.110 A 
ATOM      8  S   UNL A   1      31.944  24.459  23.087  1.00  0.00    -0.126 S 
ATOM      9  C   UNL A   1      33.525  24.171  23.652  1.00  0.00     0.068 A 
ATOM     10  C   UNL A   1      34.062  25.291  24.243  1.00  0.00     0.029 A 
BRANCH   7  11
ATOM     11  N   UNL A   1      30.889  26.775  23.118  1.00  0.00    -0.314 N 
ATOM     12  O   UNL A   1      29.421  26.337  24.878  1.00  0.00    -0.271 OA
ATOM     13  C   UNL A   1      29.696  26.871  23.808  1.00  0.00     0.262 C 
ATOM     14  H   UNL A   1      30.944  27.223  22.242  1.00  0.00     0.170 HD
BRANCH  13  15
ATOM     15  C   UNL A   1      28.715  27.817  23.118  1.00  0.00     0.329 C 
BRANCH  15  16
ATOM     16  O   UNL A   1      29.360  28.634  22.135  1.00  0.00    -0.484 OA
BRANCH  16  17
ATOM     17  C   UNL A   1      29.131  29.963  22.379  1.00  0.00     0.120 A 
ATOM     18  C   UNL A   1      29.379  30.511  23.640  1.00  0.00     0.049 A 
ATOM     19  C   UNL A   1      28.706  30.771  21.323  1.00  0.00     0.049 A 
ATOM     20  C   UNL A   1      29.144  31.867  23.862  1.00  0.00     0.043 A 
ATOM     21  C   UNL A   1      28.479  32.129  21.548  1.00  0.00     0.043 A 
ATOM     22  C   UNL A   1      28.692  32.663  22.815  1.00  0.00     0.123 A 
ATOM     23  F   UNL A   1      28.469  33.967  23.028  1.00  0.00    -0.207 F 
ENDBRANCH  16  17
ENDBRANCH  15  16
ENDBRANCH  13  15
ENDBRANCH   7  11
ENDBRANCH   4   6
ENDBRANCH   3   4
ENDBRANCH   2   3
ENDBRANCH   1   2
BRANCH   1  24
ATOM     24  O   UNL A   1      32.297  30.816  26.410  1.00  0.00    -0.374 OA
BRANCH  24  25
ATOM     25  C   UNL A   1      31.364  31.867  26.659  1.00  0.00     0.202 C 
BRANCH  25  26
ATOM     26  C   UNL A   1      31.978  33.263  26.789  1.00  0.00     0.261 C 
BRANCH  26  27
ATOM     27  O   UNL A   1      32.236  33.633  28.156  1.00  0.00    -0.460 OA
BRANCH  27  28
ATOM     28  C   UNL A   1      33.333  34.408  28.334  1.00  0.00     0.338 C 
ATOM     29  O   UNL A   1      33.380  35.625  28.383  1.00  0.00    -0.246 OA
BRANCH  28  30
ATOM     30  C   UNL A   1      34.524  33.570  28.565  1.00  0.00     0.060 A 
ATOM     31  C   UNL A   1      34.319  32.251  28.987  1.00  0.00     0.016 A 
ATOM     32  C   UNL A   1      35.815  34.103  28.505  1.00  0.00     0.016 A 
ATOM     33  C   UNL A   1      35.400  31.475  29.403  1.00  0.00     0.010 A 
ATOM     34  C   UNL A   1      36.897  33.328  28.935  1.00  0.00     0.010 A 
ATOM     35  C   UNL A   1      36.689  32.025  29.422  1.00  0.00    -0.014 A 
BRANCH  35  36
ATOM     36  C   UNL A   1      37.790  31.295  30.093  1.00  0.00     0.031 A 
ATOM     37  C   UNL A   1      38.072  31.570  31.545  1.00  0.00     0.074 A 
ATOM     38  C   UNL A   1      38.510  30.372  29.430  1.00  0.00     0.049 A 
ATOM     39  N   UNL A   1      39.028  31.103  32.306  1.00  0.00    -0.248 NA
ATOM     40  C   UNL A   1      37.145  32.483  32.234  1.00  0.00     0.031 C 
ATOM     41  C   UNL A   1      38.284  29.955  28.048  1.00  0.00     0.029 A 
ATOM     42  N   UNL A   1      39.578  29.615  29.843  1.00  0.00    -0.354 N 
ATOM     43  C   UNL A   1      38.818  31.659  33.561  1.00  0.00     0.074 A 
ATOM     44  C   UNL A   1      37.654  32.512  33.458  1.00  0.00     0.031 C 
ATOM     45  C   UNL A   1      39.190  29.015  27.725  1.00  0.00     0.029 A 
ATOM     46  C   UNL A   1      40.076  28.791  28.866  1.00  0.00     0.049 A 
ATOM     47  H   UNL A   1      39.950  29.660  30.753  1.00  0.00     0.167 HD
ATOM     48  C   UNL A   1      39.528  31.473  34.698  1.00  0.00     0.037 A 
ATOM     49  C   UNL A   1      41.139  27.963  28.888  1.00  0.00     0.037 A 
ATOM     50  C   UNL A   1      40.691  30.637  34.805  1.00  0.00     0.049 A 
ATOM     51  C   UNL A   1      41.974  27.851  30.136  1.00  0.00     0.074 A 
ATOM     52  C   UNL A   1      41.509  30.431  35.903  1.00  0.00     0.029 A 
ATOM     53  N   UNL A   1      41.197  29.860  33.775  1.00  0.00    -0.354 N 
ATOM     54  N   UNL A   1      41.797  28.426  31.300  1.00  0.00    -0.248 NA
ATOM     55  C   UNL A   1      43.162  26.987  30.068  1.00  0.00     0.031 C 
ATOM     56  C   UNL A   1      42.523  29.541  35.532  1.00  0.00     0.029 A 
ATOM     57  C   UNL A   1      42.318  29.176  34.212  1.00  0.00     0.049 A 
ATOM     58  H   UNL A   1      40.817  29.803  32.869  1.00  0.00     0.167 HD
ATOM     59  C   UNL A   1      42.831  27.972  32.109  1.00  0.00     0.074 A 
ATOM     60  C   UNL A   1      43.635  27.076  31.303  1.00  0.00     0.031 C 
ATOM     61  C   UNL A   1      43.091  28.271  33.404  1.00  0.00     0.037 A 
BRANCH  48  62
ATOM     62  C   UNL A   1      39.075  32.201  35.924  1.00  0.00     0.057 A 
ATOM     63  C   UNL A   1      39.536  33.493  36.203  1.00  0.00     0.134 A 
ATOM     64  C   UNL A   1      38.228  31.594  36.859  1.00  0.00     0.134 A 
ATOM     65  F   UNL A   1      40.350  34.125  35.345  1.00  0.00    -0.206 F 
ATOM     66  C   UNL A   1      39.180  34.153  37.379  1.00  0.00     0.040 A 
ATOM     67  C   UNL A   1      37.855  32.250  38.033  1.00  0.00     0.040 A 
ATOM     68  F   UNL A   1      37.745  30.362  36.640  1.00  0.00    -0.206 F 
ATOM     69  C   UNL A   1      38.337  33.531  38.299  1.00  0.00     0.006 A 
ENDBRANCH  48  62
BRANCH  49  70
ATOM     70  C   UNL A   1      41.489  27.174  27.682  1.00  0.00     0.057 A 
ATOM     71  C   UNL A   1      42.307  27.701  26.676  1.00  0.00     0.134 A 
ATOM     72  C   UNL A   1      41.026  25.864  27.522  1.00  0.00     0.134 A 
ATOM     73  F   UNL A   1      42.782  28.951  26.774  1.00  0.00    -0.206 F 
ATOM     74  C   UNL A   1      42.649  26.954  25.548  1.00  0.00     0.040 A 
ATOM     75  C   UNL A   1      41.372  25.100  26.406  1.00  0.00     0.040 A 
ATOM     76  F   UNL A   1      40.256  25.300  28.464  1.00  0.00    -0.206 F 
ATOM     77  C   UNL A   1      42.185  25.647  25.414  1.00  0.00     0.006 A 
ENDBRANCH  49  70
BRANCH  61  78
ATOM     78  C   UNL A   1      44.264  27.602  34.051  1.00  0.00     0.057 A 
ATOM     79  C   UNL A   1      45.533  28.191  34.004  1.00  0.00     0.134 A 
ATOM     80  C   UNL A   1      44.152  26.341  34.646  1.00  0.00     0.134 A 
ATOM     81  F   UNL A   1      45.704  29.395  33.437  1.00  0.00    -0.206 F 
ATOM     82  C   UNL A   1      46.656  27.541  34.518  1.00  0.00     0.040 A 
ATOM     83  C   UNL A   1      45.265  25.688  35.177  1.00  0.00     0.040 A 
ATOM     84  F   UNL A   1      42.960  25.731  34.727  1.00  0.00    -0.206 F 
ATOM     85  C   UNL A   1      46.523  26.285  35.106  1.00  0.00     0.006 A 
ENDBRANCH  61  78
ENDBRANCH  35  36
ENDBRANCH  28  30
ENDBRANCH  27  28
ENDBRANCH  26  27
ENDBRANCH  25  26
ENDBRANCH  24  25
ENDBRANCH   1  24
TORSDOF 18
ENDMDL
MODEL 2
REMARK VINA RESULT:     -10.5      2.028      6.884
REMARK SMILES O=C(COc1ccc(F)cc1)Nc1sccc1C(=O)OCCOCCOC(=O)c1ccc(-c2c3nc(c(-c4c(F)cccc4F)c4ccc([nH]4)c(-c4c(F)cccc4F)c4nc(c(-c5c(F)cccc5F)c5ccc2[nH]5)C=C4)C=C3)cc1
REMARK SMILES IDX 22 1 21 2 20 3 18 4 19 5 17 6 13 7 14 8 15 9 16 10 12 11
REMARK SMILES IDX 1 12 2 13 3 15 4 16 5 17 6 18 11 19 7 20 10 21 8 22 9 23
REMARK SMILES IDX 23 24 24 25 25 26 26 27 27 28 28 29 29 30 30 31 82 32 31 33
REMARK SMILES IDX 81 34 32 35 33 36 34 37 75 38 35 39 80 40 74 41 76 42 36 43
REMARK SMILES IDX 79 44 73 45 72 46 37 48 63 49 46 50 62 51 47 52 50 53 61 54
REMARK SMILES IDX 77 55 48 56 49 57 60 59 78 60 51 61 38 62 39 63 44 64 40 65
REMARK SMILES IDX 41 66 43 67 45 68 42 69 64 70 65 71 70 72 66 73 67 74 69 75
REMARK SMILES IDX 71 76 68 77 52 78 53 79 58 80 54 81 55 82 57 83 59 84 56 85
REMARK H PARENT 12 14 76 47 50 58
REMARK Flexibility Score: inf
ROOT
ATOM      1  C   UNL A   1      31.210  26.413  26.471  1.00  0.00     0.202 C 
ENDROOT
BRANCH   1   2
ATOM      2  C   UNL A   1      30.216  25.596  25.643  1.00  0.00     0.261 C 
BRANCH   2   3
ATOM      3  O   UNL A   1      30.769  24.288  25.445  1.00  0.00    -0.460 OA
BRANCH   3   4
ATOM      4  C   UNL A   1      31.015  23.562  26.569  1.00  0.00     0.341 C 
ATOM      5  O   UNL A   1      30.161  23.212  27.377  1.00  0.00    -0.246 OA
BRANCH   4   6
ATOM      6  C   UNL A   1      32.369  23.020  26.572  1.00  0.00     0.094 A 
ATOM      7  C   UNL A   1      33.291  23.035  25.544  1.00  0.00     0.110 A 
ATOM      8  S   UNL A   1      34.657  22.058  25.867  1.00  0.00    -0.126 S 
ATOM      9  C   UNL A   1      34.126  21.724  27.451  1.00  0.00     0.068 A 
ATOM     10  C   UNL A   1      32.901  22.298  27.704  1.00  0.00     0.029 A 
BRANCH   7  11
ATOM     11  N   UNL A   1      33.417  23.658  24.324  1.00  0.00    -0.314 N 
ATOM     12  O   UNL A   1      32.485  22.031  22.935  1.00  0.00    -0.271 OA
ATOM     13  C   UNL A   1      32.987  23.134  23.119  1.00  0.00     0.262 C 
ATOM     14  H   UNL A   1      33.846  24.544  24.307  1.00  0.00     0.170 HD
BRANCH  13  15
ATOM     15  C   UNL A   1      33.132  24.142  21.980  1.00  0.00     0.329 C 
BRANCH  15  16
ATOM     16  O   UNL A   1      33.877  25.298  22.378  1.00  0.00    -0.484 OA
BRANCH  16  17
ATOM     17  C   UNL A   1      33.059  26.392  22.484  1.00  0.00     0.120 A 
ATOM     18  C   UNL A   1      31.684  26.280  22.261  1.00  0.00     0.049 A 
ATOM     19  C   UNL A   1      33.618  27.606  22.884  1.00  0.00     0.049 A 
ATOM     20  C   UNL A   1      30.871  27.406  22.380  1.00  0.00     0.043 A 
ATOM     21  C   UNL A   1      32.799  28.729  23.011  1.00  0.00     0.043 A 
ATOM     22  C   UNL A   1      31.436  28.621  22.750  1.00  0.00     0.123 A 
ATOM     23  F   UNL A   1      30.655  29.703  22.868  1.00  0.00    -0.207 F 
ENDBRANCH  16  17
ENDBRANCH  15  16
ENDBRANCH  13  15
ENDBRANCH   7  11
ENDBRANCH   4   6
ENDBRANCH   3   4
ENDBRANCH   2   3
ENDBRANCH   1   2
BRANCH   1  24
ATOM     24  O   UNL A   1      31.411  27.748  25.997  1.00  0.00    -0.374 OA
BRANCH  24  25
ATOM     25  C   UNL A   1      31.762  28.740  26.961  1.00  0.00     0.202 C 
BRANCH  25  26
ATOM     26  C   UNL A   1      31.828  30.172  26.424  1.00  0.00     0.261 C 
BRANCH  26  27
ATOM     27  O   UNL A   1      33.179  30.640  26.254  1.00  0.00    -0.460 OA
BRANCH  27  28
ATOM     28  C   UNL A   1      33.588  31.535  27.185  1.00  0.00     0.338 C 
ATOM     29  O   UNL A   1      32.960  32.479  27.632  1.00  0.00    -0.246 OA
BRANCH  28  30
ATOM     30  C   UNL A   1      34.921  31.171  27.700  1.00  0.00     0.060 A 
ATOM     31  C   UNL A   1      35.153  29.826  28.011  1.00  0.00     0.016 A 
ATOM     32  C   UNL A   1      35.879  32.144  28.001  1.00  0.00     0.016 A 
ATOM     33  C   UNL A   1      36.320  29.454  28.676  1.00  0.00     0.010 A 
ATOM     34  C   UNL A   1      37.044  31.771  28.680  1.00  0.00     0.010 A 
ATOM     35  C   UNL A   1      37.251  30.431  29.053  1.00  0.00    -0.014 A 
BRANCH  35  36
ATOM     36  C   UNL A   1      38.360  30.076  29.970  1.00  0.00     0.031 A 
ATOM     37  C   UNL A   1      39.443  29.153  29.484  1.00  0.00     0.074 A 
ATOM     38  C   UNL A   1      38.423  30.596  31.209  1.00  0.00     0.049 A 
ATOM     39  N   UNL A   1      40.461  28.654  30.138  1.00  0.00    -0.248 NA
ATOM     40  C   UNL A   1      39.378  28.748  28.070  1.00  0.00     0.031 C 
ATOM     41  C   UNL A   1      37.484  31.565  31.770  1.00  0.00     0.029 A 
ATOM     42  N   UNL A   1      39.330  30.381  32.217  1.00  0.00    -0.354 N 
ATOM     43  C   UNL A   1      41.158  27.882  29.218  1.00  0.00     0.074 A 
ATOM     44  C   UNL A   1      40.440  27.962  27.964  1.00  0.00     0.031 C 
ATOM     45  C   UNL A   1      37.863  31.859  33.026  1.00  0.00     0.029 A 
ATOM     46  C   UNL A   1      39.050  31.077  33.365  1.00  0.00     0.049 A 
ATOM     47  H   UNL A   1      40.107  29.783  32.124  1.00  0.00     0.167 HD
ATOM     48  C   UNL A   1      42.296  27.172  29.400  1.00  0.00     0.037 A 
ATOM     49  C   UNL A   1      39.673  31.066  34.560  1.00  0.00     0.037 A 
ATOM     50  C   UNL A   1      43.009  27.079  30.645  1.00  0.00     0.049 A 
ATOM     51  C   UNL A   1      40.879  30.190  34.767  1.00  0.00     0.074 A 
ATOM     52  C   UNL A   1      44.141  26.338  30.938  1.00  0.00     0.029 A 
ATOM     53  N   UNL A   1      42.659  27.756  31.801  1.00  0.00    -0.354 N 
ATOM     54  N   UNL A   1      41.496  29.420  33.904  1.00  0.00    -0.248 NA
ATOM     55  C   UNL A   1      41.466  30.170  36.115  1.00  0.00     0.031 C 
ATOM     56  C   UNL A   1      44.468  26.554  32.281  1.00  0.00     0.029 A 
ATOM     57  C   UNL A   1      43.554  27.448  32.812  1.00  0.00     0.049 A 
ATOM     58  H   UNL A   1      41.892  28.366  31.891  1.00  0.00     0.167 HD
ATOM     59  C   UNL A   1      42.557  28.849  34.596  1.00  0.00     0.074 A 
ATOM     60  C   UNL A   1      42.500  29.357  35.950  1.00  0.00     0.031 C 
ATOM     61  C   UNL A   1      43.495  27.981  34.147  1.00  0.00     0.037 A 
BRANCH  48  62
ATOM     62  C   UNL A   1      42.841  26.424  28.224  1.00  0.00     0.057 A 
ATOM     63  C   UNL A   1      42.455  25.102  27.974  1.00  0.00     0.134 A 
ATOM     64  C   UNL A   1      43.797  26.996  27.377  1.00  0.00     0.134 A 
ATOM     65  F   UNL A   1      41.544  24.501  28.753  1.00  0.00    -0.206 F 
ATOM     66  C   UNL A   1      43.011  24.370  26.926  1.00  0.00     0.040 A 
ATOM     67  C   UNL A   1      44.351  26.278  26.317  1.00  0.00     0.040 A 
ATOM     68  F   UNL A   1      44.196  28.264  27.561  1.00  0.00    -0.206 F 
ATOM     69  C   UNL A   1      43.963  24.957  26.094  1.00  0.00     0.006 A 
ENDBRANCH  48  62
BRANCH  49  70
ATOM     70  C   UNL A   1      39.164  31.910  35.668  1.00  0.00     0.057 A 
ATOM     71  C   UNL A   1      38.246  31.414  36.602  1.00  0.00     0.134 A 
ATOM     72  C   UNL A   1      39.603  33.228  35.828  1.00  0.00     0.134 A 
ATOM     73  F   UNL A   1      37.789  30.158  36.501  1.00  0.00    -0.206 F 
ATOM     74  C   UNL A   1      37.778  32.203  37.654  1.00  0.00     0.040 A 
ATOM     75  C   UNL A   1      39.156  34.023  36.884  1.00  0.00     0.040 A 
ATOM     76  F   UNL A   1      40.499  33.749  34.977  1.00  0.00    -0.206 F 
ATOM     77  C   UNL A   1      38.237  33.510  37.800  1.00  0.00     0.006 A 
ENDBRANCH  49  70
BRANCH  61  78
ATOM     78  C   UNL A   1      44.561  27.551  35.107  1.00  0.00     0.057 A 
ATOM     79  C   UNL A   1      44.372  26.428  35.921  1.00  0.00     0.134 A 
ATOM     80  C   UNL A   1      45.733  28.293  35.280  1.00  0.00     0.134 A 
ATOM     81  F   UNL A   1      43.263  25.683  35.807  1.00  0.00    -0.206 F 
ATOM     82  C   UNL A   1      45.311  26.065  36.887  1.00  0.00     0.040 A 
ATOM     83  C   UNL A   1      46.687  27.931  36.233  1.00  0.00     0.040 A 
ATOM     84  F   UNL A   1      45.972  29.374  34.523  1.00  0.00    -0.206 F 
ATOM     85  C   UNL A   1      46.473  26.818  37.045  1.00  0.00     0.006 A 
ENDBRANCH  61  78
ENDBRANCH  35  36
ENDBRANCH  28  30
ENDBRANCH  27  28
ENDBRANCH  26  27
ENDBRANCH  25  26
ENDBRANCH  24  25
ENDBRANCH   1  24
TORSDOF 18
ENDMDL
MODEL 3
REMARK VINA RESULT:     -10.3      4.650      9.772
REMARK SMILES O=C(COc1ccc(F)cc1)Nc1sccc1C(=O)OCCOCCOC(=O)c1ccc(-c2c3nc(c(-c4c(F)cccc4F)c4ccc([nH]4)c(-c4c(F)cccc4F)c4nc(c(-c5c(F)cccc5F)c5ccc2[nH]5)C=C4)C=C3)cc1
REMARK SMILES IDX 22 1 21 2 20 3 18 4 19 5 17 6 13 7 14 8 15 9 16 10 12 11
REMARK SMILES IDX 1 12 2 13 3 15 4 16 5 17 6 18 11 19 7 20 10 21 8 22 9 23
REMARK SMILES IDX 23 24 24 25 25 26 26 27 27 28 28 29 29 30 30 31 82 32 31 33
REMARK SMILES IDX 81 34 32 35 33 36 34 37 75 38 35 39 80 40 74 41 76 42 36 43
REMARK SMILES IDX 79 44 73 45 72 46 37 48 63 49 46 50 62 51 47 52 50 53 61 54
REMARK SMILES IDX 77 55 48 56 49 57 60 59 78 60 51 61 38 62 39 63 44 64 40 65
REMARK SMILES IDX 41 66 43 67 45 68 42 69 64 70 65 71 70 72 66 73 67 74 69 75
REMARK SMILES IDX 71 76 68 77 52 78 53 79 58 80 54 81 55 82 57 83 59 84 56 85
REMARK H PARENT 12 14 76 47 50 58
REMARK Flexibility Score: inf
ROOT
ATOM      1  C   UNL A   1      43.304  18.890  25.751  1.00  0.00     0.202 C 
ENDROOT
BRANCH   1   2
ATOM      2  C   UNL A   1      41.860  18.771  26.243  1.00  0.00     0.261 C 
BRANCH   2   3
ATOM      3  O   UNL A   1      41.241  20.059  26.125  1.00  0.00    -0.460 OA
BRANCH   3   4
ATOM      4  C   UNL A   1      39.933  20.066  25.750  1.00  0.00     0.341 C 
ATOM      5  O   UNL A   1      39.293  19.072  25.423  1.00  0.00    -0.246 OA
BRANCH   4   6
ATOM      6  C   UNL A   1      39.301  21.350  26.031  1.00  0.00     0.094 A 
ATOM      7  C   UNL A   1      38.015  21.749  25.720  1.00  0.00     0.110 A 
ATOM      8  S   UNL A   1      37.761  23.420  25.981  1.00  0.00    -0.126 S 
ATOM      9  C   UNL A   1      39.308  23.615  26.668  1.00  0.00     0.068 A 
ATOM     10  C   UNL A   1      40.024  22.441  26.641  1.00  0.00     0.029 A 
BRANCH   7  11
ATOM     11  N   UNL A   1      36.862  21.146  25.276  1.00  0.00    -0.314 N 
ATOM     12  O   UNL A   1      35.341  21.958  26.847  1.00  0.00    -0.271 OA
ATOM     13  C   UNL A   1      35.613  21.308  25.844  1.00  0.00     0.262 C 
ATOM     14  H   UNL A   1      36.932  20.551  24.494  1.00  0.00     0.170 HD
BRANCH  13  15
ATOM     15  C   UNL A   1      34.522  20.627  25.019  1.00  0.00     0.329 C 
BRANCH  15  16
ATOM     16  O   UNL A   1      35.007  19.457  24.351  1.00  0.00    -0.484 OA
BRANCH  16  17
ATOM     17  C   UNL A   1      34.234  18.367  24.653  1.00  0.00     0.120 A 
ATOM     18  C   UNL A   1      33.004  18.521  25.297  1.00  0.00     0.049 A 
ATOM     19  C   UNL A   1      34.672  17.106  24.247  1.00  0.00     0.049 A 
ATOM     20  C   UNL A   1      32.233  17.397  25.590  1.00  0.00     0.043 A 
ATOM     21  C   UNL A   1      33.892  15.984  24.535  1.00  0.00     0.043 A 
ATOM     22  C   UNL A   1      32.686  16.139  25.210  1.00  0.00     0.123 A 
ATOM     23  F   UNL A   1      31.943  15.059  25.488  1.00  0.00    -0.207 F 
ENDBRANCH  16  17
ENDBRANCH  15  16
ENDBRANCH  13  15
ENDBRANCH   7  11
ENDBRANCH   4   6
ENDBRANCH   3   4
ENDBRANCH   2   3
ENDBRANCH   1   2
BRANCH   1  24
ATOM     24  O   UNL A   1      43.511  19.922  24.782  1.00  0.00    -0.374 OA
BRANCH  24  25
ATOM     25  C   UNL A   1      44.415  20.971  25.125  1.00  0.00     0.202 C 
BRANCH  25  26
ATOM     26  C   UNL A   1      43.777  22.355  25.275  1.00  0.00     0.261 C 
BRANCH  26  27
ATOM     27  O   UNL A   1      44.589  23.262  26.044  1.00  0.00    -0.460 OA
BRANCH  27  28
ATOM     28  C   UNL A   1      44.629  24.528  25.565  1.00  0.00     0.338 C 
ATOM     29  O   UNL A   1      45.200  24.925  24.564  1.00  0.00    -0.246 OA
BRANCH  28  30
ATOM     30  C   UNL A   1      43.782  25.416  26.384  1.00  0.00     0.060 A 
ATOM     31  C   UNL A   1      44.127  26.772  26.442  1.00  0.00     0.016 A 
ATOM     32  C   UNL A   1      42.756  24.910  27.187  1.00  0.00     0.016 A 
ATOM     33  C   UNL A   1      43.484  27.618  27.344  1.00  0.00     0.010 A 
ATOM     34  C   UNL A   1      42.121  25.758  28.101  1.00  0.00     0.010 A 
ATOM     35  C   UNL A   1      42.509  27.105  28.210  1.00  0.00    -0.014 A 
BRANCH  35  36
ATOM     36  C   UNL A   1      42.007  27.937  29.329  1.00  0.00     0.031 A 
ATOM     37  C   UNL A   1      42.760  27.941  30.631  1.00  0.00     0.074 A 
ATOM     38  C   UNL A   1      40.916  28.709  29.179  1.00  0.00     0.049 A 
ATOM     39  N   UNL A   1      42.460  28.533  31.759  1.00  0.00    -0.248 NA
ATOM     40  C   UNL A   1      44.023  27.186  30.664  1.00  0.00     0.031 C 
ATOM     41  C   UNL A   1      40.148  28.859  27.945  1.00  0.00     0.029 A 
ATOM     42  N   UNL A   1      40.272  29.519  30.080  1.00  0.00    -0.354 N 
ATOM     43  C   UNL A   1      43.496  28.228  32.632  1.00  0.00     0.074 A 
ATOM     44  C   UNL A   1      44.425  27.384  31.912  1.00  0.00     0.031 C 
ATOM     45  C   UNL A   1      39.131  29.710  28.167  1.00  0.00     0.029 A 
ATOM     46  C   UNL A   1      39.160  30.137  29.565  1.00  0.00     0.049 A 
ATOM     47  H   UNL A   1      40.578  29.645  31.007  1.00  0.00     0.167 HD
ATOM     48  C   UNL A   1      43.661  28.619  33.917  1.00  0.00     0.037 A 
ATOM     49  C   UNL A   1      38.260  30.942  30.162  1.00  0.00     0.037 A 
ATOM     50  C   UNL A   1      42.739  29.449  34.642  1.00  0.00     0.049 A 
ATOM     51  C   UNL A   1      38.411  31.280  31.621  1.00  0.00     0.074 A 
ATOM     52  C   UNL A   1      42.795  29.851  35.965  1.00  0.00     0.029 A 
ATOM     53  N   UNL A   1      41.594  30.009  34.099  1.00  0.00    -0.354 N 
ATOM     54  N   UNL A   1      39.366  30.940  32.452  1.00  0.00    -0.248 NA
ATOM     55  C   UNL A   1      37.354  32.102  32.229  1.00  0.00     0.031 C 
ATOM     56  C   UNL A   1      41.672  30.642  36.230  1.00  0.00     0.029 A 
ATOM     57  C   UNL A   1      40.934  30.752  35.063  1.00  0.00     0.049 A 
ATOM     58  H   UNL A   1      41.295  29.897  33.168  1.00  0.00     0.167 HD
ATOM     59  C   UNL A   1      39.041  31.528  33.667  1.00  0.00     0.074 A 
ATOM     60  C   UNL A   1      37.798  32.245  33.470  1.00  0.00     0.031 C 
ATOM     61  C   UNL A   1      39.712  31.478  34.842  1.00  0.00     0.037 A 
BRANCH  48  62
ATOM     62  C   UNL A   1      44.886  28.144  34.634  1.00  0.00     0.057 A 
ATOM     63  C   UNL A   1      46.094  28.842  34.529  1.00  0.00     0.134 A 
ATOM     64  C   UNL A   1      44.879  26.958  35.378  1.00  0.00     0.134 A 
ATOM     65  F   UNL A   1      46.162  29.983  33.828  1.00  0.00    -0.206 F 
ATOM     66  C   UNL A   1      47.261  28.369  35.130  1.00  0.00     0.040 A 
ATOM     67  C   UNL A   1      46.037  26.482  35.995  1.00  0.00     0.040 A 
ATOM     68  F   UNL A   1      43.747  26.254  35.524  1.00  0.00    -0.206 F 
ATOM     69  C   UNL A   1      47.234  27.185  35.866  1.00  0.00     0.006 A 
ENDBRANCH  48  62
BRANCH  49  70
ATOM     70  C   UNL A   1      37.119  31.484  29.385  1.00  0.00     0.057 A 
ATOM     71  C   UNL A   1      37.138  32.787  28.873  1.00  0.00     0.134 A 
ATOM     72  C   UNL A   1      35.991  30.700  29.122  1.00  0.00     0.134 A 
ATOM     73  F   UNL A   1      38.192  33.586  29.092  1.00  0.00    -0.206 F 
ATOM     74  C   UNL A   1      36.071  33.293  28.129  1.00  0.00     0.040 A 
ATOM     75  C   UNL A   1      34.924  31.188  28.366  1.00  0.00     0.040 A 
ATOM     76  F   UNL A   1      35.928  29.437  29.570  1.00  0.00    -0.206 F 
ATOM     77  C   UNL A   1      34.962  32.490  27.869  1.00  0.00     0.006 A 
ENDBRANCH  49  70
BRANCH  61  78
ATOM     78  C   UNL A   1      39.150  32.245  35.998  1.00  0.00     0.057 A 
ATOM     79  C   UNL A   1      38.208  31.656  36.851  1.00  0.00     0.134 A 
ATOM     80  C   UNL A   1      39.478  33.587  36.217  1.00  0.00     0.134 A 
ATOM     81  F   UNL A   1      37.846  30.376  36.685  1.00  0.00    -0.206 F 
ATOM     82  C   UNL A   1      37.602  32.382  37.876  1.00  0.00     0.040 A 
ATOM     83  C   UNL A   1      38.890  34.320  37.249  1.00  0.00     0.040 A 
ATOM     84  F   UNL A   1      40.380  34.202  35.437  1.00  0.00    -0.206 F 
ATOM     85  C   UNL A   1      37.942  33.719  38.078  1.00  0.00     0.006 A 
ENDBRANCH  61  78
ENDBRANCH  35  36
ENDBRANCH  28  30
ENDBRANCH  27  28
ENDBRANCH  26  27
ENDBRANCH  25  26
ENDBRANCH  24  25
ENDBRANCH   1  24
TORSDOF 18
ENDMDL
