MODEL 1
REMARK VINA RESULT:     -10.4      0.000      0.000
REMARK SMILES CC(C)[C@@H](NC(=O)[C@H]1CC[C@@H](C(C)C)CC1)C(=O)OCCOCCOC(=O)c1ccc(-c2c3nc(c(-c4c(F)cccc4F)c4ccc([nH]4)c(-c4c(F)cccc4F)c4nc(c(-c5c(F)cccc5F)c5ccc2[nH]5)C=C4)C=C3)cc1
REMARK SMILES IDX 21 1 20 2 19 3 17 4 18 5 4 6 5 7 6 8 7 9 8 11 11 12 15 13
REMARK SMILES IDX 10 14 16 15 9 16 12 17 13 18 14 19 2 20 1 21 3 22 22 23
REMARK SMILES IDX 23 24 24 25 25 26 26 27 27 28 28 29 29 30 81 31 30 32 80 33
REMARK SMILES IDX 31 34 32 35 33 36 74 37 34 38 79 39 73 40 75 41 35 42 78 43
REMARK SMILES IDX 72 44 71 45 36 47 62 48 45 49 61 50 46 51 49 52 60 53 76 54
REMARK SMILES IDX 47 55 48 56 59 58 77 59 50 60 37 61 38 62 43 63 39 64 40 65
REMARK SMILES IDX 42 66 44 67 41 68 63 69 64 70 69 71 65 72 66 73 68 74 70 75
REMARK SMILES IDX 67 76 51 77 52 78 57 79 53 80 54 81 56 82 58 83 55 84
REMARK H PARENT 5 10 75 46 49 57
REMARK Flexibility Score: inf
ROOT
ATOM      1  C   UNL A   1      32.176  29.390  27.065  1.00  0.00     0.202 C 
ENDROOT
BRANCH   1   2
ATOM      2  C   UNL A   1      31.925  28.110  26.260  1.00  0.00     0.261 C 
BRANCH   2   3
ATOM      3  O   UNL A   1      32.116  28.259  24.847  1.00  0.00    -0.462 OA
BRANCH   3   4
ATOM      4  C   UNL A   1      33.044  27.413  24.309  1.00  0.00     0.328 C 
ATOM      5  O   UNL A   1      34.206  27.728  24.081  1.00  0.00    -0.250 OA
BRANCH   4   6
ATOM      6  C   UNL A   1      32.470  26.010  24.003  1.00  0.00     0.194 C 
BRANCH   6   7
ATOM      7  N   UNL A   1      33.405  25.132  23.292  1.00  0.00    -0.342 N 
ATOM      8  C   UNL A   1      34.042  23.986  23.617  1.00  0.00     0.223 C 
ATOM      9  O   UNL A   1      34.758  23.515  22.723  1.00  0.00    -0.275 OA
ATOM     10  H   UNL A   1      33.615  25.447  22.383  1.00  0.00     0.164 HD
BRANCH   8  11
ATOM     11  C   UNL A   1      34.001  23.276  24.982  1.00  0.00     0.078 C 
ATOM     12  C   UNL A   1      33.316  20.330  25.225  1.00  0.00    -0.009 C 
ATOM     13  C   UNL A   1      34.792  20.782  25.190  1.00  0.00     0.004 C 
ATOM     14  C   UNL A   1      32.288  21.415  24.853  1.00  0.00     0.004 C 
ATOM     15  C   UNL A   1      35.090  22.276  25.358  1.00  0.00     0.014 C 
ATOM     16  C   UNL A   1      32.608  22.802  25.366  1.00  0.00     0.014 C 
BRANCH  12  17
ATOM     17  C   UNL A   1      32.985  19.025  24.406  1.00  0.00    -0.014 C 
ATOM     18  C   UNL A   1      32.362  19.213  23.021  1.00  0.00     0.007 C 
ATOM     19  C   UNL A   1      34.225  18.140  24.259  1.00  0.00     0.007 C 
ENDBRANCH  12  17
ENDBRANCH   8  11
ENDBRANCH   6   7
BRANCH   6  20
ATOM     20  C   UNL A   1      31.113  26.039  23.246  1.00  0.00     0.017 C 
ATOM     21  C   UNL A   1      31.347  26.327  21.754  1.00  0.00     0.010 C 
ATOM     22  C   UNL A   1      30.281  24.756  23.352  1.00  0.00     0.010 C 
ENDBRANCH   6  20
ENDBRANCH   4   6
ENDBRANCH   3   4
ENDBRANCH   2   3
ENDBRANCH   1   2
BRANCH   1  23
ATOM     23  O   UNL A   1      32.404  30.609  26.371  1.00  0.00    -0.374 OA
BRANCH  23  24
ATOM     24  C   UNL A   1      31.442  31.654  26.459  1.00  0.00     0.202 C 
BRANCH  24  25
ATOM     25  C   UNL A   1      31.904  33.090  26.732  1.00  0.00     0.261 C 
BRANCH  25  26
ATOM     26  O   UNL A   1      32.347  33.323  28.079  1.00  0.00    -0.460 OA
BRANCH  26  27
ATOM     27  C   UNL A   1      33.466  34.081  28.166  1.00  0.00     0.338 C 
ATOM     28  O   UNL A   1      33.528  35.303  28.245  1.00  0.00    -0.246 OA
BRANCH  27  29
ATOM     29  C   UNL A   1      34.668  33.248  28.322  1.00  0.00     0.060 A 
ATOM     30  C   UNL A   1      34.489  31.939  28.788  1.00  0.00     0.016 A 
ATOM     31  C   UNL A   1      35.948  33.788  28.183  1.00  0.00     0.016 A 
ATOM     32  C   UNL A   1      35.589  31.185  29.185  1.00  0.00     0.010 A 
ATOM     33  C   UNL A   1      37.052  33.033  28.595  1.00  0.00     0.010 A 
ATOM     34  C   UNL A   1      36.871  31.749  29.142  1.00  0.00    -0.014 A 
BRANCH  34  35
ATOM     35  C   UNL A   1      37.980  31.060  29.840  1.00  0.00     0.031 A 
ATOM     36  C   UNL A   1      38.224  31.361  31.294  1.00  0.00     0.074 A 
ATOM     37  C   UNL A   1      38.727  30.141  29.206  1.00  0.00     0.049 A 
ATOM     38  N   UNL A   1      39.132  30.878  32.103  1.00  0.00    -0.248 NA
ATOM     39  C   UNL A   1      37.316  32.336  31.922  1.00  0.00     0.031 C 
ATOM     40  C   UNL A   1      38.556  29.731  27.814  1.00  0.00     0.029 A 
ATOM     41  N   UNL A   1      39.779  29.387  29.656  1.00  0.00    -0.354 N 
ATOM     42  C   UNL A   1      38.909  31.490  33.329  1.00  0.00     0.074 A 
ATOM     43  C   UNL A   1      37.797  32.400  33.154  1.00  0.00     0.031 C 
ATOM     44  C   UNL A   1      39.482  28.804  27.518  1.00  0.00     0.029 A 
ATOM     45  C   UNL A   1      40.324  28.577  28.692  1.00  0.00     0.049 A 
ATOM     46  H   UNL A   1      40.112  29.423  30.581  1.00  0.00     0.167 HD
ATOM     47  C   UNL A   1      39.567  31.306  34.498  1.00  0.00     0.037 A 
ATOM     48  C   UNL A   1      41.393  27.759  28.748  1.00  0.00     0.037 A 
ATOM     49  C   UNL A   1      40.675  30.404  34.671  1.00  0.00     0.049 A 
ATOM     50  C   UNL A   1      42.152  27.622  30.039  1.00  0.00     0.074 A 
ATOM     51  C   UNL A   1      41.399  30.135  35.819  1.00  0.00     0.029 A 
ATOM     52  N   UNL A   1      41.222  29.629  33.660  1.00  0.00    -0.354 N 
ATOM     53  N   UNL A   1      41.922  28.189  31.199  1.00  0.00    -0.248 NA
ATOM     54  C   UNL A   1      43.320  26.730  30.030  1.00  0.00     0.031 C 
ATOM     55  C   UNL A   1      42.414  29.229  35.492  1.00  0.00     0.029 A 
ATOM     56  C   UNL A   1      42.292  28.900  34.151  1.00  0.00     0.049 A 
ATOM     57  H   UNL A   1      40.899  29.602  32.730  1.00  0.00     0.167 HD
ATOM     58  C   UNL A   1      42.897  27.706  32.061  1.00  0.00     0.074 A 
ATOM     59  C   UNL A   1      43.717  26.791  31.294  1.00  0.00     0.031 C 
ATOM     60  C   UNL A   1      43.096  27.992  33.372  1.00  0.00     0.037 A 
BRANCH  47  61
ATOM     61  C   UNL A   1      39.117  32.121  35.676  1.00  0.00     0.057 A 
ATOM     62  C   UNL A   1      38.234  31.609  36.636  1.00  0.00     0.134 A 
ATOM     63  C   UNL A   1      39.585  33.427  35.858  1.00  0.00     0.134 A 
ATOM     64  F   UNL A   1      37.738  30.369  36.512  1.00  0.00    -0.206 F 
ATOM     65  C   UNL A   1      37.814  32.378  37.723  1.00  0.00     0.040 A 
ATOM     66  C   UNL A   1      39.189  34.198  36.953  1.00  0.00     0.040 A 
ATOM     67  F   UNL A   1      40.433  33.977  34.977  1.00  0.00    -0.206 F 
ATOM     68  C   UNL A   1      38.296  33.675  37.886  1.00  0.00     0.006 A 
ENDBRANCH  47  61
BRANCH  48  69
ATOM     69  C   UNL A   1      41.815  27.014  27.537  1.00  0.00     0.057 A 
ATOM     70  C   UNL A   1      41.393  25.700  27.307  1.00  0.00     0.134 A 
ATOM     71  C   UNL A   1      42.650  27.602  26.578  1.00  0.00     0.134 A 
ATOM     72  F   UNL A   1      40.610  25.077  28.200  1.00  0.00    -0.206 F 
ATOM     73  C   UNL A   1      41.795  24.992  26.173  1.00  0.00     0.040 A 
ATOM     74  C   UNL A   1      43.042  26.914  25.429  1.00  0.00     0.040 A 
ATOM     75  F   UNL A   1      43.087  28.859  26.741  1.00  0.00    -0.206 F 
ATOM     76  C   UNL A   1      42.617  25.602  25.227  1.00  0.00     0.006 A 
ENDBRANCH  48  69
BRANCH  60  77
ATOM     77  C   UNL A   1      44.225  27.289  34.064  1.00  0.00     0.057 A 
ATOM     78  C   UNL A   1      45.501  27.857  34.160  1.00  0.00     0.134 A 
ATOM     79  C   UNL A   1      44.020  26.048  34.681  1.00  0.00     0.134 A 
ATOM     80  F   UNL A   1      45.765  29.038  33.582  1.00  0.00    -0.206 F 
ATOM     81  C   UNL A   1      46.539  27.207  34.828  1.00  0.00     0.040 A 
ATOM     82  C   UNL A   1      45.044  25.398  35.372  1.00  0.00     0.040 A 
ATOM     83  F   UNL A   1      42.819  25.453  34.633  1.00  0.00    -0.206 F 
ATOM     84  C   UNL A   1      46.310  25.976  35.442  1.00  0.00     0.006 A 
ENDBRANCH  60  77
ENDBRANCH  34  35
ENDBRANCH  27  29
ENDBRANCH  26  27
ENDBRANCH  25  26
ENDBRANCH  24  25
ENDBRANCH  23  24
ENDBRANCH   1  23
TORSDOF 18
ENDMDL
MODEL 2
REMARK VINA RESULT:     -10.4      4.464      8.251
REMARK SMILES CC(C)[C@@H](NC(=O)[C@H]1CC[C@@H](C(C)C)CC1)C(=O)OCCOCCOC(=O)c1ccc(-c2c3nc(c(-c4c(F)cccc4F)c4ccc([nH]4)c(-c4c(F)cccc4F)c4nc(c(-c5c(F)cccc5F)c5ccc2[nH]5)C=C4)C=C3)cc1
REMARK SMILES IDX 21 1 20 2 19 3 17 4 18 5 4 6 5 7 6 8 7 9 8 11 11 12 15 13
REMARK SMILES IDX 10 14 16 15 9 16 12 17 13 18 14 19 2 20 1 21 3 22 22 23
REMARK SMILES IDX 23 24 24 25 25 26 26 27 27 28 28 29 29 30 81 31 30 32 80 33
REMARK SMILES IDX 31 34 32 35 33 36 74 37 34 38 79 39 73 40 75 41 35 42 78 43
REMARK SMILES IDX 72 44 71 45 36 47 62 48 45 49 61 50 46 51 49 52 60 53 76 54
REMARK SMILES IDX 47 55 48 56 59 58 77 59 50 60 37 61 38 62 43 63 39 64 40 65
REMARK SMILES IDX 42 66 44 67 41 68 63 69 64 70 69 71 65 72 66 73 68 74 70 75
REMARK SMILES IDX 67 76 51 77 52 78 57 79 53 80 54 81 56 82 58 83 55 84
REMARK H PARENT 5 10 75 46 49 57
REMARK Flexibility Score: inf
ROOT
ATOM      1  C   UNL A   1      34.911  19.116  24.769  1.00  0.00     0.202 C 
ENDROOT
BRANCH   1   2
ATOM      2  C   UNL A   1      33.534  19.639  24.345  1.00  0.00     0.261 C 
BRANCH   2   3
ATOM      3  O   UNL A   1      33.263  20.983  24.762  1.00  0.00    -0.462 OA
BRANCH   3   4
ATOM      4  C   UNL A   1      33.088  21.869  23.738  1.00  0.00     0.328 C 
ATOM      5  O   UNL A   1      32.359  21.665  22.774  1.00  0.00    -0.250 OA
BRANCH   4   6
ATOM      6  C   UNL A   1      33.921  23.159  23.912  1.00  0.00     0.194 C 
BRANCH   6   7
ATOM      7  N   UNL A   1      33.907  24.035  22.734  1.00  0.00    -0.342 N 
ATOM      8  C   UNL A   1      33.472  25.294  22.511  1.00  0.00     0.223 C 
ATOM      9  O   UNL A   1      33.652  25.713  21.360  1.00  0.00    -0.275 OA
ATOM     10  H   UNL A   1      34.298  23.613  21.935  1.00  0.00     0.164 HD
BRANCH   8  11
ATOM     11  C   UNL A   1      32.739  26.196  23.519  1.00  0.00     0.078 C 
ATOM     12  C   UNL A   1      31.460  25.070  26.031  1.00  0.00    -0.009 C 
ATOM     13  C   UNL A   1      32.877  25.680  26.089  1.00  0.00     0.004 C 
ATOM     14  C   UNL A   1      30.906  24.833  24.614  1.00  0.00     0.004 C 
ATOM     15  C   UNL A   1      33.362  26.489  24.881  1.00  0.00     0.014 C 
ATOM     16  C   UNL A   1      31.248  25.907  23.605  1.00  0.00     0.014 C 
BRANCH  12  17
ATOM     17  C   UNL A   1      31.250  23.757  26.876  1.00  0.00    -0.014 C 
ATOM     18  C   UNL A   1      30.377  22.663  26.257  1.00  0.00     0.007 C 
ATOM     19  C   UNL A   1      32.593  23.135  27.267  1.00  0.00     0.007 C 
ENDBRANCH  12  17
ENDBRANCH   8  11
ENDBRANCH   6   7
BRANCH   6  20
ATOM     20  C   UNL A   1      35.392  22.903  24.345  1.00  0.00     0.017 C 
ATOM     21  C   UNL A   1      36.320  22.953  23.120  1.00  0.00     0.010 C 
ATOM     22  C   UNL A   1      35.942  23.879  25.392  1.00  0.00     0.010 C 
ENDBRANCH   6  20
ENDBRANCH   4   6
ENDBRANCH   3   4
ENDBRANCH   2   3
ENDBRANCH   1   2
BRANCH   1  23
ATOM     23  O   UNL A   1      35.937  20.048  25.080  1.00  0.00    -0.374 OA
BRANCH  23  24
ATOM     24  C   UNL A   1      37.298  19.683  24.875  1.00  0.00     0.202 C 
BRANCH  24  25
ATOM     25  C   UNL A   1      38.409  20.697  25.173  1.00  0.00     0.261 C 
BRANCH  25  26
ATOM     26  O   UNL A   1      39.102  20.466  26.411  1.00  0.00    -0.460 OA
BRANCH  26  27
ATOM     27  C   UNL A   1      40.392  20.083  26.256  1.00  0.00     0.338 C 
ATOM     28  O   UNL A   1      40.799  19.050  25.739  1.00  0.00    -0.246 OA
BRANCH  27  29
ATOM     29  C   UNL A   1      41.320  21.153  26.650  1.00  0.00     0.060 A 
ATOM     30  C   UNL A   1      41.392  21.475  28.012  1.00  0.00     0.016 A 
ATOM     31  C   UNL A   1      41.972  21.937  25.696  1.00  0.00     0.016 A 
ATOM     32  C   UNL A   1      42.059  22.625  28.421  1.00  0.00     0.010 A 
ATOM     33  C   UNL A   1      42.632  23.100  26.108  1.00  0.00     0.010 A 
ATOM     34  C   UNL A   1      42.635  23.473  27.465  1.00  0.00    -0.014 A 
BRANCH  34  35
ATOM     35  C   UNL A   1      43.071  24.827  27.877  1.00  0.00     0.031 A 
ATOM     36  C   UNL A   1      42.027  25.867  28.178  1.00  0.00     0.074 A 
ATOM     37  C   UNL A   1      44.374  25.112  28.033  1.00  0.00     0.049 A 
ATOM     38  N   UNL A   1      42.176  27.111  28.555  1.00  0.00    -0.248 NA
ATOM     39  C   UNL A   1      40.623  25.445  28.040  1.00  0.00     0.031 C 
ATOM     40  C   UNL A   1      45.474  24.174  27.818  1.00  0.00     0.029 A 
ATOM     41  N   UNL A   1      44.990  26.277  28.412  1.00  0.00    -0.354 N 
ATOM     42  C   UNL A   1      40.892  27.621  28.695  1.00  0.00     0.074 A 
ATOM     43  C   UNL A   1      39.973  26.560  28.338  1.00  0.00     0.031 C 
ATOM     44  C   UNL A   1      46.636  24.806  28.056  1.00  0.00     0.029 A 
ATOM     45  C   UNL A   1      46.359  26.196  28.416  1.00  0.00     0.049 A 
ATOM     46  H   UNL A   1      44.496  27.093  28.656  1.00  0.00     0.167 HD
ATOM     47  C   UNL A   1      40.511  28.857  29.093  1.00  0.00     0.037 A 
ATOM     48  C   UNL A   1      47.283  27.144  28.665  1.00  0.00     0.037 A 
ATOM     49  C   UNL A   1      41.425  29.912  29.445  1.00  0.00     0.049 A 
ATOM     50  C   UNL A   1      46.838  28.532  29.038  1.00  0.00     0.074 A 
ATOM     51  C   UNL A   1      41.138  31.196  29.875  1.00  0.00     0.029 A 
ATOM     52  N   UNL A   1      42.806  29.803  29.400  1.00  0.00    -0.354 N 
ATOM     53  N   UNL A   1      45.622  28.998  29.187  1.00  0.00    -0.248 NA
ATOM     54  C   UNL A   1      47.895  29.525  29.278  1.00  0.00     0.031 C 
ATOM     55  C   UNL A   1      42.348  31.878  30.047  1.00  0.00     0.029 A 
ATOM     56  C   UNL A   1      43.387  31.004  29.769  1.00  0.00     0.049 A 
ATOM     57  H   UNL A   1      43.301  28.991  29.142  1.00  0.00     0.167 HD
ATOM     58  C   UNL A   1      45.766  30.328  29.561  1.00  0.00     0.074 A 
ATOM     59  C   UNL A   1      47.189  30.592  29.626  1.00  0.00     0.031 C 
ATOM     60  C   UNL A   1      44.807  31.248  29.829  1.00  0.00     0.037 A 
BRANCH  47  61
ATOM     61  C   UNL A   1      39.038  29.141  29.140  1.00  0.00     0.057 A 
ATOM     62  C   UNL A   1      38.300  29.024  30.325  1.00  0.00     0.134 A 
ATOM     63  C   UNL A   1      38.355  29.551  27.990  1.00  0.00     0.134 A 
ATOM     64  F   UNL A   1      38.892  28.622  31.460  1.00  0.00    -0.206 F 
ATOM     65  C   UNL A   1      36.928  29.281  30.358  1.00  0.00     0.040 A 
ATOM     66  C   UNL A   1      36.987  29.833  28.015  1.00  0.00     0.040 A 
ATOM     67  F   UNL A   1      39.003  29.685  26.823  1.00  0.00    -0.206 F 
ATOM     68  C   UNL A   1      36.269  29.691  29.200  1.00  0.00     0.006 A 
ENDBRANCH  47  61
BRANCH  48  69
ATOM     69  C   UNL A   1      48.725  26.812  28.558  1.00  0.00     0.057 A 
ATOM     70  C   UNL A   1      49.420  26.970  27.354  1.00  0.00     0.134 A 
ATOM     71  C   UNL A   1      49.442  26.330  29.660  1.00  0.00     0.134 A 
ATOM     72  F   UNL A   1      48.782  27.407  26.259  1.00  0.00    -0.206 F 
ATOM     73  C   UNL A   1      50.775  26.649  27.247  1.00  0.00     0.040 A 
ATOM     74  C   UNL A   1      50.801  26.026  29.573  1.00  0.00     0.040 A 
ATOM     75  F   UNL A   1      48.832  26.157  30.841  1.00  0.00    -0.206 F 
ATOM     76  C   UNL A   1      51.470  26.183  28.360  1.00  0.00     0.006 A 
ENDBRANCH  48  69
BRANCH  60  77
ATOM     77  C   UNL A   1      45.263  32.615  30.243  1.00  0.00     0.057 A 
ATOM     78  C   UNL A   1      45.550  32.925  31.578  1.00  0.00     0.134 A 
ATOM     79  C   UNL A   1      45.460  33.620  29.287  1.00  0.00     0.134 A 
ATOM     80  F   UNL A   1      45.371  32.010  32.542  1.00  0.00    -0.206 F 
ATOM     81  C   UNL A   1      45.998  34.193  31.951  1.00  0.00     0.040 A 
ATOM     82  C   UNL A   1      45.930  34.885  29.644  1.00  0.00     0.040 A 
ATOM     83  F   UNL A   1      45.212  33.385  27.991  1.00  0.00    -0.206 F 
ATOM     84  C   UNL A   1      46.196  35.175  30.981  1.00  0.00     0.006 A 
ENDBRANCH  60  77
ENDBRANCH  34  35
ENDBRANCH  27  29
ENDBRANCH  26  27
ENDBRANCH  25  26
ENDBRANCH  24  25
ENDBRANCH  23  24
ENDBRANCH   1  23
TORSDOF 18
ENDMDL
MODEL 3
REMARK VINA RESULT:     -10.4      4.186      9.460
REMARK SMILES CC(C)[C@@H](NC(=O)[C@H]1CC[C@@H](C(C)C)CC1)C(=O)OCCOCCOC(=O)c1ccc(-c2c3nc(c(-c4c(F)cccc4F)c4ccc([nH]4)c(-c4c(F)cccc4F)c4nc(c(-c5c(F)cccc5F)c5ccc2[nH]5)C=C4)C=C3)cc1
REMARK SMILES IDX 21 1 20 2 19 3 17 4 18 5 4 6 5 7 6 8 7 9 8 11 11 12 15 13
REMARK SMILES IDX 10 14 16 15 9 16 12 17 13 18 14 19 2 20 1 21 3 22 22 23
REMARK SMILES IDX 23 24 24 25 25 26 26 27 27 28 28 29 29 30 81 31 30 32 80 33
REMARK SMILES IDX 31 34 32 35 33 36 74 37 34 38 79 39 73 40 75 41 35 42 78 43
REMARK SMILES IDX 72 44 71 45 36 47 62 48 45 49 61 50 46 51 49 52 60 53 76 54
REMARK SMILES IDX 47 55 48 56 59 58 77 59 50 60 37 61 38 62 43 63 39 64 40 65
REMARK SMILES IDX 42 66 44 67 41 68 63 69 64 70 69 71 65 72 66 73 68 74 70 75
REMARK SMILES IDX 67 76 51 77 52 78 57 79 53 80 54 81 56 82 58 83 55 84
REMARK H PARENT 5 10 75 46 49 57
REMARK Flexibility Score: inf
ROOT
ATOM      1  C   UNL A   1      34.635  19.003  24.688  1.00  0.00     0.202 C 
ENDROOT
BRANCH   1   2
ATOM      2  C   UNL A   1      33.417  19.744  24.126  1.00  0.00     0.261 C 
BRANCH   2   3
ATOM      3  O   UNL A   1      33.271  21.085  24.608  1.00  0.00    -0.462 OA
BRANCH   3   4
ATOM      4  C   UNL A   1      33.238  22.037  23.630  1.00  0.00     0.328 C 
ATOM      5  O   UNL A   1      32.648  21.904  22.564  1.00  0.00    -0.250 OA
BRANCH   4   6
ATOM      6  C   UNL A   1      34.040  23.306  24.002  1.00  0.00     0.194 C 
BRANCH   6   7
ATOM      7  N   UNL A   1      34.097  24.304  22.928  1.00  0.00    -0.342 N 
ATOM      8  C   UNL A   1      33.499  25.498  22.729  1.00  0.00     0.223 C 
ATOM      9  O   UNL A   1      33.820  26.075  21.681  1.00  0.00    -0.275 OA
ATOM     10  H   UNL A   1      34.701  24.047  22.194  1.00  0.00     0.164 HD
BRANCH   8  11
ATOM     11  C   UNL A   1      32.440  26.149  23.636  1.00  0.00     0.078 C 
ATOM     12  C   UNL A   1      30.958  24.557  25.753  1.00  0.00    -0.009 C 
ATOM     13  C   UNL A   1      32.203  25.386  26.136  1.00  0.00     0.004 C 
ATOM     14  C   UNL A   1      30.725  24.385  24.240  1.00  0.00     0.004 C 
ATOM     15  C   UNL A   1      32.740  26.392  25.112  1.00  0.00     0.014 C 
ATOM     16  C   UNL A   1      31.038  25.606  23.402  1.00  0.00     0.014 C 
BRANCH  12  17
ATOM     17  C   UNL A   1      30.846  23.143  26.439  1.00  0.00    -0.014 C 
ATOM     18  C   UNL A   1      31.994  22.724  27.361  1.00  0.00     0.007 C 
ATOM     19  C   UNL A   1      29.534  23.013  27.217  1.00  0.00     0.007 C 
ENDBRANCH  12  17
ENDBRANCH   8  11
ENDBRANCH   6   7
BRANCH   6  20
ATOM     20  C   UNL A   1      35.480  23.013  24.510  1.00  0.00     0.017 C 
ATOM     21  C   UNL A   1      36.455  22.948  23.323  1.00  0.00     0.010 C 
ATOM     22  C   UNL A   1      36.033  24.025  25.519  1.00  0.00     0.010 C 
ENDBRANCH   6  20
ENDBRANCH   4   6
ENDBRANCH   3   4
ENDBRANCH   2   3
ENDBRANCH   1   2
BRANCH   1  23
ATOM     23  O   UNL A   1      35.802  19.744  25.015  1.00  0.00    -0.374 OA
BRANCH  23  24
ATOM     24  C   UNL A   1      37.083  19.197  24.720  1.00  0.00     0.202 C 
BRANCH  24  25
ATOM     25  C   UNL A   1      38.343  20.032  24.975  1.00  0.00     0.261 C 
BRANCH  25  26
ATOM     26  O   UNL A   1      39.119  19.600  26.106  1.00  0.00    -0.460 OA
BRANCH  26  27
ATOM     27  C   UNL A   1      40.398  20.044  26.096  1.00  0.00     0.338 C 
ATOM     28  O   UNL A   1      41.352  19.541  25.515  1.00  0.00    -0.246 OA
BRANCH  27  29
ATOM     29  C   UNL A   1      40.517  21.350  26.761  1.00  0.00     0.060 A 
ATOM     30  C   UNL A   1      39.870  22.440  26.163  1.00  0.00     0.016 A 
ATOM     31  C   UNL A   1      41.381  21.539  27.842  1.00  0.00     0.016 A 
ATOM     32  C   UNL A   1      40.138  23.734  26.599  1.00  0.00     0.010 A 
ATOM     33  C   UNL A   1      41.659  22.842  28.271  1.00  0.00     0.010 A 
ATOM     34  C   UNL A   1      41.076  23.944  27.618  1.00  0.00    -0.014 A 
BRANCH  34  35
ATOM     35  C   UNL A   1      41.573  25.318  27.863  1.00  0.00     0.031 A 
ATOM     36  C   UNL A   1      42.936  25.700  27.355  1.00  0.00     0.074 A 
ATOM     37  C   UNL A   1      40.802  26.228  28.481  1.00  0.00     0.049 A 
ATOM     38  N   UNL A   1      43.571  26.840  27.453  1.00  0.00    -0.248 NA
ATOM     39  C   UNL A   1      43.684  24.655  26.636  1.00  0.00     0.031 C 
ATOM     40  C   UNL A   1      39.447  25.990  28.975  1.00  0.00     0.029 A 
ATOM     41  N   UNL A   1      41.053  27.539  28.796  1.00  0.00    -0.354 N 
ATOM     42  C   UNL A   1      44.789  26.650  26.813  1.00  0.00     0.074 A 
ATOM     43  C   UNL A   1      44.818  25.278  26.353  1.00  0.00     0.031 C 
ATOM     44  C   UNL A   1      38.988  27.117  29.543  1.00  0.00     0.029 A 
ATOM     45  C   UNL A   1      40.026  28.145  29.474  1.00  0.00     0.049 A 
ATOM     46  H   UNL A   1      41.889  27.999  28.558  1.00  0.00     0.167 HD
ATOM     47  C   UNL A   1      45.790  27.541  26.619  1.00  0.00     0.037 A 
ATOM     48  C   UNL A   1      39.944  29.384  29.996  1.00  0.00     0.037 A 
ATOM     49  C   UNL A   1      45.762  28.904  27.080  1.00  0.00     0.049 A 
ATOM     50  C   UNL A   1      41.097  30.335  29.829  1.00  0.00     0.074 A 
ATOM     51  C   UNL A   1      46.721  29.889  26.921  1.00  0.00     0.029 A 
ATOM     52  N   UNL A   1      44.720  29.470  27.798  1.00  0.00    -0.354 N 
ATOM     53  N   UNL A   1      42.236  30.153  29.206  1.00  0.00    -0.248 NA
ATOM     54  C   UNL A   1      40.953  31.665  30.439  1.00  0.00     0.031 C 
ATOM     55  C   UNL A   1      46.277  31.040  27.582  1.00  0.00     0.029 A 
ATOM     56  C   UNL A   1      45.022  30.784  28.112  1.00  0.00     0.049 A 
ATOM     57  H   UNL A   1      43.888  29.005  28.048  1.00  0.00     0.167 HD
ATOM     58  C   UNL A   1      42.932  31.348  29.326  1.00  0.00     0.074 A 
ATOM     59  C   UNL A   1      42.083  32.254  30.073  1.00  0.00     0.031 C 
ATOM     60  C   UNL A   1      44.163  31.671  28.857  1.00  0.00     0.037 A 
BRANCH  47  61
ATOM     61  C   UNL A   1      47.013  27.054  25.899  1.00  0.00     0.057 A 
ATOM     62  C   UNL A   1      47.186  27.246  24.522  1.00  0.00     0.134 A 
ATOM     63  C   UNL A   1      48.036  26.398  26.595  1.00  0.00     0.134 A 
ATOM     64  F   UNL A   1      46.237  27.854  23.795  1.00  0.00    -0.206 F 
ATOM     65  C   UNL A   1      48.323  26.781  23.858  1.00  0.00     0.040 A 
ATOM     66  C   UNL A   1      49.188  25.948  25.946  1.00  0.00     0.040 A 
ATOM     67  F   UNL A   1      47.933  26.184  27.914  1.00  0.00    -0.206 F 
ATOM     68  C   UNL A   1      49.330  26.133  24.572  1.00  0.00     0.006 A 
ENDBRANCH  47  61
BRANCH  48  69
ATOM     69  C   UNL A   1      38.725  29.791  30.737  1.00  0.00     0.057 A 
ATOM     70  C   UNL A   1      37.683  30.477  30.102  1.00  0.00     0.134 A 
ATOM     71  C   UNL A   1      38.573  29.501  32.099  1.00  0.00     0.134 A 
ATOM     72  F   UNL A   1      37.781  30.802  28.805  1.00  0.00    -0.206 F 
ATOM     73  C   UNL A   1      36.538  30.870  30.798  1.00  0.00     0.040 A 
ATOM     74  C   UNL A   1      37.425  29.870  32.801  1.00  0.00     0.040 A 
ATOM     75  F   UNL A   1      39.536  28.846  32.762  1.00  0.00    -0.206 F 
ATOM     76  C   UNL A   1      36.405  30.560  32.150  1.00  0.00     0.006 A 
ENDBRANCH  48  69
BRANCH  60  77
ATOM     77  C   UNL A   1      44.653  33.064  29.114  1.00  0.00     0.057 A 
ATOM     78  C   UNL A   1      45.398  33.385  30.256  1.00  0.00     0.134 A 
ATOM     79  C   UNL A   1      44.415  34.086  28.187  1.00  0.00     0.134 A 
ATOM     80  F   UNL A   1      45.651  32.454  31.188  1.00  0.00    -0.206 F 
ATOM     81  C   UNL A   1      45.871  34.680  30.476  1.00  0.00     0.040 A 
ATOM     82  C   UNL A   1      44.903  35.379  28.384  1.00  0.00     0.040 A 
ATOM     83  F   UNL A   1      43.716  33.842  27.069  1.00  0.00    -0.206 F 
ATOM     84  C   UNL A   1      45.629  35.680  29.534  1.00  0.00     0.006 A 
ENDBRANCH  60  77
ENDBRANCH  34  35
ENDBRANCH  27  29
ENDBRANCH  26  27
ENDBRANCH  25  26
ENDBRANCH  24  25
ENDBRANCH  23  24
ENDBRANCH   1  23
TORSDOF 18
ENDMDL
