MODEL 1
REMARK VINA RESULT:     -10.9      0.000      0.000
REMARK SMILES C[C@]1(C(=O)N2CCC(CC(=O)OCCOCCOC(=O)c3ccc(-c4c5nc(c(-c6c(F)cccc6F)c6ccc([nH]6)c(-c6c(F)cccc6F)c6nc(c(-c7c(F)cccc7F)c7ccc4[nH]7)C=C6)C=C5)cc3)CC2)CCC[NH2+]1
REMARK SMILES IDX 15 1 14 2 13 3 12 4 10 5 11 6 9 7 8 8 3 9 4 10 5 11 6 12
REMARK SMILES IDX 76 13 7 14 75 15 2 16 1 17 77 18 80 19 78 20 79 21 16 24
REMARK SMILES IDX 17 25 18 26 19 27 20 28 21 29 22 30 74 31 23 32 73 33 24 34
REMARK SMILES IDX 25 35 26 36 67 37 27 38 72 39 66 40 68 41 28 42 71 43 65 44
REMARK SMILES IDX 64 45 29 47 55 48 38 49 54 50 39 51 42 52 53 53 69 54 40 55
REMARK SMILES IDX 41 56 52 58 70 59 43 60 30 61 31 62 36 63 32 64 33 65 35 66
REMARK SMILES IDX 37 67 34 68 56 69 57 70 62 71 58 72 59 73 61 74 63 75 60 76
REMARK SMILES IDX 44 77 45 78 50 79 46 80 47 81 49 82 51 83 48 84
REMARK H PARENT 80 22 80 23 68 46 42 57
REMARK Flexibility Score: inf
ROOT
ATOM      1  O   UNL A   1      42.979  20.257  25.147  1.00  0.00    -0.374 OA
ENDROOT
BRANCH   1   2
ATOM      2  C   UNL A   1      42.301  19.809  26.320  1.00  0.00     0.202 C 
BRANCH   2   3
ATOM      3  C   UNL A   1      41.340  20.819  26.952  1.00  0.00     0.261 C 
BRANCH   3   4
ATOM      4  O   UNL A   1      40.487  21.405  25.949  1.00  0.00    -0.463 OA
BRANCH   4   5
ATOM      5  C   UNL A   1      39.448  22.157  26.388  1.00  0.00     0.306 C 
ATOM      6  O   UNL A   1      39.529  23.029  27.245  1.00  0.00    -0.252 OA
BRANCH   5   7
ATOM      7  C   UNL A   1      38.129  21.767  25.750  1.00  0.00     0.126 C 
BRANCH   7   8
ATOM      8  C   UNL A   1      37.309  22.862  25.032  1.00  0.00     0.003 C 
ATOM      9  C   UNL A   1      33.436  23.218  24.143  1.00  0.00     0.283 C 
ATOM     10  O   UNL A   1      33.282  22.049  23.774  1.00  0.00    -0.268 OA
ATOM     11  N   UNL A   1      34.698  23.795  24.154  1.00  0.00    -0.337 N 
ATOM     12  C   UNL A   1      35.667  23.358  23.171  1.00  0.00     0.120 C 
ATOM     13  C   UNL A   1      35.258  24.397  25.355  1.00  0.00     0.120 C 
ATOM     14  C   UNL A   1      36.623  22.332  23.758  1.00  0.00     0.026 C 
ATOM     15  C   UNL A   1      36.249  23.426  26.013  1.00  0.00     0.026 C 
BRANCH   9  16
ATOM     16  C   UNL A   1      32.202  24.113  24.448  1.00  0.00     0.173 C 
ATOM     17  C   UNL A   1      31.049  23.570  23.581  1.00  0.00     0.090 C 
ATOM     18  C   UNL A   1      31.850  24.121  25.930  1.00  0.00     0.084 C 
ATOM     19  N   UNL A   1      32.416  25.550  24.140  1.00  0.00    -0.334 N 
ATOM     20  C   UNL A   1      31.012  25.378  26.080  1.00  0.00     0.068 C 
ATOM     21  C   UNL A   1      31.584  26.340  25.050  1.00  0.00     0.261 C 
ATOM     22  H   UNL A   1      32.148  25.740  23.175  1.00  0.00     0.347 HD
ATOM     23  H   UNL A   1      33.399  25.795  24.259  1.00  0.00     0.347 HD
ENDBRANCH   9  16
ENDBRANCH   7   8
ENDBRANCH   5   7
ENDBRANCH   4   5
ENDBRANCH   3   4
ENDBRANCH   2   3
ENDBRANCH   1   2
BRANCH   1  24
ATOM     24  C   UNL A   1      44.366  20.562  25.280  1.00  0.00     0.202 C 
BRANCH  24  25
ATOM     25  C   UNL A   1      44.779  21.965  24.819  1.00  0.00     0.261 C 
BRANCH  25  26
ATOM     26  O   UNL A   1      43.859  22.975  25.274  1.00  0.00    -0.460 OA
BRANCH  26  27
ATOM     27  C   UNL A   1      44.363  24.231  25.294  1.00  0.00     0.338 C 
ATOM     28  O   UNL A   1      45.247  24.688  24.580  1.00  0.00    -0.246 OA
BRANCH  27  29
ATOM     29  C   UNL A   1      43.584  25.079  26.214  1.00  0.00     0.060 A 
ATOM     30  C   UNL A   1      43.846  26.456  26.203  1.00  0.00     0.016 A 
ATOM     31  C   UNL A   1      42.667  24.541  27.120  1.00  0.00     0.016 A 
ATOM     32  C   UNL A   1      43.228  27.294  27.128  1.00  0.00     0.010 A 
ATOM     33  C   UNL A   1      42.053  25.382  28.054  1.00  0.00     0.010 A 
ATOM     34  C   UNL A   1      42.355  26.757  28.084  1.00  0.00    -0.014 A 
BRANCH  34  35
ATOM     35  C   UNL A   1      41.871  27.609  29.197  1.00  0.00     0.031 A 
ATOM     36  C   UNL A   1      42.584  27.560  30.520  1.00  0.00     0.074 A 
ATOM     37  C   UNL A   1      40.823  28.434  29.028  1.00  0.00     0.049 A 
ATOM     38  N   UNL A   1      42.301  28.176  31.640  1.00  0.00    -0.248 NA
ATOM     39  C   UNL A   1      43.776  26.700  30.590  1.00  0.00     0.031 C 
ATOM     40  C   UNL A   1      40.075  28.606  27.784  1.00  0.00     0.029 A 
ATOM     41  N   UNL A   1      40.203  29.279  29.916  1.00  0.00    -0.354 N 
ATOM     42  C   UNL A   1      43.273  27.773  32.547  1.00  0.00     0.074 A 
ATOM     43  C   UNL A   1      44.137  26.841  31.857  1.00  0.00     0.031 C 
ATOM     44  C   UNL A   1      39.084  29.492  27.993  1.00  0.00     0.029 A 
ATOM     45  C   UNL A   1      39.110  29.921  29.389  1.00  0.00     0.049 A 
ATOM     46  H   UNL A   1      40.513  29.410  30.841  1.00  0.00     0.167 HD
ATOM     47  C   UNL A   1      43.433  28.152  33.838  1.00  0.00     0.037 A 
ATOM     48  C   UNL A   1      38.217  30.743  29.976  1.00  0.00     0.037 A 
ATOM     49  C   UNL A   1      42.577  29.083  34.524  1.00  0.00     0.049 A 
ATOM     50  C   UNL A   1      38.373  31.090  31.433  1.00  0.00     0.074 A 
ATOM     51  C   UNL A   1      42.673  29.545  35.825  1.00  0.00     0.029 A 
ATOM     52  N   UNL A   1      41.462  29.688  33.965  1.00  0.00    -0.354 N 
ATOM     53  N   UNL A   1      39.307  30.721  32.276  1.00  0.00    -0.248 NA
ATOM     54  C   UNL A   1      37.349  31.968  32.019  1.00  0.00     0.031 C 
ATOM     55  C   UNL A   1      41.589  30.394  36.068  1.00  0.00     0.029 A 
ATOM     56  C   UNL A   1      40.846  30.498  34.904  1.00  0.00     0.049 A 
ATOM     57  H   UNL A   1      41.154  29.560  33.039  1.00  0.00     0.167 HD
ATOM     58  C   UNL A   1      38.999  31.341  33.481  1.00  0.00     0.074 A 
ATOM     59  C   UNL A   1      37.797  32.117  33.259  1.00  0.00     0.031 C 
ATOM     60  C   UNL A   1      39.655  31.274  34.666  1.00  0.00     0.037 A 
BRANCH  47  61
ATOM     61  C   UNL A   1      44.570  27.539  34.601  1.00  0.00     0.057 A 
ATOM     62  C   UNL A   1      44.427  26.333  35.299  1.00  0.00     0.134 A 
ATOM     63  C   UNL A   1      45.832  28.145  34.606  1.00  0.00     0.134 A 
ATOM     64  F   UNL A   1      43.240  25.711  35.344  1.00  0.00    -0.206 F 
ATOM     65  C   UNL A   1      45.496  25.763  35.993  1.00  0.00     0.040 A 
ATOM     66  C   UNL A   1      46.914  27.572  35.275  1.00  0.00     0.040 A 
ATOM     67  F   UNL A   1      46.037  29.299  33.953  1.00  0.00    -0.206 F 
ATOM     68  C   UNL A   1      46.745  26.379  35.975  1.00  0.00     0.006 A 
ENDBRANCH  47  61
BRANCH  48  69
ATOM     69  C   UNL A   1      37.078  31.280  29.192  1.00  0.00     0.057 A 
ATOM     70  C   UNL A   1      37.086  32.591  28.705  1.00  0.00     0.134 A 
ATOM     71  C   UNL A   1      35.944  30.500  28.930  1.00  0.00     0.134 A 
ATOM     72  F   UNL A   1      38.132  33.395  28.946  1.00  0.00    -0.206 F 
ATOM     73  C   UNL A   1      36.003  33.114  27.997  1.00  0.00     0.040 A 
ATOM     74  C   UNL A   1      34.865  31.003  28.202  1.00  0.00     0.040 A 
ATOM     75  F   UNL A   1      35.875  29.237  29.373  1.00  0.00    -0.206 F 
ATOM     76  C   UNL A   1      34.889  32.316  27.739  1.00  0.00     0.006 A 
ENDBRANCH  48  69
BRANCH  60  77
ATOM     77  C   UNL A   1      39.114  32.089  35.804  1.00  0.00     0.057 A 
ATOM     78  C   UNL A   1      38.235  31.547  36.748  1.00  0.00     0.134 A 
ATOM     79  C   UNL A   1      39.522  33.418  35.984  1.00  0.00     0.134 A 
ATOM     80  F   UNL A   1      37.797  30.286  36.625  1.00  0.00    -0.206 F 
ATOM     81  C   UNL A   1      37.768  32.303  37.826  1.00  0.00     0.040 A 
ATOM     82  C   UNL A   1      39.081  34.175  37.071  1.00  0.00     0.040 A 
ATOM     83  F   UNL A   1      40.371  33.993  35.120  1.00  0.00    -0.206 F 
ATOM     84  C   UNL A   1      38.198  33.619  37.993  1.00  0.00     0.006 A 
ENDBRANCH  60  77
ENDBRANCH  34  35
ENDBRANCH  27  29
ENDBRANCH  26  27
ENDBRANCH  25  26
ENDBRANCH  24  25
ENDBRANCH   1  24
TORSDOF 16
ENDMDL
MODEL 2
REMARK VINA RESULT:     -10.7      1.035      2.112
REMARK SMILES C[C@]1(C(=O)N2CCC(CC(=O)OCCOCCOC(=O)c3ccc(-c4c5nc(c(-c6c(F)cccc6F)c6ccc([nH]6)c(-c6c(F)cccc6F)c6nc(c(-c7c(F)cccc7F)c7ccc4[nH]7)C=C6)C=C5)cc3)CC2)CCC[NH2+]1
REMARK SMILES IDX 15 1 14 2 13 3 12 4 10 5 11 6 9 7 8 8 3 9 4 10 5 11 6 12
REMARK SMILES IDX 76 13 7 14 75 15 2 16 1 17 77 18 80 19 78 20 79 21 16 24
REMARK SMILES IDX 17 25 18 26 19 27 20 28 21 29 22 30 74 31 23 32 73 33 24 34
REMARK SMILES IDX 25 35 26 36 67 37 27 38 72 39 66 40 68 41 28 42 71 43 65 44
REMARK SMILES IDX 64 45 29 47 55 48 38 49 54 50 39 51 42 52 53 53 69 54 40 55
REMARK SMILES IDX 41 56 52 58 70 59 43 60 30 61 31 62 36 63 32 64 33 65 35 66
REMARK SMILES IDX 37 67 34 68 56 69 57 70 62 71 58 72 59 73 61 74 63 75 60 76
REMARK SMILES IDX 44 77 45 78 50 79 46 80 47 81 49 82 51 83 48 84
REMARK H PARENT 80 22 80 23 68 46 42 57
REMARK Flexibility Score: inf
ROOT
ATOM      1  O   UNL A   1      41.682  20.957  25.474  1.00  0.00    -0.374 OA
ENDROOT
BRANCH   1   2
ATOM      2  C   UNL A   1      40.728  20.777  26.520  1.00  0.00     0.202 C 
BRANCH   2   3
ATOM      3  C   UNL A   1      39.625  21.836  26.594  1.00  0.00     0.261 C 
BRANCH   3   4
ATOM      4  O   UNL A   1      38.821  21.818  25.399  1.00  0.00    -0.463 OA
BRANCH   4   5
ATOM      5  C   UNL A   1      37.920  20.813  25.279  1.00  0.00     0.306 C 
ATOM      6  O   UNL A   1      38.174  19.693  24.853  1.00  0.00    -0.252 OA
BRANCH   5   7
ATOM      7  C   UNL A   1      36.516  21.232  25.673  1.00  0.00     0.126 C 
BRANCH   7   8
ATOM      8  C   UNL A   1      35.472  21.445  24.555  1.00  0.00     0.003 C 
ATOM      9  C   UNL A   1      32.284  23.820  24.224  1.00  0.00     0.283 C 
ATOM     10  O   UNL A   1      31.867  23.635  25.372  1.00  0.00    -0.268 OA
ATOM     11  N   UNL A   1      33.134  22.902  23.624  1.00  0.00    -0.337 N 
ATOM     12  C   UNL A   1      33.008  21.505  23.982  1.00  0.00     0.120 C 
ATOM     13  C   UNL A   1      34.428  23.290  23.083  1.00  0.00     0.120 C 
ATOM     14  C   UNL A   1      34.044  21.107  25.023  1.00  0.00     0.026 C 
ATOM     15  C   UNL A   1      35.542  22.916  24.071  1.00  0.00     0.026 C 
BRANCH   9  16
ATOM     16  C   UNL A   1      31.739  25.002  23.373  1.00  0.00     0.173 C 
ATOM     17  C   UNL A   1      30.271  25.199  23.799  1.00  0.00     0.090 C 
ATOM     18  C   UNL A   1      32.564  26.270  23.554  1.00  0.00     0.084 C 
ATOM     19  N   UNL A   1      31.800  24.761  21.909  1.00  0.00    -0.334 N 
ATOM     20  C   UNL A   1      32.214  27.089  22.326  1.00  0.00     0.068 C 
ATOM     21  C   UNL A   1      31.957  26.055  21.241  1.00  0.00     0.261 C 
ATOM     22  H   UNL A   1      30.939  24.313  21.597  1.00  0.00     0.347 HD
ATOM     23  H   UNL A   1      32.586  24.150  21.683  1.00  0.00     0.347 HD
ENDBRANCH   9  16
ENDBRANCH   7   8
ENDBRANCH   5   7
ENDBRANCH   4   5
ENDBRANCH   3   4
ENDBRANCH   2   3
ENDBRANCH   1   2
BRANCH   1  24
ATOM     24  C   UNL A   1      43.057  20.814  25.822  1.00  0.00     0.202 C 
BRANCH  24  25
ATOM     25  C   UNL A   1      44.002  21.860  25.220  1.00  0.00     0.261 C 
BRANCH  25  26
ATOM     26  O   UNL A   1      43.305  23.063  24.843  1.00  0.00    -0.460 OA
BRANCH  26  27
ATOM     27  C   UNL A   1      44.000  24.206  25.048  1.00  0.00     0.338 C 
ATOM     28  O   UNL A   1      45.019  24.568  24.474  1.00  0.00    -0.246 OA
BRANCH  27  29
ATOM     29  C   UNL A   1      43.270  25.087  25.978  1.00  0.00     0.060 A 
ATOM     30  C   UNL A   1      43.667  26.430  26.042  1.00  0.00     0.016 A 
ATOM     31  C   UNL A   1      42.267  24.604  26.822  1.00  0.00     0.016 A 
ATOM     32  C   UNL A   1      43.096  27.284  26.983  1.00  0.00     0.010 A 
ATOM     33  C   UNL A   1      41.701  25.462  27.771  1.00  0.00     0.010 A 
ATOM     34  C   UNL A   1      42.136  26.796  27.879  1.00  0.00    -0.014 A 
BRANCH  34  35
ATOM     35  C   UNL A   1      41.692  27.643  29.012  1.00  0.00     0.031 A 
ATOM     36  C   UNL A   1      42.437  27.569  30.317  1.00  0.00     0.074 A 
ATOM     37  C   UNL A   1      40.652  28.484  28.879  1.00  0.00     0.049 A 
ATOM     38  N   UNL A   1      42.191  28.177  31.450  1.00  0.00    -0.248 NA
ATOM     39  C   UNL A   1      43.618  26.691  30.348  1.00  0.00     0.031 C 
ATOM     40  C   UNL A   1      39.876  28.681  27.656  1.00  0.00     0.029 A 
ATOM     41  N   UNL A   1      40.067  29.328  29.791  1.00  0.00    -0.354 N 
ATOM     42  C   UNL A   1      43.179  27.750  32.328  1.00  0.00     0.074 A 
ATOM     43  C   UNL A   1      44.012  26.813  31.606  1.00  0.00     0.031 C 
ATOM     44  C   UNL A   1      38.904  29.578  27.899  1.00  0.00     0.029 A 
ATOM     45  C   UNL A   1      38.971  29.991  29.299  1.00  0.00     0.049 A 
ATOM     46  H   UNL A   1      40.401  29.445  30.709  1.00  0.00     0.167 HD
ATOM     47  C   UNL A   1      43.377  28.112  33.618  1.00  0.00     0.037 A 
ATOM     48  C   UNL A   1      38.105  30.819  29.916  1.00  0.00     0.037 A 
ATOM     49  C   UNL A   1      42.551  29.047  34.336  1.00  0.00     0.049 A 
ATOM     50  C   UNL A   1      38.302  31.148  31.373  1.00  0.00     0.074 A 
ATOM     51  C   UNL A   1      42.687  29.493  35.639  1.00  0.00     0.029 A 
ATOM     52  N   UNL A   1      41.432  29.674  33.811  1.00  0.00    -0.354 N 
ATOM     53  N   UNL A   1      39.251  30.757  32.188  1.00  0.00    -0.248 NA
ATOM     54  C   UNL A   1      37.306  32.034  31.994  1.00  0.00     0.031 C 
ATOM     55  C   UNL A   1      41.622  30.355  35.918  1.00  0.00     0.029 A 
ATOM     56  C   UNL A   1      40.851  30.483  34.774  1.00  0.00     0.049 A 
ATOM     57  H   UNL A   1      41.099  29.561  32.892  1.00  0.00     0.167 HD
ATOM     58  C   UNL A   1      38.982  31.368  33.407  1.00  0.00     0.074 A 
ATOM     59  C   UNL A   1      37.787  32.163  33.223  1.00  0.00     0.031 C 
ATOM     60  C   UNL A   1      39.667  31.278  34.574  1.00  0.00     0.037 A 
BRANCH  47  61
ATOM     61  C   UNL A   1      44.523  27.474  34.346  1.00  0.00     0.057 A 
ATOM     62  C   UNL A   1      45.791  28.068  34.396  1.00  0.00     0.134 A 
ATOM     63  C   UNL A   1      44.345  26.268  35.036  1.00  0.00     0.134 A 
ATOM     64  F   UNL A   1      46.030  29.215  33.744  1.00  0.00    -0.206 F 
ATOM     65  C   UNL A   1      46.846  27.473  35.091  1.00  0.00     0.040 A 
ATOM     66  C   UNL A   1      45.385  25.677  35.753  1.00  0.00     0.040 A 
ATOM     67  F   UNL A   1      43.154  25.650  35.031  1.00  0.00    -0.206 F 
ATOM     68  C   UNL A   1      46.642  26.278  35.777  1.00  0.00     0.006 A 
ENDBRANCH  47  61
BRANCH  48  69
ATOM     69  C   UNL A   1      36.954  31.381  29.167  1.00  0.00     0.057 A 
ATOM     70  C   UNL A   1      35.833  30.600  28.867  1.00  0.00     0.134 A 
ATOM     71  C   UNL A   1      36.957  32.707  28.716  1.00  0.00     0.134 A 
ATOM     72  F   UNL A   1      35.782  29.316  29.249  1.00  0.00    -0.206 F 
ATOM     73  C   UNL A   1      34.762  31.112  28.132  1.00  0.00     0.040 A 
ATOM     74  C   UNL A   1      35.883  33.238  28.002  1.00  0.00     0.040 A 
ATOM     75  F   UNL A   1      38.005  33.505  28.969  1.00  0.00    -0.206 F 
ATOM     76  C   UNL A   1      34.783  32.437  27.702  1.00  0.00     0.006 A 
ENDBRANCH  48  69
BRANCH  60  77
ATOM     77  C   UNL A   1      39.166  32.088  35.734  1.00  0.00     0.057 A 
ATOM     78  C   UNL A   1      39.518  33.432  35.903  1.00  0.00     0.134 A 
ATOM     79  C   UNL A   1      38.275  31.529  36.660  1.00  0.00     0.134 A 
ATOM     80  F   UNL A   1      40.375  34.022  35.058  1.00  0.00    -0.206 F 
ATOM     81  C   UNL A   1      39.014  34.189  36.964  1.00  0.00     0.040 A 
ATOM     82  C   UNL A   1      37.747  32.281  37.711  1.00  0.00     0.040 A 
ATOM     83  F   UNL A   1      37.890  30.249  36.548  1.00  0.00    -0.206 F 
ATOM     84  C   UNL A   1      38.120  33.614  37.867  1.00  0.00     0.006 A 
ENDBRANCH  60  77
ENDBRANCH  34  35
ENDBRANCH  27  29
ENDBRANCH  26  27
ENDBRANCH  25  26
ENDBRANCH  24  25
ENDBRANCH   1  24
TORSDOF 16
ENDMDL
MODEL 3
REMARK VINA RESULT:     -10.5      3.728      5.683
REMARK SMILES C[C@]1(C(=O)N2CCC(CC(=O)OCCOCCOC(=O)c3ccc(-c4c5nc(c(-c6c(F)cccc6F)c6ccc([nH]6)c(-c6c(F)cccc6F)c6nc(c(-c7c(F)cccc7F)c7ccc4[nH]7)C=C6)C=C5)cc3)CC2)CCC[NH2+]1
REMARK SMILES IDX 15 1 14 2 13 3 12 4 10 5 11 6 9 7 8 8 3 9 4 10 5 11 6 12
REMARK SMILES IDX 76 13 7 14 75 15 2 16 1 17 77 18 80 19 78 20 79 21 16 24
REMARK SMILES IDX 17 25 18 26 19 27 20 28 21 29 22 30 74 31 23 32 73 33 24 34
REMARK SMILES IDX 25 35 26 36 67 37 27 38 72 39 66 40 68 41 28 42 71 43 65 44
REMARK SMILES IDX 64 45 29 47 55 48 38 49 54 50 39 51 42 52 53 53 69 54 40 55
REMARK SMILES IDX 41 56 52 58 70 59 43 60 30 61 31 62 36 63 32 64 33 65 35 66
REMARK SMILES IDX 37 67 34 68 56 69 57 70 62 71 58 72 59 73 61 74 63 75 60 76
REMARK SMILES IDX 44 77 45 78 50 79 46 80 47 81 49 82 51 83 48 84
REMARK H PARENT 80 22 80 23 68 46 42 57
REMARK Flexibility Score: inf
ROOT
ATOM      1  O   UNL A   1      36.931  21.503  24.381  1.00  0.00    -0.374 OA
ENDROOT
BRANCH   1   2
ATOM      2  C   UNL A   1      36.877  22.677  23.572  1.00  0.00     0.202 C 
BRANCH   2   3
ATOM      3  C   UNL A   1      35.529  23.402  23.553  1.00  0.00     0.261 C 
BRANCH   3   4
ATOM      4  O   UNL A   1      35.508  24.464  24.528  1.00  0.00    -0.463 OA
BRANCH   4   5
ATOM      5  C   UNL A   1      34.343  25.142  24.673  1.00  0.00     0.306 C 
ATOM      6  O   UNL A   1      33.848  25.871  23.823  1.00  0.00    -0.252 OA
BRANCH   5   7
ATOM      7  C   UNL A   1      33.725  24.961  26.046  1.00  0.00     0.126 C 
BRANCH   7   8
ATOM      8  C   UNL A   1      33.045  23.613  26.374  1.00  0.00     0.003 C 
ATOM      9  C   UNL A   1      32.825  20.133  24.436  1.00  0.00     0.283 C 
ATOM     10  O   UNL A   1      32.625  20.622  23.318  1.00  0.00    -0.268 OA
ATOM     11  N   UNL A   1      32.546  20.859  25.584  1.00  0.00    -0.337 N 
ATOM     12  C   UNL A   1      31.462  21.819  25.550  1.00  0.00     0.120 C 
ATOM     13  C   UNL A   1      33.551  21.093  26.610  1.00  0.00     0.120 C 
ATOM     14  C   UNL A   1      31.982  23.230  25.326  1.00  0.00     0.026 C 
ATOM     15  C   UNL A   1      34.128  22.508  26.464  1.00  0.00     0.026 C 
BRANCH   9  16
ATOM     16  C   UNL A   1      33.241  18.642  24.575  1.00  0.00     0.173 C 
ATOM     17  C   UNL A   1      32.456  18.086  25.779  1.00  0.00     0.090 C 
ATOM     18  C   UNL A   1      32.976  17.849  23.302  1.00  0.00     0.084 C 
ATOM     19  N   UNL A   1      34.696  18.448  24.802  1.00  0.00    -0.334 N 
ATOM     20  C   UNL A   1      33.877  16.637  23.455  1.00  0.00     0.068 C 
ATOM     21  C   UNL A   1      35.076  17.152  24.236  1.00  0.00     0.261 C 
ATOM     22  H   UNL A   1      34.894  18.459  25.803  1.00  0.00     0.347 HD
ATOM     23  H   UNL A   1      35.227  19.197  24.357  1.00  0.00     0.347 HD
ENDBRANCH   9  16
ENDBRANCH   7   8
ENDBRANCH   5   7
ENDBRANCH   4   5
ENDBRANCH   3   4
ENDBRANCH   2   3
ENDBRANCH   1   2
BRANCH   1  24
ATOM     24  C   UNL A   1      38.066  21.357  25.231  1.00  0.00     0.202 C 
BRANCH  24  25
ATOM     25  C   UNL A   1      38.839  20.042  25.077  1.00  0.00     0.261 C 
BRANCH  25  26
ATOM     26  O   UNL A   1      39.583  19.712  26.266  1.00  0.00    -0.460 OA
BRANCH  26  27
ATOM     27  C   UNL A   1      40.927  19.687  26.103  1.00  0.00     0.338 C 
ATOM     28  O   UNL A   1      41.589  18.833  25.527  1.00  0.00    -0.246 OA
BRANCH  27  29
ATOM     29  C   UNL A   1      41.522  20.946  26.586  1.00  0.00     0.060 A 
ATOM     30  C   UNL A   1      41.418  21.227  27.955  1.00  0.00     0.016 A 
ATOM     31  C   UNL A   1      42.109  21.869  25.717  1.00  0.00     0.016 A 
ATOM     32  C   UNL A   1      41.856  22.452  28.454  1.00  0.00     0.010 A 
ATOM     33  C   UNL A   1      42.541  23.102  26.218  1.00  0.00     0.010 A 
ATOM     34  C   UNL A   1      42.387  23.412  27.583  1.00  0.00    -0.014 A 
BRANCH  34  35
ATOM     35  C   UNL A   1      42.649  24.786  28.076  1.00  0.00     0.031 A 
ATOM     36  C   UNL A   1      44.051  25.170  28.461  1.00  0.00     0.074 A 
ATOM     37  C   UNL A   1      41.657  25.690  28.160  1.00  0.00     0.049 A 
ATOM     38  N   UNL A   1      44.496  26.293  28.964  1.00  0.00    -0.248 NA
ATOM     39  C   UNL A   1      45.091  24.150  28.251  1.00  0.00     0.031 C 
ATOM     40  C   UNL A   1      40.266  25.455  27.776  1.00  0.00     0.029 A 
ATOM     41  N   UNL A   1      41.672  26.989  28.604  1.00  0.00    -0.354 N 
ATOM     42  C   UNL A   1      45.863  26.113  29.138  1.00  0.00     0.074 A 
ATOM     43  C   UNL A   1      46.170  24.765  28.711  1.00  0.00     0.031 C 
ATOM     44  C   UNL A   1      39.556  26.572  28.017  1.00  0.00     0.029 A 
ATOM     45  C   UNL A   1      40.435  27.583  28.601  1.00  0.00     0.049 A 
ATOM     46  H   UNL A   1      42.491  27.449  28.898  1.00  0.00     0.167 HD
ATOM     47  C   UNL A   1      46.779  26.994  29.605  1.00  0.00     0.037 A 
ATOM     48  C   UNL A   1      40.052  28.798  29.042  1.00  0.00     0.037 A 
ATOM     49  C   UNL A   1      46.475  28.336  30.026  1.00  0.00     0.049 A 
ATOM     50  C   UNL A   1      41.077  29.733  29.628  1.00  0.00     0.074 A 
ATOM     51  C   UNL A   1      47.341  29.310  30.493  1.00  0.00     0.029 A 
ATOM     52  N   UNL A   1      45.205  28.891  30.036  1.00  0.00    -0.354 N 
ATOM     53  N   UNL A   1      42.369  29.561  29.768  1.00  0.00    -0.248 NA
ATOM     54  C   UNL A   1      40.589  31.031  30.117  1.00  0.00     0.031 C 
ATOM     55  C   UNL A   1      46.588  30.439  30.829  1.00  0.00     0.029 A 
ATOM     56  C   UNL A   1      45.260  30.184  30.527  1.00  0.00     0.049 A 
ATOM     57  H   UNL A   1      44.385  28.433  29.739  1.00  0.00     0.167 HD
ATOM     58  C   UNL A   1      42.851  30.735  30.334  1.00  0.00     0.074 A 
ATOM     59  C   UNL A   1      41.714  31.615  30.505  1.00  0.00     0.031 C 
ATOM     60  C   UNL A   1      44.122  31.054  30.681  1.00  0.00     0.037 A 
BRANCH  47  61
ATOM     61  C   UNL A   1      48.200  26.523  29.707  1.00  0.00     0.057 A 
ATOM     62  C   UNL A   1      48.674  25.841  30.835  1.00  0.00     0.134 A 
ATOM     63  C   UNL A   1      49.094  26.724  28.648  1.00  0.00     0.134 A 
ATOM     64  F   UNL A   1      47.871  25.631  31.889  1.00  0.00    -0.206 F 
ATOM     65  C   UNL A   1      49.994  25.393  30.913  1.00  0.00     0.040 A 
ATOM     66  C   UNL A   1      50.408  26.259  28.705  1.00  0.00     0.040 A 
ATOM     67  F   UNL A   1      48.702  27.366  27.538  1.00  0.00    -0.206 F 
ATOM     68  C   UNL A   1      50.862  25.595  29.843  1.00  0.00     0.006 A 
ENDBRANCH  47  61
BRANCH  48  69
ATOM     69  C   UNL A   1      38.624  29.196  28.970  1.00  0.00     0.057 A 
ATOM     70  C   UNL A   1      37.790  29.114  30.091  1.00  0.00     0.134 A 
ATOM     71  C   UNL A   1      38.054  29.649  27.774  1.00  0.00     0.134 A 
ATOM     72  F   UNL A   1      38.271  28.663  31.259  1.00  0.00    -0.206 F 
ATOM     73  C   UNL A   1      36.439  29.453  30.022  1.00  0.00     0.040 A 
ATOM     74  C   UNL A   1      36.710  30.015  27.697  1.00  0.00     0.040 A 
ATOM     75  F   UNL A   1      38.801  29.746  26.664  1.00  0.00    -0.206 F 
ATOM     76  C   UNL A   1      35.896  29.911  28.823  1.00  0.00     0.006 A 
ENDBRANCH  48  69
BRANCH  60  77
ATOM     77  C   UNL A   1      44.362  32.425  31.243  1.00  0.00     0.057 A 
ATOM     78  C   UNL A   1      44.553  33.539  30.418  1.00  0.00     0.134 A 
ATOM     79  C   UNL A   1      44.345  32.638  32.629  1.00  0.00     0.134 A 
ATOM     80  F   UNL A   1      44.591  33.399  29.085  1.00  0.00    -0.206 F 
ATOM     81  C   UNL A   1      44.736  34.817  30.951  1.00  0.00     0.040 A 
ATOM     82  C   UNL A   1      44.503  33.915  33.172  1.00  0.00     0.040 A 
ATOM     83  F   UNL A   1      44.157  31.614  33.474  1.00  0.00    -0.206 F 
ATOM     84  C   UNL A   1      44.703  35.007  32.332  1.00  0.00     0.006 A 
ENDBRANCH  60  77
ENDBRANCH  34  35
ENDBRANCH  27  29
ENDBRANCH  26  27
ENDBRANCH  25  26
ENDBRANCH  24  25
ENDBRANCH   1  24
TORSDOF 16
ENDMDL
