MODEL 1
REMARK VINA RESULT:     -10.8      0.000      0.000
REMARK SMILES O=C(Nc1ccsc1C(=O)OCCOCCOC(=O)c1ccc(-c2c3nc(c(-c4c(F)cccc4F)c4ccc([nH]4)c(-c4c(F)cccc4F)c4nc(c(-c5c(F)cccc5F)c5ccc2[nH]5)C=C4)C=C3)cc1)c1ccc(Br)nc1
REMARK SMILES IDX 14 1 13 2 12 3 11 4 9 5 10 6 8 7 4 8 5 9 6 10 7 11 3 12 1 13
REMARK SMILES IDX 2 14 74 16 75 17 80 18 76 19 79 20 77 21 78 22 15 23 16 24
REMARK SMILES IDX 17 25 18 26 19 27 20 28 21 29 73 30 22 31 72 32 23 33 24 34
REMARK SMILES IDX 25 35 66 36 26 37 71 38 65 39 67 40 27 41 70 42 64 43 63 44
REMARK SMILES IDX 28 46 54 47 37 48 53 49 38 50 41 51 52 52 68 53 39 54 40 55
REMARK SMILES IDX 51 57 69 58 42 59 29 60 30 61 35 62 31 63 32 64 34 65 36 66
REMARK SMILES IDX 33 67 55 68 56 69 61 70 57 71 58 72 60 73 62 74 59 75 43 76
REMARK SMILES IDX 44 77 49 78 45 79 46 80 48 81 50 82 47 83
REMARK H PARENT 3 15 67 45 41 56
REMARK Flexibility Score: inf
ROOT
ATOM      1  O   UNL A   1      32.417  30.967  27.040  1.00  0.00    -0.374 OA
ENDROOT
BRANCH   1   2
ATOM      2  C   UNL A   1      32.046  29.647  26.639  1.00  0.00     0.202 C 
BRANCH   2   3
ATOM      3  C   UNL A   1      32.468  28.555  27.626  1.00  0.00     0.261 C 
BRANCH   3   4
ATOM      4  O   UNL A   1      31.856  27.302  27.264  1.00  0.00    -0.459 OA
BRANCH   4   5
ATOM      5  C   UNL A   1      32.449  26.641  26.224  1.00  0.00     0.350 C 
ATOM      6  O   UNL A   1      33.628  26.313  26.208  1.00  0.00    -0.245 OA
BRANCH   5   7
ATOM      7  C   UNL A   1      31.466  26.334  25.193  1.00  0.00     0.136 A 
ATOM      8  C   UNL A   1      30.335  25.517  25.183  1.00  0.00     0.067 A 
ATOM      9  C   UNL A   1      29.691  25.564  23.904  1.00  0.00     0.039 A 
ATOM     10  C   UNL A   1      30.376  26.308  22.974  1.00  0.00     0.068 A 
ATOM     11  S   UNL A   1      31.755  27.034  23.643  1.00  0.00    -0.135 S 
BRANCH   8  12
ATOM     12  N   UNL A   1      29.898  24.819  26.311  1.00  0.00    -0.320 N 
ATOM     13  O   UNL A   1      29.547  23.008  27.626  1.00  0.00    -0.269 OA
ATOM     14  C   UNL A   1      30.245  23.573  26.787  1.00  0.00     0.257 C 
ATOM     15  H   UNL A   1      29.232  25.297  26.857  1.00  0.00     0.170 HD
BRANCH  14  16
ATOM     16  C   UNL A   1      31.496  22.918  26.378  1.00  0.00     0.058 A 
ATOM     17  C   UNL A   1      32.661  23.066  27.129  1.00  0.00     0.018 A 
ATOM     18  C   UNL A   1      31.554  22.176  25.207  1.00  0.00     0.126 A 
ATOM     19  C   UNL A   1      33.820  22.408  26.716  1.00  0.00     0.037 A 
ATOM     20  N   UNL A   1      32.663  21.522  24.787  1.00  0.00    -0.249 NA
ATOM     21  C   UNL A   1      33.772  21.646  25.554  1.00  0.00     0.106 A 
ATOM     22  Br  UNL A   1      35.325  20.707  25.007  1.00  0.00    -0.029 Br
ENDBRANCH  14  16
ENDBRANCH   8  12
ENDBRANCH   5   7
ENDBRANCH   4   5
ENDBRANCH   3   4
ENDBRANCH   2   3
ENDBRANCH   1   2
BRANCH   1  23
ATOM     23  C   UNL A   1      31.538  32.024  26.645  1.00  0.00     0.202 C 
BRANCH  23  24
ATOM     24  C   UNL A   1      32.107  33.435  26.831  1.00  0.00     0.261 C 
BRANCH  24  25
ATOM     25  O   UNL A   1      32.195  33.770  28.230  1.00  0.00    -0.460 OA
BRANCH  25  26
ATOM     26  C   UNL A   1      33.234  34.574  28.560  1.00  0.00     0.338 C 
ATOM     27  O   UNL A   1      33.208  35.779  28.736  1.00  0.00    -0.246 OA
BRANCH  26  28
ATOM     28  C   UNL A   1      34.425  33.754  28.868  1.00  0.00     0.060 A 
ATOM     29  C   UNL A   1      34.207  32.509  29.470  1.00  0.00     0.016 A 
ATOM     30  C   UNL A   1      35.725  34.204  28.623  1.00  0.00     0.016 A 
ATOM     31  C   UNL A   1      35.288  31.728  29.875  1.00  0.00     0.010 A 
ATOM     32  C   UNL A   1      36.810  33.423  29.039  1.00  0.00     0.010 A 
ATOM     33  C   UNL A   1      36.596  32.199  29.696  1.00  0.00    -0.014 A 
BRANCH  33  34
ATOM     34  C   UNL A   1      37.723  31.470  30.324  1.00  0.00     0.031 A 
ATOM     35  C   UNL A   1      38.068  31.754  31.759  1.00  0.00     0.074 A 
ATOM     36  C   UNL A   1      38.412  30.542  29.637  1.00  0.00     0.049 A 
ATOM     37  N   UNL A   1      39.017  31.245  32.502  1.00  0.00    -0.248 NA
ATOM     38  C   UNL A   1      37.229  32.746  32.449  1.00  0.00     0.031 C 
ATOM     39  C   UNL A   1      38.156  30.154  28.253  1.00  0.00     0.029 A 
ATOM     40  N   UNL A   1      39.474  29.761  30.018  1.00  0.00    -0.354 N 
ATOM     41  C   UNL A   1      38.889  31.850  33.745  1.00  0.00     0.074 A 
ATOM     42  C   UNL A   1      37.791  32.788  33.650  1.00  0.00     0.031 C 
ATOM     43  C   UNL A   1      39.049  29.215  27.893  1.00  0.00     0.029 A 
ATOM     44  C   UNL A   1      39.950  28.956  29.014  1.00  0.00     0.049 A 
ATOM     45  H   UNL A   1      39.856  29.776  30.925  1.00  0.00     0.167 HD
ATOM     46  C   UNL A   1      39.615  31.637  34.869  1.00  0.00     0.037 A 
ATOM     47  C   UNL A   1      41.006  28.120  28.997  1.00  0.00     0.037 A 
ATOM     48  C   UNL A   1      40.713  30.714  34.966  1.00  0.00     0.049 A 
ATOM     49  C   UNL A   1      41.839  27.949  30.238  1.00  0.00     0.074 A 
ATOM     50  C   UNL A   1      41.502  30.424  36.065  1.00  0.00     0.029 A 
ATOM     51  N   UNL A   1      41.182  29.936  33.919  1.00  0.00    -0.354 N 
ATOM     52  N   UNL A   1      41.694  28.508  31.415  1.00  0.00    -0.248 NA
ATOM     53  C   UNL A   1      42.981  27.027  30.149  1.00  0.00     0.031 C 
ATOM     54  C   UNL A   1      42.476  29.497  35.672  1.00  0.00     0.029 A 
ATOM     55  C   UNL A   1      42.265  29.180  34.340  1.00  0.00     0.049 A 
ATOM     56  H   UNL A   1      40.802  29.923  33.011  1.00  0.00     0.167 HD
ATOM     57  C   UNL A   1      42.710  27.992  32.210  1.00  0.00     0.074 A 
ATOM     58  C   UNL A   1      43.457  27.065  31.386  1.00  0.00     0.031 C 
ATOM     59  C   UNL A   1      42.997  28.261  33.508  1.00  0.00     0.037 A 
BRANCH  46  60
ATOM     60  C   UNL A   1      39.247  32.440  36.082  1.00  0.00     0.057 A 
ATOM     61  C   UNL A   1      38.355  31.952  37.045  1.00  0.00     0.134 A 
ATOM     62  C   UNL A   1      39.807  33.705  36.298  1.00  0.00     0.134 A 
ATOM     63  F   UNL A   1      37.774  30.753  36.888  1.00  0.00    -0.206 F 
ATOM     64  C   UNL A   1      38.014  32.705  38.170  1.00  0.00     0.040 A 
ATOM     65  C   UNL A   1      39.490  34.458  37.430  1.00  0.00     0.040 A 
ATOM     66  F   UNL A   1      40.671  34.228  35.415  1.00  0.00    -0.206 F 
ATOM     67  C   UNL A   1      38.587  33.959  38.367  1.00  0.00     0.006 A 
ENDBRANCH  46  60
BRANCH  47  68
ATOM     68  C   UNL A   1      41.347  27.389  27.752  1.00  0.00     0.057 A 
ATOM     69  C   UNL A   1      42.152  27.970  26.766  1.00  0.00     0.134 A 
ATOM     70  C   UNL A   1      40.868  26.096  27.517  1.00  0.00     0.134 A 
ATOM     71  F   UNL A   1      42.621  29.216  26.926  1.00  0.00    -0.206 F 
ATOM     72  C   UNL A   1      42.460  27.294  25.585  1.00  0.00     0.040 A 
ATOM     73  C   UNL A   1      41.185  25.400  26.349  1.00  0.00     0.040 A 
ATOM     74  F   UNL A   1      40.090  25.487  28.423  1.00  0.00    -0.206 F 
ATOM     75  C   UNL A   1      41.980  26.003  25.376  1.00  0.00     0.006 A 
ENDBRANCH  47  68
BRANCH  59  76
ATOM     76  C   UNL A   1      44.151  27.526  34.124  1.00  0.00     0.057 A 
ATOM     77  C   UNL A   1      45.442  28.069  34.148  1.00  0.00     0.134 A 
ATOM     78  C   UNL A   1      43.959  26.281  34.735  1.00  0.00     0.134 A 
ATOM     79  F   UNL A   1      45.693  29.252  33.569  1.00  0.00    -0.206 F 
ATOM     80  C   UNL A   1      46.505  27.389  34.745  1.00  0.00     0.040 A 
ATOM     81  C   UNL A   1      45.010  25.603  35.354  1.00  0.00     0.040 A 
ATOM     82  F   UNL A   1      42.745  25.710  34.753  1.00  0.00    -0.206 F 
ATOM     83  C   UNL A   1      46.289  26.156  35.355  1.00  0.00     0.006 A 
ENDBRANCH  59  76
ENDBRANCH  33  34
ENDBRANCH  26  28
ENDBRANCH  25  26
ENDBRANCH  24  25
ENDBRANCH  23  24
ENDBRANCH   1  23
TORSDOF 16
ENDMDL
MODEL 2
REMARK VINA RESULT:     -10.6      4.339      7.549
REMARK SMILES O=C(Nc1ccsc1C(=O)OCCOCCOC(=O)c1ccc(-c2c3nc(c(-c4c(F)cccc4F)c4ccc([nH]4)c(-c4c(F)cccc4F)c4nc(c(-c5c(F)cccc5F)c5ccc2[nH]5)C=C4)C=C3)cc1)c1ccc(Br)nc1
REMARK SMILES IDX 14 1 13 2 12 3 11 4 9 5 10 6 8 7 4 8 5 9 6 10 7 11 3 12 1 13
REMARK SMILES IDX 2 14 74 16 75 17 80 18 76 19 79 20 77 21 78 22 15 23 16 24
REMARK SMILES IDX 17 25 18 26 19 27 20 28 21 29 73 30 22 31 72 32 23 33 24 34
REMARK SMILES IDX 25 35 66 36 26 37 71 38 65 39 67 40 27 41 70 42 64 43 63 44
REMARK SMILES IDX 28 46 54 47 37 48 53 49 38 50 41 51 52 52 68 53 39 54 40 55
REMARK SMILES IDX 51 57 69 58 42 59 29 60 30 61 35 62 31 63 32 64 34 65 36 66
REMARK SMILES IDX 33 67 55 68 56 69 61 70 57 71 58 72 60 73 62 74 59 75 43 76
REMARK SMILES IDX 44 77 49 78 45 79 46 80 48 81 50 82 47 83
REMARK H PARENT 3 15 67 45 41 56
REMARK Flexibility Score: inf
ROOT
ATOM      1  O   UNL A   1      34.027  21.889  25.492  1.00  0.00    -0.374 OA
ENDROOT
BRANCH   1   2
ATOM      2  C   UNL A   1      33.711  20.972  24.444  1.00  0.00     0.202 C 
BRANCH   2   3
ATOM      3  C   UNL A   1      32.605  21.458  23.505  1.00  0.00     0.261 C 
BRANCH   3   4
ATOM      4  O   UNL A   1      32.336  22.853  23.741  1.00  0.00    -0.459 OA
BRANCH   4   5
ATOM      5  C   UNL A   1      32.794  23.709  22.777  1.00  0.00     0.350 C 
ATOM      6  O   UNL A   1      33.683  23.429  21.984  1.00  0.00    -0.245 OA
BRANCH   5   7
ATOM      7  C   UNL A   1      32.029  24.949  22.797  1.00  0.00     0.136 A 
ATOM      8  C   UNL A   1      31.190  25.522  23.752  1.00  0.00     0.067 A 
ATOM      9  C   UNL A   1      30.678  26.777  23.285  1.00  0.00     0.039 A 
ATOM     10  C   UNL A   1      31.045  27.070  21.993  1.00  0.00     0.068 A 
ATOM     11  S   UNL A   1      32.081  25.890  21.353  1.00  0.00    -0.135 S 
BRANCH   8  12
ATOM     12  N   UNL A   1      30.963  24.944  25.003  1.00  0.00    -0.320 N 
ATOM     13  O   UNL A   1      31.397  24.444  27.170  1.00  0.00    -0.269 OA
ATOM     14  C   UNL A   1      31.492  25.242  26.240  1.00  0.00     0.257 C 
ATOM     15  H   UNL A   1      30.317  24.200  25.001  1.00  0.00     0.170 HD
BRANCH  14  16
ATOM     16  C   UNL A   1      32.107  26.549  26.515  1.00  0.00     0.058 A 
ATOM     17  C   UNL A   1      31.369  27.582  27.094  1.00  0.00     0.018 A 
ATOM     18  C   UNL A   1      33.424  26.799  26.159  1.00  0.00     0.126 A 
ATOM     19  C   UNL A   1      31.998  28.798  27.357  1.00  0.00     0.037 A 
ATOM     20  N   UNL A   1      34.061  27.968  26.409  1.00  0.00    -0.249 NA
ATOM     21  C   UNL A   1      33.338  28.941  27.010  1.00  0.00     0.106 A 
ATOM     22  Br  UNL A   1      34.220  30.571  27.406  1.00  0.00    -0.029 Br
ENDBRANCH  14  16
ENDBRANCH   8  12
ENDBRANCH   5   7
ENDBRANCH   4   5
ENDBRANCH   3   4
ENDBRANCH   2   3
ENDBRANCH   1   2
BRANCH   1  23
ATOM     23  C   UNL A   1      35.335  21.783  26.061  1.00  0.00     0.202 C 
BRANCH  23  24
ATOM     24  C   UNL A   1      36.283  20.836  25.317  1.00  0.00     0.261 C 
BRANCH  24  25
ATOM     25  O   UNL A   1      37.515  21.505  24.985  1.00  0.00    -0.460 OA
BRANCH  25  26
ATOM     26  C   UNL A   1      38.590  21.114  25.711  1.00  0.00     0.338 C 
ATOM     27  O   UNL A   1      39.079  19.999  25.765  1.00  0.00    -0.246 OA
BRANCH  26  28
ATOM     28  C   UNL A   1      39.238  22.293  26.323  1.00  0.00     0.060 A 
ATOM     29  C   UNL A   1      38.649  23.542  26.087  1.00  0.00     0.016 A 
ATOM     30  C   UNL A   1      40.415  22.195  27.069  1.00  0.00     0.016 A 
ATOM     31  C   UNL A   1      39.262  24.704  26.554  1.00  0.00     0.010 A 
ATOM     32  C   UNL A   1      41.035  23.364  27.529  1.00  0.00     0.010 A 
ATOM     33  C   UNL A   1      40.479  24.624  27.244  1.00  0.00    -0.014 A 
BRANCH  33  34
ATOM     34  C   UNL A   1      41.230  25.866  27.541  1.00  0.00     0.031 A 
ATOM     35  C   UNL A   1      40.553  26.962  28.316  1.00  0.00     0.074 A 
ATOM     36  C   UNL A   1      42.510  26.006  27.156  1.00  0.00     0.049 A 
ATOM     37  N   UNL A   1      41.015  28.132  28.676  1.00  0.00    -0.248 NA
ATOM     38  C   UNL A   1      39.169  26.702  28.743  1.00  0.00     0.031 C 
ATOM     39  C   UNL A   1      43.286  25.007  26.427  1.00  0.00     0.029 A 
ATOM     40  N   UNL A   1      43.379  27.055  27.324  1.00  0.00    -0.354 N 
ATOM     41  C   UNL A   1      39.983  28.747  29.373  1.00  0.00     0.074 A 
ATOM     42  C   UNL A   1      38.859  27.834  29.359  1.00  0.00     0.031 C 
ATOM     43  C   UNL A   1      44.517  25.496  26.196  1.00  0.00     0.029 A 
ATOM     44  C   UNL A   1      44.605  26.850  26.741  1.00  0.00     0.049 A 
ATOM     45  H   UNL A   1      43.146  27.875  27.816  1.00  0.00     0.167 HD
ATOM     46  C   UNL A   1      39.974  29.958  29.978  1.00  0.00     0.037 A 
ATOM     47  C   UNL A   1      45.667  27.671  26.641  1.00  0.00     0.037 A 
ATOM     48  C   UNL A   1      41.084  30.872  29.986  1.00  0.00     0.049 A 
ATOM     49  C   UNL A   1      45.611  29.039  27.265  1.00  0.00     0.074 A 
ATOM     50  C   UNL A   1      41.172  32.119  30.580  1.00  0.00     0.029 A 
ATOM     51  N   UNL A   1      42.300  30.639  29.361  1.00  0.00    -0.354 N 
ATOM     52  N   UNL A   1      44.640  29.600  27.941  1.00  0.00    -0.248 NA
ATOM     53  C   UNL A   1      46.804  29.887  27.112  1.00  0.00     0.031 C 
ATOM     54  C   UNL A   1      42.429  32.658  30.282  1.00  0.00     0.029 A 
ATOM     55  C   UNL A   1      43.138  31.728  29.537  1.00  0.00     0.049 A 
ATOM     56  H   UNL A   1      42.532  29.821  28.865  1.00  0.00     0.167 HD
ATOM     57  C   UNL A   1      45.108  30.855  28.312  1.00  0.00     0.074 A 
ATOM     58  C   UNL A   1      46.456  30.968  27.797  1.00  0.00     0.031 C 
ATOM     59  C   UNL A   1      44.478  31.826  29.019  1.00  0.00     0.037 A 
BRANCH  46  60
ATOM     60  C   UNL A   1      38.707  30.368  30.668  1.00  0.00     0.057 A 
ATOM     61  C   UNL A   1      38.471  30.067  32.015  1.00  0.00     0.134 A 
ATOM     62  C   UNL A   1      37.721  31.089  29.983  1.00  0.00     0.134 A 
ATOM     63  F   UNL A   1      39.370  29.366  32.722  1.00  0.00    -0.206 F 
ATOM     64  C   UNL A   1      37.288  30.448  32.651  1.00  0.00     0.040 A 
ATOM     65  C   UNL A   1      36.543  31.494  30.614  1.00  0.00     0.040 A 
ATOM     66  F   UNL A   1      37.887  31.412  28.691  1.00  0.00    -0.206 F 
ATOM     67  C   UNL A   1      36.323  31.169  31.951  1.00  0.00     0.006 A 
ENDBRANCH  46  60
BRANCH  47  68
ATOM     68  C   UNL A   1      46.876  27.226  25.905  1.00  0.00     0.057 A 
ATOM     69  C   UNL A   1      47.043  27.507  24.545  1.00  0.00     0.134 A 
ATOM     70  C   UNL A   1      47.887  26.500  26.544  1.00  0.00     0.134 A 
ATOM     71  F   UNL A   1      46.096  28.179  23.874  1.00  0.00    -0.206 F 
ATOM     72  C   UNL A   1      48.169  27.074  23.843  1.00  0.00     0.040 A 
ATOM     73  C   UNL A   1      49.029  26.078  25.860  1.00  0.00     0.040 A 
ATOM     74  F   UNL A   1      47.783  26.197  27.847  1.00  0.00    -0.206 F 
ATOM     75  C   UNL A   1      49.168  26.361  24.503  1.00  0.00     0.006 A 
ENDBRANCH  47  68
BRANCH  59  76
ATOM     76  C   UNL A   1      45.247  33.083  29.298  1.00  0.00     0.057 A 
ATOM     77  C   UNL A   1      45.172  34.196  28.452  1.00  0.00     0.134 A 
ATOM     78  C   UNL A   1      46.039  33.194  30.448  1.00  0.00     0.134 A 
ATOM     79  F   UNL A   1      44.440  34.148  27.329  1.00  0.00    -0.206 F 
ATOM     80  C   UNL A   1      45.872  35.371  28.732  1.00  0.00     0.040 A 
ATOM     81  C   UNL A   1      46.725  34.372  30.749  1.00  0.00     0.040 A 
ATOM     82  F   UNL A   1      46.148  32.167  31.303  1.00  0.00    -0.206 F 
ATOM     83  C   UNL A   1      46.646  35.463  29.886  1.00  0.00     0.006 A 
ENDBRANCH  59  76
ENDBRANCH  33  34
ENDBRANCH  26  28
ENDBRANCH  25  26
ENDBRANCH  24  25
ENDBRANCH  23  24
ENDBRANCH   1  23
TORSDOF 16
ENDMDL
MODEL 3
REMARK VINA RESULT:     -10.5      4.320      9.361
REMARK SMILES O=C(Nc1ccsc1C(=O)OCCOCCOC(=O)c1ccc(-c2c3nc(c(-c4c(F)cccc4F)c4ccc([nH]4)c(-c4c(F)cccc4F)c4nc(c(-c5c(F)cccc5F)c5ccc2[nH]5)C=C4)C=C3)cc1)c1ccc(Br)nc1
REMARK SMILES IDX 14 1 13 2 12 3 11 4 9 5 10 6 8 7 4 8 5 9 6 10 7 11 3 12 1 13
REMARK SMILES IDX 2 14 74 16 75 17 80 18 76 19 79 20 77 21 78 22 15 23 16 24
REMARK SMILES IDX 17 25 18 26 19 27 20 28 21 29 73 30 22 31 72 32 23 33 24 34
REMARK SMILES IDX 25 35 66 36 26 37 71 38 65 39 67 40 27 41 70 42 64 43 63 44
REMARK SMILES IDX 28 46 54 47 37 48 53 49 38 50 41 51 52 52 68 53 39 54 40 55
REMARK SMILES IDX 51 57 69 58 42 59 29 60 30 61 35 62 31 63 32 64 34 65 36 66
REMARK SMILES IDX 33 67 55 68 56 69 61 70 57 71 58 72 60 73 62 74 59 75 43 76
REMARK SMILES IDX 44 77 49 78 45 79 46 80 48 81 50 82 47 83
REMARK H PARENT 3 15 67 45 41 56
REMARK Flexibility Score: inf
ROOT
ATOM      1  O   UNL A   1      35.904  21.342  25.293  1.00  0.00    -0.374 OA
ENDROOT
BRANCH   1   2
ATOM      2  C   UNL A   1      34.521  21.596  25.548  1.00  0.00     0.202 C 
BRANCH   2   3
ATOM      3  C   UNL A   1      33.638  21.542  24.298  1.00  0.00     0.261 C 
BRANCH   3   4
ATOM      4  O   UNL A   1      32.932  22.787  24.141  1.00  0.00    -0.459 OA
BRANCH   4   5
ATOM      5  C   UNL A   1      33.409  23.611  23.159  1.00  0.00     0.350 C 
ATOM      6  O   UNL A   1      34.422  23.382  22.510  1.00  0.00    -0.245 OA
BRANCH   5   7
ATOM      7  C   UNL A   1      32.509  24.740  22.963  1.00  0.00     0.136 A 
ATOM      8  C   UNL A   1      31.483  25.272  23.744  1.00  0.00     0.067 A 
ATOM      9  C   UNL A   1      30.898  26.410  23.098  1.00  0.00     0.039 A 
ATOM     10  C   UNL A   1      31.404  26.647  21.843  1.00  0.00     0.068 A 
ATOM     11  S   UNL A   1      32.650  25.564  21.455  1.00  0.00    -0.135 S 
BRANCH   8  12
ATOM     12  N   UNL A   1      31.154  24.768  25.004  1.00  0.00    -0.320 N 
ATOM     13  O   UNL A   1      31.401  24.412  27.228  1.00  0.00    -0.269 OA
ATOM     14  C   UNL A   1      31.568  25.152  26.262  1.00  0.00     0.257 C 
ATOM     15  H   UNL A   1      30.520  24.015  24.992  1.00  0.00     0.170 HD
BRANCH  14  16
ATOM     16  C   UNL A   1      32.141  26.484  26.506  1.00  0.00     0.058 A 
ATOM     17  C   UNL A   1      33.451  26.781  26.131  1.00  0.00     0.018 A 
ATOM     18  C   UNL A   1      31.403  27.461  27.159  1.00  0.00     0.126 A 
ATOM     19  C   UNL A   1      33.946  28.064  26.362  1.00  0.00     0.037 A 
ATOM     20  N   UNL A   1      31.857  28.716  27.390  1.00  0.00    -0.249 NA
ATOM     21  C   UNL A   1      33.116  28.995  26.980  1.00  0.00     0.106 A 
ATOM     22  Br  UNL A   1      33.758  30.757  27.255  1.00  0.00    -0.029 Br
ENDBRANCH  14  16
ENDBRANCH   8  12
ENDBRANCH   5   7
ENDBRANCH   4   5
ENDBRANCH   3   4
ENDBRANCH   2   3
ENDBRANCH   1   2
BRANCH   1  23
ATOM     23  C   UNL A   1      36.257  19.993  24.977  1.00  0.00     0.202 C 
BRANCH  23  24
ATOM     24  C   UNL A   1      37.749  19.671  25.115  1.00  0.00     0.261 C 
BRANCH  24  25
ATOM     25  O   UNL A   1      38.512  20.872  25.342  1.00  0.00    -0.460 OA
BRANCH  25  26
ATOM     26  C   UNL A   1      39.606  20.713  26.126  1.00  0.00     0.338 C 
ATOM     27  O   UNL A   1      40.281  19.707  26.255  1.00  0.00    -0.246 OA
BRANCH  26  28
ATOM     28  C   UNL A   1      40.008  22.015  26.698  1.00  0.00     0.060 A 
ATOM     29  C   UNL A   1      39.358  23.156  26.210  1.00  0.00     0.016 A 
ATOM     30  C   UNL A   1      41.023  22.132  27.650  1.00  0.00     0.016 A 
ATOM     31  C   UNL A   1      39.756  24.423  26.635  1.00  0.00     0.010 A 
ATOM     32  C   UNL A   1      41.428  23.405  28.069  1.00  0.00     0.010 A 
ATOM     33  C   UNL A   1      40.819  24.556  27.539  1.00  0.00    -0.014 A 
BRANCH  33  34
ATOM     34  C   UNL A   1      41.376  25.901  27.814  1.00  0.00     0.031 A 
ATOM     35  C   UNL A   1      42.765  26.228  27.340  1.00  0.00     0.074 A 
ATOM     36  C   UNL A   1      40.645  26.833  28.448  1.00  0.00     0.049 A 
ATOM     37  N   UNL A   1      43.452  27.332  27.480  1.00  0.00    -0.248 NA
ATOM     38  C   UNL A   1      43.473  25.165  26.608  1.00  0.00     0.031 C 
ATOM     39  C   UNL A   1      39.278  26.651  28.929  1.00  0.00     0.029 A 
ATOM     40  N   UNL A   1      40.959  28.123  28.799  1.00  0.00    -0.354 N 
ATOM     41  C   UNL A   1      44.670  27.101  26.854  1.00  0.00     0.074 A 
ATOM     42  C   UNL A   1      44.641  25.741  26.360  1.00  0.00     0.031 C 
ATOM     43  C   UNL A   1      38.873  27.785  29.527  1.00  0.00     0.029 A 
ATOM     44  C   UNL A   1      39.961  28.761  29.491  1.00  0.00     0.049 A 
ATOM     45  H   UNL A   1      41.818  28.548  28.574  1.00  0.00     0.167 HD
ATOM     46  C   UNL A   1      45.715  27.947  26.696  1.00  0.00     0.037 A 
ATOM     47  C   UNL A   1      39.937  29.987  30.048  1.00  0.00     0.037 A 
ATOM     48  C   UNL A   1      45.752  29.296  27.194  1.00  0.00     0.049 A 
ATOM     49  C   UNL A   1      41.135  30.887  29.918  1.00  0.00     0.074 A 
ATOM     50  C   UNL A   1      46.764  30.233  27.076  1.00  0.00     0.029 A 
ATOM     51  N   UNL A   1      44.731  29.898  27.914  1.00  0.00    -0.354 N 
ATOM     52  N   UNL A   1      42.272  30.667  29.303  1.00  0.00    -0.248 NA
ATOM     53  C   UNL A   1      41.045  32.209  30.556  1.00  0.00     0.031 C 
ATOM     54  C   UNL A   1      46.371  31.390  27.758  1.00  0.00     0.029 A 
ATOM     55  C   UNL A   1      45.097  31.187  28.265  1.00  0.00     0.049 A 
ATOM     56  H   UNL A   1      43.874  29.472  28.142  1.00  0.00     0.167 HD
ATOM     57  C   UNL A   1      43.022  31.825  29.463  1.00  0.00     0.074 A 
ATOM     58  C   UNL A   1      42.208  32.751  30.221  1.00  0.00     0.031 C 
ATOM     59  C   UNL A   1      44.274  32.098  29.019  1.00  0.00     0.037 A 
BRANCH  46  60
ATOM     60  C   UNL A   1      46.916  27.422  25.967  1.00  0.00     0.057 A 
ATOM     61  C   UNL A   1      47.957  26.768  26.637  1.00  0.00     0.134 A 
ATOM     62  C   UNL A   1      47.022  27.556  24.577  1.00  0.00     0.134 A 
ATOM     63  F   UNL A   1      47.921  26.622  27.970  1.00  0.00    -0.206 F 
ATOM     64  C   UNL A   1      49.074  26.285  25.953  1.00  0.00     0.040 A 
ATOM     65  C   UNL A   1      48.124  27.057  23.879  1.00  0.00     0.040 A 
ATOM     66  F   UNL A   1      46.058  28.170  23.875  1.00  0.00    -0.206 F 
ATOM     67  C   UNL A   1      49.156  26.424  24.569  1.00  0.00     0.006 A 
ENDBRANCH  46  60
BRANCH  47  68
ATOM     68  C   UNL A   1      38.737  30.432  30.799  1.00  0.00     0.057 A 
ATOM     69  C   UNL A   1      37.710  31.145  30.171  1.00  0.00     0.134 A 
ATOM     70  C   UNL A   1      38.596  30.162  32.165  1.00  0.00     0.134 A 
ATOM     71  F   UNL A   1      37.802  31.454  28.869  1.00  0.00    -0.206 F 
ATOM     72  C   UNL A   1      36.589  31.583  30.877  1.00  0.00     0.040 A 
ATOM     73  C   UNL A   1      37.470  30.576  32.879  1.00  0.00     0.040 A 
ATOM     74  F   UNL A   1      39.547  29.484  32.823  1.00  0.00    -0.206 F 
ATOM     75  C   UNL A   1      36.465  31.294  32.235  1.00  0.00     0.006 A 
ENDBRANCH  47  68
BRANCH  59  76
ATOM     76  C   UNL A   1      44.830  33.458  29.319  1.00  0.00     0.057 A 
ATOM     77  C   UNL A   1      44.603  34.550  28.471  1.00  0.00     0.134 A 
ATOM     78  C   UNL A   1      45.564  33.687  30.489  1.00  0.00     0.134 A 
ATOM     79  F   UNL A   1      43.918  34.393  27.329  1.00  0.00    -0.206 F 
ATOM     80  C   UNL A   1      45.103  35.819  28.770  1.00  0.00     0.040 A 
ATOM     81  C   UNL A   1      46.050  34.956  30.809  1.00  0.00     0.040 A 
ATOM     82  F   UNL A   1      45.809  32.686  31.346  1.00  0.00    -0.206 F 
ATOM     83  C   UNL A   1      45.823  36.025  29.945  1.00  0.00     0.006 A 
ENDBRANCH  59  76
ENDBRANCH  33  34
ENDBRANCH  26  28
ENDBRANCH  25  26
ENDBRANCH  24  25
ENDBRANCH  23  24
ENDBRANCH   1  23
TORSDOF 16
ENDMDL
