MODEL 1
REMARK VINA RESULT:     -10.1      0.000      0.000
REMARK SMILES C[C@H]1CCc2sc3ncn4nc(/C=C\C(=O)OCCOCCOC(=O)c5ccc(-c6c7nc(c(-c8c(F)cccc8F)c8ccc([nH]8)c(-c8c(F)cccc8F)c8nc(c(-c9c(F)cccc9F)c9ccc6[nH]9)C=C8)C=C7)cc5)nc4c3c2C1
REMARK SMILES IDX 21 1 20 2 19 3 18 4 17 5 15 6 16 7 14 8 13 9 12 10 1 11 2 12
REMARK SMILES IDX 3 13 84 14 4 15 83 16 5 17 82 18 6 19 7 20 81 21 8 22 10 23
REMARK SMILES IDX 80 24 9 25 11 26 22 27 23 28 24 29 25 30 26 31 27 32 79 33
REMARK SMILES IDX 28 34 78 35 29 36 30 37 31 38 72 39 32 40 77 41 71 42 73 43
REMARK SMILES IDX 33 44 76 45 70 46 69 47 34 49 60 50 43 51 59 52 44 53 47 54
REMARK SMILES IDX 58 55 74 56 45 57 46 58 57 60 75 61 48 62 35 63 36 64 41 65
REMARK SMILES IDX 37 66 38 67 40 68 42 69 39 70 61 71 62 72 67 73 63 74 64 75
REMARK SMILES IDX 66 76 68 77 65 78 49 79 50 80 55 81 51 82 52 83 54 84 56 85
REMARK SMILES IDX 53 86
REMARK H PARENT 73 48 47 59
REMARK Flexibility Score: inf
ROOT
ATOM      1  C   UNL A   1      41.916  19.230  26.476  1.00  0.00     0.202 C 
ENDROOT
BRANCH   1   2
ATOM      2  O   UNL A   1      42.448  19.197  25.155  1.00  0.00    -0.374 OA
BRANCH   2   3
ATOM      3  C   UNL A   1      43.833  19.512  24.997  1.00  0.00     0.202 C 
BRANCH   3   4
ATOM      4  C   UNL A   1      44.216  20.916  25.455  1.00  0.00     0.261 C 
BRANCH   4   5
ATOM      5  O   UNL A   1      43.474  21.889  24.695  1.00  0.00    -0.460 OA
BRANCH   5   6
ATOM      6  C   UNL A   1      44.156  22.963  24.262  1.00  0.00     0.330 C 
ATOM      7  O   UNL A   1      45.114  22.948  23.501  1.00  0.00    -0.247 OA
BRANCH   6   8
ATOM      8  C   UNL A   1      43.527  24.247  24.633  1.00  0.00     0.097 C 
ATOM      9  C   UNL A   1      43.850  25.237  25.479  1.00  0.00     0.058 C 
BRANCH   9  10
ATOM     10  C   UNL A   1      44.958  25.432  26.350  1.00  0.00     0.175 A 
ATOM     11  C   UNL A   1      44.516  23.546  32.798  1.00  0.00     0.008 C 
ATOM     12  C   UNL A   1      44.323  25.040  32.518  1.00  0.00    -0.009 C 
ATOM     13  C   UNL A   1      45.181  25.917  33.458  1.00  0.00     0.009 C 
ATOM     14  C   UNL A   1      44.588  25.377  31.037  1.00  0.00     0.041 C 
ATOM     15  C   UNL A   1      46.696  25.821  33.194  1.00  0.00     0.047 C 
ATOM     16  C   UNL A   1      46.027  25.642  30.741  1.00  0.00    -0.020 A 
ATOM     17  C   UNL A   1      46.973  25.858  31.723  1.00  0.00     0.011 A 
ATOM     18  C   UNL A   1      46.621  25.748  29.470  1.00  0.00     0.060 A 
ATOM     19  S   UNL A   1      48.537  26.145  31.089  1.00  0.00    -0.120 S 
ATOM     20  C   UNL A   1      47.984  26.004  29.475  1.00  0.00     0.129 A 
ATOM     21  C   UNL A   1      46.038  25.634  28.129  1.00  0.00     0.168 A 
ATOM     22  N   UNL A   1      48.816  26.137  28.385  1.00  0.00    -0.225 NA
ATOM     23  N   UNL A   1      46.878  25.780  27.073  1.00  0.00    -0.201 N 
ATOM     24  N   UNL A   1      44.818  25.409  27.714  1.00  0.00    -0.207 NA
ATOM     25  C   UNL A   1      48.246  26.018  27.210  1.00  0.00     0.227 A 
ATOM     26  N   UNL A   1      46.210  25.679  25.911  1.00  0.00    -0.145 NA
ENDBRANCH   9  10
ENDBRANCH   6   8
ENDBRANCH   5   6
ENDBRANCH   4   5
ENDBRANCH   3   4
ENDBRANCH   2   3
ENDBRANCH   1   2
BRANCH   1  27
ATOM     27  C   UNL A   1      40.690  20.113  26.648  1.00  0.00     0.261 C 
BRANCH  27  28
ATOM     28  O   UNL A   1      41.038  21.433  27.055  1.00  0.00    -0.460 OA
BRANCH  28  29
ATOM     29  C   UNL A   1      40.065  22.359  26.884  1.00  0.00     0.338 C 
ATOM     30  O   UNL A   1      38.934  22.173  26.477  1.00  0.00    -0.246 OA
BRANCH  29  31
ATOM     31  C   UNL A   1      40.662  23.693  27.047  1.00  0.00     0.060 A 
ATOM     32  C   UNL A   1      41.565  23.854  28.103  1.00  0.00     0.016 A 
ATOM     33  C   UNL A   1      40.119  24.796  26.369  1.00  0.00     0.016 A 
ATOM     34  C   UNL A   1      41.788  25.123  28.595  1.00  0.00     0.010 A 
ATOM     35  C   UNL A   1      40.322  26.058  26.876  1.00  0.00     0.010 A 
ATOM     36  C   UNL A   1      41.099  26.197  28.025  1.00  0.00    -0.014 A 
BRANCH  36  37
ATOM     37  C   UNL A   1      41.215  27.491  28.663  1.00  0.00     0.031 A 
ATOM     38  C   UNL A   1      42.387  28.294  28.246  1.00  0.00     0.074 A 
ATOM     39  C   UNL A   1      40.249  27.976  29.463  1.00  0.00     0.049 A 
ATOM     40  N   UNL A   1      43.355  28.741  28.976  1.00  0.00    -0.248 NA
ATOM     41  C   UNL A   1      42.539  28.559  26.807  1.00  0.00     0.031 C 
ATOM     42  C   UNL A   1      38.901  27.446  29.688  1.00  0.00     0.029 A 
ATOM     43  N   UNL A   1      40.249  29.134  30.173  1.00  0.00    -0.354 N 
ATOM     44  C   UNL A   1      44.161  29.480  28.117  1.00  0.00     0.074 A 
ATOM     45  C   UNL A   1      43.691  29.224  26.779  1.00  0.00     0.031 C 
ATOM     46  C   UNL A   1      38.154  28.392  30.303  1.00  0.00     0.029 A 
ATOM     47  C   UNL A   1      39.001  29.530  30.620  1.00  0.00     0.049 A 
ATOM     48  H   UNL A   1      41.069  29.648  30.353  1.00  0.00     0.167 HD
ATOM     49  C   UNL A   1      45.037  30.416  28.568  1.00  0.00     0.037 A 
ATOM     50  C   UNL A   1      38.691  30.749  31.125  1.00  0.00     0.037 A 
ATOM     51  C   UNL A   1      45.351  30.243  29.959  1.00  0.00     0.049 A 
ATOM     52  C   UNL A   1      39.960  31.408  31.529  1.00  0.00     0.074 A 
ATOM     53  C   UNL A   1      45.928  29.230  30.700  1.00  0.00     0.029 A 
ATOM     54  N   UNL A   1      44.741  31.064  30.874  1.00  0.00    -0.354 N 
ATOM     55  N   UNL A   1      40.702  31.026  32.530  1.00  0.00    -0.248 NA
ATOM     56  C   UNL A   1      40.627  32.248  30.545  1.00  0.00     0.031 C 
ATOM     57  C   UNL A   1      45.224  29.227  31.940  1.00  0.00     0.029 A 
ATOM     58  C   UNL A   1      44.286  30.258  31.889  1.00  0.00     0.049 A 
ATOM     59  H   UNL A   1      44.648  32.042  30.815  1.00  0.00     0.167 HD
ATOM     60  C   UNL A   1      42.008  31.223  32.103  1.00  0.00     0.074 A 
ATOM     61  C   UNL A   1      41.897  32.064  30.915  1.00  0.00     0.031 C 
ATOM     62  C   UNL A   1      43.036  30.461  32.582  1.00  0.00     0.037 A 
BRANCH  49  63
ATOM     63  C   UNL A   1      45.375  31.657  27.794  1.00  0.00     0.057 A 
ATOM     64  C   UNL A   1      46.669  31.848  27.291  1.00  0.00     0.134 A 
ATOM     65  C   UNL A   1      44.528  32.783  27.734  1.00  0.00     0.134 A 
ATOM     66  F   UNL A   1      47.579  30.863  27.342  1.00  0.00    -0.206 F 
ATOM     67  C   UNL A   1      47.094  33.079  26.776  1.00  0.00     0.040 A 
ATOM     68  C   UNL A   1      44.922  33.999  27.172  1.00  0.00     0.040 A 
ATOM     69  F   UNL A   1      43.312  32.790  28.300  1.00  0.00    -0.206 F 
ATOM     70  C   UNL A   1      46.218  34.157  26.710  1.00  0.00     0.006 A 
ENDBRANCH  49  63
BRANCH  50  71
ATOM     71  C   UNL A   1      37.432  31.511  30.954  1.00  0.00     0.057 A 
ATOM     72  C   UNL A   1      36.986  31.888  29.681  1.00  0.00     0.134 A 
ATOM     73  C   UNL A   1      36.501  31.643  32.000  1.00  0.00     0.134 A 
ATOM     74  F   UNL A   1      37.788  31.760  28.614  1.00  0.00    -0.206 F 
ATOM     75  C   UNL A   1      35.681  32.342  29.454  1.00  0.00     0.040 A 
ATOM     76  C   UNL A   1      35.199  32.105  31.789  1.00  0.00     0.040 A 
ATOM     77  F   UNL A   1      36.790  31.241  33.246  1.00  0.00    -0.206 F 
ATOM     78  C   UNL A   1      34.778  32.442  30.509  1.00  0.00     0.006 A 
ENDBRANCH  50  71
BRANCH  62  79
ATOM     79  C   UNL A   1      42.750  29.563  33.756  1.00  0.00     0.057 A 
ATOM     80  C   UNL A   1      42.801  29.991  35.093  1.00  0.00     0.134 A 
ATOM     81  C   UNL A   1      42.274  28.269  33.528  1.00  0.00     0.134 A 
ATOM     82  F   UNL A   1      43.135  31.248  35.407  1.00  0.00    -0.206 F 
ATOM     83  C   UNL A   1      42.449  29.150  36.154  1.00  0.00     0.040 A 
ATOM     84  C   UNL A   1      41.885  27.430  34.577  1.00  0.00     0.040 A 
ATOM     85  F   UNL A   1      42.136  27.809  32.275  1.00  0.00    -0.206 F 
ATOM     86  C   UNL A   1      41.985  27.865  35.896  1.00  0.00     0.006 A 
ENDBRANCH  62  79
ENDBRANCH  36  37
ENDBRANCH  29  31
ENDBRANCH  28  29
ENDBRANCH  27  28
ENDBRANCH   1  27
TORSDOF 15
ENDMDL
MODEL 2
REMARK VINA RESULT:     -10.0      5.755     11.225
REMARK SMILES C[C@H]1CCc2sc3ncn4nc(/C=C\C(=O)OCCOCCOC(=O)c5ccc(-c6c7nc(c(-c8c(F)cccc8F)c8ccc([nH]8)c(-c8c(F)cccc8F)c8nc(c(-c9c(F)cccc9F)c9ccc6[nH]9)C=C8)C=C7)cc5)nc4c3c2C1
REMARK SMILES IDX 21 1 20 2 19 3 18 4 17 5 15 6 16 7 14 8 13 9 12 10 1 11 2 12
REMARK SMILES IDX 3 13 84 14 4 15 83 16 5 17 82 18 6 19 7 20 81 21 8 22 10 23
REMARK SMILES IDX 80 24 9 25 11 26 22 27 23 28 24 29 25 30 26 31 27 32 79 33
REMARK SMILES IDX 28 34 78 35 29 36 30 37 31 38 72 39 32 40 77 41 71 42 73 43
REMARK SMILES IDX 33 44 76 45 70 46 69 47 34 49 60 50 43 51 59 52 44 53 47 54
REMARK SMILES IDX 58 55 74 56 45 57 46 58 57 60 75 61 48 62 35 63 36 64 41 65
REMARK SMILES IDX 37 66 38 67 40 68 42 69 39 70 61 71 62 72 67 73 63 74 64 75
REMARK SMILES IDX 66 76 68 77 65 78 49 79 50 80 55 81 51 82 52 83 54 84 56 85
REMARK SMILES IDX 53 86
REMARK H PARENT 73 48 47 59
REMARK Flexibility Score: inf
ROOT
ATOM      1  C   UNL A   1      33.050  35.354  28.898  1.00  0.00     0.202 C 
ENDROOT
BRANCH   1   2
ATOM      2  O   UNL A   1      34.360  35.475  28.352  1.00  0.00    -0.374 OA
BRANCH   2   3
ATOM      3  C   UNL A   1      34.940  34.305  27.772  1.00  0.00     0.202 C 
BRANCH   3   4
ATOM      4  C   UNL A   1      34.192  33.012  28.082  1.00  0.00     0.261 C 
BRANCH   4   5
ATOM      5  O   UNL A   1      34.956  31.887  27.604  1.00  0.00    -0.460 OA
BRANCH   5   6
ATOM      6  C   UNL A   1      34.276  30.752  27.371  1.00  0.00     0.330 C 
ATOM      7  O   UNL A   1      34.755  29.628  27.298  1.00  0.00    -0.247 OA
BRANCH   6   8
ATOM      8  C   UNL A   1      32.810  30.930  27.396  1.00  0.00     0.097 C 
ATOM      9  C   UNL A   1      31.796  30.435  26.670  1.00  0.00     0.058 C 
BRANCH   9  10
ATOM     10  C   UNL A   1      31.750  29.518  25.583  1.00  0.00     0.175 A 
ATOM     11  C   UNL A   1      34.150  23.276  26.366  1.00  0.00     0.008 C 
ATOM     12  C   UNL A   1      35.070  24.267  25.644  1.00  0.00    -0.009 C 
ATOM     13  C   UNL A   1      35.639  23.676  24.334  1.00  0.00     0.009 C 
ATOM     14  C   UNL A   1      34.365  25.616  25.394  1.00  0.00     0.041 C 
ATOM     15  C   UNL A   1      34.585  23.483  23.226  1.00  0.00     0.047 C 
ATOM     16  C   UNL A   1      33.570  25.639  24.131  1.00  0.00    -0.020 A 
ATOM     17  C   UNL A   1      33.687  24.678  23.146  1.00  0.00     0.011 A 
ATOM     18  C   UNL A   1      32.641  26.620  23.737  1.00  0.00     0.060 A 
ATOM     19  S   UNL A   1      32.658  24.967  21.809  1.00  0.00    -0.120 S 
ATOM     20  C   UNL A   1      32.039  26.403  22.507  1.00  0.00     0.129 A 
ATOM     21  C   UNL A   1      32.198  27.844  24.414  1.00  0.00     0.168 A 
ATOM     22  N   UNL A   1      31.088  27.185  21.889  1.00  0.00    -0.225 NA
ATOM     23  N   UNL A   1      31.268  28.601  23.779  1.00  0.00    -0.201 N 
ATOM     24  N   UNL A   1      32.526  28.387  25.558  1.00  0.00    -0.207 NA
ATOM     25  C   UNL A   1      30.721  28.263  22.540  1.00  0.00     0.227 A 
ATOM     26  N   UNL A   1      30.975  29.701  24.494  1.00  0.00    -0.145 NA
ENDBRANCH   9  10
ENDBRANCH   6   8
ENDBRANCH   5   6
ENDBRANCH   4   5
ENDBRANCH   3   4
ENDBRANCH   2   3
ENDBRANCH   1   2
BRANCH   1  27
ATOM     27  C   UNL A   1      32.860  36.014  30.254  1.00  0.00     0.261 C 
BRANCH  27  28
ATOM     28  O   UNL A   1      32.652  35.055  31.288  1.00  0.00    -0.460 OA
BRANCH  28  29
ATOM     29  C   UNL A   1      33.030  35.458  32.524  1.00  0.00     0.338 C 
ATOM     30  O   UNL A   1      32.589  36.394  33.162  1.00  0.00    -0.246 OA
BRANCH  29  31
ATOM     31  C   UNL A   1      34.246  34.720  32.898  1.00  0.00     0.060 A 
ATOM     32  C   UNL A   1      35.424  35.463  33.014  1.00  0.00     0.016 A 
ATOM     33  C   UNL A   1      34.265  33.317  32.839  1.00  0.00     0.016 A 
ATOM     34  C   UNL A   1      36.634  34.811  32.893  1.00  0.00     0.010 A 
ATOM     35  C   UNL A   1      35.470  32.670  32.693  1.00  0.00     0.010 A 
ATOM     36  C   UNL A   1      36.634  33.434  32.653  1.00  0.00    -0.014 A 
BRANCH  36  37
ATOM     37  C   UNL A   1      37.902  32.799  32.360  1.00  0.00     0.031 A 
ATOM     38  C   UNL A   1      38.856  32.750  33.492  1.00  0.00     0.074 A 
ATOM     39  C   UNL A   1      38.129  32.177  31.190  1.00  0.00     0.049 A 
ATOM     40  N   UNL A   1      40.041  33.260  33.565  1.00  0.00    -0.248 NA
ATOM     41  C   UNL A   1      38.388  32.119  34.735  1.00  0.00     0.031 C 
ATOM     42  C   UNL A   1      37.171  31.855  30.128  1.00  0.00     0.029 A 
ATOM     43  N   UNL A   1      39.279  31.599  30.756  1.00  0.00    -0.354 N 
ATOM     44  C   UNL A   1      40.535  32.880  34.809  1.00  0.00     0.074 A 
ATOM     45  C   UNL A   1      39.435  32.301  35.536  1.00  0.00     0.031 C 
ATOM     46  C   UNL A   1      37.735  30.959  29.285  1.00  0.00     0.029 A 
ATOM     47  C   UNL A   1      39.118  30.747  29.677  1.00  0.00     0.049 A 
ATOM     48  H   UNL A   1      40.153  31.772  31.174  1.00  0.00     0.167 HD
ATOM     49  C   UNL A   1      41.863  32.881  35.094  1.00  0.00     0.037 A 
ATOM     50  C   UNL A   1      40.042  29.867  29.218  1.00  0.00     0.037 A 
ATOM     51  C   UNL A   1      42.616  33.699  34.185  1.00  0.00     0.049 A 
ATOM     52  C   UNL A   1      41.365  30.280  29.753  1.00  0.00     0.074 A 
ATOM     53  C   UNL A   1      42.604  35.042  33.858  1.00  0.00     0.029 A 
ATOM     54  N   UNL A   1      43.318  33.084  33.179  1.00  0.00    -0.354 N 
ATOM     55  N   UNL A   1      42.003  31.357  29.391  1.00  0.00    -0.248 NA
ATOM     56  C   UNL A   1      41.791  29.702  31.019  1.00  0.00     0.031 C 
ATOM     57  C   UNL A   1      42.860  35.087  32.456  1.00  0.00     0.029 A 
ATOM     58  C   UNL A   1      43.043  33.773  32.024  1.00  0.00     0.049 A 
ATOM     59  H   UNL A   1      43.907  32.300  33.268  1.00  0.00     0.167 HD
ATOM     60  C   UNL A   1      42.610  31.822  30.550  1.00  0.00     0.074 A 
ATOM     61  C   UNL A   1      42.522  30.713  31.495  1.00  0.00     0.031 C 
ATOM     62  C   UNL A   1      42.874  33.149  30.732  1.00  0.00     0.037 A 
BRANCH  49  63
ATOM     63  C   UNL A   1      42.496  31.896  36.034  1.00  0.00     0.057 A 
ATOM     64  C   UNL A   1      43.220  32.344  37.147  1.00  0.00     0.134 A 
ATOM     65  C   UNL A   1      42.616  30.520  35.744  1.00  0.00     0.134 A 
ATOM     66  F   UNL A   1      43.223  33.641  37.488  1.00  0.00    -0.206 F 
ATOM     67  C   UNL A   1      44.020  31.484  37.910  1.00  0.00     0.040 A 
ATOM     68  C   UNL A   1      43.365  29.643  36.531  1.00  0.00     0.040 A 
ATOM     69  F   UNL A   1      42.092  29.979  34.635  1.00  0.00    -0.206 F 
ATOM     70  C   UNL A   1      44.089  30.129  37.607  1.00  0.00     0.006 A 
ENDBRANCH  49  63
BRANCH  50  71
ATOM     71  C   UNL A   1      39.812  28.518  28.653  1.00  0.00     0.057 A 
ATOM     72  C   UNL A   1      40.292  28.179  27.381  1.00  0.00     0.134 A 
ATOM     73  C   UNL A   1      39.364  27.449  29.450  1.00  0.00     0.134 A 
ATOM     74  F   UNL A   1      40.777  29.124  26.564  1.00  0.00    -0.206 F 
ATOM     75  C   UNL A   1      40.352  26.852  26.938  1.00  0.00     0.040 A 
ATOM     76  C   UNL A   1      39.408  26.121  29.015  1.00  0.00     0.040 A 
ATOM     77  F   UNL A   1      38.956  27.643  30.712  1.00  0.00    -0.206 F 
ATOM     78  C   UNL A   1      39.919  25.816  27.760  1.00  0.00     0.006 A 
ENDBRANCH  50  71
BRANCH  62  79
ATOM     79  C   UNL A   1      42.706  34.063  29.547  1.00  0.00     0.057 A 
ATOM     80  C   UNL A   1      41.522  34.764  29.267  1.00  0.00     0.134 A 
ATOM     81  C   UNL A   1      43.814  34.355  28.745  1.00  0.00     0.134 A 
ATOM     82  F   UNL A   1      40.442  34.639  30.047  1.00  0.00    -0.206 F 
ATOM     83  C   UNL A   1      41.430  35.668  28.204  1.00  0.00     0.040 A 
ATOM     84  C   UNL A   1      43.745  35.283  27.701  1.00  0.00     0.040 A 
ATOM     85  F   UNL A   1      44.999  33.774  28.989  1.00  0.00    -0.206 F 
ATOM     86  C   UNL A   1      42.547  35.933  27.420  1.00  0.00     0.006 A 
ENDBRANCH  62  79
ENDBRANCH  36  37
ENDBRANCH  29  31
ENDBRANCH  28  29
ENDBRANCH  27  28
ENDBRANCH   1  27
TORSDOF 15
ENDMDL
MODEL 3
REMARK VINA RESULT:      -9.9      5.572     10.944
REMARK SMILES C[C@H]1CCc2sc3ncn4nc(/C=C\C(=O)OCCOCCOC(=O)c5ccc(-c6c7nc(c(-c8c(F)cccc8F)c8ccc([nH]8)c(-c8c(F)cccc8F)c8nc(c(-c9c(F)cccc9F)c9ccc6[nH]9)C=C8)C=C7)cc5)nc4c3c2C1
REMARK SMILES IDX 21 1 20 2 19 3 18 4 17 5 15 6 16 7 14 8 13 9 12 10 1 11 2 12
REMARK SMILES IDX 3 13 84 14 4 15 83 16 5 17 82 18 6 19 7 20 81 21 8 22 10 23
REMARK SMILES IDX 80 24 9 25 11 26 22 27 23 28 24 29 25 30 26 31 27 32 79 33
REMARK SMILES IDX 28 34 78 35 29 36 30 37 31 38 72 39 32 40 77 41 71 42 73 43
REMARK SMILES IDX 33 44 76 45 70 46 69 47 34 49 60 50 43 51 59 52 44 53 47 54
REMARK SMILES IDX 58 55 74 56 45 57 46 58 57 60 75 61 48 62 35 63 36 64 41 65
REMARK SMILES IDX 37 66 38 67 40 68 42 69 39 70 61 71 62 72 67 73 63 74 64 75
REMARK SMILES IDX 66 76 68 77 65 78 49 79 50 80 55 81 51 82 52 83 54 84 56 85
REMARK SMILES IDX 53 86
REMARK H PARENT 73 48 47 59
REMARK Flexibility Score: inf
ROOT
ATOM      1  C   UNL A   1      33.529  35.017  28.751  1.00  0.00     0.202 C 
ENDROOT
BRANCH   1   2
ATOM      2  O   UNL A   1      33.894  33.668  29.026  1.00  0.00    -0.374 OA
BRANCH   2   3
ATOM      3  C   UNL A   1      34.319  32.865  27.923  1.00  0.00     0.202 C 
BRANCH   3   4
ATOM      4  C   UNL A   1      34.082  31.369  28.105  1.00  0.00     0.261 C 
BRANCH   4   5
ATOM      5  O   UNL A   1      33.016  30.941  27.235  1.00  0.00    -0.460 OA
BRANCH   5   6
ATOM      6  C   UNL A   1      33.148  29.728  26.673  1.00  0.00     0.330 C 
ATOM      7  O   UNL A   1      33.804  28.795  27.118  1.00  0.00    -0.247 OA
BRANCH   6   8
ATOM      8  C   UNL A   1      32.252  29.514  25.519  1.00  0.00     0.097 C 
ATOM      9  C   UNL A   1      31.666  28.436  24.976  1.00  0.00     0.058 C 
BRANCH   9  10
ATOM     10  C   UNL A   1      31.678  27.057  25.328  1.00  0.00     0.175 A 
ATOM     11  C   UNL A   1      37.542  23.795  25.874  1.00  0.00     0.008 C 
ATOM     12  C   UNL A   1      36.768  23.575  24.571  1.00  0.00    -0.009 C 
ATOM     13  C   UNL A   1      36.653  22.076  24.214  1.00  0.00     0.009 C 
ATOM     14  C   UNL A   1      35.381  24.250  24.615  1.00  0.00     0.041 C 
ATOM     15  C   UNL A   1      35.745  21.274  25.166  1.00  0.00     0.047 C 
ATOM     16  C   UNL A   1      34.328  23.392  25.230  1.00  0.00    -0.020 A 
ATOM     17  C   UNL A   1      34.493  22.041  25.462  1.00  0.00     0.011 A 
ATOM     18  C   UNL A   1      33.036  23.791  25.623  1.00  0.00     0.060 A 
ATOM     19  S   UNL A   1      33.115  21.312  26.169  1.00  0.00    -0.120 S 
ATOM     20  C   UNL A   1      32.249  22.790  26.168  1.00  0.00     0.129 A 
ATOM     21  C   UNL A   1      32.378  25.100  25.551  1.00  0.00     0.168 A 
ATOM     22  N   UNL A   1      30.963  22.902  26.649  1.00  0.00    -0.225 NA
ATOM     23  N   UNL A   1      31.107  25.181  26.022  1.00  0.00    -0.201 N 
ATOM     24  N   UNL A   1      32.775  26.265  25.108  1.00  0.00    -0.207 NA
ATOM     25  C   UNL A   1      30.423  24.095  26.569  1.00  0.00     0.227 A 
ATOM     26  N   UNL A   1      30.618  26.424  25.871  1.00  0.00    -0.145 NA
ENDBRANCH   9  10
ENDBRANCH   6   8
ENDBRANCH   5   6
ENDBRANCH   4   5
ENDBRANCH   3   4
ENDBRANCH   2   3
ENDBRANCH   1   2
BRANCH   1  27
ATOM     27  C   UNL A   1      33.134  35.833  29.971  1.00  0.00     0.261 C 
BRANCH  27  28
ATOM     28  O   UNL A   1      32.590  35.016  31.004  1.00  0.00    -0.460 OA
BRANCH  28  29
ATOM     29  C   UNL A   1      32.910  35.399  32.262  1.00  0.00     0.338 C 
ATOM     30  O   UNL A   1      32.421  36.310  32.903  1.00  0.00    -0.246 OA
BRANCH  29  31
ATOM     31  C   UNL A   1      34.127  34.680  32.669  1.00  0.00     0.060 A 
ATOM     32  C   UNL A   1      35.291  35.441  32.808  1.00  0.00     0.016 A 
ATOM     33  C   UNL A   1      34.167  33.278  32.617  1.00  0.00     0.016 A 
ATOM     34  C   UNL A   1      36.512  34.806  32.719  1.00  0.00     0.010 A 
ATOM     35  C   UNL A   1      35.384  32.647  32.502  1.00  0.00     0.010 A 
ATOM     36  C   UNL A   1      36.538  33.428  32.486  1.00  0.00    -0.014 A 
BRANCH  36  37
ATOM     37  C   UNL A   1      37.821  32.810  32.226  1.00  0.00     0.031 A 
ATOM     38  C   UNL A   1      38.746  32.771  33.382  1.00  0.00     0.074 A 
ATOM     39  C   UNL A   1      38.088  32.194  31.060  1.00  0.00     0.049 A 
ATOM     40  N   UNL A   1      39.922  33.296  33.488  1.00  0.00    -0.248 NA
ATOM     41  C   UNL A   1      38.253  32.131  34.611  1.00  0.00     0.031 C 
ATOM     42  C   UNL A   1      37.163  31.862  29.973  1.00  0.00     0.029 A 
ATOM     43  N   UNL A   1      39.256  31.631  30.656  1.00  0.00    -0.354 N 
ATOM     44  C   UNL A   1      40.387  32.921  34.743  1.00  0.00     0.074 A 
ATOM     45  C   UNL A   1      39.275  32.325  35.440  1.00  0.00     0.031 C 
ATOM     46  C   UNL A   1      37.760  30.975  29.143  1.00  0.00     0.029 A 
ATOM     47  C   UNL A   1      39.135  30.779  29.572  1.00  0.00     0.049 A 
ATOM     48  H   UNL A   1      40.117  31.815  31.098  1.00  0.00     0.167 HD
ATOM     49  C   UNL A   1      41.707  32.938  35.064  1.00  0.00     0.037 A 
ATOM     50  C   UNL A   1      40.082  29.913  29.136  1.00  0.00     0.037 A 
ATOM     51  C   UNL A   1      42.474  33.767  34.176  1.00  0.00     0.049 A 
ATOM     52  C   UNL A   1      41.385  30.342  29.707  1.00  0.00     0.074 A 
ATOM     53  C   UNL A   1      42.453  35.111  33.852  1.00  0.00     0.029 A 
ATOM     54  N   UNL A   1      43.210  33.164  33.189  1.00  0.00    -0.354 N 
ATOM     55  N   UNL A   1      42.018  31.428  29.364  1.00  0.00    -0.248 NA
ATOM     56  C   UNL A   1      41.785  29.767  30.983  1.00  0.00     0.031 C 
ATOM     57  C   UNL A   1      42.745  35.162  32.458  1.00  0.00     0.029 A 
ATOM     58  C   UNL A   1      42.956  33.852  32.027  1.00  0.00     0.049 A 
ATOM     59  H   UNL A   1      43.806  32.387  33.292  1.00  0.00     0.167 HD
ATOM     60  C   UNL A   1      42.588  31.898  30.540  1.00  0.00     0.074 A 
ATOM     61  C   UNL A   1      42.490  30.786  31.480  1.00  0.00     0.031 C 
ATOM     62  C   UNL A   1      42.831  33.229  30.730  1.00  0.00     0.037 A 
BRANCH  49  63
ATOM     63  C   UNL A   1      42.327  31.959  36.019  1.00  0.00     0.057 A 
ATOM     64  C   UNL A   1      43.004  32.414  37.159  1.00  0.00     0.134 A 
ATOM     65  C   UNL A   1      42.486  30.589  35.724  1.00  0.00     0.134 A 
ATOM     66  F   UNL A   1      42.968  33.708  37.509  1.00  0.00    -0.206 F 
ATOM     67  C   UNL A   1      43.795  31.565  37.944  1.00  0.00     0.040 A 
ATOM     68  C   UNL A   1      43.226  29.721  36.530  1.00  0.00     0.040 A 
ATOM     69  F   UNL A   1      42.013  30.045  34.594  1.00  0.00    -0.206 F 
ATOM     70  C   UNL A   1      43.902  30.214  37.634  1.00  0.00     0.006 A 
ENDBRANCH  49  63
BRANCH  50  71
ATOM     71  C   UNL A   1      39.885  28.562  28.563  1.00  0.00     0.057 A 
ATOM     72  C   UNL A   1      40.410  28.230  27.307  1.00  0.00     0.134 A 
ATOM     73  C   UNL A   1      39.423  27.488  29.344  1.00  0.00     0.134 A 
ATOM     74  F   UNL A   1      40.912  29.181  26.507  1.00  0.00    -0.206 F 
ATOM     75  C   UNL A   1      40.498  26.904  26.865  1.00  0.00     0.040 A 
ATOM     76  C   UNL A   1      39.495  26.161  28.910  1.00  0.00     0.040 A 
ATOM     77  F   UNL A   1      38.972  27.676  30.593  1.00  0.00    -0.206 F 
ATOM     78  C   UNL A   1      40.050  25.863  27.672  1.00  0.00     0.006 A 
ENDBRANCH  50  71
BRANCH  62  79
ATOM     79  C   UNL A   1      42.682  34.142  29.544  1.00  0.00     0.057 A 
ATOM     80  C   UNL A   1      41.490  34.809  29.219  1.00  0.00     0.134 A 
ATOM     81  C   UNL A   1      43.811  34.471  28.787  1.00  0.00     0.134 A 
ATOM     82  F   UNL A   1      40.383  34.647  29.955  1.00  0.00    -0.206 F 
ATOM     83  C   UNL A   1      41.412  35.715  28.157  1.00  0.00     0.040 A 
ATOM     84  C   UNL A   1      43.756  35.402  27.745  1.00  0.00     0.040 A 
ATOM     85  F   UNL A   1      45.003  33.925  29.076  1.00  0.00    -0.206 F 
ATOM     86  C   UNL A   1      42.551  36.017  27.418  1.00  0.00     0.006 A 
ENDBRANCH  62  79
ENDBRANCH  36  37
ENDBRANCH  29  31
ENDBRANCH  28  29
ENDBRANCH  27  28
ENDBRANCH   1  27
TORSDOF 15
ENDMDL
