MODEL 1
REMARK VINA RESULT:      -8.4      0.000      0.000
REMARK SMILES CC[C@](C)(Nc1cccc(Br)c1)C(=O)OCCOCCOC(=O)c1ccc(-c2c3nc(c(-c4c(F)cccc4F)c4ccc([nH]4)c(-c4c(F)cccc4F)c4nc(c(-c5c(F)cccc5F)c5ccc2[nH]5)C=C4)C=C3)cc1
REMARK SMILES IDX 18 1 17 2 16 3 15 4 13 5 14 6 3 7 4 8 2 9 1 10 5 11 6 13
REMARK SMILES IDX 7 14 12 15 8 16 10 17 9 18 11 19 19 20 20 21 21 22 22 23
REMARK SMILES IDX 23 24 24 25 25 26 77 27 26 28 76 29 27 30 28 31 29 32 70 33
REMARK SMILES IDX 30 34 75 35 69 36 71 37 31 38 74 39 68 40 67 41 32 43 58 44
REMARK SMILES IDX 41 45 57 46 42 47 45 48 56 49 72 50 43 51 44 52 55 54 73 55
REMARK SMILES IDX 46 56 33 57 34 58 39 59 35 60 36 61 38 62 40 63 37 64 59 65
REMARK SMILES IDX 60 66 65 67 61 68 62 69 64 70 66 71 63 72 47 73 48 74 53 75
REMARK SMILES IDX 49 76 50 77 52 78 54 79 51 80
REMARK H PARENT 5 12 71 42 45 53
REMARK Flexibility Score: inf
ROOT
ATOM      1  O   UNL A   1      33.629  36.943  33.366  1.00  0.00    -0.374 OA
ENDROOT
BRANCH   1   2
ATOM      2  C   UNL A   1      34.769  36.099  33.216  1.00  0.00     0.202 C 
BRANCH   2   3
ATOM      3  C   UNL A   1      34.827  34.903  34.164  1.00  0.00     0.261 C 
BRANCH   3   4
ATOM      4  O   UNL A   1      36.169  34.655  34.624  1.00  0.00    -0.462 OA
BRANCH   4   5
ATOM      5  C   UNL A   1      36.595  33.371  34.483  1.00  0.00     0.331 C 
ATOM      6  O   UNL A   1      35.899  32.479  34.005  1.00  0.00    -0.249 OA
BRANCH   5   7
ATOM      7  C   UNL A   1      37.998  33.121  35.088  1.00  0.00     0.132 C 
ATOM      8  C   UNL A   1      37.815  31.926  36.066  1.00  0.00     0.047 C 
BRANCH   7   9
ATOM      9  C   UNL A   1      38.495  34.361  35.860  1.00  0.00     0.037 C 
ATOM     10  C   UNL A   1      38.631  34.158  37.368  1.00  0.00     0.007 C 
ENDBRANCH   7   9
BRANCH   7  11
ATOM     11  N   UNL A   1      39.060  32.639  34.172  1.00  0.00    -0.370 N 
ATOM     12  H   UNL A   1      39.357  33.330  33.538  1.00  0.00     0.161 HD
BRANCH  11  13
ATOM     13  C   UNL A   1      39.724  31.452  34.005  1.00  0.00     0.036 A 
ATOM     14  C   UNL A   1      41.015  31.183  34.452  1.00  0.00     0.026 A 
ATOM     15  C   UNL A   1      39.042  30.427  33.326  1.00  0.00     0.041 A 
ATOM     16  C   UNL A   1      41.591  29.918  34.266  1.00  0.00     0.003 A 
ATOM     17  C   UNL A   1      39.624  29.178  33.111  1.00  0.00     0.020 A 
ATOM     18  C   UNL A   1      40.893  28.912  33.599  1.00  0.00     0.016 A 
ATOM     19  Br  UNL A   1      38.687  27.858  32.137  1.00  0.00    -0.051 Br
ENDBRANCH  11  13
ENDBRANCH   7  11
ENDBRANCH   5   7
ENDBRANCH   4   5
ENDBRANCH   3   4
ENDBRANCH   2   3
ENDBRANCH   1   2
BRANCH   1  20
ATOM     20  C   UNL A   1      32.857  37.154  32.180  1.00  0.00     0.202 C 
BRANCH  20  21
ATOM     21  C   UNL A   1      33.452  36.537  30.910  1.00  0.00     0.261 C 
BRANCH  21  22
ATOM     22  O   UNL A   1      32.901  35.233  30.651  1.00  0.00    -0.460 OA
BRANCH  22  23
ATOM     23  C   UNL A   1      33.091  34.756  29.395  1.00  0.00     0.338 C 
ATOM     24  O   UNL A   1      32.441  35.006  28.402  1.00  0.00    -0.246 OA
BRANCH  23  25
ATOM     25  C   UNL A   1      34.368  34.005  29.357  1.00  0.00     0.060 A 
ATOM     26  C   UNL A   1      34.553  32.973  30.282  1.00  0.00     0.016 A 
ATOM     27  C   UNL A   1      35.373  34.303  28.438  1.00  0.00     0.016 A 
ATOM     28  C   UNL A   1      35.761  32.274  30.322  1.00  0.00     0.010 A 
ATOM     29  C   UNL A   1      36.563  33.566  28.442  1.00  0.00     0.010 A 
ATOM     30  C   UNL A   1      36.793  32.583  29.422  1.00  0.00    -0.014 A 
BRANCH  30  31
ATOM     31  C   UNL A   1      38.156  32.009  29.623  1.00  0.00     0.031 A 
ATOM     32  C   UNL A   1      39.184  32.804  30.395  1.00  0.00     0.074 A 
ATOM     33  C   UNL A   1      38.478  30.779  29.171  1.00  0.00     0.049 A 
ATOM     34  N   UNL A   1      40.421  32.496  30.698  1.00  0.00    -0.248 NA
ATOM     35  C   UNL A   1      38.771  34.135  30.870  1.00  0.00     0.031 C 
ATOM     36  C   UNL A   1      37.599  29.898  28.403  1.00  0.00     0.029 A 
ATOM     37  N   UNL A   1      39.640  30.056  29.303  1.00  0.00    -0.354 N 
ATOM     38  C   UNL A   1      40.929  33.597  31.379  1.00  0.00     0.074 A 
ATOM     39  C   UNL A   1      39.895  34.606  31.385  1.00  0.00     0.031 C 
ATOM     40  C   UNL A   1      38.244  28.746  28.152  1.00  0.00     0.029 A 
ATOM     41  C   UNL A   1      39.591  28.813  28.715  1.00  0.00     0.049 A 
ATOM     42  H   UNL A   1      40.434  30.396  29.776  1.00  0.00     0.167 HD
ATOM     43  C   UNL A   1      42.133  33.750  31.980  1.00  0.00     0.037 A 
ATOM     44  C   UNL A   1      40.523  27.843  28.637  1.00  0.00     0.037 A 
ATOM     45  C   UNL A   1      43.156  32.740  32.018  1.00  0.00     0.049 A 
ATOM     46  C   UNL A   1      41.865  28.045  29.295  1.00  0.00     0.074 A 
ATOM     47  C   UNL A   1      44.387  32.785  32.648  1.00  0.00     0.029 A 
ATOM     48  N   UNL A   1      43.065  31.502  31.404  1.00  0.00    -0.354 N 
ATOM     49  N   UNL A   1      42.307  29.069  29.986  1.00  0.00    -0.248 NA
ATOM     50  C   UNL A   1      42.839  26.948  29.169  1.00  0.00     0.031 C 
ATOM     51  C   UNL A   1      45.063  31.593  32.372  1.00  0.00     0.029 A 
ATOM     52  C   UNL A   1      44.229  30.783  31.619  1.00  0.00     0.049 A 
ATOM     53  H   UNL A   1      42.288  31.181  30.890  1.00  0.00     0.167 HD
ATOM     54  C   UNL A   1      43.589  28.725  30.402  1.00  0.00     0.074 A 
ATOM     55  C   UNL A   1      43.849  27.392  29.904  1.00  0.00     0.031 C 
ATOM     56  C   UNL A   1      44.473  29.451  31.130  1.00  0.00     0.037 A 
BRANCH  43  57
ATOM     57  C   UNL A   1      42.409  35.064  32.656  1.00  0.00     0.057 A 
ATOM     58  C   UNL A   1      42.029  35.308  33.983  1.00  0.00     0.134 A 
ATOM     59  C   UNL A   1      43.095  36.083  31.984  1.00  0.00     0.134 A 
ATOM     60  F   UNL A   1      41.358  34.380  34.681  1.00  0.00    -0.206 F 
ATOM     61  C   UNL A   1      42.295  36.529  34.606  1.00  0.00     0.040 A 
ATOM     62  C   UNL A   1      43.396  37.296  32.607  1.00  0.00     0.040 A 
ATOM     63  F   UNL A   1      43.494  35.914  30.714  1.00  0.00    -0.206 F 
ATOM     64  C   UNL A   1      42.989  37.524  33.920  1.00  0.00     0.006 A 
ENDBRANCH  43  57
BRANCH  44  65
ATOM     65  C   UNL A   1      40.231  26.574  27.917  1.00  0.00     0.057 A 
ATOM     66  C   UNL A   1      40.716  26.343  26.623  1.00  0.00     0.134 A 
ATOM     67  C   UNL A   1      39.419  25.584  28.483  1.00  0.00     0.134 A 
ATOM     68  F   UNL A   1      41.478  27.263  26.014  1.00  0.00    -0.206 F 
ATOM     69  C   UNL A   1      40.382  25.190  25.909  1.00  0.00     0.040 A 
ATOM     70  C   UNL A   1      39.101  24.413  27.792  1.00  0.00     0.040 A 
ATOM     71  F   UNL A   1      38.921  25.740  29.718  1.00  0.00    -0.206 F 
ATOM     72  C   UNL A   1      39.575  24.219  26.496  1.00  0.00     0.006 A 
ENDBRANCH  44  65
BRANCH  56  73
ATOM     73  C   UNL A   1      45.787  28.807  31.471  1.00  0.00     0.057 A 
ATOM     74  C   UNL A   1      46.915  28.941  30.651  1.00  0.00     0.134 A 
ATOM     75  C   UNL A   1      45.937  28.076  32.657  1.00  0.00     0.134 A 
ATOM     76  F   UNL A   1      46.841  29.619  29.496  1.00  0.00    -0.206 F 
ATOM     77  C   UNL A   1      48.135  28.347  30.984  1.00  0.00     0.040 A 
ATOM     78  C   UNL A   1      47.158  27.505  33.016  1.00  0.00     0.040 A 
ATOM     79  F   UNL A   1      44.901  27.919  33.497  1.00  0.00    -0.206 F 
ATOM     80  C   UNL A   1      48.260  27.633  32.173  1.00  0.00     0.006 A 
ENDBRANCH  56  73
ENDBRANCH  30  31
ENDBRANCH  23  25
ENDBRANCH  22  23
ENDBRANCH  21  22
ENDBRANCH  20  21
ENDBRANCH   1  20
TORSDOF 17
ENDMDL
MODEL 2
REMARK VINA RESULT:      -8.3      5.264     10.923
REMARK SMILES CC[C@](C)(Nc1cccc(Br)c1)C(=O)OCCOCCOC(=O)c1ccc(-c2c3nc(c(-c4c(F)cccc4F)c4ccc([nH]4)c(-c4c(F)cccc4F)c4nc(c(-c5c(F)cccc5F)c5ccc2[nH]5)C=C4)C=C3)cc1
REMARK SMILES IDX 18 1 17 2 16 3 15 4 13 5 14 6 3 7 4 8 2 9 1 10 5 11 6 13
REMARK SMILES IDX 7 14 12 15 8 16 10 17 9 18 11 19 19 20 20 21 21 22 22 23
REMARK SMILES IDX 23 24 24 25 25 26 77 27 26 28 76 29 27 30 28 31 29 32 70 33
REMARK SMILES IDX 30 34 75 35 69 36 71 37 31 38 74 39 68 40 67 41 32 43 58 44
REMARK SMILES IDX 41 45 57 46 42 47 45 48 56 49 72 50 43 51 44 52 55 54 73 55
REMARK SMILES IDX 46 56 33 57 34 58 39 59 35 60 36 61 38 62 40 63 37 64 59 65
REMARK SMILES IDX 60 66 65 67 61 68 62 69 64 70 66 71 63 72 47 73 48 74 53 75
REMARK SMILES IDX 49 76 50 77 52 78 54 79 51 80
REMARK H PARENT 5 12 71 42 45 53
REMARK Flexibility Score: inf
ROOT
ATOM      1  O   UNL A   1      42.491  18.849  25.747  1.00  0.00    -0.374 OA
ENDROOT
BRANCH   1   2
ATOM      2  C   UNL A   1      43.902  18.699  25.609  1.00  0.00     0.202 C 
BRANCH   2   3
ATOM      3  C   UNL A   1      44.498  19.266  24.321  1.00  0.00     0.261 C 
BRANCH   3   4
ATOM      4  O   UNL A   1      44.547  20.705  24.347  1.00  0.00    -0.462 OA
BRANCH   4   5
ATOM      5  C   UNL A   1      45.767  21.231  24.641  1.00  0.00     0.331 C 
ATOM      6  O   UNL A   1      46.800  20.567  24.655  1.00  0.00    -0.249 OA
BRANCH   5   7
ATOM      7  C   UNL A   1      45.706  22.718  25.067  1.00  0.00     0.132 C 
ATOM      8  C   UNL A   1      44.238  23.159  24.804  1.00  0.00     0.047 C 
BRANCH   7   9
ATOM      9  C   UNL A   1      46.671  23.574  24.222  1.00  0.00     0.037 C 
ATOM     10  C   UNL A   1      47.080  24.896  24.869  1.00  0.00     0.007 C 
ENDBRANCH   7   9
BRANCH   7  11
ATOM     11  N   UNL A   1      45.890  23.023  26.506  1.00  0.00    -0.370 N 
ATOM     12  H   UNL A   1      46.836  23.014  26.778  1.00  0.00     0.161 HD
BRANCH  11  13
ATOM     13  C   UNL A   1      45.047  23.316  27.546  1.00  0.00     0.036 A 
ATOM     14  C   UNL A   1      43.730  22.881  27.660  1.00  0.00     0.026 A 
ATOM     15  C   UNL A   1      45.558  24.125  28.577  1.00  0.00     0.041 A 
ATOM     16  C   UNL A   1      42.961  23.204  28.788  1.00  0.00     0.003 A 
ATOM     17  C   UNL A   1      44.787  24.475  29.684  1.00  0.00     0.020 A 
ATOM     18  C   UNL A   1      43.492  23.997  29.804  1.00  0.00     0.016 A 
ATOM     19  Br  UNL A   1      45.503  25.616  31.008  1.00  0.00    -0.051 Br
ENDBRANCH  11  13
ENDBRANCH   7  11
ENDBRANCH   5   7
ENDBRANCH   4   5
ENDBRANCH   3   4
ENDBRANCH   2   3
ENDBRANCH   1   2
BRANCH   1  20
ATOM     20  C   UNL A   1      42.064  19.782  26.743  1.00  0.00     0.202 C 
BRANCH  20  21
ATOM     21  C   UNL A   1      40.617  20.262  26.592  1.00  0.00     0.261 C 
BRANCH  21  22
ATOM     22  O   UNL A   1      40.450  21.598  27.103  1.00  0.00    -0.460 OA
BRANCH  22  23
ATOM     23  C   UNL A   1      39.664  22.415  26.358  1.00  0.00     0.338 C 
ATOM     24  O   UNL A   1      38.847  22.095  25.521  1.00  0.00    -0.246 OA
BRANCH  23  25
ATOM     25  C   UNL A   1      39.804  23.803  26.860  1.00  0.00     0.060 A 
ATOM     26  C   UNL A   1      40.265  24.780  25.972  1.00  0.00     0.016 A 
ATOM     27  C   UNL A   1      39.497  24.148  28.175  1.00  0.00     0.016 A 
ATOM     28  C   UNL A   1      40.467  26.090  26.413  1.00  0.00     0.010 A 
ATOM     29  C   UNL A   1      39.648  25.472  28.602  1.00  0.00     0.010 A 
ATOM     30  C   UNL A   1      40.190  26.444  27.742  1.00  0.00    -0.014 A 
BRANCH  30  31
ATOM     31  C   UNL A   1      40.633  27.769  28.270  1.00  0.00     0.031 A 
ATOM     32  C   UNL A   1      42.104  28.117  28.245  1.00  0.00     0.074 A 
ATOM     33  C   UNL A   1      39.748  28.679  28.725  1.00  0.00     0.049 A 
ATOM     34  N   UNL A   1      42.708  29.210  28.639  1.00  0.00    -0.248 NA
ATOM     35  C   UNL A   1      43.020  27.087  27.727  1.00  0.00     0.031 C 
ATOM     36  C   UNL A   1      38.301  28.485  28.821  1.00  0.00     0.029 A 
ATOM     37  N   UNL A   1      39.943  29.959  29.190  1.00  0.00    -0.354 N 
ATOM     38  C   UNL A   1      44.065  28.988  28.432  1.00  0.00     0.074 A 
ATOM     39  C   UNL A   1      44.204  27.635  27.945  1.00  0.00     0.031 C 
ATOM     40  C   UNL A   1      37.738  29.612  29.291  1.00  0.00     0.029 A 
ATOM     41  C   UNL A   1      38.782  30.599  29.557  1.00  0.00     0.049 A 
ATOM     42  H   UNL A   1      40.831  30.378  29.252  1.00  0.00     0.167 HD
ATOM     43  C   UNL A   1      45.106  29.839  28.595  1.00  0.00     0.037 A 
ATOM     44  C   UNL A   1      38.583  31.837  30.052  1.00  0.00     0.037 A 
ATOM     45  C   UNL A   1      44.980  31.201  29.039  1.00  0.00     0.049 A 
ATOM     46  C   UNL A   1      39.761  32.759  30.247  1.00  0.00     0.074 A 
ATOM     47  C   UNL A   1      45.972  32.155  29.185  1.00  0.00     0.029 A 
ATOM     48  N   UNL A   1      43.788  31.803  29.406  1.00  0.00    -0.354 N 
ATOM     49  N   UNL A   1      41.030  32.553  29.989  1.00  0.00    -0.248 NA
ATOM     50  C   UNL A   1      39.475  34.095  30.795  1.00  0.00     0.031 C 
ATOM     51  C   UNL A   1      45.387  33.320  29.690  1.00  0.00     0.029 A 
ATOM     52  C   UNL A   1      44.023  33.110  29.802  1.00  0.00     0.049 A 
ATOM     53  H   UNL A   1      42.905  31.368  29.389  1.00  0.00     0.167 HD
ATOM     54  C   UNL A   1      41.684  33.738  30.311  1.00  0.00     0.074 A 
ATOM     55  C   UNL A   1      40.671  34.666  30.764  1.00  0.00     0.031 C 
ATOM     56  C   UNL A   1      43.006  34.030  30.239  1.00  0.00     0.037 A 
BRANCH  43  57
ATOM     57  C   UNL A   1      46.482  29.321  28.283  1.00  0.00     0.057 A 
ATOM     58  C   UNL A   1      47.025  29.391  26.992  1.00  0.00     0.134 A 
ATOM     59  C   UNL A   1      47.288  28.779  29.292  1.00  0.00     0.134 A 
ATOM     60  F   UNL A   1      46.302  29.886  25.976  1.00  0.00    -0.206 F 
ATOM     61  C   UNL A   1      48.306  28.913  26.711  1.00  0.00     0.040 A 
ATOM     62  C   UNL A   1      48.583  28.328  29.030  1.00  0.00     0.040 A 
ATOM     63  F   UNL A   1      46.835  28.688  30.551  1.00  0.00    -0.206 F 
ATOM     64  C   UNL A   1      49.092  28.387  27.735  1.00  0.00     0.006 A 
ENDBRANCH  43  57
BRANCH  44  65
ATOM     65  C   UNL A   1      37.211  32.299  30.396  1.00  0.00     0.057 A 
ATOM     66  C   UNL A   1      36.648  32.035  31.652  1.00  0.00     0.134 A 
ATOM     67  C   UNL A   1      36.412  32.969  29.463  1.00  0.00     0.134 A 
ATOM     68  F   UNL A   1      37.352  31.374  32.582  1.00  0.00    -0.206 F 
ATOM     69  C   UNL A   1      35.334  32.396  31.956  1.00  0.00     0.040 A 
ATOM     70  C   UNL A   1      35.106  33.361  29.764  1.00  0.00     0.040 A 
ATOM     71  F   UNL A   1      36.888  33.253  28.242  1.00  0.00    -0.206 F 
ATOM     72  C   UNL A   1      34.560  33.064  31.011  1.00  0.00     0.006 A 
ENDBRANCH  44  65
BRANCH  56  73
ATOM     73  C   UNL A   1      43.432  35.421  30.618  1.00  0.00     0.057 A 
ATOM     74  C   UNL A   1      43.799  35.755  31.927  1.00  0.00     0.134 A 
ATOM     75  C   UNL A   1      43.515  36.430  29.648  1.00  0.00     0.134 A 
ATOM     76  F   UNL A   1      43.735  34.841  32.907  1.00  0.00    -0.206 F 
ATOM     77  C   UNL A   1      44.205  37.048  32.265  1.00  0.00     0.040 A 
ATOM     78  C   UNL A   1      43.949  37.716  29.967  1.00  0.00     0.040 A 
ATOM     79  F   UNL A   1      43.192  36.176  28.371  1.00  0.00    -0.206 F 
ATOM     80  C   UNL A   1      44.287  38.031  31.281  1.00  0.00     0.006 A 
ENDBRANCH  56  73
ENDBRANCH  30  31
ENDBRANCH  23  25
ENDBRANCH  22  23
ENDBRANCH  21  22
ENDBRANCH  20  21
ENDBRANCH   1  20
TORSDOF 17
ENDMDL
MODEL 3
REMARK VINA RESULT:      -8.2      4.714      7.785
REMARK SMILES CC[C@](C)(Nc1cccc(Br)c1)C(=O)OCCOCCOC(=O)c1ccc(-c2c3nc(c(-c4c(F)cccc4F)c4ccc([nH]4)c(-c4c(F)cccc4F)c4nc(c(-c5c(F)cccc5F)c5ccc2[nH]5)C=C4)C=C3)cc1
REMARK SMILES IDX 18 1 17 2 16 3 15 4 13 5 14 6 3 7 4 8 2 9 1 10 5 11 6 13
REMARK SMILES IDX 7 14 12 15 8 16 10 17 9 18 11 19 19 20 20 21 21 22 22 23
REMARK SMILES IDX 23 24 24 25 25 26 77 27 26 28 76 29 27 30 28 31 29 32 70 33
REMARK SMILES IDX 30 34 75 35 69 36 71 37 31 38 74 39 68 40 67 41 32 43 58 44
REMARK SMILES IDX 41 45 57 46 42 47 45 48 56 49 72 50 43 51 44 52 55 54 73 55
REMARK SMILES IDX 46 56 33 57 34 58 39 59 35 60 36 61 38 62 40 63 37 64 59 65
REMARK SMILES IDX 60 66 65 67 61 68 62 69 64 70 66 71 63 72 47 73 48 74 53 75
REMARK SMILES IDX 49 76 50 77 52 78 54 79 51 80
REMARK H PARENT 5 12 71 42 45 53
REMARK Flexibility Score: inf
ROOT
ATOM      1  O   UNL A   1      32.189  30.620  27.122  1.00  0.00    -0.374 OA
ENDROOT
BRANCH   1   2
ATOM      2  C   UNL A   1      33.226  30.079  26.306  1.00  0.00     0.202 C 
BRANCH   2   3
ATOM      3  C   UNL A   1      32.787  29.595  24.925  1.00  0.00     0.261 C 
BRANCH   3   4
ATOM      4  O   UNL A   1      32.940  28.170  24.789  1.00  0.00    -0.462 OA
BRANCH   4   5
ATOM      5  C   UNL A   1      31.786  27.490  24.549  1.00  0.00     0.331 C 
ATOM      6  O   UNL A   1      31.026  27.118  25.439  1.00  0.00    -0.249 OA
BRANCH   5   7
ATOM      7  C   UNL A   1      31.584  27.134  23.056  1.00  0.00     0.132 C 
ATOM      8  C   UNL A   1      30.905  25.735  23.057  1.00  0.00     0.047 C 
BRANCH   7   9
ATOM      9  C   UNL A   1      32.936  27.062  22.318  1.00  0.00     0.037 C 
ATOM     10  C   UNL A   1      33.518  25.654  22.194  1.00  0.00     0.007 C 
ENDBRANCH   7   9
BRANCH   7  11
ATOM     11  N   UNL A   1      30.631  27.964  22.280  1.00  0.00    -0.370 N 
ATOM     12  H   UNL A   1      30.832  27.973  21.317  1.00  0.00     0.161 HD
BRANCH  11  13
ATOM     13  C   UNL A   1      29.533  28.722  22.595  1.00  0.00     0.036 A 
ATOM     14  C   UNL A   1      28.267  28.222  22.885  1.00  0.00     0.026 A 
ATOM     15  C   UNL A   1      29.706  30.117  22.625  1.00  0.00     0.041 A 
ATOM     16  C   UNL A   1      27.217  29.083  23.237  1.00  0.00     0.003 A 
ATOM     17  C   UNL A   1      28.656  30.978  22.942  1.00  0.00     0.020 A 
ATOM     18  C   UNL A   1      27.413  30.462  23.271  1.00  0.00     0.016 A 
ATOM     19  Br  UNL A   1      28.927  32.847  22.905  1.00  0.00    -0.051 Br
ENDBRANCH  11  13
ENDBRANCH   7  11
ENDBRANCH   5   7
ENDBRANCH   4   5
ENDBRANCH   3   4
ENDBRANCH   2   3
ENDBRANCH   1   2
BRANCH   1  20
ATOM     20  C   UNL A   1      31.349  31.591  26.492  1.00  0.00     0.202 C 
BRANCH  20  21
ATOM     21  C   UNL A   1      31.614  33.039  26.916  1.00  0.00     0.261 C 
BRANCH  21  22
ATOM     22  O   UNL A   1      33.024  33.323  26.964  1.00  0.00    -0.460 OA
BRANCH  22  23
ATOM     23  C   UNL A   1      33.483  33.810  28.144  1.00  0.00     0.338 C 
ATOM     24  O   UNL A   1      32.922  34.580  28.895  1.00  0.00    -0.246 OA
BRANCH  23  25
ATOM     25  C   UNL A   1      34.734  33.100  28.502  1.00  0.00     0.060 A 
ATOM     26  C   UNL A   1      34.638  31.767  28.916  1.00  0.00     0.016 A 
ATOM     27  C   UNL A   1      35.980  33.721  28.441  1.00  0.00     0.016 A 
ATOM     28  C   UNL A   1      35.781  31.073  29.317  1.00  0.00     0.010 A 
ATOM     29  C   UNL A   1      37.133  33.007  28.791  1.00  0.00     0.010 A 
ATOM     30  C   UNL A   1      37.039  31.695  29.289  1.00  0.00    -0.014 A 
BRANCH  30  31
ATOM     31  C   UNL A   1      38.211  31.040  29.941  1.00  0.00     0.031 A 
ATOM     32  C   UNL A   1      38.496  31.324  31.398  1.00  0.00     0.074 A 
ATOM     33  C   UNL A   1      38.993  30.167  29.274  1.00  0.00     0.049 A 
ATOM     34  N   UNL A   1      39.450  30.859  32.167  1.00  0.00    -0.248 NA
ATOM     35  C   UNL A   1      37.602  32.279  32.075  1.00  0.00     0.031 C 
ATOM     36  C   UNL A   1      38.850  29.800  27.866  1.00  0.00     0.029 A 
ATOM     37  N   UNL A   1      40.067  29.423  29.704  1.00  0.00    -0.354 N 
ATOM     38  C   UNL A   1      39.276  31.475  33.401  1.00  0.00     0.074 A 
ATOM     39  C   UNL A   1      38.173  32.398  33.262  1.00  0.00     0.031 C 
ATOM     40  C   UNL A   1      39.784  28.885  27.554  1.00  0.00     0.029 A 
ATOM     41  C   UNL A   1      40.611  28.619  28.729  1.00  0.00     0.049 A 
ATOM     42  H   UNL A   1      40.414  29.461  30.624  1.00  0.00     0.167 HD
ATOM     43  C   UNL A   1      39.944  31.272  34.561  1.00  0.00     0.037 A 
ATOM     44  C   UNL A   1      41.656  27.768  28.777  1.00  0.00     0.037 A 
ATOM     45  C   UNL A   1      41.016  30.327  34.726  1.00  0.00     0.049 A 
ATOM     46  C   UNL A   1      42.400  27.575  30.075  1.00  0.00     0.074 A 
ATOM     47  C   UNL A   1      41.718  30.013  35.876  1.00  0.00     0.029 A 
ATOM     48  N   UNL A   1      41.537  29.541  33.711  1.00  0.00    -0.354 N 
ATOM     49  N   UNL A   1      42.183  28.122  31.247  1.00  0.00    -0.248 NA
ATOM     50  C   UNL A   1      43.533  26.635  30.057  1.00  0.00     0.031 C 
ATOM     51  C   UNL A   1      42.700  29.075  35.546  1.00  0.00     0.029 A 
ATOM     52  C   UNL A   1      42.570  28.761  34.204  1.00  0.00     0.049 A 
ATOM     53  H   UNL A   1      41.221  29.538  32.778  1.00  0.00     0.167 HD
ATOM     54  C   UNL A   1      43.127  27.569  32.107  1.00  0.00     0.074 A 
ATOM     55  C   UNL A   1      43.905  26.630  31.329  1.00  0.00     0.031 C 
ATOM     56  C   UNL A   1      43.330  27.819  33.424  1.00  0.00     0.037 A 
BRANCH  43  57
ATOM     57  C   UNL A   1      39.529  32.086  35.754  1.00  0.00     0.057 A 
ATOM     58  C   UNL A   1      38.537  31.647  36.642  1.00  0.00     0.134 A 
ATOM     59  C   UNL A   1      40.153  33.308  36.038  1.00  0.00     0.134 A 
ATOM     60  F   UNL A   1      37.891  30.492  36.423  1.00  0.00    -0.206 F 
ATOM     61  C   UNL A   1      38.162  32.406  37.752  1.00  0.00     0.040 A 
ATOM     62  C   UNL A   1      39.809  34.060  37.162  1.00  0.00     0.040 A 
ATOM     63  F   UNL A   1      41.115  33.785  35.234  1.00  0.00    -0.206 F 
ATOM     64  C   UNL A   1      38.805  33.614  38.019  1.00  0.00     0.006 A 
ENDBRANCH  43  57
BRANCH  44  65
ATOM     65  C   UNL A   1      42.070  27.014  27.562  1.00  0.00     0.057 A 
ATOM     66  C   UNL A   1      41.615  25.710  27.325  1.00  0.00     0.134 A 
ATOM     67  C   UNL A   1      42.969  27.558  26.638  1.00  0.00     0.134 A 
ATOM     68  F   UNL A   1      40.773  25.122  28.187  1.00  0.00    -0.206 F 
ATOM     69  C   UNL A   1      42.060  24.967  26.230  1.00  0.00     0.040 A 
ATOM     70  C   UNL A   1      43.399  26.837  25.522  1.00  0.00     0.040 A 
ATOM     71  F   UNL A   1      43.443  28.801  26.804  1.00  0.00    -0.206 F 
ATOM     72  C   UNL A   1      42.952  25.532  25.322  1.00  0.00     0.006 A 
ENDBRANCH  44  65
BRANCH  56  73
ATOM     73  C   UNL A   1      44.409  27.038  34.121  1.00  0.00     0.057 A 
ATOM     74  C   UNL A   1      45.718  27.520  34.238  1.00  0.00     0.134 A 
ATOM     75  C   UNL A   1      44.121  25.803  34.719  1.00  0.00     0.134 A 
ATOM     76  F   UNL A   1      46.065  28.691  33.683  1.00  0.00    -0.206 F 
ATOM     77  C   UNL A   1      46.709  26.790  34.899  1.00  0.00     0.040 A 
ATOM     78  C   UNL A   1      45.094  25.080  35.408  1.00  0.00     0.040 A 
ATOM     79  F   UNL A   1      42.884  25.287  34.657  1.00  0.00    -0.206 F 
ATOM     80  C   UNL A   1      46.396  25.569  35.492  1.00  0.00     0.006 A 
ENDBRANCH  56  73
ENDBRANCH  30  31
ENDBRANCH  23  25
ENDBRANCH  22  23
ENDBRANCH  21  22
ENDBRANCH  20  21
ENDBRANCH   1  20
TORSDOF 17
ENDMDL
