MODEL 1
REMARK VINA RESULT:     -10.6      0.000      0.000
REMARK SMILES C[C@@](NC(=O)NCC(N)=O)(C(=O)OCCOCCOC(=O)c1ccc(-c2c3nc(c(-c4c(F)cccc4F)c4ccc([nH]4)c(-c4c(F)cccc4F)c4nc(c(-c5c(F)cccc5F)c5ccc2[nH]5)C=C4)C=C3)cc1)C(F)(F)F
REMARK SMILES IDX 15 1 14 2 13 3 11 4 12 5 2 6 1 7 3 8 4 9 5 11 6 12 7 14 8 15
REMARK SMILES IDX 9 16 10 17 76 20 77 21 78 22 79 23 16 24 17 25 18 26 19 27
REMARK SMILES IDX 20 28 21 29 22 30 23 31 75 32 24 33 74 34 25 35 26 36 27 37
REMARK SMILES IDX 68 38 28 39 73 40 67 41 69 42 29 43 72 44 66 45 65 46 30 48
REMARK SMILES IDX 56 49 39 50 55 51 40 52 43 53 54 54 70 55 41 56 42 57 53 59
REMARK SMILES IDX 71 60 44 61 31 62 32 63 37 64 33 65 34 66 36 67 38 68 35 69
REMARK SMILES IDX 57 70 58 71 63 72 59 73 60 74 62 75 64 76 61 77 45 78 46 79
REMARK SMILES IDX 51 80 47 81 48 82 50 83 52 84 49 85
REMARK H PARENT 3 10 6 13 9 18 9 19 69 47 43 58
REMARK Flexibility Score: inf
ROOT
ATOM      1  C   UNL A   1      39.209  20.589  25.721  1.00  0.00     0.202 C 
ENDROOT
BRANCH   1   2
ATOM      2  C   UNL A   1      38.135  21.637  25.387  1.00  0.00     0.261 C 
BRANCH   2   3
ATOM      3  O   UNL A   1      37.016  21.313  24.555  1.00  0.00    -0.461 OA
BRANCH   3   4
ATOM      4  C   UNL A   1      36.291  22.351  24.051  1.00  0.00     0.341 C 
ATOM      5  O   UNL A   1      36.765  23.231  23.344  1.00  0.00    -0.249 OA
BRANCH   4   6
ATOM      6  C   UNL A   1      34.874  22.373  24.594  1.00  0.00     0.232 C 
ATOM      7  C   UNL A   1      33.953  22.874  23.451  1.00  0.00     0.058 C 
BRANCH   6   8
ATOM      8  N   UNL A   1      34.382  21.002  24.987  1.00  0.00    -0.315 N 
ATOM      9  C   UNL A   1      33.251  20.352  25.270  1.00  0.00     0.316 C 
ATOM     10  H   UNL A   1      35.146  20.385  25.058  1.00  0.00     0.166 HD
ATOM     11  O   UNL A   1      33.350  19.128  25.391  1.00  0.00    -0.249 OA
ATOM     12  N   UNL A   1      32.056  20.900  25.498  1.00  0.00    -0.329 N 
ATOM     13  H   UNL A   1      31.363  20.247  25.753  1.00  0.00     0.165 HD
BRANCH  12  14
ATOM     14  C   UNL A   1      31.582  22.258  25.446  1.00  0.00     0.217 C 
BRANCH  14  15
ATOM     15  C   UNL A   1      30.915  22.874  26.671  1.00  0.00     0.236 C 
ATOM     16  N   UNL A   1      29.598  22.525  26.839  1.00  0.00    -0.368 N 
ATOM     17  O   UNL A   1      31.474  23.640  27.447  1.00  0.00    -0.273 OA
ATOM     18  H   UNL A   1      29.168  21.908  26.204  1.00  0.00     0.159 HD
ATOM     19  H   UNL A   1      29.085  22.891  27.595  1.00  0.00     0.159 HD
ENDBRANCH  14  15
ENDBRANCH  12  14
ENDBRANCH   6   8
BRANCH   6  20
ATOM     20  C   UNL A   1      34.840  23.445  25.696  1.00  0.00     0.422 C 
ATOM     21  F   UNL A   1      36.042  24.063  25.819  1.00  0.00    -0.168 F 
ATOM     22  F   UNL A   1      33.947  24.419  25.379  1.00  0.00    -0.168 F 
ATOM     23  F   UNL A   1      34.488  22.978  26.907  1.00  0.00    -0.168 F 
ENDBRANCH   6  20
ENDBRANCH   4   6
ENDBRANCH   3   4
ENDBRANCH   2   3
ENDBRANCH   1   2
BRANCH   1  24
ATOM     24  O   UNL A   1      40.206  20.796  26.695  1.00  0.00    -0.374 OA
BRANCH  24  25
ATOM     25  C   UNL A   1      41.557  20.424  26.470  1.00  0.00     0.202 C 
BRANCH  25  26
ATOM     26  C   UNL A   1      42.640  21.462  26.171  1.00  0.00     0.261 C 
BRANCH  26  27
ATOM     27  O   UNL A   1      42.273  22.446  25.198  1.00  0.00    -0.460 OA
BRANCH  27  28
ATOM     28  C   UNL A   1      43.086  23.524  25.163  1.00  0.00     0.338 C 
ATOM     29  O   UNL A   1      44.106  23.670  24.495  1.00  0.00    -0.246 OA
BRANCH  28  30
ATOM     30  C   UNL A   1      42.485  24.623  25.924  1.00  0.00     0.060 A 
ATOM     31  C   UNL A   1      43.072  25.894  25.831  1.00  0.00     0.016 A 
ATOM     32  C   UNL A   1      41.412  24.386  26.783  1.00  0.00     0.016 A 
ATOM     33  C   UNL A   1      42.614  26.930  26.637  1.00  0.00     0.010 A 
ATOM     34  C   UNL A   1      40.973  25.417  27.610  1.00  0.00     0.010 A 
ATOM     35  C   UNL A   1      41.602  26.676  27.567  1.00  0.00    -0.014 A 
BRANCH  35  36
ATOM     36  C   UNL A   1      41.345  27.638  28.658  1.00  0.00     0.031 A 
ATOM     37  C   UNL A   1      42.168  27.520  29.907  1.00  0.00     0.074 A 
ATOM     38  C   UNL A   1      40.377  28.559  28.554  1.00  0.00     0.049 A 
ATOM     39  N   UNL A   1      42.023  28.119  31.059  1.00  0.00    -0.248 NA
ATOM     40  C   UNL A   1      43.302  26.583  29.849  1.00  0.00     0.031 C 
ATOM     41  C   UNL A   1      39.554  28.789  27.369  1.00  0.00     0.029 A 
ATOM     42  N   UNL A   1      39.901  29.448  29.481  1.00  0.00    -0.354 N 
ATOM     43  C   UNL A   1      43.027  27.610  31.872  1.00  0.00     0.074 A 
ATOM     44  C   UNL A   1      43.765  26.645  31.088  1.00  0.00     0.031 C 
ATOM     45  C   UNL A   1      38.639  29.730  27.657  1.00  0.00     0.029 A 
ATOM     46  C   UNL A   1      38.790  30.130  29.055  1.00  0.00     0.049 A 
ATOM     47  H   UNL A   1      40.315  29.585  30.364  1.00  0.00     0.167 HD
ATOM     48  C   UNL A   1      43.301  27.920  33.161  1.00  0.00     0.037 A 
ATOM     49  C   UNL A   1      37.961  30.944  29.736  1.00  0.00     0.037 A 
ATOM     50  C   UNL A   1      42.550  28.876  33.927  1.00  0.00     0.049 A 
ATOM     51  C   UNL A   1      38.242  31.231  31.187  1.00  0.00     0.074 A 
ATOM     52  C   UNL A   1      42.755  29.291  35.231  1.00  0.00     0.029 A 
ATOM     53  N   UNL A   1      41.435  29.557  33.459  1.00  0.00    -0.354 N 
ATOM     54  N   UNL A   1      39.203  30.769  31.949  1.00  0.00    -0.248 NA
ATOM     55  C   UNL A   1      37.324  32.153  31.871  1.00  0.00     0.031 C 
ATOM     56  C   UNL A   1      41.727  30.176  35.571  1.00  0.00     0.029 A 
ATOM     57  C   UNL A   1      40.919  30.364  34.458  1.00  0.00     0.049 A 
ATOM     58  H   UNL A   1      41.065  29.477  32.550  1.00  0.00     0.167 HD
ATOM     59  C   UNL A   1      39.026  31.362  33.193  1.00  0.00     0.074 A 
ATOM     60  C   UNL A   1      37.863  32.219  33.082  1.00  0.00     0.031 C 
ATOM     61  C   UNL A   1      39.764  31.216  34.323  1.00  0.00     0.037 A 
BRANCH  48  62
ATOM     62  C   UNL A   1      44.420  27.169  33.823  1.00  0.00     0.057 A 
ATOM     63  C   UNL A   1      44.214  25.953  34.489  1.00  0.00     0.134 A 
ATOM     64  C   UNL A   1      45.722  27.685  33.813  1.00  0.00     0.134 A 
ATOM     65  F   UNL A   1      42.988  25.411  34.555  1.00  0.00    -0.206 F 
ATOM     66  C   UNL A   1      45.254  25.298  35.152  1.00  0.00     0.040 A 
ATOM     67  C   UNL A   1      46.776  27.024  34.445  1.00  0.00     0.040 A 
ATOM     68  F   UNL A   1      45.990  28.844  33.193  1.00  0.00    -0.206 F 
ATOM     69  C   UNL A   1      46.541  25.834  35.128  1.00  0.00     0.006 A 
ENDBRANCH  48  62
BRANCH  49  70
ATOM     70  C   UNL A   1      36.775  31.512  29.050  1.00  0.00     0.057 A 
ATOM     71  C   UNL A   1      36.754  32.840  28.613  1.00  0.00     0.134 A 
ATOM     72  C   UNL A   1      35.647  30.725  28.781  1.00  0.00     0.134 A 
ATOM     73  F   UNL A   1      37.797  33.647  28.858  1.00  0.00    -0.206 F 
ATOM     74  C   UNL A   1      35.655  33.367  27.933  1.00  0.00     0.040 A 
ATOM     75  C   UNL A   1      34.550  31.232  28.082  1.00  0.00     0.040 A 
ATOM     76  F   UNL A   1      35.609  29.442  29.170  1.00  0.00    -0.206 F 
ATOM     77  C   UNL A   1      34.552  32.559  27.658  1.00  0.00     0.006 A 
ENDBRANCH  49  70
BRANCH  61  78
ATOM     78  C   UNL A   1      39.370  32.033  35.519  1.00  0.00     0.057 A 
ATOM     79  C   UNL A   1      38.523  31.533  36.515  1.00  0.00     0.134 A 
ATOM     80  C   UNL A   1      39.914  33.310  35.712  1.00  0.00     0.134 A 
ATOM     81  F   UNL A   1      37.962  30.322  36.386  1.00  0.00    -0.206 F 
ATOM     82  C   UNL A   1      38.223  32.280  37.656  1.00  0.00     0.040 A 
ATOM     83  C   UNL A   1      39.643  34.055  36.860  1.00  0.00     0.040 A 
ATOM     84  F   UNL A   1      40.742  33.843  34.800  1.00  0.00    -0.206 F 
ATOM     85  C   UNL A   1      38.792  33.540  37.836  1.00  0.00     0.006 A 
ENDBRANCH  61  78
ENDBRANCH  35  36
ENDBRANCH  28  30
ENDBRANCH  27  28
ENDBRANCH  26  27
ENDBRANCH  25  26
ENDBRANCH  24  25
ENDBRANCH   1  24
TORSDOF 18
ENDMDL
MODEL 2
REMARK VINA RESULT:     -10.5      1.002      2.059
REMARK SMILES C[C@@](NC(=O)NCC(N)=O)(C(=O)OCCOCCOC(=O)c1ccc(-c2c3nc(c(-c4c(F)cccc4F)c4ccc([nH]4)c(-c4c(F)cccc4F)c4nc(c(-c5c(F)cccc5F)c5ccc2[nH]5)C=C4)C=C3)cc1)C(F)(F)F
REMARK SMILES IDX 15 1 14 2 13 3 11 4 12 5 2 6 1 7 3 8 4 9 5 11 6 12 7 14 8 15
REMARK SMILES IDX 9 16 10 17 76 20 77 21 78 22 79 23 16 24 17 25 18 26 19 27
REMARK SMILES IDX 20 28 21 29 22 30 23 31 75 32 24 33 74 34 25 35 26 36 27 37
REMARK SMILES IDX 68 38 28 39 73 40 67 41 69 42 29 43 72 44 66 45 65 46 30 48
REMARK SMILES IDX 56 49 39 50 55 51 40 52 43 53 54 54 70 55 41 56 42 57 53 59
REMARK SMILES IDX 71 60 44 61 31 62 32 63 37 64 33 65 34 66 36 67 38 68 35 69
REMARK SMILES IDX 57 70 58 71 63 72 59 73 60 74 62 75 64 76 61 77 45 78 46 79
REMARK SMILES IDX 51 80 47 81 48 82 50 83 52 84 49 85
REMARK H PARENT 3 10 6 13 9 18 9 19 69 47 43 58
REMARK Flexibility Score: inf
ROOT
ATOM      1  C   UNL A   1      39.682  21.342  26.057  1.00  0.00     0.202 C 
ENDROOT
BRANCH   1   2
ATOM      2  C   UNL A   1      38.484  22.301  26.168  1.00  0.00     0.261 C 
BRANCH   2   3
ATOM      3  O   UNL A   1      37.422  22.272  25.210  1.00  0.00    -0.461 OA
BRANCH   3   4
ATOM      4  C   UNL A   1      36.391  23.145  25.395  1.00  0.00     0.341 C 
ATOM      5  O   UNL A   1      36.525  24.266  25.866  1.00  0.00    -0.249 OA
BRANCH   4   6
ATOM      6  C   UNL A   1      35.046  22.507  25.097  1.00  0.00     0.232 C 
ATOM      7  C   UNL A   1      35.269  20.972  25.039  1.00  0.00     0.058 C 
BRANCH   6   8
ATOM      8  N   UNL A   1      34.029  22.763  26.180  1.00  0.00    -0.315 N 
ATOM      9  C   UNL A   1      32.933  22.222  26.718  1.00  0.00     0.316 C 
ATOM     10  H   UNL A   1      34.243  23.606  26.641  1.00  0.00     0.166 HD
ATOM     11  O   UNL A   1      32.518  22.760  27.748  1.00  0.00    -0.249 OA
ATOM     12  N   UNL A   1      32.217  21.214  26.217  1.00  0.00    -0.329 N 
ATOM     13  H   UNL A   1      31.407  21.007  26.737  1.00  0.00     0.165 HD
BRANCH  12  14
ATOM     14  C   UNL A   1      32.398  20.370  25.066  1.00  0.00     0.217 C 
BRANCH  14  15
ATOM     15  C   UNL A   1      32.403  18.854  25.232  1.00  0.00     0.236 C 
ATOM     16  N   UNL A   1      32.819  18.418  26.466  1.00  0.00    -0.368 N 
ATOM     17  O   UNL A   1      32.090  18.063  24.350  1.00  0.00    -0.273 OA
ATOM     18  H   UNL A   1      33.065  19.070  27.161  1.00  0.00     0.159 HD
ATOM     19  H   UNL A   1      32.869  17.453  26.655  1.00  0.00     0.159 HD
ENDBRANCH  14  15
ENDBRANCH  12  14
ENDBRANCH   6   8
BRANCH   6  20
ATOM     20  C   UNL A   1      34.651  22.952  23.679  1.00  0.00     0.422 C 
ATOM     21  F   UNL A   1      34.249  24.248  23.663  1.00  0.00    -0.168 F 
ATOM     22  F   UNL A   1      35.723  22.880  22.845  1.00  0.00    -0.168 F 
ATOM     23  F   UNL A   1      33.678  22.209  23.120  1.00  0.00    -0.168 F 
ENDBRANCH   6  20
ENDBRANCH   4   6
ENDBRANCH   3   4
ENDBRANCH   2   3
ENDBRANCH   1   2
BRANCH   1  24
ATOM     24  O   UNL A   1      40.633  21.181  27.085  1.00  0.00    -0.374 OA
BRANCH  24  25
ATOM     25  C   UNL A   1      41.841  20.466  26.877  1.00  0.00     0.202 C 
BRANCH  25  26
ATOM     26  C   UNL A   1      43.015  21.075  26.107  1.00  0.00     0.261 C 
BRANCH  26  27
ATOM     27  O   UNL A   1      43.457  22.346  26.596  1.00  0.00    -0.460 OA
BRANCH  27  28
ATOM     28  C   UNL A   1      43.273  23.368  25.733  1.00  0.00     0.338 C 
ATOM     29  O   UNL A   1      43.421  23.352  24.513  1.00  0.00    -0.246 OA
BRANCH  28  30
ATOM     30  C   UNL A   1      42.680  24.510  26.434  1.00  0.00     0.060 A 
ATOM     31  C   UNL A   1      43.349  25.742  26.381  1.00  0.00     0.016 A 
ATOM     32  C   UNL A   1      41.528  24.348  27.202  1.00  0.00     0.016 A 
ATOM     33  C   UNL A   1      42.892  26.813  27.139  1.00  0.00     0.010 A 
ATOM     34  C   UNL A   1      41.086  25.414  27.984  1.00  0.00     0.010 A 
ATOM     35  C   UNL A   1      41.793  26.631  27.985  1.00  0.00    -0.014 A 
BRANCH  35  36
ATOM     36  C   UNL A   1      41.507  27.619  29.044  1.00  0.00     0.031 A 
ATOM     37  C   UNL A   1      42.293  27.531  30.318  1.00  0.00     0.074 A 
ATOM     38  C   UNL A   1      40.543  28.539  28.890  1.00  0.00     0.049 A 
ATOM     39  N   UNL A   1      42.115  28.158  31.451  1.00  0.00    -0.248 NA
ATOM     40  C   UNL A   1      43.426  26.591  30.316  1.00  0.00     0.031 C 
ATOM     41  C   UNL A   1      39.756  28.741  27.677  1.00  0.00     0.029 A 
ATOM     42  N   UNL A   1      40.043  29.451  29.781  1.00  0.00    -0.354 N 
ATOM     43  C   UNL A   1      43.095  27.668  32.305  1.00  0.00     0.074 A 
ATOM     44  C   UNL A   1      43.853  26.683  31.565  1.00  0.00     0.031 C 
ATOM     45  C   UNL A   1      38.834  29.690  27.915  1.00  0.00     0.029 A 
ATOM     46  C   UNL A   1      38.945  30.124  29.307  1.00  0.00     0.049 A 
ATOM     47  H   UNL A   1      40.431  29.609  30.672  1.00  0.00     0.167 HD
ATOM     48  C   UNL A   1      43.333  28.008  33.593  1.00  0.00     0.037 A 
ATOM     49  C   UNL A   1      38.099  30.955  29.944  1.00  0.00     0.037 A 
ATOM     50  C   UNL A   1      42.561  28.984  34.314  1.00  0.00     0.049 A 
ATOM     51  C   UNL A   1      38.338  31.276  31.395  1.00  0.00     0.074 A 
ATOM     52  C   UNL A   1      42.730  29.429  35.613  1.00  0.00     0.029 A 
ATOM     53  N   UNL A   1      41.462  29.654  33.798  1.00  0.00    -0.354 N 
ATOM     54  N   UNL A   1      39.277  30.832  32.195  1.00  0.00    -0.248 NA
ATOM     55  C   UNL A   1      37.403  32.215  32.030  1.00  0.00     0.031 C 
ATOM     56  C   UNL A   1      41.694  30.323  35.902  1.00  0.00     0.029 A 
ATOM     57  C   UNL A   1      40.919  30.486  34.762  1.00  0.00     0.049 A 
ATOM     58  H   UNL A   1      41.118  29.552  32.881  1.00  0.00     0.167 HD
ATOM     59  C   UNL A   1      39.065  31.455  33.419  1.00  0.00     0.074 A 
ATOM     60  C   UNL A   1      37.907  32.311  33.254  1.00  0.00     0.031 C 
ATOM     61  C   UNL A   1      39.770  31.336  34.573  1.00  0.00     0.037 A 
BRANCH  48  62
ATOM     62  C   UNL A   1      44.430  27.272  34.305  1.00  0.00     0.057 A 
ATOM     63  C   UNL A   1      45.747  27.751  34.351  1.00  0.00     0.134 A 
ATOM     64  C   UNL A   1      44.168  26.049  34.936  1.00  0.00     0.134 A 
ATOM     65  F   UNL A   1      46.072  28.906  33.751  1.00  0.00    -0.206 F 
ATOM     66  C   UNL A   1      46.768  27.023  34.965  1.00  0.00     0.040 A 
ATOM     67  C   UNL A   1      45.174  25.328  35.580  1.00  0.00     0.040 A 
ATOM     68  F   UNL A   1      42.930  25.531  34.932  1.00  0.00    -0.206 F 
ATOM     69  C   UNL A   1      46.481  25.809  35.586  1.00  0.00     0.006 A 
ENDBRANCH  48  62
BRANCH  49  70
ATOM     70  C   UNL A   1      36.934  31.508  29.211  1.00  0.00     0.057 A 
ATOM     71  C   UNL A   1      36.939  32.815  28.717  1.00  0.00     0.134 A 
ATOM     72  C   UNL A   1      35.801  30.724  28.953  1.00  0.00     0.134 A 
ATOM     73  F   UNL A   1      37.987  33.620  28.949  1.00  0.00    -0.206 F 
ATOM     74  C   UNL A   1      35.860  33.327  27.994  1.00  0.00     0.040 A 
ATOM     75  C   UNL A   1      34.725  31.214  28.211  1.00  0.00     0.040 A 
ATOM     76  F   UNL A   1      35.739  29.458  29.395  1.00  0.00    -0.206 F 
ATOM     77  C   UNL A   1      34.753  32.521  27.731  1.00  0.00     0.006 A 
ENDBRANCH  49  70
BRANCH  61  78
ATOM     78  C   UNL A   1      39.343  32.182  35.737  1.00  0.00     0.057 A 
ATOM     79  C   UNL A   1      39.799  33.494  35.911  1.00  0.00     0.134 A 
ATOM     80  C   UNL A   1      38.398  31.698  36.653  1.00  0.00     0.134 A 
ATOM     81  F   UNL A   1      40.712  34.013  35.075  1.00  0.00    -0.206 F 
ATOM     82  C   UNL A   1      39.338  34.291  36.960  1.00  0.00     0.040 A 
ATOM     83  C   UNL A   1      37.910  32.494  37.688  1.00  0.00     0.040 A 
ATOM     84  F   UNL A   1      37.912  30.453  36.536  1.00  0.00    -0.206 F 
ATOM     85  C   UNL A   1      38.383  33.795  37.845  1.00  0.00     0.006 A 
ENDBRANCH  61  78
ENDBRANCH  35  36
ENDBRANCH  28  30
ENDBRANCH  27  28
ENDBRANCH  26  27
ENDBRANCH  25  26
ENDBRANCH  24  25
ENDBRANCH   1  24
TORSDOF 18
ENDMDL
MODEL 3
REMARK VINA RESULT:     -10.5      3.934      7.653
REMARK SMILES C[C@@](NC(=O)NCC(N)=O)(C(=O)OCCOCCOC(=O)c1ccc(-c2c3nc(c(-c4c(F)cccc4F)c4ccc([nH]4)c(-c4c(F)cccc4F)c4nc(c(-c5c(F)cccc5F)c5ccc2[nH]5)C=C4)C=C3)cc1)C(F)(F)F
REMARK SMILES IDX 15 1 14 2 13 3 11 4 12 5 2 6 1 7 3 8 4 9 5 11 6 12 7 14 8 15
REMARK SMILES IDX 9 16 10 17 76 20 77 21 78 22 79 23 16 24 17 25 18 26 19 27
REMARK SMILES IDX 20 28 21 29 22 30 23 31 75 32 24 33 74 34 25 35 26 36 27 37
REMARK SMILES IDX 68 38 28 39 73 40 67 41 69 42 29 43 72 44 66 45 65 46 30 48
REMARK SMILES IDX 56 49 39 50 55 51 40 52 43 53 54 54 70 55 41 56 42 57 53 59
REMARK SMILES IDX 71 60 44 61 31 62 32 63 37 64 33 65 34 66 36 67 38 68 35 69
REMARK SMILES IDX 57 70 58 71 63 72 59 73 60 74 62 75 64 76 61 77 45 78 46 79
REMARK SMILES IDX 51 80 47 81 48 82 50 83 52 84 49 85
REMARK H PARENT 3 10 6 13 9 18 9 19 69 47 43 58
REMARK Flexibility Score: inf
ROOT
ATOM      1  C   UNL A   1      35.046  23.298  23.417  1.00  0.00     0.202 C 
ENDROOT
BRANCH   1   2
ATOM      2  C   UNL A   1      34.388  24.490  24.132  1.00  0.00     0.261 C 
BRANCH   2   3
ATOM      3  O   UNL A   1      33.003  24.794  23.943  1.00  0.00    -0.461 OA
BRANCH   3   4
ATOM      4  C   UNL A   1      32.272  25.094  25.054  1.00  0.00     0.341 C 
ATOM      5  O   UNL A   1      32.766  25.371  26.139  1.00  0.00    -0.249 OA
BRANCH   4   6
ATOM      6  C   UNL A   1      30.784  24.891  24.828  1.00  0.00     0.232 C 
ATOM      7  C   UNL A   1      30.630  24.007  23.562  1.00  0.00     0.058 C 
BRANCH   6   8
ATOM      8  N   UNL A   1      30.120  24.154  25.963  1.00  0.00    -0.315 N 
ATOM      9  C   UNL A   1      30.284  23.074  26.730  1.00  0.00     0.316 C 
ATOM     10  H   UNL A   1      29.295  24.623  26.224  1.00  0.00     0.166 HD
ATOM     11  O   UNL A   1      29.506  22.968  27.683  1.00  0.00    -0.249 OA
ATOM     12  N   UNL A   1      31.149  22.080  26.527  1.00  0.00    -0.329 N 
ATOM     13  H   UNL A   1      31.067  21.343  27.177  1.00  0.00     0.165 HD
BRANCH  12  14
ATOM     14  C   UNL A   1      32.180  21.872  25.545  1.00  0.00     0.217 C 
BRANCH  14  15
ATOM     15  C   UNL A   1      32.215  20.573  24.747  1.00  0.00     0.236 C 
ATOM     16  N   UNL A   1      32.343  20.741  23.390  1.00  0.00    -0.368 N 
ATOM     17  O   UNL A   1      32.116  19.457  25.243  1.00  0.00    -0.273 OA
ATOM     18  H   UNL A   1      32.422  21.646  23.012  1.00  0.00     0.159 HD
ATOM     19  H   UNL A   1      32.357  19.956  22.796  1.00  0.00     0.159 HD
ENDBRANCH  14  15
ENDBRANCH  12  14
ENDBRANCH   6   8
BRANCH   6  20
ATOM     20  C   UNL A   1      30.199  26.270  24.481  1.00  0.00     0.422 C 
ATOM     21  F   UNL A   1      30.602  27.214  25.368  1.00  0.00    -0.168 F 
ATOM     22  F   UNL A   1      30.647  26.681  23.265  1.00  0.00    -0.168 F 
ATOM     23  F   UNL A   1      28.855  26.299  24.427  1.00  0.00    -0.168 F 
ENDBRANCH   6  20
ENDBRANCH   4   6
ENDBRANCH   3   4
ENDBRANCH   2   3
ENDBRANCH   1   2
BRANCH   1  24
ATOM     24  O   UNL A   1      35.198  22.032  24.018  1.00  0.00    -0.374 OA
BRANCH  24  25
ATOM     25  C   UNL A   1      36.069  21.829  25.120  1.00  0.00     0.202 C 
BRANCH  25  26
ATOM     26  C   UNL A   1      37.231  20.836  25.057  1.00  0.00     0.261 C 
BRANCH  26  27
ATOM     27  O   UNL A   1      38.530  21.438  25.002  1.00  0.00    -0.460 OA
BRANCH  27  28
ATOM     28  C   UNL A   1      39.343  21.100  26.026  1.00  0.00     0.338 C 
ATOM     29  O   UNL A   1      39.801  19.989  26.282  1.00  0.00    -0.246 OA
BRANCH  28  30
ATOM     30  C   UNL A   1      39.777  22.308  26.734  1.00  0.00     0.060 A 
ATOM     31  C   UNL A   1      39.221  23.538  26.349  1.00  0.00     0.016 A 
ATOM     32  C   UNL A   1      40.778  22.240  27.702  1.00  0.00     0.016 A 
ATOM     33  C   UNL A   1      39.702  24.719  26.903  1.00  0.00     0.010 A 
ATOM     34  C   UNL A   1      41.278  23.425  28.235  1.00  0.00     0.010 A 
ATOM     35  C   UNL A   1      40.770  24.666  27.804  1.00  0.00    -0.014 A 
BRANCH  35  36
ATOM     36  C   UNL A   1      41.521  25.895  28.131  1.00  0.00     0.031 A 
ATOM     37  C   UNL A   1      40.792  26.995  28.844  1.00  0.00     0.074 A 
ATOM     38  C   UNL A   1      42.802  26.041  27.761  1.00  0.00     0.049 A 
ATOM     39  N   UNL A   1      41.169  28.222  29.085  1.00  0.00    -0.248 NA
ATOM     40  C   UNL A   1      39.446  26.665  29.339  1.00  0.00     0.031 C 
ATOM     41  C   UNL A   1      43.614  25.018  27.109  1.00  0.00     0.029 A 
ATOM     42  N   UNL A   1      43.628  27.129  27.854  1.00  0.00    -0.354 N 
ATOM     43  C   UNL A   1      40.096  28.821  29.733  1.00  0.00     0.074 A 
ATOM     44  C   UNL A   1      39.050  27.827  29.834  1.00  0.00     0.031 C 
ATOM     45  C   UNL A   1      44.815  25.544  26.816  1.00  0.00     0.029 A 
ATOM     46  C   UNL A   1      44.832  26.948  27.223  1.00  0.00     0.049 A 
ATOM     47  H   UNL A   1      43.383  27.958  28.326  1.00  0.00     0.167 HD
ATOM     48  C   UNL A   1      39.994  30.089  30.194  1.00  0.00     0.037 A 
ATOM     49  C   UNL A   1      45.812  27.834  26.961  1.00  0.00     0.037 A 
ATOM     50  C   UNL A   1      41.043  31.065  30.076  1.00  0.00     0.049 A 
ATOM     51  C   UNL A   1      45.660  29.257  27.425  1.00  0.00     0.074 A 
ATOM     52  C   UNL A   1      41.062  32.371  30.532  1.00  0.00     0.029 A 
ATOM     53  N   UNL A   1      42.255  30.843  29.439  1.00  0.00    -0.354 N 
ATOM     54  N   UNL A   1      44.657  29.817  28.057  1.00  0.00    -0.248 NA
ATOM     55  C   UNL A   1      46.775  30.172  27.141  1.00  0.00     0.031 C 
ATOM     56  C   UNL A   1      42.262  32.957  30.117  1.00  0.00     0.029 A 
ATOM     57  C   UNL A   1      43.019  31.998  29.459  1.00  0.00     0.049 A 
ATOM     58  H   UNL A   1      42.532  29.990  29.032  1.00  0.00     0.167 HD
ATOM     59  C   UNL A   1      45.027  31.139  28.272  1.00  0.00     0.074 A 
ATOM     60  C   UNL A   1      46.350  31.296  27.703  1.00  0.00     0.031 C 
ATOM     61  C   UNL A   1      44.338  32.130  28.893  1.00  0.00     0.037 A 
BRANCH  48  62
ATOM     62  C   UNL A   1      38.685  30.492  30.809  1.00  0.00     0.057 A 
ATOM     63  C   UNL A   1      37.665  31.101  30.065  1.00  0.00     0.134 A 
ATOM     64  C   UNL A   1      38.453  30.288  32.175  1.00  0.00     0.134 A 
ATOM     65  F   UNL A   1      37.829  31.345  28.756  1.00  0.00    -0.206 F 
ATOM     66  C   UNL A   1      36.478  31.525  30.666  1.00  0.00     0.040 A 
ATOM     67  C   UNL A   1      37.257  30.679  32.780  1.00  0.00     0.040 A 
ATOM     68  F   UNL A   1      39.386  29.709  32.946  1.00  0.00    -0.206 F 
ATOM     69  C   UNL A   1      36.271  31.311  32.028  1.00  0.00     0.006 A 
ENDBRANCH  48  62
BRANCH  49  70
ATOM     70  C   UNL A   1      47.003  27.393  26.194  1.00  0.00     0.057 A 
ATOM     71  C   UNL A   1      47.044  27.478  24.800  1.00  0.00     0.134 A 
ATOM     72  C   UNL A   1      48.147  26.911  26.846  1.00  0.00     0.134 A 
ATOM     73  F   UNL A   1      45.973  27.914  24.119  1.00  0.00    -0.206 F 
ATOM     74  C   UNL A   1      48.177  27.100  24.077  1.00  0.00     0.040 A 
ATOM     75  C   UNL A   1      49.295  26.551  26.139  1.00  0.00     0.040 A 
ATOM     76  F   UNL A   1      48.172  26.811  28.184  1.00  0.00    -0.206 F 
ATOM     77  C   UNL A   1      49.311  26.643  24.749  1.00  0.00     0.006 A 
ENDBRANCH  49  70
BRANCH  61  78
ATOM     78  C   UNL A   1      45.015  33.463  29.033  1.00  0.00     0.057 A 
ATOM     79  C   UNL A   1      45.885  33.747  30.092  1.00  0.00     0.134 A 
ATOM     80  C   UNL A   1      44.851  34.445  28.046  1.00  0.00     0.134 A 
ATOM     81  F   UNL A   1      46.077  32.853  31.074  1.00  0.00    -0.206 F 
ATOM     82  C   UNL A   1      46.561  34.967  30.169  1.00  0.00     0.040 A 
ATOM     83  C   UNL A   1      45.542  35.655  28.099  1.00  0.00     0.040 A 
ATOM     84  F   UNL A   1      44.040  34.230  26.999  1.00  0.00    -0.206 F 
ATOM     85  C   UNL A   1      46.399  35.920  29.165  1.00  0.00     0.006 A 
ENDBRANCH  61  78
ENDBRANCH  35  36
ENDBRANCH  28  30
ENDBRANCH  27  28
ENDBRANCH  26  27
ENDBRANCH  25  26
ENDBRANCH  24  25
ENDBRANCH   1  24
TORSDOF 18
ENDMDL
