MODEL 1
REMARK VINA RESULT:     -13.3      0.000      0.000
REMARK SMILES Cc1ccc(-c2cc3cccnc3n2CCC(=O)OCCOCCOC(=O)c2ccc(-c3c4nc(c(-c5c(F)cccc5F)c5ccc([nH]5)c(-c5c(F)cccc5F)c5nc(c(-c6c(F)cccc6F)c6ccc3[nH]6)C=C5)C=C4)cc2)cn1
REMARK SMILES IDX 21 1 20 2 19 3 17 4 18 5 16 6 15 7 14 8 6 9 7 10 8 11 13 12
REMARK SMILES IDX 9 13 12 14 10 15 11 16 5 17 1 18 2 19 3 20 83 21 4 22 82 23
REMARK SMILES IDX 22 24 23 25 24 26 25 27 26 28 27 29 28 30 29 31 81 32 30 33
REMARK SMILES IDX 80 34 31 35 32 36 33 37 74 38 34 39 79 40 73 41 75 42 35 43
REMARK SMILES IDX 78 44 72 45 71 46 36 48 62 49 45 50 61 51 46 52 49 53 60 54
REMARK SMILES IDX 76 55 47 56 48 57 59 59 77 60 50 61 37 62 38 63 43 64 39 65
REMARK SMILES IDX 40 66 42 67 44 68 41 69 63 70 64 71 69 72 65 73 66 74 68 75
REMARK SMILES IDX 70 76 67 77 51 78 52 79 57 80 53 81 54 82 56 83 58 84 55 85
REMARK H PARENT 75 47 49 58
REMARK Flexibility Score: inf
ROOT
ATOM      1  C   UNL A   1      34.245  31.707  27.833  1.00  0.00     0.202 C 
ENDROOT
BRANCH   1   2
ATOM      2  C   UNL A   1      34.597  29.657  27.178  1.00  0.00     0.261 C 
BRANCH   2   3
ATOM      3  O   UNL A   1      33.546  28.768  26.145  1.00  0.00    -0.463 OA
BRANCH   3   4
ATOM      4  C   UNL A   1      32.757  29.309  25.173  1.00  0.00     0.307 C 
ATOM      5  O   UNL A   1      31.690  29.860  25.426  1.00  0.00    -0.252 OA
BRANCH   4   6
ATOM      6  C   UNL A   1      33.326  29.271  23.717  1.00  0.00     0.144 C 
BRANCH   6   7
ATOM      7  C   UNL A   1      32.779  28.397  22.562  1.00  0.00     0.136 C 
BRANCH   7   8
ATOM      8  N   UNL A   1      31.620  27.605  22.891  1.00  0.00    -0.325 N 
ATOM      9  C   UNL A   1      31.681  26.339  23.413  1.00  0.00     0.052 A 
ATOM     10  C   UNL A   1      30.398  26.053  23.868  1.00  0.00     0.039 A 
ATOM     11  C   UNL A   1      29.534  27.095  23.482  1.00  0.00     0.020 A 
ATOM     12  C   UNL A   1      30.311  28.018  22.793  1.00  0.00     0.140 A 
ATOM     13  C   UNL A   1      28.171  27.369  23.665  1.00  0.00     0.013 A 
ATOM     14  N   UNL A   1      29.870  29.145  22.199  1.00  0.00    -0.238 NA
ATOM     15  C   UNL A   1      27.670  28.522  23.073  1.00  0.00     0.021 A 
ATOM     16  C   UNL A   1      28.536  29.336  22.353  1.00  0.00     0.113 A 
BRANCH   9  17
ATOM     17  C   UNL A   1      32.909  25.590  23.692  1.00  0.00     0.017 A 
ATOM     18  C   UNL A   1      36.866  22.586  23.967  1.00  0.00     0.066 C 
ATOM     19  C   UNL A   1      35.472  23.132  24.135  1.00  0.00     0.037 A 
ATOM     20  C   UNL A   1      35.101  24.192  25.513  1.00  0.00     0.024 A 
ATOM     21  N   UNL A   1      34.593  23.249  22.637  1.00  0.00    -0.261 NA
ATOM     22  C   UNL A   1      33.823  25.461  25.280  1.00  0.00     0.014 A 
ATOM     23  C   UNL A   1      33.362  24.450  22.413  1.00  0.00     0.121 A 
ENDBRANCH   9  17
ENDBRANCH   7   8
ENDBRANCH   6   7
ENDBRANCH   4   6
ENDBRANCH   3   4
ENDBRANCH   2   3
ENDBRANCH   1   2
BRANCH   1  24
ATOM     24  O   UNL A   1      35.140  33.045  27.583  1.00  0.00    -0.374 OA
BRANCH  24  25
ATOM     25  C   UNL A   1      34.766  34.308  28.176  1.00  0.00     0.202 C 
BRANCH  25  26
ATOM     26  C   UNL A   1      33.588  34.321  29.138  1.00  0.00     0.261 C 
BRANCH  26  27
ATOM     27  O   UNL A   1      34.033  33.967  30.426  1.00  0.00    -0.460 OA
BRANCH  27  28
ATOM     28  C   UNL A   1      33.551  34.750  31.421  1.00  0.00     0.338 C 
ATOM     29  O   UNL A   1      32.645  35.558  31.361  1.00  0.00    -0.246 OA
BRANCH  28  30
ATOM     30  C   UNL A   1      34.405  34.486  32.599  1.00  0.00     0.060 A 
ATOM     31  C   UNL A   1      35.553  35.259  32.635  1.00  0.00     0.016 A 
ATOM     32  C   UNL A   1      34.339  33.198  33.157  1.00  0.00     0.016 A 
ATOM     33  C   UNL A   1      36.721  34.553  32.696  1.00  0.00     0.010 A 
ATOM     34  C   UNL A   1      35.496  32.490  33.208  1.00  0.00     0.010 A 
ATOM     35  C   UNL A   1      36.637  33.157  32.806  1.00  0.00    -0.014 A 
BRANCH  35  36
ATOM     36  C   UNL A   1      37.809  32.379  32.529  1.00  0.00     0.031 A 
ATOM     37  C   UNL A   1      38.636  32.295  33.735  1.00  0.00     0.074 A 
ATOM     38  C   UNL A   1      38.051  31.842  31.319  1.00  0.00     0.049 A 
ATOM     39  N   UNL A   1      39.608  33.087  34.028  1.00  0.00    -0.248 NA
ATOM     40  C   UNL A   1      38.140  31.496  34.865  1.00  0.00     0.031 C 
ATOM     41  C   UNL A   1      37.171  31.705  30.155  1.00  0.00     0.029 A 
ATOM     42  N   UNL A   1      39.203  31.253  30.902  1.00  0.00    -0.354 N 
ATOM     43  C   UNL A   1      40.031  32.679  35.280  1.00  0.00     0.074 A 
ATOM     44  C   UNL A   1      38.945  31.923  35.840  1.00  0.00     0.031 C 
ATOM     45  C   UNL A   1      37.749  30.876  29.250  1.00  0.00     0.029 A 
ATOM     46  C   UNL A   1      39.091  30.554  29.701  1.00  0.00     0.049 A 
ATOM     47  H   UNL A   1      40.046  31.317  31.406  1.00  0.00     0.167 HD
ATOM     48  C   UNL A   1      41.359  32.699  35.563  1.00  0.00     0.037 A 
ATOM     49  C   UNL A   1      40.055  29.738  29.197  1.00  0.00     0.037 A 
ATOM     50  C   UNL A   1      42.059  33.567  34.637  1.00  0.00     0.049 A 
ATOM     51  C   UNL A   1      41.341  30.146  29.835  1.00  0.00     0.074 A 
ATOM     52  C   UNL A   1      41.979  34.910  34.315  1.00  0.00     0.029 A 
ATOM     53  N   UNL A   1      42.697  32.965  33.577  1.00  0.00    -0.354 N 
ATOM     54  N   UNL A   1      41.914  31.297  29.602  1.00  0.00    -0.248 NA
ATOM     55  C   UNL A   1      41.677  29.531  31.113  1.00  0.00     0.031 C 
ATOM     56  C   UNL A   1      42.159  34.969  32.901  1.00  0.00     0.029 A 
ATOM     57  C   UNL A   1      42.426  33.679  32.438  1.00  0.00     0.049 A 
ATOM     58  H   UNL A   1      43.255  32.156  33.627  1.00  0.00     0.167 HD
ATOM     59  C   UNL A   1      42.311  31.757  30.851  1.00  0.00     0.074 A 
ATOM     60  C   UNL A   1      42.180  30.600  31.739  1.00  0.00     0.031 C 
ATOM     61  C   UNL A   1      42.405  33.095  31.115  1.00  0.00     0.037 A 
BRANCH  48  62
ATOM     62  C   UNL A   1      42.056  31.583  36.307  1.00  0.00     0.057 A 
ATOM     63  C   UNL A   1      42.148  30.242  35.874  1.00  0.00     0.134 A 
ATOM     64  C   UNL A   1      42.946  31.937  37.333  1.00  0.00     0.134 A 
ATOM     65  F   UNL A   1      41.390  29.726  34.902  1.00  0.00    -0.206 F 
ATOM     66  C   UNL A   1      43.108  29.354  36.358  1.00  0.00     0.040 A 
ATOM     67  C   UNL A   1      43.938  31.067  37.796  1.00  0.00     0.040 A 
ATOM     68  F   UNL A   1      42.942  33.174  37.852  1.00  0.00    -0.206 F 
ATOM     69  C   UNL A   1      44.035  29.777  37.292  1.00  0.00     0.006 A 
ENDBRANCH  48  62
BRANCH  49  70
ATOM     70  C   UNL A   1      39.895  28.437  28.507  1.00  0.00     0.057 A 
ATOM     71  C   UNL A   1      39.439  27.300  29.196  1.00  0.00     0.134 A 
ATOM     72  C   UNL A   1      40.454  28.201  27.242  1.00  0.00     0.134 A 
ATOM     73  F   UNL A   1      38.962  27.396  30.446  1.00  0.00    -0.206 F 
ATOM     74  C   UNL A   1      39.543  26.008  28.669  1.00  0.00     0.040 A 
ATOM     75  C   UNL A   1      40.565  26.911  26.701  1.00  0.00     0.040 A 
ATOM     76  F   UNL A   1      40.966  29.213  26.525  1.00  0.00    -0.206 F 
ATOM     77  C   UNL A   1      40.118  25.808  27.421  1.00  0.00     0.006 A 
ENDBRANCH  49  70
BRANCH  61  78
ATOM     78  C   UNL A   1      42.283  34.042  29.951  1.00  0.00     0.057 A 
ATOM     79  C   UNL A   1      43.452  34.462  29.307  1.00  0.00     0.134 A 
ATOM     80  C   UNL A   1      41.084  34.643  29.535  1.00  0.00     0.134 A 
ATOM     81  F   UNL A   1      44.643  33.977  29.692  1.00  0.00    -0.206 F 
ATOM     82  C   UNL A   1      43.433  35.417  28.289  1.00  0.00     0.040 A 
ATOM     83  C   UNL A   1      41.046  35.579  28.495  1.00  0.00     0.040 A 
ATOM     84  F   UNL A   1      39.927  34.382  30.159  1.00  0.00    -0.206 F 
ATOM     85  C   UNL A   1      42.226  35.970  27.870  1.00  0.00     0.006 A 
ENDBRANCH  61  78
ENDBRANCH  35  36
ENDBRANCH  28  30
ENDBRANCH  27  28
ENDBRANCH  26  27
ENDBRANCH  25  26
ENDBRANCH  24  25
ENDBRANCH   1  24
TORSDOF 17
ENDMDL
MODEL 2
REMARK VINA RESULT:     -13.2      5.309     10.307
REMARK SMILES Cc1ccc(-c2cc3cccnc3n2CCC(=O)OCCOCCOC(=O)c2ccc(-c3c4nc(c(-c5c(F)cccc5F)c5ccc([nH]5)c(-c5c(F)cccc5F)c5nc(c(-c6c(F)cccc6F)c6ccc3[nH]6)C=C5)C=C4)cc2)cn1
REMARK SMILES IDX 21 1 20 2 19 3 17 4 18 5 16 6 15 7 14 8 6 9 7 10 8 11 13 12
REMARK SMILES IDX 9 13 12 14 10 15 11 16 5 17 1 18 2 19 3 20 83 21 4 22 82 23
REMARK SMILES IDX 22 24 23 25 24 26 25 27 26 28 27 29 28 30 29 31 81 32 30 33
REMARK SMILES IDX 80 34 31 35 32 36 33 37 74 38 34 39 79 40 73 41 75 42 35 43
REMARK SMILES IDX 78 44 72 45 71 46 36 48 62 49 45 50 61 51 46 52 49 53 60 54
REMARK SMILES IDX 76 55 47 56 48 57 59 59 77 60 50 61 37 62 38 63 43 64 39 65
REMARK SMILES IDX 40 66 42 67 44 68 41 69 63 70 64 71 69 72 65 73 66 74 68 75
REMARK SMILES IDX 70 76 67 77 51 78 52 79 57 80 53 81 54 82 56 83 58 84 55 85
REMARK H PARENT 75 47 49 58
REMARK Flexibility Score: inf
ROOT
ATOM      1  C   UNL A   1      39.517  21.880  26.332  1.00  0.00     0.202 C 
ENDROOT
BRANCH   1   2
ATOM      2  C   UNL A   1      38.097  23.515  26.075  1.00  0.00     0.261 C 
BRANCH   2   3
ATOM      3  O   UNL A   1      36.666  23.425  25.121  1.00  0.00    -0.463 OA
BRANCH   3   4
ATOM      4  C   UNL A   1      35.394  23.513  25.604  1.00  0.00     0.307 C 
ATOM      5  O   UNL A   1      34.798  24.582  25.690  1.00  0.00    -0.252 OA
BRANCH   4   6
ATOM      6  C   UNL A   1      34.692  22.162  25.961  1.00  0.00     0.144 C 
BRANCH   6   7
ATOM      7  C   UNL A   1      33.164  21.911  25.941  1.00  0.00     0.136 C 
BRANCH   7   8
ATOM      8  N   UNL A   1      32.682  21.171  24.801  1.00  0.00    -0.325 N 
ATOM      9  C   UNL A   1      32.262  21.752  23.633  1.00  0.00     0.052 A 
ATOM     10  C   UNL A   1      32.177  20.721  22.704  1.00  0.00     0.039 A 
ATOM     11  C   UNL A   1      32.404  19.496  23.360  1.00  0.00     0.020 A 
ATOM     12  C   UNL A   1      32.634  19.800  24.696  1.00  0.00     0.140 A 
ATOM     13  C   UNL A   1      32.463  18.154  22.957  1.00  0.00     0.013 A 
ATOM     14  N   UNL A   1      32.840  18.913  25.691  1.00  0.00    -0.238 NA
ATOM     15  C   UNL A   1      32.677  17.202  23.947  1.00  0.00     0.021 A 
ATOM     16  C   UNL A   1      32.829  17.627  25.262  1.00  0.00     0.113 A 
BRANCH   9  17
ATOM     17  C   UNL A   1      32.213  23.192  23.367  1.00  0.00     0.017 A 
ATOM     18  C   UNL A   1      31.228  28.018  22.660  1.00  0.00     0.066 C 
ATOM     19  C   UNL A   1      31.368  26.538  22.417  1.00  0.00     0.037 A 
ATOM     20  C   UNL A   1      32.916  25.883  21.837  1.00  0.00     0.024 A 
ATOM     21  N   UNL A   1      30.278  25.576  23.375  1.00  0.00    -0.261 NA
ATOM     22  C   UNL A   1      33.361  24.197  22.344  1.00  0.00     0.014 A 
ATOM     23  C   UNL A   1      30.691  23.961  23.850  1.00  0.00     0.121 A 
ENDBRANCH   9  17
ENDBRANCH   7   8
ENDBRANCH   6   7
ENDBRANCH   4   6
ENDBRANCH   3   4
ENDBRANCH   2   3
ENDBRANCH   1   2
BRANCH   1  24
ATOM     24  O   UNL A   1      40.356  21.432  27.654  1.00  0.00    -0.374 OA
BRANCH  24  25
ATOM     25  C   UNL A   1      41.511  20.569  27.542  1.00  0.00     0.202 C 
BRANCH  25  26
ATOM     26  C   UNL A   1      41.828  19.981  26.177  1.00  0.00     0.261 C 
BRANCH  26  27
ATOM     27  O   UNL A   1      42.684  20.854  25.479  1.00  0.00    -0.460 OA
BRANCH  27  28
ATOM     28  C   UNL A   1      43.897  20.332  25.181  1.00  0.00     0.338 C 
ATOM     29  O   UNL A   1      44.236  19.165  25.215  1.00  0.00    -0.246 OA
BRANCH  28  30
ATOM     30  C   UNL A   1      44.774  21.483  24.873  1.00  0.00     0.060 A 
ATOM     31  C   UNL A   1      45.703  21.750  25.864  1.00  0.00     0.016 A 
ATOM     32  C   UNL A   1      44.243  22.483  24.040  1.00  0.00     0.016 A 
ATOM     33  C   UNL A   1      45.653  23.016  26.376  1.00  0.00     0.010 A 
ATOM     34  C   UNL A   1      44.181  23.739  24.550  1.00  0.00     0.010 A 
ATOM     35  C   UNL A   1      44.749  23.920  25.796  1.00  0.00    -0.014 A 
BRANCH  35  36
ATOM     36  C   UNL A   1      44.429  25.119  26.514  1.00  0.00     0.031 A 
ATOM     37  C   UNL A   1      45.517  26.087  26.357  1.00  0.00     0.074 A 
ATOM     38  C   UNL A   1      43.287  25.263  27.209  1.00  0.00     0.049 A 
ATOM     39  N   UNL A   1      46.507  26.234  27.168  1.00  0.00    -0.248 NA
ATOM     40  C   UNL A   1      45.716  26.703  25.037  1.00  0.00     0.031 C 
ATOM     41  C   UNL A   1      42.080  24.431  27.222  1.00  0.00     0.029 A 
ATOM     42  N   UNL A   1      42.973  26.270  28.066  1.00  0.00    -0.354 N 
ATOM     43  C   UNL A   1      47.310  27.191  26.576  1.00  0.00     0.074 A 
ATOM     44  C   UNL A   1      46.936  27.222  25.189  1.00  0.00     0.031 C 
ATOM     45  C   UNL A   1      41.088  25.090  27.871  1.00  0.00     0.029 A 
ATOM     46  C   UNL A   1      41.631  26.308  28.444  1.00  0.00     0.049 A 
ATOM     47  H   UNL A   1      43.637  26.919  28.393  1.00  0.00     0.167 HD
ATOM     48  C   UNL A   1      47.933  28.105  27.365  1.00  0.00     0.037 A 
ATOM     49  C   UNL A   1      41.058  27.330  29.134  1.00  0.00     0.037 A 
ATOM     50  C   UNL A   1      47.987  27.634  28.735  1.00  0.00     0.049 A 
ATOM     51  C   UNL A   1      42.164  28.056  29.824  1.00  0.00     0.074 A 
ATOM     52  C   UNL A   1      48.539  26.531  29.362  1.00  0.00     0.029 A 
ATOM     53  N   UNL A   1      47.035  28.121  29.601  1.00  0.00    -0.354 N 
ATOM     54  N   UNL A   1      42.862  27.529  30.795  1.00  0.00    -0.248 NA
ATOM     55  C   UNL A   1      42.835  29.114  29.079  1.00  0.00     0.031 C 
ATOM     56  C   UNL A   1      47.587  26.148  30.354  1.00  0.00     0.029 A 
ATOM     57  C   UNL A   1      46.547  27.079  30.347  1.00  0.00     0.049 A 
ATOM     58  H   UNL A   1      46.752  29.061  29.674  1.00  0.00     0.167 HD
ATOM     59  C   UNL A   1      44.180  27.856  30.504  1.00  0.00     0.074 A 
ATOM     60  C   UNL A   1      44.095  28.877  29.458  1.00  0.00     0.031 C 
ATOM     61  C   UNL A   1      45.213  27.054  30.904  1.00  0.00     0.037 A 
BRANCH  48  62
ATOM     62  C   UNL A   1      48.017  29.572  27.012  1.00  0.00     0.057 A 
ATOM     63  C   UNL A   1      46.915  30.438  26.838  1.00  0.00     0.134 A 
ATOM     64  C   UNL A   1      49.255  30.214  27.173  1.00  0.00     0.134 A 
ATOM     65  F   UNL A   1      45.658  30.011  26.680  1.00  0.00    -0.206 F 
ATOM     66  C   UNL A   1      47.023  31.826  26.911  1.00  0.00     0.040 A 
ATOM     67  C   UNL A   1      49.368  31.603  27.287  1.00  0.00     0.040 A 
ATOM     68  F   UNL A   1      50.385  29.505  27.320  1.00  0.00    -0.206 F 
ATOM     69  C   UNL A   1      48.246  32.412  27.178  1.00  0.00     0.006 A 
ENDBRANCH  48  62
BRANCH  49  70
ATOM     70  C   UNL A   1      39.714  27.927  28.953  1.00  0.00     0.057 A 
ATOM     71  C   UNL A   1      39.415  28.715  27.829  1.00  0.00     0.134 A 
ATOM     72  C   UNL A   1      38.787  27.984  30.005  1.00  0.00     0.134 A 
ATOM     73  F   UNL A   1      40.270  28.802  26.799  1.00  0.00    -0.206 F 
ATOM     74  C   UNL A   1      38.273  29.522  27.757  1.00  0.00     0.040 A 
ATOM     75  C   UNL A   1      37.639  28.789  29.947  1.00  0.00     0.040 A 
ATOM     76  F   UNL A   1      39.007  27.310  31.143  1.00  0.00    -0.206 F 
ATOM     77  C   UNL A   1      37.385  29.570  28.823  1.00  0.00     0.006 A 
ENDBRANCH  49  70
BRANCH  61  78
ATOM     78  C   UNL A   1      44.891  25.933  31.858  1.00  0.00     0.057 A 
ATOM     79  C   UNL A   1      45.072  26.150  33.228  1.00  0.00     0.134 A 
ATOM     80  C   UNL A   1      44.539  24.631  31.466  1.00  0.00     0.134 A 
ATOM     81  F   UNL A   1      45.468  27.353  33.672  1.00  0.00    -0.206 F 
ATOM     82  C   UNL A   1      44.897  25.131  34.167  1.00  0.00     0.040 A 
ATOM     83  C   UNL A   1      44.330  23.608  32.399  1.00  0.00     0.040 A 
ATOM     84  F   UNL A   1      44.442  24.301  30.171  1.00  0.00    -0.206 F 
ATOM     85  C   UNL A   1      44.511  23.858  33.755  1.00  0.00     0.006 A 
ENDBRANCH  61  78
ENDBRANCH  35  36
ENDBRANCH  28  30
ENDBRANCH  27  28
ENDBRANCH  26  27
ENDBRANCH  25  26
ENDBRANCH  24  25
ENDBRANCH   1  24
TORSDOF 17
ENDMDL
MODEL 3
REMARK VINA RESULT:     -13.2      5.318      9.940
REMARK SMILES Cc1ccc(-c2cc3cccnc3n2CCC(=O)OCCOCCOC(=O)c2ccc(-c3c4nc(c(-c5c(F)cccc5F)c5ccc([nH]5)c(-c5c(F)cccc5F)c5nc(c(-c6c(F)cccc6F)c6ccc3[nH]6)C=C5)C=C4)cc2)cn1
REMARK SMILES IDX 21 1 20 2 19 3 17 4 18 5 16 6 15 7 14 8 6 9 7 10 8 11 13 12
REMARK SMILES IDX 9 13 12 14 10 15 11 16 5 17 1 18 2 19 3 20 83 21 4 22 82 23
REMARK SMILES IDX 22 24 23 25 24 26 25 27 26 28 27 29 28 30 29 31 81 32 30 33
REMARK SMILES IDX 80 34 31 35 32 36 33 37 74 38 34 39 79 40 73 41 75 42 35 43
REMARK SMILES IDX 78 44 72 45 71 46 36 48 62 49 45 50 61 51 46 52 49 53 60 54
REMARK SMILES IDX 76 55 47 56 48 57 59 59 77 60 50 61 37 62 38 63 43 64 39 65
REMARK SMILES IDX 40 66 42 67 44 68 41 69 63 70 64 71 69 72 65 73 66 74 68 75
REMARK SMILES IDX 70 76 67 77 51 78 52 79 57 80 53 81 54 82 56 83 58 84 55 85
REMARK H PARENT 75 47 49 58
REMARK Flexibility Score: inf
ROOT
ATOM      1  C   UNL A   1      39.512  21.887  26.338  1.00  0.00     0.202 C 
ENDROOT
BRANCH   1   2
ATOM      2  C   UNL A   1      38.081  23.525  26.180  1.00  0.00     0.261 C 
BRANCH   2   3
ATOM      3  O   UNL A   1      36.389  23.322  25.936  1.00  0.00    -0.463 OA
BRANCH   3   4
ATOM      4  C   UNL A   1      35.798  23.020  24.746  1.00  0.00     0.307 C 
ATOM      5  O   UNL A   1      35.861  21.900  24.247  1.00  0.00    -0.252 OA
BRANCH   4   6
ATOM      6  C   UNL A   1      34.951  24.156  24.083  1.00  0.00     0.144 C 
BRANCH   6   7
ATOM      7  C   UNL A   1      34.053  23.993  22.832  1.00  0.00     0.136 C 
BRANCH   7   8
ATOM      8  N   UNL A   1      32.637  24.119  23.077  1.00  0.00    -0.325 N 
ATOM      9  C   UNL A   1      31.833  23.081  23.471  1.00  0.00     0.052 A 
ATOM     10  C   UNL A   1      30.641  23.660  23.890  1.00  0.00     0.039 A 
ATOM     11  C   UNL A   1      30.679  25.038  23.606  1.00  0.00     0.020 A 
ATOM     12  C   UNL A   1      31.911  25.286  23.015  1.00  0.00     0.140 A 
ATOM     13  C   UNL A   1      29.803  26.114  23.809  1.00  0.00     0.013 A 
ATOM     14  N   UNL A   1      32.341  26.470  22.533  1.00  0.00    -0.238 NA
ATOM     15  C   UNL A   1      30.203  27.357  23.332  1.00  0.00     0.021 A 
ATOM     16  C   UNL A   1      31.435  27.467  22.700  1.00  0.00     0.113 A 
BRANCH   9  17
ATOM     17  C   UNL A   1      32.269  21.697  23.680  1.00  0.00     0.017 A 
ATOM     18  C   UNL A   1      33.381  16.847  23.644  1.00  0.00     0.066 C 
ATOM     19  C   UNL A   1      32.634  18.140  23.839  1.00  0.00     0.037 A 
ATOM     20  C   UNL A   1      32.837  19.058  25.349  1.00  0.00     0.024 A 
ATOM     21  N   UNL A   1      32.225  18.933  22.343  1.00  0.00    -0.261 NA
ATOM     22  C   UNL A   1      32.685  20.865  25.263  1.00  0.00     0.014 A 
ATOM     23  C   UNL A   1      32.065  20.656  22.259  1.00  0.00     0.121 A 
ENDBRANCH   9  17
ENDBRANCH   7   8
ENDBRANCH   6   7
ENDBRANCH   4   6
ENDBRANCH   3   4
ENDBRANCH   2   3
ENDBRANCH   1   2
BRANCH   1  24
ATOM     24  O   UNL A   1      40.337  21.351  27.637  1.00  0.00    -0.374 OA
BRANCH  24  25
ATOM     25  C   UNL A   1      41.399  20.381  27.492  1.00  0.00     0.202 C 
BRANCH  25  26
ATOM     26  C   UNL A   1      41.768  19.936  26.086  1.00  0.00     0.261 C 
BRANCH  26  27
ATOM     27  O   UNL A   1      42.683  20.850  25.531  1.00  0.00    -0.460 OA
BRANCH  27  28
ATOM     28  C   UNL A   1      43.831  20.291  25.081  1.00  0.00     0.338 C 
ATOM     29  O   UNL A   1      44.091  19.109  24.966  1.00  0.00    -0.246 OA
BRANCH  28  30
ATOM     30  C   UNL A   1      44.759  21.414  24.822  1.00  0.00     0.060 A 
ATOM     31  C   UNL A   1      45.655  21.640  25.853  1.00  0.00     0.016 A 
ATOM     32  C   UNL A   1      44.299  22.438  23.977  1.00  0.00     0.016 A 
ATOM     33  C   UNL A   1      45.626  22.903  26.375  1.00  0.00     0.010 A 
ATOM     34  C   UNL A   1      44.258  23.692  24.496  1.00  0.00     0.010 A 
ATOM     35  C   UNL A   1      44.779  23.843  25.767  1.00  0.00    -0.014 A 
BRANCH  35  36
ATOM     36  C   UNL A   1      44.470  25.046  26.482  1.00  0.00     0.031 A 
ATOM     37  C   UNL A   1      45.571  25.999  26.331  1.00  0.00     0.074 A 
ATOM     38  C   UNL A   1      43.326  25.204  27.171  1.00  0.00     0.049 A 
ATOM     39  N   UNL A   1      46.558  26.135  27.148  1.00  0.00    -0.248 NA
ATOM     40  C   UNL A   1      45.786  26.612  25.012  1.00  0.00     0.031 C 
ATOM     41  C   UNL A   1      42.109  24.387  27.178  1.00  0.00     0.029 A 
ATOM     42  N   UNL A   1      43.020  26.216  28.025  1.00  0.00    -0.354 N 
ATOM     43  C   UNL A   1      47.377  27.081  26.560  1.00  0.00     0.074 A 
ATOM     44  C   UNL A   1      47.011  27.116  25.171  1.00  0.00     0.031 C 
ATOM     45  C   UNL A   1      41.121  25.060  27.820  1.00  0.00     0.029 A 
ATOM     46  C   UNL A   1      41.676  26.270  28.396  1.00  0.00     0.049 A 
ATOM     47  H   UNL A   1      43.690  26.856  28.356  1.00  0.00     0.167 HD
ATOM     48  C   UNL A   1      48.007  27.987  27.351  1.00  0.00     0.037 A 
ATOM     49  C   UNL A   1      41.113  27.300  29.082  1.00  0.00     0.037 A 
ATOM     50  C   UNL A   1      48.047  27.517  28.722  1.00  0.00     0.049 A 
ATOM     51  C   UNL A   1      42.224  28.013  29.778  1.00  0.00     0.074 A 
ATOM     52  C   UNL A   1      48.581  26.408  29.352  1.00  0.00     0.029 A 
ATOM     53  N   UNL A   1      47.097  28.016  29.582  1.00  0.00    -0.354 N 
ATOM     54  N   UNL A   1      42.909  27.477  30.753  1.00  0.00    -0.248 NA
ATOM     55  C   UNL A   1      42.912  29.062  29.036  1.00  0.00     0.031 C 
ATOM     56  C   UNL A   1      47.619  26.037  30.339  1.00  0.00     0.029 A 
ATOM     57  C   UNL A   1      46.591  26.981  30.326  1.00  0.00     0.049 A 
ATOM     58  H   UNL A   1      46.825  28.960  29.653  1.00  0.00     0.167 HD
ATOM     59  C   UNL A   1      44.233  27.788  30.470  1.00  0.00     0.074 A 
ATOM     60  C   UNL A   1      44.167  28.809  29.423  1.00  0.00     0.031 C 
ATOM     61  C   UNL A   1      45.254  26.972  30.876  1.00  0.00     0.037 A 
BRANCH  48  62
ATOM     62  C   UNL A   1      48.111  29.453  26.998  1.00  0.00     0.057 A 
ATOM     63  C   UNL A   1      47.021  30.332  26.816  1.00  0.00     0.134 A 
ATOM     64  C   UNL A   1      49.356  30.080  27.168  1.00  0.00     0.134 A 
ATOM     65  F   UNL A   1      45.760  29.921  26.649  1.00  0.00    -0.206 F 
ATOM     66  C   UNL A   1      47.146  31.719  26.889  1.00  0.00     0.040 A 
ATOM     67  C   UNL A   1      49.484  31.468  27.283  1.00  0.00     0.040 A 
ATOM     68  F   UNL A   1      50.475  29.358  27.324  1.00  0.00    -0.206 F 
ATOM     69  C   UNL A   1      48.373  32.291  27.165  1.00  0.00     0.006 A 
ENDBRANCH  48  62
BRANCH  49  70
ATOM     70  C   UNL A   1      39.777  27.914  28.894  1.00  0.00     0.057 A 
ATOM     71  C   UNL A   1      39.508  28.743  27.791  1.00  0.00     0.134 A 
ATOM     72  C   UNL A   1      38.828  27.943  29.926  1.00  0.00     0.134 A 
ATOM     73  F   UNL A   1      40.385  28.857  26.783  1.00  0.00    -0.206 F 
ATOM     74  C   UNL A   1      38.375  29.561  27.723  1.00  0.00     0.040 A 
ATOM     75  C   UNL A   1      37.687  28.759  29.872  1.00  0.00     0.040 A 
ATOM     76  F   UNL A   1      39.018  27.229  31.046  1.00  0.00    -0.206 F 
ATOM     77  C   UNL A   1      37.464  29.579  28.771  1.00  0.00     0.006 A 
ENDBRANCH  49  70
BRANCH  61  78
ATOM     78  C   UNL A   1      44.912  25.856  31.828  1.00  0.00     0.057 A 
ATOM     79  C   UNL A   1      45.118  26.061  33.196  1.00  0.00     0.134 A 
ATOM     80  C   UNL A   1      44.518  24.567  31.435  1.00  0.00     0.134 A 
ATOM     81  F   UNL A   1      45.554  27.249  33.642  1.00  0.00    -0.206 F 
ATOM     82  C   UNL A   1      44.925  25.042  34.133  1.00  0.00     0.040 A 
ATOM     83  C   UNL A   1      44.291  23.546  32.365  1.00  0.00     0.040 A 
ATOM     84  F   UNL A   1      44.394  24.247  30.140  1.00  0.00    -0.206 F 
ATOM     85  C   UNL A   1      44.498  23.783  33.720  1.00  0.00     0.006 A 
ENDBRANCH  61  78
ENDBRANCH  35  36
ENDBRANCH  28  30
ENDBRANCH  27  28
ENDBRANCH  26  27
ENDBRANCH  25  26
ENDBRANCH  24  25
ENDBRANCH   1  24
TORSDOF 17
ENDMDL
