MODEL 1
REMARK VINA RESULT:     -11.6      0.000      0.000
REMARK SMILES C[C@H](NC(=O)N1CCN(/C=C/c2ccccc2)CC1)C(=O)OCCOCCOC(=O)c1ccc(-c2c3nc(c(-c4c(F)cccc4F)c4ccc([nH]4)c(-c4c(F)cccc4F)c4nc(c(-c5c(F)cccc5F)c5ccc2[nH]5)C=C4)C=C3)cc1
REMARK SMILES IDX 24 1 23 2 22 3 20 4 21 5 2 6 1 7 3 8 4 9 5 11 6 12 7 13
REMARK SMILES IDX 19 14 8 15 18 16 9 17 10 18 11 19 12 20 13 21 17 22 14 23
REMARK SMILES IDX 16 24 15 25 25 26 26 27 27 28 28 29 29 30 30 31 31 32 32 33
REMARK SMILES IDX 84 34 33 35 83 36 34 37 35 38 36 39 77 40 37 41 82 42 76 43
REMARK SMILES IDX 78 44 38 45 81 46 75 47 74 48 39 50 65 51 48 52 64 53 49 54
REMARK SMILES IDX 52 55 63 56 79 57 50 58 51 59 62 61 80 62 53 63 40 64 41 65
REMARK SMILES IDX 46 66 42 67 43 68 45 69 47 70 44 71 66 72 67 73 72 74 68 75
REMARK SMILES IDX 69 76 71 77 73 78 70 79 54 80 55 81 60 82 56 83 57 84 59 85
REMARK SMILES IDX 61 86 58 87
REMARK H PARENT 3 10 78 49 52 60
REMARK Flexibility Score: inf
ROOT
ATOM      1  C   UNL A   1      34.217  32.864  27.930  1.00  0.00     0.202 C 
ENDROOT
BRANCH   1   2
ATOM      2  C   UNL A   1      33.741  31.413  28.007  1.00  0.00     0.261 C 
BRANCH   2   3
ATOM      3  O   UNL A   1      33.537  30.815  26.724  1.00  0.00    -0.462 OA
BRANCH   3   4
ATOM      4  C   UNL A   1      32.235  30.773  26.314  1.00  0.00     0.328 C 
ATOM      5  O   UNL A   1      31.392  31.629  26.560  1.00  0.00    -0.250 OA
BRANCH   4   6
ATOM      6  C   UNL A   1      31.896  29.436  25.640  1.00  0.00     0.190 C 
ATOM      7  C   UNL A   1      33.177  28.628  25.762  1.00  0.00     0.043 C 
BRANCH   6   8
ATOM      8  N   UNL A   1      31.354  29.635  24.286  1.00  0.00    -0.325 N 
ATOM      9  C   UNL A   1      30.978  28.876  23.247  1.00  0.00     0.318 C 
ATOM     10  H   UNL A   1      31.235  30.592  24.088  1.00  0.00     0.166 HD
ATOM     11  O   UNL A   1      30.808  29.470  22.179  1.00  0.00    -0.249 OA
ATOM     12  N   UNL A   1      30.902  27.529  23.336  1.00  0.00    -0.321 N 
ATOM     13  C   UNL A   1      31.229  26.737  22.159  1.00  0.00     0.143 C 
ATOM     14  C   UNL A   1      30.289  26.739  24.394  1.00  0.00     0.143 C 
ATOM     15  C   UNL A   1      32.291  25.705  22.541  1.00  0.00     0.137 C 
ATOM     16  C   UNL A   1      31.092  25.472  24.759  1.00  0.00     0.137 C 
ATOM     17  N   UNL A   1      31.839  24.829  23.646  1.00  0.00    -0.374 N 
BRANCH  17  18
ATOM     18  C   UNL A   1      32.385  23.571  23.859  1.00  0.00     0.081 C 
ATOM     19  C   UNL A   1      32.032  22.375  23.366  1.00  0.00     0.025 C 
BRANCH  19  20
ATOM     20  C   UNL A   1      32.685  21.121  23.772  1.00  0.00    -0.024 A 
ATOM     21  C   UNL A   1      33.824  21.163  24.586  1.00  0.00     0.008 A 
ATOM     22  C   UNL A   1      32.243  19.879  23.293  1.00  0.00     0.008 A 
ATOM     23  C   UNL A   1      34.493  19.984  24.925  1.00  0.00     0.001 A 
ATOM     24  C   UNL A   1      32.908  18.702  23.637  1.00  0.00     0.001 A 
ATOM     25  C   UNL A   1      34.034  18.755  24.453  1.00  0.00     0.000 A 
ENDBRANCH  19  20
ENDBRANCH  17  18
ENDBRANCH   6   8
ENDBRANCH   4   6
ENDBRANCH   3   4
ENDBRANCH   2   3
ENDBRANCH   1   2
BRANCH   1  26
ATOM     26  O   UNL A   1      33.632  33.798  28.828  1.00  0.00    -0.374 OA
BRANCH  26  27
ATOM     27  C   UNL A   1      34.466  34.426  29.803  1.00  0.00     0.202 C 
BRANCH  27  28
ATOM     28  C   UNL A   1      34.359  33.944  31.254  1.00  0.00     0.261 C 
BRANCH  28  29
ATOM     29  O   UNL A   1      34.576  32.526  31.377  1.00  0.00    -0.460 OA
BRANCH  29  30
ATOM     30  C   UNL A   1      35.526  32.173  32.271  1.00  0.00     0.338 C 
ATOM     31  O   UNL A   1      35.504  32.341  33.486  1.00  0.00    -0.246 OA
BRANCH  30  32
ATOM     32  C   UNL A   1      36.569  31.365  31.623  1.00  0.00     0.060 A 
ATOM     33  C   UNL A   1      37.495  30.705  32.444  1.00  0.00     0.016 A 
ATOM     34  C   UNL A   1      36.716  31.357  30.235  1.00  0.00     0.016 A 
ATOM     35  C   UNL A   1      38.598  30.068  31.880  1.00  0.00     0.010 A 
ATOM     36  C   UNL A   1      37.833  30.730  29.672  1.00  0.00     0.010 A 
ATOM     37  C   UNL A   1      38.794  30.113  30.494  1.00  0.00    -0.014 A 
BRANCH  37  38
ATOM     38  C   UNL A   1      40.069  29.632  29.915  1.00  0.00     0.031 A 
ATOM     39  C   UNL A   1      41.213  30.596  29.763  1.00  0.00     0.074 A 
ATOM     40  C   UNL A   1      40.205  28.351  29.529  1.00  0.00     0.049 A 
ATOM     41  N   UNL A   1      42.383  30.413  29.207  1.00  0.00    -0.248 NA
ATOM     42  C   UNL A   1      41.011  31.946  30.311  1.00  0.00     0.031 C 
ATOM     43  C   UNL A   1      39.182  27.316  29.665  1.00  0.00     0.029 A 
ATOM     44  N   UNL A   1      41.257  27.710  28.926  1.00  0.00    -0.354 N 
ATOM     45  C   UNL A   1      43.049  31.626  29.323  1.00  0.00     0.074 A 
ATOM     46  C   UNL A   1      42.150  32.543  29.991  1.00  0.00     0.031 C 
ATOM     47  C   UNL A   1      39.648  26.174  29.133  1.00  0.00     0.029 A 
ATOM     48  C   UNL A   1      40.984  26.408  28.589  1.00  0.00     0.049 A 
ATOM     49  H   UNL A   1      42.125  28.143  28.750  1.00  0.00     0.167 HD
ATOM     50  C   UNL A   1      44.298  31.945  28.910  1.00  0.00     0.037 A 
ATOM     51  C   UNL A   1      41.715  25.521  27.887  1.00  0.00     0.037 A 
ATOM     52  C   UNL A   1      45.191  31.027  28.254  1.00  0.00     0.049 A 
ATOM     53  C   UNL A   1      43.070  25.923  27.371  1.00  0.00     0.074 A 
ATOM     54  C   UNL A   1      46.495  31.240  27.841  1.00  0.00     0.029 A 
ATOM     55  N   UNL A   1      44.868  29.725  27.904  1.00  0.00    -0.354 N 
ATOM     56  N   UNL A   1      43.708  27.059  27.521  1.00  0.00    -0.248 NA
ATOM     57  C   UNL A   1      43.806  24.923  26.584  1.00  0.00     0.031 C 
ATOM     58  C   UNL A   1      46.943  30.084  27.194  1.00  0.00     0.029 A 
ATOM     59  C   UNL A   1      45.933  29.135  27.247  1.00  0.00     0.049 A 
ATOM     60  H   UNL A   1      44.009  29.286  28.096  1.00  0.00     0.167 HD
ATOM     61  C   UNL A   1      44.924  26.903  26.867  1.00  0.00     0.074 A 
ATOM     62  C   UNL A   1      44.941  25.559  26.330  1.00  0.00     0.031 C 
ATOM     63  C   UNL A   1      45.935  27.794  26.723  1.00  0.00     0.037 A 
BRANCH  50  64
ATOM     64  C   UNL A   1      44.766  33.352  29.124  1.00  0.00     0.057 A 
ATOM     65  C   UNL A   1      44.498  34.372  28.202  1.00  0.00     0.134 A 
ATOM     66  C   UNL A   1      45.450  33.703  30.295  1.00  0.00     0.134 A 
ATOM     67  F   UNL A   1      43.856  34.101  27.056  1.00  0.00    -0.206 F 
ATOM     68  C   UNL A   1      44.908  35.687  28.431  1.00  0.00     0.040 A 
ATOM     69  C   UNL A   1      45.846  35.016  30.545  1.00  0.00     0.040 A 
ATOM     70  F   UNL A   1      45.734  32.774  31.220  1.00  0.00    -0.206 F 
ATOM     71  C   UNL A   1      45.577  36.013  29.609  1.00  0.00     0.006 A 
ENDBRANCH  50  64
BRANCH  51  72
ATOM     72  C   UNL A   1      41.163  24.175  27.591  1.00  0.00     0.057 A 
ATOM     73  C   UNL A   1      40.151  23.995  26.641  1.00  0.00     0.134 A 
ATOM     74  C   UNL A   1      41.618  23.038  28.272  1.00  0.00     0.134 A 
ATOM     75  F   UNL A   1      39.657  25.049  25.975  1.00  0.00    -0.206 F 
ATOM     76  C   UNL A   1      39.600  22.737  26.391  1.00  0.00     0.040 A 
ATOM     77  C   UNL A   1      41.093  21.771  28.014  1.00  0.00     0.040 A 
ATOM     78  F   UNL A   1      42.585  23.144  29.195  1.00  0.00    -0.206 F 
ATOM     79  C   UNL A   1      40.076  21.620  27.075  1.00  0.00     0.006 A 
ENDBRANCH  51  72
BRANCH  63  80
ATOM     80  C   UNL A   1      47.155  27.340  25.976  1.00  0.00     0.057 A 
ATOM     81  C   UNL A   1      48.197  26.657  26.614  1.00  0.00     0.134 A 
ATOM     82  C   UNL A   1      47.261  27.538  24.593  1.00  0.00     0.134 A 
ATOM     83  F   UNL A   1      48.161  26.447  27.940  1.00  0.00    -0.206 F 
ATOM     84  C   UNL A   1      49.308  26.196  25.905  1.00  0.00     0.040 A 
ATOM     85  C   UNL A   1      48.354  27.062  23.870  1.00  0.00     0.040 A 
ATOM     86  F   UNL A   1      46.292  28.178  23.921  1.00  0.00    -0.206 F 
ATOM     87  C   UNL A   1      49.384  26.391  24.527  1.00  0.00     0.006 A 
ENDBRANCH  63  80
ENDBRANCH  37  38
ENDBRANCH  30  32
ENDBRANCH  29  30
ENDBRANCH  28  29
ENDBRANCH  27  28
ENDBRANCH  26  27
ENDBRANCH   1  26
TORSDOF 17
ENDMDL
MODEL 2
REMARK VINA RESULT:     -11.6      4.747      9.921
REMARK SMILES C[C@H](NC(=O)N1CCN(/C=C/c2ccccc2)CC1)C(=O)OCCOCCOC(=O)c1ccc(-c2c3nc(c(-c4c(F)cccc4F)c4ccc([nH]4)c(-c4c(F)cccc4F)c4nc(c(-c5c(F)cccc5F)c5ccc2[nH]5)C=C4)C=C3)cc1
REMARK SMILES IDX 24 1 23 2 22 3 20 4 21 5 2 6 1 7 3 8 4 9 5 11 6 12 7 13
REMARK SMILES IDX 19 14 8 15 18 16 9 17 10 18 11 19 12 20 13 21 17 22 14 23
REMARK SMILES IDX 16 24 15 25 25 26 26 27 27 28 28 29 29 30 30 31 31 32 32 33
REMARK SMILES IDX 84 34 33 35 83 36 34 37 35 38 36 39 77 40 37 41 82 42 76 43
REMARK SMILES IDX 78 44 38 45 81 46 75 47 74 48 39 50 65 51 48 52 64 53 49 54
REMARK SMILES IDX 52 55 63 56 79 57 50 58 51 59 62 61 80 62 53 63 40 64 41 65
REMARK SMILES IDX 46 66 42 67 43 68 45 69 47 70 44 71 66 72 67 73 72 74 68 75
REMARK SMILES IDX 69 76 71 77 73 78 70 79 54 80 55 81 60 82 56 83 57 84 59 85
REMARK SMILES IDX 61 86 58 87
REMARK H PARENT 3 10 78 49 52 60
REMARK Flexibility Score: inf
ROOT
ATOM      1  C   UNL A   1      39.254  20.644  25.540  1.00  0.00     0.202 C 
ENDROOT
BRANCH   1   2
ATOM      2  C   UNL A   1      37.844  21.225  25.655  1.00  0.00     0.261 C 
BRANCH   2   3
ATOM      3  O   UNL A   1      37.543  22.185  24.639  1.00  0.00    -0.462 OA
BRANCH   3   4
ATOM      4  C   UNL A   1      37.038  23.366  25.102  1.00  0.00     0.328 C 
ATOM      5  O   UNL A   1      37.529  24.036  26.004  1.00  0.00    -0.250 OA
BRANCH   4   6
ATOM      6  C   UNL A   1      35.674  23.685  24.473  1.00  0.00     0.190 C 
ATOM      7  C   UNL A   1      35.095  24.761  25.377  1.00  0.00     0.043 C 
BRANCH   6   8
ATOM      8  N   UNL A   1      34.870  22.468  24.279  1.00  0.00    -0.325 N 
ATOM      9  C   UNL A   1      33.664  22.143  23.792  1.00  0.00     0.318 C 
ATOM     10  H   UNL A   1      35.351  21.670  24.597  1.00  0.00     0.166 HD
ATOM     11  O   UNL A   1      33.268  21.003  24.049  1.00  0.00    -0.249 OA
ATOM     12  N   UNL A   1      32.884  23.045  23.156  1.00  0.00    -0.321 N 
ATOM     13  C   UNL A   1      31.439  22.940  23.308  1.00  0.00     0.143 C 
ATOM     14  C   UNL A   1      33.273  23.985  22.115  1.00  0.00     0.143 C 
ATOM     15  C   UNL A   1      30.896  24.290  23.777  1.00  0.00     0.137 C 
ATOM     16  C   UNL A   1      32.609  25.371  22.259  1.00  0.00     0.137 C 
ATOM     17  N   UNL A   1      31.241  25.382  22.839  1.00  0.00    -0.374 N 
BRANCH  17  18
ATOM     18  C   UNL A   1      30.509  26.560  22.779  1.00  0.00     0.081 C 
ATOM     19  C   UNL A   1      30.381  27.551  23.673  1.00  0.00     0.025 C 
BRANCH  19  20
ATOM     20  C   UNL A   1      29.485  28.700  23.467  1.00  0.00    -0.024 A 
ATOM     21  C   UNL A   1      29.957  29.998  23.697  1.00  0.00     0.008 A 
ATOM     22  C   UNL A   1      28.136  28.522  23.127  1.00  0.00     0.008 A 
ATOM     23  C   UNL A   1      29.099  31.094  23.570  1.00  0.00     0.001 A 
ATOM     24  C   UNL A   1      27.282  29.616  22.995  1.00  0.00     0.001 A 
ATOM     25  C   UNL A   1      27.763  30.903  23.218  1.00  0.00     0.000 A 
ENDBRANCH  19  20
ENDBRANCH  17  18
ENDBRANCH   6   8
ENDBRANCH   4   6
ENDBRANCH   3   4
ENDBRANCH   2   3
ENDBRANCH   1   2
BRANCH   1  26
ATOM     26  O   UNL A   1      40.334  21.436  26.018  1.00  0.00    -0.374 OA
BRANCH  26  27
ATOM     27  C   UNL A   1      41.596  20.809  26.245  1.00  0.00     0.202 C 
BRANCH  27  28
ATOM     28  C   UNL A   1      42.852  21.516  25.722  1.00  0.00     0.261 C 
BRANCH  28  29
ATOM     29  O   UNL A   1      42.540  22.723  25.001  1.00  0.00    -0.460 OA
BRANCH  29  30
ATOM     30  C   UNL A   1      43.396  23.747  25.212  1.00  0.00     0.338 C 
ATOM     31  O   UNL A   1      44.493  23.919  24.690  1.00  0.00    -0.246 OA
BRANCH  30  32
ATOM     32  C   UNL A   1      42.768  24.782  26.047  1.00  0.00     0.060 A 
ATOM     33  C   UNL A   1      43.403  26.029  26.137  1.00  0.00     0.016 A 
ATOM     34  C   UNL A   1      41.649  24.495  26.830  1.00  0.00     0.016 A 
ATOM     35  C   UNL A   1      42.944  26.982  27.042  1.00  0.00     0.010 A 
ATOM     36  C   UNL A   1      41.199  25.447  27.749  1.00  0.00     0.010 A 
ATOM     37  C   UNL A   1      41.865  26.680  27.882  1.00  0.00    -0.014 A 
BRANCH  37  38
ATOM     38  C   UNL A   1      41.514  27.598  28.990  1.00  0.00     0.031 A 
ATOM     39  C   UNL A   1      42.273  27.504  30.285  1.00  0.00     0.074 A 
ATOM     40  C   UNL A   1      40.533  28.504  28.844  1.00  0.00     0.049 A 
ATOM     41  N   UNL A   1      42.079  28.146  31.408  1.00  0.00    -0.248 NA
ATOM     42  C   UNL A   1      43.401  26.559  30.318  1.00  0.00     0.031 C 
ATOM     43  C   UNL A   1      39.757  28.717  27.623  1.00  0.00     0.029 A 
ATOM     44  N   UNL A   1      40.009  29.403  29.739  1.00  0.00    -0.354 N 
ATOM     45  C   UNL A   1      43.047  27.673  32.285  1.00  0.00     0.074 A 
ATOM     46  C   UNL A   1      43.820  26.681  31.569  1.00  0.00     0.031 C 
ATOM     47  C   UNL A   1      38.835  29.667  27.856  1.00  0.00     0.029 A 
ATOM     48  C   UNL A   1      38.934  30.101  29.248  1.00  0.00     0.049 A 
ATOM     49  H   UNL A   1      40.369  29.534  30.646  1.00  0.00     0.167 HD
ATOM     50  C   UNL A   1      43.269  28.035  33.570  1.00  0.00     0.037 A 
ATOM     51  C   UNL A   1      38.102  30.962  29.865  1.00  0.00     0.037 A 
ATOM     52  C   UNL A   1      42.503  29.029  34.274  1.00  0.00     0.049 A 
ATOM     53  C   UNL A   1      38.324  31.292  31.317  1.00  0.00     0.074 A 
ATOM     54  C   UNL A   1      42.682  29.502  35.563  1.00  0.00     0.029 A 
ATOM     55  N   UNL A   1      41.404  29.693  33.753  1.00  0.00    -0.354 N 
ATOM     56  N   UNL A   1      39.266  30.870  32.126  1.00  0.00    -0.248 NA
ATOM     57  C   UNL A   1      37.364  32.212  31.944  1.00  0.00     0.031 C 
ATOM     58  C   UNL A   1      41.659  30.414  35.839  1.00  0.00     0.029 A 
ATOM     59  C   UNL A   1      40.872  30.544  34.705  1.00  0.00     0.049 A 
ATOM     60  H   UNL A   1      41.055  29.578  32.840  1.00  0.00     0.167 HD
ATOM     61  C   UNL A   1      39.025  31.487  33.347  1.00  0.00     0.074 A 
ATOM     62  C   UNL A   1      37.856  32.323  33.170  1.00  0.00     0.031 C 
ATOM     63  C   UNL A   1      39.710  31.372  34.511  1.00  0.00     0.037 A 
BRANCH  50  64
ATOM     64  C   UNL A   1      44.365  27.333  34.313  1.00  0.00     0.057 A 
ATOM     65  C   UNL A   1      44.174  26.080  34.908  1.00  0.00     0.134 A 
ATOM     66  C   UNL A   1      45.645  27.897  34.390  1.00  0.00     0.134 A 
ATOM     67  F   UNL A   1      42.969  25.490  34.879  1.00  0.00    -0.206 F 
ATOM     68  C   UNL A   1      45.213  25.420  35.565  1.00  0.00     0.040 A 
ATOM     69  C   UNL A   1      46.697  27.238  35.026  1.00  0.00     0.040 A 
ATOM     70  F   UNL A   1      45.895  29.094  33.838  1.00  0.00    -0.206 F 
ATOM     71  C   UNL A   1      46.482  25.996  35.620  1.00  0.00     0.006 A 
ENDBRANCH  50  64
BRANCH  51  72
ATOM     72  C   UNL A   1      36.954  31.543  29.126  1.00  0.00     0.057 A 
ATOM     73  C   UNL A   1      36.981  32.862  28.660  1.00  0.00     0.134 A 
ATOM     74  C   UNL A   1      35.790  30.799  28.891  1.00  0.00     0.134 A 
ATOM     75  F   UNL A   1      38.057  33.632  28.876  1.00  0.00    -0.206 F 
ATOM     76  C   UNL A   1      35.886  33.426  28.002  1.00  0.00     0.040 A 
ATOM     77  C   UNL A   1      34.698  31.343  28.213  1.00  0.00     0.040 A 
ATOM     78  F   UNL A   1      35.701  29.529  29.314  1.00  0.00    -0.206 F 
ATOM     79  C   UNL A   1      34.743  32.663  27.773  1.00  0.00     0.006 A 
ENDBRANCH  51  72
BRANCH  63  80
ATOM     80  C   UNL A   1      39.229  32.183  35.678  1.00  0.00     0.057 A 
ATOM     81  C   UNL A   1      39.655  33.501  35.884  1.00  0.00     0.134 A 
ATOM     82  C   UNL A   1      38.287  31.660  36.573  1.00  0.00     0.134 A 
ATOM     83  F   UNL A   1      40.566  34.056  35.069  1.00  0.00    -0.206 F 
ATOM     84  C   UNL A   1      39.169  34.266  36.945  1.00  0.00     0.040 A 
ATOM     85  C   UNL A   1      37.777  32.422  37.624  1.00  0.00     0.040 A 
ATOM     86  F   UNL A   1      37.833  30.406  36.427  1.00  0.00    -0.206 F 
ATOM     87  C   UNL A   1      38.221  33.729  37.814  1.00  0.00     0.006 A 
ENDBRANCH  63  80
ENDBRANCH  37  38
ENDBRANCH  30  32
ENDBRANCH  29  30
ENDBRANCH  28  29
ENDBRANCH  27  28
ENDBRANCH  26  27
ENDBRANCH   1  26
TORSDOF 17
ENDMDL
MODEL 3
REMARK VINA RESULT:     -11.4      3.882      8.285
REMARK SMILES C[C@H](NC(=O)N1CCN(/C=C/c2ccccc2)CC1)C(=O)OCCOCCOC(=O)c1ccc(-c2c3nc(c(-c4c(F)cccc4F)c4ccc([nH]4)c(-c4c(F)cccc4F)c4nc(c(-c5c(F)cccc5F)c5ccc2[nH]5)C=C4)C=C3)cc1
REMARK SMILES IDX 24 1 23 2 22 3 20 4 21 5 2 6 1 7 3 8 4 9 5 11 6 12 7 13
REMARK SMILES IDX 19 14 8 15 18 16 9 17 10 18 11 19 12 20 13 21 17 22 14 23
REMARK SMILES IDX 16 24 15 25 25 26 26 27 27 28 28 29 29 30 30 31 31 32 32 33
REMARK SMILES IDX 84 34 33 35 83 36 34 37 35 38 36 39 77 40 37 41 82 42 76 43
REMARK SMILES IDX 78 44 38 45 81 46 75 47 74 48 39 50 65 51 48 52 64 53 49 54
REMARK SMILES IDX 52 55 63 56 79 57 50 58 51 59 62 61 80 62 53 63 40 64 41 65
REMARK SMILES IDX 46 66 42 67 43 68 45 69 47 70 44 71 66 72 67 73 72 74 68 75
REMARK SMILES IDX 69 76 71 77 73 78 70 79 54 80 55 81 60 82 56 83 57 84 59 85
REMARK SMILES IDX 61 86 58 87
REMARK H PARENT 3 10 78 49 52 60
REMARK Flexibility Score: inf
ROOT
ATOM      1  C   UNL A   1      33.340  29.165  25.631  1.00  0.00     0.202 C 
ENDROOT
BRANCH   1   2
ATOM      2  C   UNL A   1      33.041  27.960  26.525  1.00  0.00     0.261 C 
BRANCH   2   3
ATOM      3  O   UNL A   1      33.653  26.751  26.068  1.00  0.00    -0.462 OA
BRANCH   3   4
ATOM      4  C   UNL A   1      32.952  25.614  26.354  1.00  0.00     0.328 C 
ATOM      5  O   UNL A   1      31.832  25.584  26.851  1.00  0.00    -0.250 OA
BRANCH   4   6
ATOM      6  C   UNL A   1      33.800  24.354  26.131  1.00  0.00     0.190 C 
ATOM      7  C   UNL A   1      35.005  24.856  25.353  1.00  0.00     0.043 C 
BRANCH   6   8
ATOM      8  N   UNL A   1      33.012  23.271  25.522  1.00  0.00    -0.325 N 
ATOM      9  C   UNL A   1      32.103  23.134  24.546  1.00  0.00     0.318 C 
ATOM     10  H   UNL A   1      33.205  22.406  25.950  1.00  0.00     0.166 HD
ATOM     11  O   UNL A   1      31.494  22.061  24.522  1.00  0.00    -0.249 OA
ATOM     12  N   UNL A   1      31.792  24.151  23.711  1.00  0.00    -0.321 N 
ATOM     13  C   UNL A   1      30.423  24.258  23.229  1.00  0.00     0.143 C 
ATOM     14  C   UNL A   1      32.707  25.041  23.010  1.00  0.00     0.143 C 
ATOM     15  C   UNL A   1      29.905  25.665  23.527  1.00  0.00     0.137 C 
ATOM     16  C   UNL A   1      32.226  26.507  22.966  1.00  0.00     0.137 C 
ATOM     17  N   UNL A   1      30.754  26.710  22.911  1.00  0.00    -0.374 N 
BRANCH  17  18
ATOM     18  C   UNL A   1      30.274  27.983  22.638  1.00  0.00     0.081 C 
ATOM     19  C   UNL A   1      29.351  28.719  23.273  1.00  0.00     0.025 C 
BRANCH  19  20
ATOM     20  C   UNL A   1      28.905  30.034  22.786  1.00  0.00    -0.024 A 
ATOM     21  C   UNL A   1      28.439  30.166  21.473  1.00  0.00     0.008 A 
ATOM     22  C   UNL A   1      29.016  31.183  23.582  1.00  0.00     0.008 A 
ATOM     23  C   UNL A   1      28.075  31.420  20.975  1.00  0.00     0.001 A 
ATOM     24  C   UNL A   1      28.646  32.434  23.087  1.00  0.00     0.001 A 
ATOM     25  C   UNL A   1      28.177  32.552  21.782  1.00  0.00     0.000 A 
ENDBRANCH  19  20
ENDBRANCH  17  18
ENDBRANCH   6   8
ENDBRANCH   4   6
ENDBRANCH   3   4
ENDBRANCH   2   3
ENDBRANCH   1   2
BRANCH   1  26
ATOM     26  O   UNL A   1      32.296  30.108  25.427  1.00  0.00    -0.374 OA
BRANCH  26  27
ATOM     27  C   UNL A   1      31.585  30.600  26.564  1.00  0.00     0.202 C 
BRANCH  27  28
ATOM     28  C   UNL A   1      31.437  32.118  26.715  1.00  0.00     0.261 C 
BRANCH  28  29
ATOM     29  O   UNL A   1      32.690  32.809  26.545  1.00  0.00    -0.460 OA
BRANCH  29  30
ATOM     30  C   UNL A   1      33.170  33.394  27.665  1.00  0.00     0.338 C 
ATOM     31  O   UNL A   1      32.604  34.220  28.375  1.00  0.00    -0.246 OA
BRANCH  30  32
ATOM     32  C   UNL A   1      34.444  32.778  28.063  1.00  0.00     0.060 A 
ATOM     33  C   UNL A   1      34.412  31.465  28.556  1.00  0.00     0.016 A 
ATOM     34  C   UNL A   1      35.629  33.514  28.076  1.00  0.00     0.016 A 
ATOM     35  C   UNL A   1      35.560  30.897  29.103  1.00  0.00     0.010 A 
ATOM     36  C   UNL A   1      36.776  32.948  28.639  1.00  0.00     0.010 A 
ATOM     37  C   UNL A   1      36.738  31.652  29.184  1.00  0.00    -0.014 A 
BRANCH  37  38
ATOM     38  C   UNL A   1      37.890  31.135  29.958  1.00  0.00     0.031 A 
ATOM     39  C   UNL A   1      38.815  30.139  29.315  1.00  0.00     0.074 A 
ATOM     40  C   UNL A   1      38.110  31.549  31.218  1.00  0.00     0.049 A 
ATOM     41  N   UNL A   1      39.830  29.496  29.832  1.00  0.00    -0.248 NA
ATOM     42  C   UNL A   1      38.562  29.827  27.900  1.00  0.00     0.031 C 
ATOM     43  C   UNL A   1      37.308  32.541  31.931  1.00  0.00     0.029 A 
ATOM     44  N   UNL A   1      39.065  31.170  32.126  1.00  0.00    -0.354 N 
ATOM     45  C   UNL A   1      40.326  28.692  28.814  1.00  0.00     0.074 A 
ATOM     46  C   UNL A   1      39.493  28.918  27.651  1.00  0.00     0.031 C 
ATOM     47  C   UNL A   1      37.788  32.672  33.179  1.00  0.00     0.029 A 
ATOM     48  C   UNL A   1      38.906  31.748  33.361  1.00  0.00     0.049 A 
ATOM     49  H   UNL A   1      39.794  30.543  31.914  1.00  0.00     0.167 HD
ATOM     50  C   UNL A   1      41.379  27.843  28.847  1.00  0.00     0.037 A 
ATOM     51  C   UNL A   1      39.564  31.526  34.515  1.00  0.00     0.037 A 
ATOM     52  C   UNL A   1      42.209  27.630  30.003  1.00  0.00     0.049 A 
ATOM     53  C   UNL A   1      40.684  30.521  34.547  1.00  0.00     0.074 A 
ATOM     54  C   UNL A   1      43.331  26.827  30.122  1.00  0.00     0.029 A 
ATOM     55  N   UNL A   1      41.999  28.211  31.243  1.00  0.00    -0.354 N 
ATOM     56  N   UNL A   1      41.171  29.796  33.568  1.00  0.00    -0.248 NA
ATOM     57  C   UNL A   1      41.342  30.299  35.842  1.00  0.00     0.031 C 
ATOM     58  C   UNL A   1      43.768  26.883  31.449  1.00  0.00     0.029 A 
ATOM     59  C   UNL A   1      42.947  27.757  32.144  1.00  0.00     0.049 A 
ATOM     60  H   UNL A   1      41.282  28.853  31.452  1.00  0.00     0.167 HD
ATOM     61  C   UNL A   1      42.203  29.049  34.124  1.00  0.00     0.074 A 
ATOM     62  C   UNL A   1      42.280  29.418  35.522  1.00  0.00     0.031 C 
ATOM     63  C   UNL A   1      43.012  28.138  33.531  1.00  0.00     0.037 A 
BRANCH  50  64
ATOM     64  C   UNL A   1      41.680  27.056  27.608  1.00  0.00     0.057 A 
ATOM     65  C   UNL A   1      42.469  27.574  26.573  1.00  0.00     0.134 A 
ATOM     66  C   UNL A   1      41.214  25.742  27.471  1.00  0.00     0.134 A 
ATOM     67  F   UNL A   1      42.937  28.829  26.637  1.00  0.00    -0.206 F 
ATOM     68  C   UNL A   1      42.772  26.817  25.440  1.00  0.00     0.040 A 
ATOM     69  C   UNL A   1      41.528  24.969  26.353  1.00  0.00     0.040 A 
ATOM     70  F   UNL A   1      40.457  25.186  28.428  1.00  0.00    -0.206 F 
ATOM     71  C   UNL A   1      42.307  25.507  25.331  1.00  0.00     0.006 A 
ENDBRANCH  50  64
BRANCH  51  72
ATOM     72  C   UNL A   1      39.154  32.238  35.752  1.00  0.00     0.057 A 
ATOM     73  C   UNL A   1      38.308  31.638  36.691  1.00  0.00     0.134 A 
ATOM     74  C   UNL A   1      39.579  33.548  36.010  1.00  0.00     0.134 A 
ATOM     75  F   UNL A   1      37.847  30.395  36.487  1.00  0.00    -0.206 F 
ATOM     76  C   UNL A   1      37.886  32.320  37.833  1.00  0.00     0.040 A 
ATOM     77  C   UNL A   1      39.185  34.233  37.160  1.00  0.00     0.040 A 
ATOM     78  F   UNL A   1      40.390  34.179  35.147  1.00  0.00    -0.206 F 
ATOM     79  C   UNL A   1      38.329  33.620  38.072  1.00  0.00     0.006 A 
ENDBRANCH  51  72
BRANCH  63  80
ATOM     80  C   UNL A   1      44.067  27.494  34.381  1.00  0.00     0.057 A 
ATOM     81  C   UNL A   1      45.319  28.088  34.578  1.00  0.00     0.134 A 
ATOM     82  C   UNL A   1      43.806  26.295  35.057  1.00  0.00     0.134 A 
ATOM     83  F   UNL A   1      45.635  29.231  33.948  1.00  0.00    -0.206 F 
ATOM     84  C   UNL A   1      46.280  27.507  35.407  1.00  0.00     0.040 A 
ATOM     85  C   UNL A   1      44.749  25.715  35.906  1.00  0.00     0.040 A 
ATOM     86  F   UNL A   1      42.623  25.678  34.917  1.00  0.00    -0.206 F 
ATOM     87  C   UNL A   1      45.992  26.321  36.081  1.00  0.00     0.006 A 
ENDBRANCH  63  80
ENDBRANCH  37  38
ENDBRANCH  30  32
ENDBRANCH  29  30
ENDBRANCH  28  29
ENDBRANCH  27  28
ENDBRANCH  26  27
ENDBRANCH   1  26
TORSDOF 17
ENDMDL
