MODEL 1
REMARK VINA RESULT:     -11.7      0.000      0.000
REMARK SMILES CC(C)(C)c1cc2c(cc1Cl)C=C(C(=O)OCCOCCOC(=O)c1ccc(-c3c4nc(c(-c5c(F)cccc5F)c5ccc([nH]5)c(-c5c(F)cccc5F)c5nc(c(-c6c(F)cccc6F)c6ccc3[nH]6)C=C5)C=C4)cc1)[C@@H](C(F)(F)F)O2
REMARK SMILES IDX 20 1 19 2 18 3 17 4 16 5 14 6 15 7 13 8 5 9 6 10 10 11 7 12
REMARK SMILES IDX 9 13 11 14 8 15 84 16 12 17 79 18 2 19 1 20 3 21 4 22 80 23
REMARK SMILES IDX 81 24 82 25 83 26 21 27 22 28 23 29 24 30 25 31 26 32 78 33
REMARK SMILES IDX 27 34 77 35 28 36 29 37 30 38 71 39 31 40 76 41 70 42 72 43
REMARK SMILES IDX 32 44 75 45 69 46 68 47 33 49 59 50 42 51 58 52 43 53 46 54
REMARK SMILES IDX 57 55 73 56 44 57 45 58 56 60 74 61 47 62 34 63 35 64 40 65
REMARK SMILES IDX 36 66 37 67 39 68 41 69 38 70 60 71 61 72 66 73 62 74 63 75
REMARK SMILES IDX 65 76 67 77 64 78 48 79 49 80 54 81 50 82 51 83 53 84 55 85
REMARK SMILES IDX 52 86
REMARK H PARENT 72 48 46 59
REMARK Flexibility Score: inf
ROOT
ATOM      1  C   UNL A   1      31.765  31.000  26.613  1.00  0.00     0.202 C 
ENDROOT
BRANCH   1   2
ATOM      2  O   UNL A   1      31.352  30.491  25.345  1.00  0.00    -0.374 OA
BRANCH   2   3
ATOM      3  C   UNL A   1      31.424  29.088  25.113  1.00  0.00     0.202 C 
BRANCH   3   4
ATOM      4  C   UNL A   1      32.797  28.472  24.825  1.00  0.00     0.261 C 
BRANCH   4   5
ATOM      5  O   UNL A   1      32.845  27.075  25.144  1.00  0.00    -0.460 OA
BRANCH   5   6
ATOM      6  C   UNL A   1      33.346  26.300  24.153  1.00  0.00     0.338 C 
ATOM      7  O   UNL A   1      33.997  26.672  23.190  1.00  0.00    -0.246 OA
BRANCH   6   8
ATOM      8  C   UNL A   1      33.109  24.878  24.459  1.00  0.00     0.087 C 
ATOM      9  C   UNL A   1      33.759  19.883  24.660  1.00  0.00    -0.020 A 
ATOM     10  C   UNL A   1      32.644  20.766  24.722  1.00  0.00     0.053 A 
ATOM     11  C   UNL A   1      35.027  20.482  24.806  1.00  0.00     0.045 A 
ATOM     12  C   UNL A   1      32.784  22.156  24.761  1.00  0.00     0.128 A 
ATOM     13  C   UNL A   1      35.162  21.880  24.852  1.00  0.00     0.032 A 
ATOM     14  Cl  UNL A   1      36.523  19.637  24.971  1.00  0.00    -0.084 Cl
ATOM     15  C   UNL A   1      34.050  22.714  24.778  1.00  0.00     0.019 A 
ATOM     16  O   UNL A   1      31.632  22.890  24.767  1.00  0.00    -0.475 OA
ATOM     17  C   UNL A   1      34.214  24.146  24.644  1.00  0.00     0.027 C 
ATOM     18  C   UNL A   1      31.713  24.323  24.508  1.00  0.00     0.316 C 
BRANCH   9  19
ATOM     19  C   UNL A   1      33.458  18.382  24.420  1.00  0.00    -0.012 C 
ATOM     20  C   UNL A   1      32.710  17.824  25.647  1.00  0.00     0.016 C 
ATOM     21  C   UNL A   1      34.667  17.459  24.153  1.00  0.00     0.016 C 
ATOM     22  C   UNL A   1      32.559  18.216  23.161  1.00  0.00     0.016 C 
ENDBRANCH   9  19
BRANCH  18  23
ATOM     23  C   UNL A   1      30.910  24.631  23.236  1.00  0.00     0.430 C 
ATOM     24  F   UNL A   1      31.711  24.653  22.144  1.00  0.00    -0.167 F 
ATOM     25  F   UNL A   1      29.963  23.691  23.001  1.00  0.00    -0.167 F 
ATOM     26  F   UNL A   1      30.285  25.828  23.307  1.00  0.00    -0.167 F 
ENDBRANCH  18  23
ENDBRANCH   6   8
ENDBRANCH   5   6
ENDBRANCH   4   5
ENDBRANCH   3   4
ENDBRANCH   2   3
ENDBRANCH   1   2
BRANCH   1  27
ATOM     27  C   UNL A   1      31.611  32.501  26.894  1.00  0.00     0.261 C 
BRANCH  27  28
ATOM     28  O   UNL A   1      32.846  33.225  26.768  1.00  0.00    -0.460 OA
BRANCH  28  29
ATOM     29  C   UNL A   1      33.305  33.765  27.924  1.00  0.00     0.338 C 
ATOM     30  O   UNL A   1      32.740  34.578  28.641  1.00  0.00    -0.246 OA
BRANCH  29  31
ATOM     31  C   UNL A   1      34.541  33.072  28.331  1.00  0.00     0.060 A 
ATOM     32  C   UNL A   1      35.778  33.717  28.295  1.00  0.00     0.016 A 
ATOM     33  C   UNL A   1      34.434  31.759  28.809  1.00  0.00     0.016 A 
ATOM     34  C   UNL A   1      36.905  33.052  28.781  1.00  0.00     0.010 A 
ATOM     35  C   UNL A   1      35.562  31.096  29.292  1.00  0.00     0.010 A 
ATOM     36  C   UNL A   1      36.801  31.750  29.307  1.00  0.00    -0.014 A 
BRANCH  36  37
ATOM     37  C   UNL A   1      37.954  31.141  30.015  1.00  0.00     0.031 A 
ATOM     38  C   UNL A   1      38.266  31.463  31.444  1.00  0.00     0.074 A 
ATOM     39  C   UNL A   1      38.744  30.294  29.327  1.00  0.00     0.049 A 
ATOM     40  N   UNL A   1      39.187  30.949  32.220  1.00  0.00    -0.248 NA
ATOM     41  C   UNL A   1      37.450  32.504  32.084  1.00  0.00     0.031 C 
ATOM     42  C   UNL A   1      38.575  29.951  27.914  1.00  0.00     0.029 A 
ATOM     43  N   UNL A   1      39.836  29.566  29.719  1.00  0.00    -0.354 N 
ATOM     44  C   UNL A   1      39.049  31.583  33.449  1.00  0.00     0.074 A 
ATOM     45  C   UNL A   1      37.991  32.562  33.294  1.00  0.00     0.031 C 
ATOM     46  C   UNL A   1      39.508  29.051  27.567  1.00  0.00     0.029 A 
ATOM     47  C   UNL A   1      40.356  28.778  28.723  1.00  0.00     0.049 A 
ATOM     48  H   UNL A   1      40.213  29.605  30.628  1.00  0.00     0.167 HD
ATOM     49  C   UNL A   1      39.728  31.354  34.599  1.00  0.00     0.037 A 
ATOM     50  C   UNL A   1      41.398  27.927  28.739  1.00  0.00     0.037 A 
ATOM     51  C   UNL A   1      40.804  30.402  34.736  1.00  0.00     0.049 A 
ATOM     52  C   UNL A   1      42.163  27.732  30.018  1.00  0.00     0.074 A 
ATOM     53  C   UNL A   1      41.527  30.071  35.869  1.00  0.00     0.029 A 
ATOM     54  N   UNL A   1      41.329  29.644  33.698  1.00  0.00    -0.354 N 
ATOM     55  N   UNL A   1      41.956  28.261  31.198  1.00  0.00    -0.248 NA
ATOM     56  C   UNL A   1      43.304  26.809  29.963  1.00  0.00     0.031 C 
ATOM     57  C   UNL A   1      42.525  29.158  35.506  1.00  0.00     0.029 A 
ATOM     58  C   UNL A   1      42.387  28.873  34.158  1.00  0.00     0.049 A 
ATOM     59  H   UNL A   1      40.999  29.653  32.771  1.00  0.00     0.167 HD
ATOM     60  C   UNL A   1      42.925  27.719  32.033  1.00  0.00     0.074 A 
ATOM     61  C   UNL A   1      43.697  26.795  31.228  1.00  0.00     0.031 C 
ATOM     62  C   UNL A   1      43.159  27.967  33.345  1.00  0.00     0.037 A 
BRANCH  49  63
ATOM     63  C   UNL A   1      39.328  32.152  35.808  1.00  0.00     0.057 A 
ATOM     64  C   UNL A   1      38.356  31.676  36.697  1.00  0.00     0.134 A 
ATOM     65  C   UNL A   1      39.875  33.416  36.070  1.00  0.00     0.134 A 
ATOM     66  F   UNL A   1      37.780  30.479  36.502  1.00  0.00    -0.206 F 
ATOM     67  C   UNL A   1      37.944  32.425  37.801  1.00  0.00     0.040 A 
ATOM     68  C   UNL A   1      39.492  34.163  37.186  1.00  0.00     0.040 A 
ATOM     69  F   UNL A   1      40.814  33.931  35.262  1.00  0.00    -0.206 F 
ATOM     70  C   UNL A   1      38.519  33.670  38.053  1.00  0.00     0.006 A 
ENDBRANCH  49  63
BRANCH  50  71
ATOM     71  C   UNL A   1      41.775  27.179  27.513  1.00  0.00     0.057 A 
ATOM     72  C   UNL A   1      42.621  27.739  26.548  1.00  0.00     0.134 A 
ATOM     73  C   UNL A   1      41.332  25.869  27.300  1.00  0.00     0.134 A 
ATOM     74  F   UNL A   1      43.073  28.994  26.689  1.00  0.00    -0.206 F 
ATOM     75  C   UNL A   1      43.017  27.021  25.420  1.00  0.00     0.040 A 
ATOM     76  C   UNL A   1      41.746  25.128  26.192  1.00  0.00     0.040 A 
ATOM     77  F   UNL A   1      40.533  25.272  28.197  1.00  0.00    -0.206 F 
ATOM     78  C   UNL A   1      42.590  25.706  25.246  1.00  0.00     0.006 A 
ENDBRANCH  50  71
BRANCH  62  79
ATOM     79  C   UNL A   1      44.286  27.204  33.986  1.00  0.00     0.057 A 
ATOM     80  C   UNL A   1      45.579  27.744  34.033  1.00  0.00     0.134 A 
ATOM     81  C   UNL A   1      44.093  25.946  34.572  1.00  0.00     0.134 A 
ATOM     82  F   UNL A   1      45.840  28.939  33.482  1.00  0.00    -0.206 F 
ATOM     83  C   UNL A   1      46.631  27.066  34.650  1.00  0.00     0.040 A 
ATOM     84  C   UNL A   1      45.130  25.275  35.223  1.00  0.00     0.040 A 
ATOM     85  F   UNL A   1      42.877  25.378  34.578  1.00  0.00    -0.206 F 
ATOM     86  C   UNL A   1      46.406  25.834  35.260  1.00  0.00     0.006 A 
ENDBRANCH  62  79
ENDBRANCH  36  37
ENDBRANCH  29  31
ENDBRANCH  28  29
ENDBRANCH  27  28
ENDBRANCH   1  27
TORSDOF 16
ENDMDL
MODEL 2
REMARK VINA RESULT:     -11.7      5.207      8.623
REMARK SMILES CC(C)(C)c1cc2c(cc1Cl)C=C(C(=O)OCCOCCOC(=O)c1ccc(-c3c4nc(c(-c5c(F)cccc5F)c5ccc([nH]5)c(-c5c(F)cccc5F)c5nc(c(-c6c(F)cccc6F)c6ccc3[nH]6)C=C5)C=C4)cc1)[C@@H](C(F)(F)F)O2
REMARK SMILES IDX 20 1 19 2 18 3 17 4 16 5 14 6 15 7 13 8 5 9 6 10 10 11 7 12
REMARK SMILES IDX 9 13 11 14 8 15 84 16 12 17 79 18 2 19 1 20 3 21 4 22 80 23
REMARK SMILES IDX 81 24 82 25 83 26 21 27 22 28 23 29 24 30 25 31 26 32 78 33
REMARK SMILES IDX 27 34 77 35 28 36 29 37 30 38 71 39 31 40 76 41 70 42 72 43
REMARK SMILES IDX 32 44 75 45 69 46 68 47 33 49 59 50 42 51 58 52 43 53 46 54
REMARK SMILES IDX 57 55 73 56 44 57 45 58 56 60 74 61 47 62 34 63 35 64 40 65
REMARK SMILES IDX 36 66 37 67 39 68 41 69 38 70 60 71 61 72 66 73 62 74 63 75
REMARK SMILES IDX 65 76 67 77 64 78 48 79 49 80 54 81 50 82 51 83 53 84 55 85
REMARK SMILES IDX 52 86
REMARK H PARENT 72 48 46 59
REMARK Flexibility Score: inf
ROOT
ATOM      1  C   UNL A   1      33.742  35.463  28.552  1.00  0.00     0.202 C 
ENDROOT
BRANCH   1   2
ATOM      2  O   UNL A   1      32.835  36.372  29.174  1.00  0.00    -0.374 OA
BRANCH   2   3
ATOM      3  C   UNL A   1      33.018  36.690  30.550  1.00  0.00     0.202 C 
BRANCH   3   4
ATOM      4  C   UNL A   1      32.777  35.587  31.586  1.00  0.00     0.261 C 
BRANCH   4   5
ATOM      5  O   UNL A   1      33.930  35.346  32.404  1.00  0.00    -0.460 OA
BRANCH   5   6
ATOM      6  C   UNL A   1      34.681  34.294  31.999  1.00  0.00     0.338 C 
ATOM      7  O   UNL A   1      34.297  33.312  31.386  1.00  0.00    -0.246 OA
BRANCH   6   8
ATOM      8  C   UNL A   1      36.103  34.552  32.291  1.00  0.00     0.087 C 
ATOM      9  C   UNL A   1      41.131  34.361  31.989  1.00  0.00    -0.020 A 
ATOM     10  C   UNL A   1      40.185  34.647  33.013  1.00  0.00     0.053 A 
ATOM     11  C   UNL A   1      40.626  34.340  30.673  1.00  0.00     0.045 A 
ATOM     12  C   UNL A   1      38.813  34.744  32.767  1.00  0.00     0.128 A 
ATOM     13  C   UNL A   1      39.246  34.445  30.429  1.00  0.00     0.032 A 
ATOM     14  Cl  UNL A   1      41.575  34.220  29.235  1.00  0.00    -0.084 Cl
ATOM     15  C   UNL A   1      38.340  34.594  31.475  1.00  0.00     0.019 A 
ATOM     16  O   UNL A   1      38.009  34.973  33.847  1.00  0.00    -0.475 OA
ATOM     17  C   UNL A   1      36.915  34.519  31.228  1.00  0.00     0.027 C 
ATOM     18  C   UNL A   1      36.570  34.787  33.700  1.00  0.00     0.316 C 
BRANCH   9  19
ATOM     19  C   UNL A   1      42.591  34.085  32.433  1.00  0.00    -0.012 C 
ATOM     20  C   UNL A   1      42.778  34.603  33.873  1.00  0.00     0.016 C 
ATOM     21  C   UNL A   1      43.714  34.698  31.568  1.00  0.00     0.016 C 
ATOM     22  C   UNL A   1      42.873  32.555  32.405  1.00  0.00     0.016 C 
ENDBRANCH   9  19
BRANCH  18  23
ATOM     23  C   UNL A   1      36.125  33.676  34.663  1.00  0.00     0.430 C 
ATOM     24  F   UNL A   1      36.778  33.764  35.847  1.00  0.00    -0.167 F 
ATOM     25  F   UNL A   1      34.803  33.755  34.944  1.00  0.00    -0.167 F 
ATOM     26  F   UNL A   1      36.361  32.443  34.160  1.00  0.00    -0.167 F 
ENDBRANCH  18  23
ENDBRANCH   6   8
ENDBRANCH   5   6
ENDBRANCH   4   5
ENDBRANCH   3   4
ENDBRANCH   2   3
ENDBRANCH   1   2
BRANCH   1  27
ATOM     27  C   UNL A   1      33.263  34.040  28.237  1.00  0.00     0.261 C 
BRANCH  27  28
ATOM     28  O   UNL A   1      34.233  33.272  27.503  1.00  0.00    -0.460 OA
BRANCH  28  29
ATOM     29  C   UNL A   1      34.111  31.928  27.642  1.00  0.00     0.338 C 
ATOM     30  O   UNL A   1      33.160  31.231  27.320  1.00  0.00    -0.246 OA
BRANCH  29  31
ATOM     31  C   UNL A   1      35.403  31.361  28.067  1.00  0.00     0.060 A 
ATOM     32  C   UNL A   1      36.538  32.162  28.198  1.00  0.00     0.016 A 
ATOM     33  C   UNL A   1      35.450  29.998  28.392  1.00  0.00     0.016 A 
ATOM     34  C   UNL A   1      37.714  31.597  28.696  1.00  0.00     0.010 A 
ATOM     35  C   UNL A   1      36.626  29.437  28.887  1.00  0.00     0.010 A 
ATOM     36  C   UNL A   1      37.759  30.240  29.070  1.00  0.00    -0.014 A 
BRANCH  36  37
ATOM     37  C   UNL A   1      38.938  29.709  29.797  1.00  0.00     0.031 A 
ATOM     38  C   UNL A   1      39.248  30.112  31.206  1.00  0.00     0.074 A 
ATOM     39  C   UNL A   1      39.754  28.859  29.143  1.00  0.00     0.049 A 
ATOM     40  N   UNL A   1      40.193  29.670  31.998  1.00  0.00    -0.248 NA
ATOM     41  C   UNL A   1      38.399  31.153  31.801  1.00  0.00     0.031 C 
ATOM     42  C   UNL A   1      39.588  28.441  27.750  1.00  0.00     0.029 A 
ATOM     43  N   UNL A   1      40.875  28.191  29.561  1.00  0.00    -0.354 N 
ATOM     44  C   UNL A   1      40.040  30.358  33.195  1.00  0.00     0.074 A 
ATOM     45  C   UNL A   1      38.946  31.289  33.002  1.00  0.00     0.031 C 
ATOM     46  C   UNL A   1      40.550  27.560  27.439  1.00  0.00     0.029 A 
ATOM     47  C   UNL A   1      41.416  27.375  28.599  1.00  0.00     0.049 A 
ATOM     48  H   UNL A   1      41.256  28.288  30.463  1.00  0.00     0.167 HD
ATOM     49  C   UNL A   1      40.736  30.210  34.349  1.00  0.00     0.037 A 
ATOM     50  C   UNL A   1      42.489  26.564  28.647  1.00  0.00     0.037 A 
ATOM     51  C   UNL A   1      41.847  29.306  34.522  1.00  0.00     0.049 A 
ATOM     52  C   UNL A   1      43.269  26.459  29.928  1.00  0.00     0.074 A 
ATOM     53  C   UNL A   1      42.589  29.056  35.664  1.00  0.00     0.029 A 
ATOM     54  N   UNL A   1      42.392  28.518  33.518  1.00  0.00    -0.354 N 
ATOM     55  N   UNL A   1      43.051  27.038  31.083  1.00  0.00    -0.248 NA
ATOM     56  C   UNL A   1      44.443  25.576  29.908  1.00  0.00     0.031 C 
ATOM     57  C   UNL A   1      43.617  28.164  35.337  1.00  0.00     0.029 A 
ATOM     58  C   UNL A   1      43.480  27.808  34.005  1.00  0.00     0.049 A 
ATOM     59  H   UNL A   1      42.055  28.469  32.594  1.00  0.00     0.167 HD
ATOM     60  C   UNL A   1      44.046  26.573  31.934  1.00  0.00     0.074 A 
ATOM     61  C   UNL A   1      44.845  25.639  31.168  1.00  0.00     0.031 C 
ATOM     62  C   UNL A   1      44.279  26.892  33.231  1.00  0.00     0.037 A 
BRANCH  49  63
ATOM     63  C   UNL A   1      40.315  31.052  35.521  1.00  0.00     0.057 A 
ATOM     64  C   UNL A   1      39.047  30.903  36.097  1.00  0.00     0.134 A 
ATOM     65  C   UNL A   1      41.151  32.042  36.054  1.00  0.00     0.134 A 
ATOM     66  F   UNL A   1      38.189  29.982  35.630  1.00  0.00    -0.206 F 
ATOM     67  C   UNL A   1      38.627  31.705  37.160  1.00  0.00     0.040 A 
ATOM     68  C   UNL A   1      40.753  32.833  37.135  1.00  0.00     0.040 A 
ATOM     69  F   UNL A   1      42.381  32.236  35.553  1.00  0.00    -0.206 F 
ATOM     70  C   UNL A   1      39.485  32.669  37.687  1.00  0.00     0.006 A 
ENDBRANCH  49  63
BRANCH  50  71
ATOM     71  C   UNL A   1      42.885  25.771  27.456  1.00  0.00     0.057 A 
ATOM     72  C   UNL A   1      42.406  24.472  27.252  1.00  0.00     0.134 A 
ATOM     73  C   UNL A   1      43.718  26.314  26.471  1.00  0.00     0.134 A 
ATOM     74  F   UNL A   1      41.611  23.891  28.163  1.00  0.00    -0.206 F 
ATOM     75  C   UNL A   1      42.737  23.743  26.110  1.00  0.00     0.040 A 
ATOM     76  C   UNL A   1      44.032  25.609  25.309  1.00  0.00     0.040 A 
ATOM     77  F   UNL A   1      44.195  27.561  26.603  1.00  0.00    -0.206 F 
ATOM     78  C   UNL A   1      43.542  24.317  25.127  1.00  0.00     0.006 A 
ENDBRANCH  50  71
BRANCH  62  79
ATOM     79  C   UNL A   1      45.438  26.203  33.898  1.00  0.00     0.057 A 
ATOM     80  C   UNL A   1      45.258  24.982  34.561  1.00  0.00     0.134 A 
ATOM     81  C   UNL A   1      46.735  26.735  33.869  1.00  0.00     0.134 A 
ATOM     82  F   UNL A   1      44.043  24.419  34.638  1.00  0.00    -0.206 F 
ATOM     83  C   UNL A   1      46.327  24.311  35.159  1.00  0.00     0.040 A 
ATOM     84  C   UNL A   1      47.816  26.055  34.432  1.00  0.00     0.040 A 
ATOM     85  F   UNL A   1      46.982  27.893  33.236  1.00  0.00    -0.206 F 
ATOM     86  C   UNL A   1      47.613  24.840  35.084  1.00  0.00     0.006 A 
ENDBRANCH  62  79
ENDBRANCH  36  37
ENDBRANCH  29  31
ENDBRANCH  28  29
ENDBRANCH  27  28
ENDBRANCH   1  27
TORSDOF 16
ENDMDL
MODEL 3
REMARK VINA RESULT:     -11.6      3.192      8.192
REMARK SMILES CC(C)(C)c1cc2c(cc1Cl)C=C(C(=O)OCCOCCOC(=O)c1ccc(-c3c4nc(c(-c5c(F)cccc5F)c5ccc([nH]5)c(-c5c(F)cccc5F)c5nc(c(-c6c(F)cccc6F)c6ccc3[nH]6)C=C5)C=C4)cc1)[C@@H](C(F)(F)F)O2
REMARK SMILES IDX 20 1 19 2 18 3 17 4 16 5 14 6 15 7 13 8 5 9 6 10 10 11 7 12
REMARK SMILES IDX 9 13 11 14 8 15 84 16 12 17 79 18 2 19 1 20 3 21 4 22 80 23
REMARK SMILES IDX 81 24 82 25 83 26 21 27 22 28 23 29 24 30 25 31 26 32 78 33
REMARK SMILES IDX 27 34 77 35 28 36 29 37 30 38 71 39 31 40 76 41 70 42 72 43
REMARK SMILES IDX 32 44 75 45 69 46 68 47 33 49 59 50 42 51 58 52 43 53 46 54
REMARK SMILES IDX 57 55 73 56 44 57 45 58 56 60 74 61 47 62 34 63 35 64 40 65
REMARK SMILES IDX 36 66 37 67 39 68 41 69 38 70 60 71 61 72 66 73 62 74 63 75
REMARK SMILES IDX 65 76 67 77 64 78 48 79 49 80 54 81 50 82 51 83 53 84 55 85
REMARK SMILES IDX 52 86
REMARK H PARENT 72 48 46 59
REMARK Flexibility Score: inf
ROOT
ATOM      1  C   UNL A   1      40.398  21.162  26.385  1.00  0.00     0.202 C 
ENDROOT
BRANCH   1   2
ATOM      2  O   UNL A   1      39.038  21.453  26.064  1.00  0.00    -0.374 OA
BRANCH   2   3
ATOM      3  C   UNL A   1      38.326  20.555  25.219  1.00  0.00     0.202 C 
BRANCH   3   4
ATOM      4  C   UNL A   1      37.079  21.076  24.498  1.00  0.00     0.261 C 
BRANCH   4   5
ATOM      5  O   UNL A   1      36.075  21.540  25.412  1.00  0.00    -0.460 OA
BRANCH   5   6
ATOM      6  C   UNL A   1      34.807  21.371  24.969  1.00  0.00     0.338 C 
ATOM      7  O   UNL A   1      34.317  20.347  24.523  1.00  0.00    -0.246 OA
BRANCH   6   8
ATOM      8  C   UNL A   1      34.021  22.592  25.223  1.00  0.00     0.087 C 
ATOM      9  C   UNL A   1      32.803  27.468  25.617  1.00  0.00    -0.020 A 
ATOM     10  C   UNL A   1      32.348  26.256  26.208  1.00  0.00     0.053 A 
ATOM     11  C   UNL A   1      33.627  27.327  24.482  1.00  0.00     0.045 A 
ATOM     12  C   UNL A   1      32.807  25.000  25.803  1.00  0.00     0.128 A 
ATOM     13  C   UNL A   1      34.082  26.061  24.075  1.00  0.00     0.032 A 
ATOM     14  Cl  UNL A   1      34.153  28.613  23.457  1.00  0.00    -0.084 Cl
ATOM     15  C   UNL A   1      33.714  24.909  24.763  1.00  0.00     0.019 A 
ATOM     16  O   UNL A   1      32.327  23.919  26.487  1.00  0.00    -0.475 OA
ATOM     17  C   UNL A   1      34.331  23.637  24.446  1.00  0.00     0.027 C 
ATOM     18  C   UNL A   1      32.987  22.631  26.313  1.00  0.00     0.316 C 
BRANCH   9  19
ATOM     19  C   UNL A   1      32.364  28.792  26.293  1.00  0.00    -0.012 C 
ATOM     20  C   UNL A   1      31.467  29.575  25.314  1.00  0.00     0.016 C 
ATOM     21  C   UNL A   1      33.485  29.745  26.762  1.00  0.00     0.016 C 
ATOM     22  C   UNL A   1      31.553  28.483  27.585  1.00  0.00     0.016 C 
ENDBRANCH   9  19
BRANCH  18  23
ATOM     23  C   UNL A   1      33.545  22.186  27.672  1.00  0.00     0.430 C 
ATOM     24  F   UNL A   1      32.633  22.363  28.659  1.00  0.00    -0.167 F 
ATOM     25  F   UNL A   1      33.867  20.870  27.677  1.00  0.00    -0.167 F 
ATOM     26  F   UNL A   1      34.656  22.876  28.016  1.00  0.00    -0.167 F 
ENDBRANCH  18  23
ENDBRANCH   6   8
ENDBRANCH   5   6
ENDBRANCH   4   5
ENDBRANCH   3   4
ENDBRANCH   2   3
ENDBRANCH   1   2
BRANCH   1  27
ATOM     27  C   UNL A   1      41.386  22.326  26.542  1.00  0.00     0.261 C 
BRANCH  27  28
ATOM     28  O   UNL A   1      40.737  23.604  26.639  1.00  0.00    -0.460 OA
BRANCH  28  29
ATOM     29  C   UNL A   1      41.550  24.669  26.428  1.00  0.00     0.338 C 
ATOM     30  O   UNL A   1      42.384  24.804  25.545  1.00  0.00    -0.246 OA
BRANCH  29  31
ATOM     31  C   UNL A   1      41.151  25.775  27.318  1.00  0.00     0.060 A 
ATOM     32  C   UNL A   1      40.124  25.619  28.249  1.00  0.00     0.016 A 
ATOM     33  C   UNL A   1      41.870  26.975  27.241  1.00  0.00     0.016 A 
ATOM     34  C   UNL A   1      39.846  26.663  29.134  1.00  0.00     0.010 A 
ATOM     35  C   UNL A   1      41.590  28.016  28.125  1.00  0.00     0.010 A 
ATOM     36  C   UNL A   1      40.594  27.856  29.097  1.00  0.00    -0.014 A 
BRANCH  36  37
ATOM     37  C   UNL A   1      40.439  28.863  30.176  1.00  0.00     0.031 A 
ATOM     38  C   UNL A   1      39.402  29.942  30.109  1.00  0.00     0.074 A 
ATOM     39  C   UNL A   1      41.282  28.802  31.225  1.00  0.00     0.049 A 
ATOM     40  N   UNL A   1      39.093  30.841  31.010  1.00  0.00    -0.248 NA
ATOM     41  C   UNL A   1      38.619  30.035  28.869  1.00  0.00     0.031 C 
ATOM     42  C   UNL A   1      42.371  27.833  31.371  1.00  0.00     0.029 A 
ATOM     43  N   UNL A   1      41.353  29.558  32.364  1.00  0.00    -0.354 N 
ATOM     44  C   UNL A   1      38.062  31.593  30.460  1.00  0.00     0.074 A 
ATOM     45  C   UNL A   1      37.840  31.079  29.123  1.00  0.00     0.031 C 
ATOM     46  C   UNL A   1      42.978  28.032  32.550  1.00  0.00     0.029 A 
ATOM     47  C   UNL A   1      42.342  29.157  33.228  1.00  0.00     0.049 A 
ATOM     48  H   UNL A   1      40.753  30.317  32.547  1.00  0.00     0.167 HD
ATOM     49  C   UNL A   1      37.357  32.602  31.027  1.00  0.00     0.037 A 
ATOM     50  C   UNL A   1      42.696  29.639  34.433  1.00  0.00     0.037 A 
ATOM     51  C   UNL A   1      37.607  33.131  32.346  1.00  0.00     0.049 A 
ATOM     52  C   UNL A   1      41.925  30.792  35.014  1.00  0.00     0.074 A 
ATOM     53  C   UNL A   1      36.922  34.126  33.023  1.00  0.00     0.029 A 
ATOM     54  N   UNL A   1      38.639  32.725  33.181  1.00  0.00    -0.354 N 
ATOM     55  N   UNL A   1      40.887  31.426  34.527  1.00  0.00    -0.248 NA
ATOM     56  C   UNL A   1      42.376  31.288  36.321  1.00  0.00     0.031 C 
ATOM     57  C   UNL A   1      37.572  34.361  34.240  1.00  0.00     0.029 A 
ATOM     58  C   UNL A   1      38.628  33.472  34.351  1.00  0.00     0.049 A 
ATOM     59  H   UNL A   1      39.284  32.011  32.974  1.00  0.00     0.167 HD
ATOM     60  C   UNL A   1      40.546  32.381  35.477  1.00  0.00     0.074 A 
ATOM     61  C   UNL A   1      41.469  32.217  36.581  1.00  0.00     0.031 C 
ATOM     62  C   UNL A   1      39.560  33.312  35.438  1.00  0.00     0.037 A 
BRANCH  49  63
ATOM     63  C   UNL A   1      36.243  33.205  30.219  1.00  0.00     0.057 A 
ATOM     64  C   UNL A   1      34.909  32.849  30.451  1.00  0.00     0.134 A 
ATOM     65  C   UNL A   1      36.495  34.110  29.177  1.00  0.00     0.134 A 
ATOM     66  F   UNL A   1      34.594  31.979  31.423  1.00  0.00    -0.206 F 
ATOM     67  C   UNL A   1      33.867  33.370  29.680  1.00  0.00     0.040 A 
ATOM     68  C   UNL A   1      35.460  34.659  28.418  1.00  0.00     0.040 A 
ATOM     69  F   UNL A   1      37.751  34.498  28.903  1.00  0.00    -0.206 F 
ATOM     70  C   UNL A   1      34.142  34.285  28.665  1.00  0.00     0.006 A 
ENDBRANCH  49  63
BRANCH  50  71
ATOM     71  C   UNL A   1      43.821  29.030  35.185  1.00  0.00     0.057 A 
ATOM     72  C   UNL A   1      45.132  29.501  35.046  1.00  0.00     0.134 A 
ATOM     73  C   UNL A   1      43.603  27.988  36.095  1.00  0.00     0.134 A 
ATOM     74  F   UNL A   1      45.409  30.491  34.184  1.00  0.00    -0.206 F 
ATOM     75  C   UNL A   1      46.183  28.963  35.788  1.00  0.00     0.040 A 
ATOM     76  C   UNL A   1      44.640  27.463  36.866  1.00  0.00     0.040 A 
ATOM     77  F   UNL A   1      42.366  27.505  36.284  1.00  0.00    -0.206 F 
ATOM     78  C   UNL A   1      45.936  27.949  36.711  1.00  0.00     0.006 A 
ENDBRANCH  50  71
BRANCH  62  79
ATOM     79  C   UNL A   1      39.429  34.205  36.641  1.00  0.00     0.057 A 
ATOM     80  C   UNL A   1      38.769  33.760  37.794  1.00  0.00     0.134 A 
ATOM     81  C   UNL A   1      39.969  35.498  36.668  1.00  0.00     0.134 A 
ATOM     82  F   UNL A   1      38.218  32.537  37.836  1.00  0.00    -0.206 F 
ATOM     83  C   UNL A   1      38.663  34.562  38.931  1.00  0.00     0.040 A 
ATOM     84  C   UNL A   1      39.900  36.296  37.812  1.00  0.00     0.040 A 
ATOM     85  F   UNL A   1      40.629  35.983  35.604  1.00  0.00    -0.206 F 
ATOM     86  C   UNL A   1      39.242  35.829  38.948  1.00  0.00     0.006 A 
ENDBRANCH  62  79
ENDBRANCH  36  37
ENDBRANCH  29  31
ENDBRANCH  28  29
ENDBRANCH  27  28
ENDBRANCH   1  27
TORSDOF 16
ENDMDL
