MODEL 1
REMARK VINA RESULT:     -12.9      0.000      0.000
REMARK SMILES Cc1cccc(C(=O)Nc2cc(C(=O)OCCOCCOC(=O)c3ccc(-c4c5nc(c(-c6c(F)cccc6F)c6ccc([nH]6)c(-c6c(F)cccc6F)c6nc(c(-c7c(F)cccc7F)c7ccc4[nH]7)C=C6)C=C5)cc3)ccc2N2CC[NH+](CC(=O)NC(C)(C)C)CC2)c1
REMARK SMILES IDX 17 1 16 2 15 3 13 4 14 5 12 6 10 7 11 8 80 9 79 10 78 11
REMARK SMILES IDX 9 12 7 13 8 14 6 16 1 17 2 18 3 19 95 20 4 21 5 22 81 23
REMARK SMILES IDX 82 24 94 25 83 26 93 27 84 28 85 30 86 31 87 32 88 33 89 35
REMARK SMILES IDX 90 36 91 37 92 38 18 39 19 40 20 41 21 42 22 43 23 44 24 45
REMARK SMILES IDX 25 46 77 47 26 48 76 49 27 50 28 51 29 52 70 53 30 54 75 55
REMARK SMILES IDX 69 56 71 57 31 58 74 59 68 60 67 61 32 63 58 64 41 65 57 66
REMARK SMILES IDX 42 67 45 68 56 69 72 70 43 71 44 72 55 74 73 75 46 76 33 77
REMARK SMILES IDX 34 78 39 79 35 80 36 81 38 82 40 83 37 84 59 85 60 86 65 87
REMARK SMILES IDX 61 88 62 89 64 90 66 91 63 92 47 93 48 94 53 95 49 96 50 97
REMARK SMILES IDX 52 98 54 99 51 100
REMARK H PARENT 9 15 84 29 88 34 71 62 45 73
REMARK Flexibility Score: inf
ROOT
ATOM      1  C   UNL A   1      34.904  32.913  27.650  1.00  0.00     0.202 C 
ENDROOT
BRANCH   1   2
ATOM      2  C   UNL A   1      33.786  32.060  28.172  1.00  0.00     0.261 C 
BRANCH   2   3
ATOM      3  O   UNL A   1      33.450  31.044  27.248  1.00  0.00    -0.460 OA
BRANCH   3   4
ATOM      4  C   UNL A   1      32.191  30.925  26.766  1.00  0.00     0.338 C 
ATOM      5  O   UNL A   1      31.386  31.778  26.474  1.00  0.00    -0.246 OA
BRANCH   4   6
ATOM      6  C   UNL A   1      32.064  29.472  26.562  1.00  0.00     0.062 A 
ATOM      7  C   UNL A   1      31.721  27.693  24.997  1.00  0.00     0.065 A 
ATOM      8  C   UNL A   1      31.821  29.024  25.262  1.00  0.00     0.044 A 
ATOM      9  C   UNL A   1      31.715  26.751  26.058  1.00  0.00     0.061 A 
ATOM     10  C   UNL A   1      31.949  27.212  27.366  1.00  0.00     0.029 A 
ATOM     11  C   UNL A   1      32.162  28.571  27.617  1.00  0.00     0.018 A 
BRANCH   7  12
ATOM     12  N   UNL A   1      31.789  27.314  23.640  1.00  0.00    -0.320 N 
ATOM     13  C   UNL A   1      30.853  27.556  22.629  1.00  0.00     0.255 C 
ATOM     14  O   UNL A   1      31.088  27.096  21.508  1.00  0.00    -0.269 OA
ATOM     15  H   UNL A   1      32.596  26.819  23.372  1.00  0.00     0.170 HD
BRANCH  13  16
ATOM     16  C   UNL A   1      29.647  28.465  22.780  1.00  0.00     0.040 A 
ATOM     17  C   UNL A   1      28.730  32.140  22.883  1.00  0.00     0.044 C 
ATOM     18  C   UNL A   1      28.538  30.653  22.768  1.00  0.00    -0.050 A 
ATOM     19  C   UNL A   1      27.324  30.053  23.110  1.00  0.00     0.003 A 
ATOM     20  C   UNL A   1      29.654  29.843  22.522  1.00  0.00     0.017 A 
ATOM     21  C   UNL A   1      27.263  28.671  23.282  1.00  0.00     0.001 A 
ATOM     22  C   UNL A   1      28.418  27.886  23.134  1.00  0.00     0.014 A 
ENDBRANCH  13  16
ENDBRANCH   7  12
BRANCH   9  23
ATOM     23  N   UNL A   1      31.735  25.404  25.747  1.00  0.00    -0.359 N 
ATOM     24  C   UNL A   1      30.764  24.383  26.162  1.00  0.00     0.178 C 
ATOM     25  C   UNL A   1      33.093  24.891  25.812  1.00  0.00     0.178 C 
ATOM     26  C   UNL A   1      31.028  23.068  25.343  1.00  0.00     0.284 C 
ATOM     27  C   UNL A   1      33.232  23.811  24.751  1.00  0.00     0.284 C 
ATOM     28  N   UNL A   1      32.434  22.639  25.098  1.00  0.00    -0.324 N 
ATOM     29  H   UNL A   1      32.382  21.987  24.316  1.00  0.00     0.348 HD
BRANCH  28  30
ATOM     30  C   UNL A   1      33.085  21.782  26.117  1.00  0.00     0.363 C 
BRANCH  30  31
ATOM     31  C   UNL A   1      34.360  21.030  25.718  1.00  0.00     0.275 C 
ATOM     32  O   UNL A   1      35.457  21.588  25.867  1.00  0.00    -0.268 OA
ATOM     33  N   UNL A   1      34.410  19.774  25.178  1.00  0.00    -0.347 N 
ATOM     34  H   UNL A   1      35.349  19.484  25.112  1.00  0.00     0.164 HD
BRANCH  33  35
ATOM     35  C   UNL A   1      33.516  18.692  24.653  1.00  0.00     0.032 C 
ATOM     36  C   UNL A   1      32.569  18.137  25.731  1.00  0.00     0.034 C 
ATOM     37  C   UNL A   1      32.572  19.362  23.631  1.00  0.00     0.034 C 
ATOM     38  C   UNL A   1      34.234  17.540  23.953  1.00  0.00     0.034 C 
ENDBRANCH  33  35
ENDBRANCH  30  31
ENDBRANCH  28  30
ENDBRANCH   9  23
ENDBRANCH   4   6
ENDBRANCH   3   4
ENDBRANCH   2   3
ENDBRANCH   1   2
BRANCH   1  39
ATOM     39  O   UNL A   1      34.496  34.245  27.916  1.00  0.00    -0.374 OA
BRANCH  39  40
ATOM     40  C   UNL A   1      33.351  34.399  28.722  1.00  0.00     0.202 C 
BRANCH  40  41
ATOM     41  C   UNL A   1      33.634  35.353  29.882  1.00  0.00     0.261 C 
BRANCH  41  42
ATOM     42  O   UNL A   1      33.613  34.600  31.121  1.00  0.00    -0.460 OA
BRANCH  42  43
ATOM     43  C   UNL A   1      34.810  34.433  31.755  1.00  0.00     0.338 C 
ATOM     44  O   UNL A   1      35.359  35.273  32.452  1.00  0.00    -0.246 OA
BRANCH  43  45
ATOM     45  C   UNL A   1      35.515  33.209  31.243  1.00  0.00     0.060 A 
ATOM     46  C   UNL A   1      35.184  31.937  31.757  1.00  0.00     0.016 A 
ATOM     47  C   UNL A   1      36.711  33.368  30.551  1.00  0.00     0.016 A 
ATOM     48  C   UNL A   1      36.117  30.878  31.725  1.00  0.00     0.010 A 
ATOM     49  C   UNL A   1      37.659  32.360  30.610  1.00  0.00     0.010 A 
ATOM     50  C   UNL A   1      37.406  31.118  31.235  1.00  0.00    -0.014 A 
BRANCH  50  51
ATOM     51  C   UNL A   1      38.635  30.355  31.582  1.00  0.00     0.031 A 
ATOM     52  C   UNL A   1      39.086  29.238  30.712  1.00  0.00     0.074 A 
ATOM     53  C   UNL A   1      39.596  30.944  32.329  1.00  0.00     0.049 A 
ATOM     54  N   UNL A   1      40.281  28.760  30.652  1.00  0.00    -0.248 NA
ATOM     55  C   UNL A   1      38.150  28.518  29.866  1.00  0.00     0.031 C 
ATOM     56  C   UNL A   1      41.015  30.999  31.958  1.00  0.00     0.029 A 
ATOM     57  N   UNL A   1      39.529  31.805  33.401  1.00  0.00    -0.354 N 
ATOM     58  C   UNL A   1      40.341  27.823  29.652  1.00  0.00     0.074 A 
ATOM     59  C   UNL A   1      38.967  27.672  29.235  1.00  0.00     0.031 C 
ATOM     60  C   UNL A   1      41.651  31.771  32.838  1.00  0.00     0.029 A 
ATOM     61  C   UNL A   1      40.787  32.057  33.928  1.00  0.00     0.049 A 
ATOM     62  H   UNL A   1      38.693  32.194  33.749  1.00  0.00     0.167 HD
ATOM     63  C   UNL A   1      41.551  27.300  29.297  1.00  0.00     0.037 A 
ATOM     64  C   UNL A   1      41.147  31.843  35.217  1.00  0.00     0.037 A 
ATOM     65  C   UNL A   1      42.606  27.615  30.304  1.00  0.00     0.049 A 
ATOM     66  C   UNL A   1      41.884  30.503  35.348  1.00  0.00     0.074 A 
ATOM     67  C   UNL A   1      43.915  28.066  30.296  1.00  0.00     0.029 A 
ATOM     68  N   UNL A   1      42.283  27.517  31.668  1.00  0.00    -0.354 N 
ATOM     69  N   UNL A   1      42.400  29.810  34.353  1.00  0.00    -0.248 NA
ATOM     70  C   UNL A   1      42.028  29.801  36.615  1.00  0.00     0.031 C 
ATOM     71  C   UNL A   1      44.378  28.164  31.653  1.00  0.00     0.029 A 
ATOM     72  C   UNL A   1      43.339  27.829  32.503  1.00  0.00     0.049 A 
ATOM     73  H   UNL A   1      41.393  27.253  31.995  1.00  0.00     0.167 HD
ATOM     74  C   UNL A   1      42.786  28.558  34.779  1.00  0.00     0.074 A 
ATOM     75  C   UNL A   1      42.530  28.619  36.214  1.00  0.00     0.031 C 
ATOM     76  C   UNL A   1      43.228  27.554  33.942  1.00  0.00     0.037 A 
BRANCH  63  77
ATOM     77  C   UNL A   1      41.793  26.485  28.015  1.00  0.00     0.057 A 
ATOM     78  C   UNL A   1      42.343  25.186  28.059  1.00  0.00     0.134 A 
ATOM     79  C   UNL A   1      41.575  26.937  26.690  1.00  0.00     0.134 A 
ATOM     80  F   UNL A   1      42.641  24.586  29.218  1.00  0.00    -0.206 F 
ATOM     81  C   UNL A   1      42.640  24.425  26.909  1.00  0.00     0.040 A 
ATOM     82  C   UNL A   1      41.805  26.163  25.539  1.00  0.00     0.040 A 
ATOM     83  F   UNL A   1      41.187  28.180  26.402  1.00  0.00    -0.206 F 
ATOM     84  C   UNL A   1      42.356  24.904  25.642  1.00  0.00     0.006 A 
ENDBRANCH  63  77
BRANCH  64  85
ATOM     85  C   UNL A   1      40.221  32.615  36.112  1.00  0.00     0.057 A 
ATOM     86  C   UNL A   1      40.324  34.016  35.919  1.00  0.00     0.134 A 
ATOM     87  C   UNL A   1      38.930  32.113  36.327  1.00  0.00     0.134 A 
ATOM     88  F   UNL A   1      41.532  34.587  35.789  1.00  0.00    -0.206 F 
ATOM     89  C   UNL A   1      39.207  34.793  35.591  1.00  0.00     0.040 A 
ATOM     90  C   UNL A   1      37.801  32.890  36.005  1.00  0.00     0.040 A 
ATOM     91  F   UNL A   1      38.747  30.804  36.544  1.00  0.00    -0.206 F 
ATOM     92  C   UNL A   1      37.946  34.206  35.560  1.00  0.00     0.006 A 
ENDBRANCH  64  85
BRANCH  76  93
ATOM     93  C   UNL A   1      43.539  26.120  34.380  1.00  0.00     0.057 A 
ATOM     94  C   UNL A   1      42.592  25.199  34.842  1.00  0.00     0.134 A 
ATOM     95  C   UNL A   1      44.870  25.625  34.388  1.00  0.00     0.134 A 
ATOM     96  F   UNL A   1      41.337  25.571  35.125  1.00  0.00    -0.206 F 
ATOM     97  C   UNL A   1      42.906  23.855  35.107  1.00  0.00     0.040 A 
ATOM     98  C   UNL A   1      45.206  24.308  34.712  1.00  0.00     0.040 A 
ATOM     99  F   UNL A   1      45.926  26.391  34.089  1.00  0.00    -0.206 F 
ATOM    100  C   UNL A   1      44.215  23.400  35.027  1.00  0.00     0.006 A 
ENDBRANCH  76  93
ENDBRANCH  50  51
ENDBRANCH  43  45
ENDBRANCH  42  43
ENDBRANCH  41  42
ENDBRANCH  40  41
ENDBRANCH  39  40
ENDBRANCH   1  39
TORSDOF 20
ENDMDL
MODEL 2
REMARK VINA RESULT:     -12.4      2.543      9.270
REMARK SMILES Cc1cccc(C(=O)Nc2cc(C(=O)OCCOCCOC(=O)c3ccc(-c4c5nc(c(-c6c(F)cccc6F)c6ccc([nH]6)c(-c6c(F)cccc6F)c6nc(c(-c7c(F)cccc7F)c7ccc4[nH]7)C=C6)C=C5)cc3)ccc2N2CC[NH+](CC(=O)NC(C)(C)C)CC2)c1
REMARK SMILES IDX 17 1 16 2 15 3 13 4 14 5 12 6 10 7 11 8 80 9 79 10 78 11
REMARK SMILES IDX 9 12 7 13 8 14 6 16 1 17 2 18 3 19 95 20 4 21 5 22 81 23
REMARK SMILES IDX 82 24 94 25 83 26 93 27 84 28 85 30 86 31 87 32 88 33 89 35
REMARK SMILES IDX 90 36 91 37 92 38 18 39 19 40 20 41 21 42 22 43 23 44 24 45
REMARK SMILES IDX 25 46 77 47 26 48 76 49 27 50 28 51 29 52 70 53 30 54 75 55
REMARK SMILES IDX 69 56 71 57 31 58 74 59 68 60 67 61 32 63 58 64 41 65 57 66
REMARK SMILES IDX 42 67 45 68 56 69 72 70 43 71 44 72 55 74 73 75 46 76 33 77
REMARK SMILES IDX 34 78 39 79 35 80 36 81 38 82 40 83 37 84 59 85 60 86 65 87
REMARK SMILES IDX 61 88 62 89 64 90 66 91 63 92 47 93 48 94 53 95 49 96 50 97
REMARK SMILES IDX 52 98 54 99 51 100
REMARK H PARENT 9 15 84 29 88 34 71 62 45 73
REMARK Flexibility Score: inf
ROOT
ATOM      1  C   UNL A   1      40.072  22.005  27.420  1.00  0.00     0.202 C 
ENDROOT
BRANCH   1   2
ATOM      2  C   UNL A   1      39.869  21.278  26.124  1.00  0.00     0.261 C 
BRANCH   2   3
ATOM      3  O   UNL A   1      38.733  21.767  25.440  1.00  0.00    -0.460 OA
BRANCH   3   4
ATOM      4  C   UNL A   1      37.764  20.930  25.005  1.00  0.00     0.338 C 
ATOM      5  O   UNL A   1      37.709  19.723  25.032  1.00  0.00    -0.246 OA
BRANCH   4   6
ATOM      6  C   UNL A   1      36.704  21.861  24.583  1.00  0.00     0.062 A 
ATOM      7  C   UNL A   1      34.365  22.374  24.602  1.00  0.00     0.065 A 
ATOM      8  C   UNL A   1      35.391  21.543  24.935  1.00  0.00     0.044 A 
ATOM      9  C   UNL A   1      34.597  23.497  23.765  1.00  0.00     0.061 A 
ATOM     10  C   UNL A   1      35.922  23.803  23.406  1.00  0.00     0.029 A 
ATOM     11  C   UNL A   1      36.984  23.007  23.845  1.00  0.00     0.018 A 
BRANCH   7  12
ATOM     12  N   UNL A   1      33.135  22.148  25.253  1.00  0.00    -0.320 N 
ATOM     13  C   UNL A   1      32.274  21.054  25.118  1.00  0.00     0.255 C 
ATOM     14  O   UNL A   1      31.216  21.073  25.753  1.00  0.00    -0.269 OA
ATOM     15  H   UNL A   1      32.847  22.848  25.883  1.00  0.00     0.170 HD
BRANCH  13  16
ATOM     16  C   UNL A   1      32.618  19.785  24.360  1.00  0.00     0.040 A 
ATOM     17  C   UNL A   1      34.749  16.666  24.664  1.00  0.00     0.044 C 
ATOM     18  C   UNL A   1      33.677  17.582  24.143  1.00  0.00    -0.050 A 
ATOM     19  C   UNL A   1      33.208  17.473  22.832  1.00  0.00     0.003 A 
ATOM     20  C   UNL A   1      33.300  18.691  24.912  1.00  0.00     0.017 A 
ATOM     21  C   UNL A   1      32.447  18.504  22.284  1.00  0.00     0.001 A 
ATOM     22  C   UNL A   1      32.168  19.657  23.036  1.00  0.00     0.014 A 
ENDBRANCH  13  16
ENDBRANCH   7  12
BRANCH   9  23
ATOM     23  N   UNL A   1      33.560  24.385  23.549  1.00  0.00    -0.359 N 
ATOM     24  C   UNL A   1      32.889  24.670  22.273  1.00  0.00     0.178 C 
ATOM     25  C   UNL A   1      33.770  25.603  24.312  1.00  0.00     0.178 C 
ATOM     26  C   UNL A   1      31.597  25.518  22.557  1.00  0.00     0.284 C 
ATOM     27  C   UNL A   1      32.406  26.127  24.734  1.00  0.00     0.284 C 
ATOM     28  N   UNL A   1      31.656  26.604  23.577  1.00  0.00    -0.324 N 
ATOM     29  H   UNL A   1      30.684  26.791  23.823  1.00  0.00     0.348 HD
BRANCH  28  30
ATOM     30  C   UNL A   1      32.082  27.951  23.131  1.00  0.00     0.363 C 
BRANCH  30  31
ATOM     31  C   UNL A   1      31.655  29.158  23.973  1.00  0.00     0.275 C 
ATOM     32  O   UNL A   1      32.374  29.516  24.919  1.00  0.00    -0.268 OA
ATOM     33  N   UNL A   1      30.514  29.892  23.797  1.00  0.00    -0.347 N 
ATOM     34  H   UNL A   1      30.530  30.670  24.399  1.00  0.00     0.164 HD
BRANCH  33  35
ATOM     35  C   UNL A   1      29.249  29.908  22.994  1.00  0.00     0.032 C 
ATOM     36  C   UNL A   1      28.452  28.599  23.125  1.00  0.00     0.034 C 
ATOM     37  C   UNL A   1      28.334  30.972  23.640  1.00  0.00     0.034 C 
ATOM     38  C   UNL A   1      29.421  30.263  21.519  1.00  0.00     0.034 C 
ENDBRANCH  33  35
ENDBRANCH  30  31
ENDBRANCH  28  30
ENDBRANCH   9  23
ENDBRANCH   4   6
ENDBRANCH   3   4
ENDBRANCH   2   3
ENDBRANCH   1   2
BRANCH   1  39
ATOM     39  O   UNL A   1      41.451  22.339  27.435  1.00  0.00    -0.374 OA
BRANCH  39  40
ATOM     40  C   UNL A   1      41.824  23.416  28.262  1.00  0.00     0.202 C 
BRANCH  40  41
ATOM     41  C   UNL A   1      42.799  24.341  27.533  1.00  0.00     0.261 C 
BRANCH  41  42
ATOM     42  O   UNL A   1      42.224  25.670  27.471  1.00  0.00    -0.460 OA
BRANCH  42  43
ATOM     43  C   UNL A   1      41.151  25.833  26.643  1.00  0.00     0.338 C 
ATOM     44  O   UNL A   1      41.010  25.283  25.561  1.00  0.00    -0.246 OA
BRANCH  43  45
ATOM     45  C   UNL A   1      40.314  27.001  27.082  1.00  0.00     0.060 A 
ATOM     46  C   UNL A   1      40.775  28.318  26.871  1.00  0.00     0.016 A 
ATOM     47  C   UNL A   1      39.290  26.781  27.995  1.00  0.00     0.016 A 
ATOM     48  C   UNL A   1      40.330  29.379  27.689  1.00  0.00     0.010 A 
ATOM     49  C   UNL A   1      38.931  27.802  28.859  1.00  0.00     0.010 A 
ATOM     50  C   UNL A   1      39.473  29.103  28.760  1.00  0.00    -0.014 A 
BRANCH  50  51
ATOM     51  C   UNL A   1      39.318  29.918  29.996  1.00  0.00     0.031 A 
ATOM     52  C   UNL A   1      38.453  31.127  29.985  1.00  0.00     0.074 A 
ATOM     53  C   UNL A   1      39.504  29.339  31.203  1.00  0.00     0.049 A 
ATOM     54  N   UNL A   1      37.922  31.687  31.016  1.00  0.00    -0.248 NA
ATOM     55  C   UNL A   1      38.182  31.845  28.752  1.00  0.00     0.031 C 
ATOM     56  C   UNL A   1      38.543  29.408  32.310  1.00  0.00     0.029 A 
ATOM     57  N   UNL A   1      40.404  28.394  31.641  1.00  0.00    -0.354 N 
ATOM     58  C   UNL A   1      37.096  32.701  30.601  1.00  0.00     0.074 A 
ATOM     59  C   UNL A   1      37.343  32.791  29.182  1.00  0.00     0.031 C 
ATOM     60  C   UNL A   1      38.972  28.614  33.291  1.00  0.00     0.029 A 
ATOM     61  C   UNL A   1      40.297  28.187  33.008  1.00  0.00     0.049 A 
ATOM     62  H   UNL A   1      41.044  27.925  31.057  1.00  0.00     0.167 HD
ATOM     63  C   UNL A   1      36.299  33.330  31.514  1.00  0.00     0.037 A 
ATOM     64  C   UNL A   1      41.310  28.325  33.898  1.00  0.00     0.037 A 
ATOM     65  C   UNL A   1      36.703  33.009  32.914  1.00  0.00     0.049 A 
ATOM     66  C   UNL A   1      41.237  29.696  34.581  1.00  0.00     0.074 A 
ATOM     67  C   UNL A   1      36.076  32.648  34.095  1.00  0.00     0.029 A 
ATOM     68  N   UNL A   1      38.072  32.979  33.228  1.00  0.00    -0.354 N 
ATOM     69  N   UNL A   1      40.190  30.498  34.584  1.00  0.00    -0.248 NA
ATOM     70  C   UNL A   1      42.373  30.306  35.255  1.00  0.00     0.031 C 
ATOM     71  C   UNL A   1      37.074  32.477  35.114  1.00  0.00     0.029 A 
ATOM     72  C   UNL A   1      38.323  32.675  34.553  1.00  0.00     0.049 A 
ATOM     73  H   UNL A   1      38.781  33.157  32.569  1.00  0.00     0.167 HD
ATOM     74  C   UNL A   1      40.525  31.735  35.086  1.00  0.00     0.074 A 
ATOM     75  C   UNL A   1      41.912  31.547  35.496  1.00  0.00     0.031 C 
ATOM     76  C   UNL A   1      39.684  32.829  35.085  1.00  0.00     0.037 A 
BRANCH  63  77
ATOM     77  C   UNL A   1      35.129  34.256  31.140  1.00  0.00     0.057 A 
ATOM     78  C   UNL A   1      34.772  35.356  31.949  1.00  0.00     0.134 A 
ATOM     79  C   UNL A   1      34.260  34.090  30.035  1.00  0.00     0.134 A 
ATOM     80  F   UNL A   1      35.458  35.671  33.054  1.00  0.00    -0.206 F 
ATOM     81  C   UNL A   1      33.671  36.197  31.681  1.00  0.00     0.040 A 
ATOM     82  C   UNL A   1      33.200  34.959  29.721  1.00  0.00     0.040 A 
ATOM     83  F   UNL A   1      34.323  33.042  29.212  1.00  0.00    -0.206 F 
ATOM     84  C   UNL A   1      32.888  36.011  30.554  1.00  0.00     0.006 A 
ENDBRANCH  63  77
BRANCH  64  85
ATOM     85  C   UNL A   1      42.440  27.425  33.485  1.00  0.00     0.057 A 
ATOM     86  C   UNL A   1      43.538  28.146  32.950  1.00  0.00     0.134 A 
ATOM     87  C   UNL A   1      42.757  26.333  34.304  1.00  0.00     0.134 A 
ATOM     88  F   UNL A   1      43.322  29.154  32.090  1.00  0.00    -0.206 F 
ATOM     89  C   UNL A   1      44.824  28.023  33.488  1.00  0.00     0.040 A 
ATOM     90  C   UNL A   1      44.049  26.199  34.845  1.00  0.00     0.040 A 
ATOM     91  F   UNL A   1      41.779  25.584  34.829  1.00  0.00    -0.206 F 
ATOM     92  C   UNL A   1      45.063  27.095  34.497  1.00  0.00     0.006 A 
ENDBRANCH  64  85
BRANCH  76  93
ATOM     93  C   UNL A   1      40.080  34.242  35.521  1.00  0.00     0.057 A 
ATOM     94  C   UNL A   1      39.584  34.901  36.651  1.00  0.00     0.134 A 
ATOM     95  C   UNL A   1      40.978  35.026  34.749  1.00  0.00     0.134 A 
ATOM     96  F   UNL A   1      38.555  34.408  37.352  1.00  0.00    -0.206 F 
ATOM     97  C   UNL A   1      40.076  36.145  37.082  1.00  0.00     0.040 A 
ATOM     98  C   UNL A   1      41.428  36.293  35.132  1.00  0.00     0.040 A 
ATOM     99  F   UNL A   1      41.470  34.613  33.575  1.00  0.00    -0.206 F 
ATOM    100  C   UNL A   1      41.013  36.840  36.330  1.00  0.00     0.006 A 
ENDBRANCH  76  93
ENDBRANCH  50  51
ENDBRANCH  43  45
ENDBRANCH  42  43
ENDBRANCH  41  42
ENDBRANCH  40  41
ENDBRANCH  39  40
ENDBRANCH   1  39
TORSDOF 20
ENDMDL
MODEL 3
REMARK VINA RESULT:     -12.2      1.149      1.854
REMARK SMILES Cc1cccc(C(=O)Nc2cc(C(=O)OCCOCCOC(=O)c3ccc(-c4c5nc(c(-c6c(F)cccc6F)c6ccc([nH]6)c(-c6c(F)cccc6F)c6nc(c(-c7c(F)cccc7F)c7ccc4[nH]7)C=C6)C=C5)cc3)ccc2N2CC[NH+](CC(=O)NC(C)(C)C)CC2)c1
REMARK SMILES IDX 17 1 16 2 15 3 13 4 14 5 12 6 10 7 11 8 80 9 79 10 78 11
REMARK SMILES IDX 9 12 7 13 8 14 6 16 1 17 2 18 3 19 95 20 4 21 5 22 81 23
REMARK SMILES IDX 82 24 94 25 83 26 93 27 84 28 85 30 86 31 87 32 88 33 89 35
REMARK SMILES IDX 90 36 91 37 92 38 18 39 19 40 20 41 21 42 22 43 23 44 24 45
REMARK SMILES IDX 25 46 77 47 26 48 76 49 27 50 28 51 29 52 70 53 30 54 75 55
REMARK SMILES IDX 69 56 71 57 31 58 74 59 68 60 67 61 32 63 58 64 41 65 57 66
REMARK SMILES IDX 42 67 45 68 56 69 72 70 43 71 44 72 55 74 73 75 46 76 33 77
REMARK SMILES IDX 34 78 39 79 35 80 36 81 38 82 40 83 37 84 59 85 60 86 65 87
REMARK SMILES IDX 61 88 62 89 64 90 66 91 63 92 47 93 48 94 53 95 49 96 50 97
REMARK SMILES IDX 52 98 54 99 51 100
REMARK H PARENT 9 15 84 29 88 34 71 62 45 73
REMARK Flexibility Score: inf
ROOT
ATOM      1  C   UNL A   1      35.227  32.294  27.877  1.00  0.00     0.202 C 
ENDROOT
BRANCH   1   2
ATOM      2  C   UNL A   1      33.730  32.201  27.881  1.00  0.00     0.261 C 
BRANCH   2   3
ATOM      3  O   UNL A   1      33.299  30.940  27.411  1.00  0.00    -0.460 OA
BRANCH   3   4
ATOM      4  C   UNL A   1      32.139  30.808  26.727  1.00  0.00     0.338 C 
ATOM      5  O   UNL A   1      31.394  31.652  26.289  1.00  0.00    -0.246 OA
BRANCH   4   6
ATOM      6  C   UNL A   1      32.050  29.351  26.529  1.00  0.00     0.062 A 
ATOM      7  C   UNL A   1      31.723  27.557  24.977  1.00  0.00     0.065 A 
ATOM      8  C   UNL A   1      31.790  28.892  25.236  1.00  0.00     0.044 A 
ATOM      9  C   UNL A   1      31.769  26.619  26.040  1.00  0.00     0.061 A 
ATOM     10  C   UNL A   1      32.021  27.091  27.341  1.00  0.00     0.029 A 
ATOM     11  C   UNL A   1      32.200  28.456  27.584  1.00  0.00     0.018 A 
BRANCH   7  12
ATOM     12  N   UNL A   1      31.769  27.177  23.620  1.00  0.00    -0.320 N 
ATOM     13  C   UNL A   1      30.825  27.430  22.619  1.00  0.00     0.255 C 
ATOM     14  O   UNL A   1      31.040  26.967  21.495  1.00  0.00    -0.269 OA
ATOM     15  H   UNL A   1      32.566  26.671  23.342  1.00  0.00     0.170 HD
BRANCH  13  16
ATOM     16  C   UNL A   1      29.633  28.355  22.784  1.00  0.00     0.040 A 
ATOM     17  C   UNL A   1      28.772  32.042  22.944  1.00  0.00     0.044 C 
ATOM     18  C   UNL A   1      28.557  30.561  22.805  1.00  0.00    -0.050 A 
ATOM     19  C   UNL A   1      27.334  29.974  23.137  1.00  0.00     0.003 A 
ATOM     20  C   UNL A   1      29.662  29.737  22.547  1.00  0.00     0.017 A 
ATOM     21  C   UNL A   1      27.252  28.591  23.288  1.00  0.00     0.001 A 
ATOM     22  C   UNL A   1      28.394  27.791  23.129  1.00  0.00     0.014 A 
ENDBRANCH  13  16
ENDBRANCH   7  12
BRANCH   9  23
ATOM     23  N   UNL A   1      31.822  25.272  25.731  1.00  0.00    -0.359 N 
ATOM     24  C   UNL A   1      30.861  24.234  26.126  1.00  0.00     0.178 C 
ATOM     25  C   UNL A   1      33.188  24.785  25.828  1.00  0.00     0.178 C 
ATOM     26  C   UNL A   1      31.168  22.923  25.315  1.00  0.00     0.284 C 
ATOM     27  C   UNL A   1      33.371  23.706  24.771  1.00  0.00     0.284 C 
ATOM     28  N   UNL A   1      32.587  22.521  25.103  1.00  0.00    -0.324 N 
ATOM     29  H   UNL A   1      32.565  21.867  24.320  1.00  0.00     0.348 HD
BRANCH  28  30
ATOM     30  C   UNL A   1      33.231  21.677  26.137  1.00  0.00     0.363 C 
BRANCH  30  31
ATOM     31  C   UNL A   1      34.449  20.841  25.730  1.00  0.00     0.275 C 
ATOM     32  O   UNL A   1      35.585  21.293  25.939  1.00  0.00    -0.268 OA
ATOM     33  N   UNL A   1      34.410  19.617  25.120  1.00  0.00    -0.347 N 
ATOM     34  H   UNL A   1      35.322  19.251  25.062  1.00  0.00     0.164 HD
BRANCH  33  35
ATOM     35  C   UNL A   1      33.445  18.646  24.511  1.00  0.00     0.032 C 
ATOM     36  C   UNL A   1      34.147  17.415  23.913  1.00  0.00     0.034 C 
ATOM     37  C   UNL A   1      32.607  18.073  25.676  1.00  0.00     0.034 C 
ATOM     38  C   UNL A   1      32.485  19.243  23.484  1.00  0.00     0.034 C 
ENDBRANCH  33  35
ENDBRANCH  30  31
ENDBRANCH  28  30
ENDBRANCH   9  23
ENDBRANCH   4   6
ENDBRANCH   3   4
ENDBRANCH   2   3
ENDBRANCH   1   2
BRANCH   1  39
ATOM     39  O   UNL A   1      35.511  33.569  28.430  1.00  0.00    -0.374 OA
BRANCH  39  40
ATOM     40  C   UNL A   1      34.423  34.261  28.997  1.00  0.00     0.202 C 
BRANCH  40  41
ATOM     41  C   UNL A   1      34.622  34.438  30.502  1.00  0.00     0.261 C 
BRANCH  41  42
ATOM     42  O   UNL A   1      34.544  33.138  31.139  1.00  0.00    -0.460 OA
BRANCH  42  43
ATOM     43  C   UNL A   1      35.601  32.778  31.924  1.00  0.00     0.338 C 
ATOM     44  O   UNL A   1      35.945  33.352  32.945  1.00  0.00    -0.246 OA
BRANCH  43  45
ATOM     45  C   UNL A   1      36.471  31.778  31.216  1.00  0.00     0.060 A 
ATOM     46  C   UNL A   1      36.225  30.396  31.368  1.00  0.00     0.016 A 
ATOM     47  C   UNL A   1      37.701  32.196  30.723  1.00  0.00     0.016 A 
ATOM     48  C   UNL A   1      37.261  29.454  31.188  1.00  0.00     0.010 A 
ATOM     49  C   UNL A   1      38.738  31.280  30.645  1.00  0.00     0.010 A 
ATOM     50  C   UNL A   1      38.557  29.906  30.920  1.00  0.00    -0.014 A 
BRANCH  50  51
ATOM     51  C   UNL A   1      39.822  29.176  31.210  1.00  0.00     0.031 A 
ATOM     52  C   UNL A   1      40.255  28.062  30.328  1.00  0.00     0.074 A 
ATOM     53  C   UNL A   1      40.804  29.796  31.900  1.00  0.00     0.049 A 
ATOM     54  N   UNL A   1      41.456  27.612  30.211  1.00  0.00    -0.248 NA
ATOM     55  C   UNL A   1      39.294  27.310  29.539  1.00  0.00     0.031 C 
ATOM     56  C   UNL A   1      42.200  29.882  31.456  1.00  0.00     0.029 A 
ATOM     57  N   UNL A   1      40.771  30.668  32.966  1.00  0.00    -0.354 N 
ATOM     58  C   UNL A   1      41.488  26.666  29.219  1.00  0.00     0.074 A 
ATOM     59  C   UNL A   1      40.099  26.477  28.875  1.00  0.00     0.031 C 
ATOM     60  C   UNL A   1      42.862  30.679  32.294  1.00  0.00     0.029 A 
ATOM     61  C   UNL A   1      42.048  30.956  33.425  1.00  0.00     0.049 A 
ATOM     62  H   UNL A   1      39.945  31.040  33.353  1.00  0.00     0.167 HD
ATOM     63  C   UNL A   1      42.691  26.168  28.807  1.00  0.00     0.037 A 
ATOM     64  C   UNL A   1      42.480  30.764  34.695  1.00  0.00     0.037 A 
ATOM     65  C   UNL A   1      43.788  26.519  29.755  1.00  0.00     0.049 A 
ATOM     66  C   UNL A   1      43.255  29.444  34.801  1.00  0.00     0.074 A 
ATOM     67  C   UNL A   1      45.083  27.003  29.675  1.00  0.00     0.029 A 
ATOM     68  N   UNL A   1      43.538  26.429  31.134  1.00  0.00    -0.354 N 
ATOM     69  N   UNL A   1      43.737  28.753  33.788  1.00  0.00    -0.248 NA
ATOM     70  C   UNL A   1      43.481  28.760  36.066  1.00  0.00     0.031 C 
ATOM     71  C   UNL A   1      45.612  27.126  31.005  1.00  0.00     0.029 A 
ATOM     72  C   UNL A   1      44.627  26.775  31.911  1.00  0.00     0.049 A 
ATOM     73  H   UNL A   1      42.673  26.147  31.509  1.00  0.00     0.167 HD
ATOM     74  C   UNL A   1      44.174  27.516  34.205  1.00  0.00     0.074 A 
ATOM     75  C   UNL A   1      43.991  27.586  35.651  1.00  0.00     0.031 C 
ATOM     76  C   UNL A   1      44.597  26.513  33.357  1.00  0.00     0.037 A 
BRANCH  63  77
ATOM     77  C   UNL A   1      42.886  25.346  27.522  1.00  0.00     0.057 A 
ATOM     78  C   UNL A   1      43.379  25.933  26.337  1.00  0.00     0.134 A 
ATOM     79  C   UNL A   1      42.545  23.982  27.350  1.00  0.00     0.134 A 
ATOM     80  F   UNL A   1      43.739  27.221  26.286  1.00  0.00    -0.206 F 
ATOM     81  C   UNL A   1      43.517  25.236  25.119  1.00  0.00     0.040 A 
ATOM     82  C   UNL A   1      42.739  23.259  26.160  1.00  0.00     0.040 A 
ATOM     83  F   UNL A   1      41.938  23.260  28.293  1.00  0.00    -0.206 F 
ATOM     84  C   UNL A   1      43.213  23.888  25.028  1.00  0.00     0.006 A 
ENDBRANCH  63  77
BRANCH  64  85
ATOM     85  C   UNL A   1      41.582  31.523  35.630  1.00  0.00     0.057 A 
ATOM     86  C   UNL A   1      41.726  32.928  35.498  1.00  0.00     0.134 A 
ATOM     87  C   UNL A   1      40.278  31.052  35.831  1.00  0.00     0.134 A 
ATOM     88  F   UNL A   1      42.951  33.467  35.385  1.00  0.00    -0.206 F 
ATOM     89  C   UNL A   1      40.632  33.752  35.212  1.00  0.00     0.040 A 
ATOM     90  C   UNL A   1      39.170  31.875  35.551  1.00  0.00     0.040 A 
ATOM     91  F   UNL A   1      40.056  29.741  35.991  1.00  0.00    -0.206 F 
ATOM     92  C   UNL A   1      39.353  33.205  35.163  1.00  0.00     0.006 A 
ENDBRANCH  64  85
BRANCH  76  93
ATOM     93  C   UNL A   1      44.966  25.092  33.791  1.00  0.00     0.057 A 
ATOM     94  C   UNL A   1      46.259  24.558  33.771  1.00  0.00     0.134 A 
ATOM     95  C   UNL A   1      43.972  24.172  34.217  1.00  0.00     0.134 A 
ATOM     96  F   UNL A   1      47.271  25.201  33.175  1.00  0.00    -0.206 F 
ATOM     97  C   UNL A   1      46.566  23.294  34.303  1.00  0.00     0.040 A 
ATOM     98  C   UNL A   1      44.256  22.887  34.689  1.00  0.00     0.040 A 
ATOM     99  F   UNL A   1      42.665  24.460  34.197  1.00  0.00    -0.206 F 
ATOM    100  C   UNL A   1      45.565  22.458  34.779  1.00  0.00     0.006 A 
ENDBRANCH  76  93
ENDBRANCH  50  51
ENDBRANCH  43  45
ENDBRANCH  42  43
ENDBRANCH  41  42
ENDBRANCH  40  41
ENDBRANCH  39  40
ENDBRANCH   1  39
TORSDOF 20
ENDMDL
