MODEL 1
REMARK VINA RESULT:     -11.6      0.000      0.000
REMARK SMILES O=C(OCCOCCOC(=O)[C@@]1([C@@H]2CCO[C@@]3(CCOC3)C2)CCOC1)c1ccc(-c2c3nc(c(-c4c(F)cccc4F)c4ccc([nH]4)c(-c4c(F)cccc4F)c4nc(c(-c5c(F)cccc5F)c5ccc2[nH]5)C=C4)C=C3)cc1
REMARK SMILES IDX 5 1 4 2 3 3 2 4 1 5 27 6 28 7 80 8 29 9 79 10 30 11 31 12
REMARK SMILES IDX 32 13 73 14 33 15 78 16 72 17 74 18 34 19 77 20 71 21 70 22
REMARK SMILES IDX 35 24 61 25 44 26 60 27 45 28 48 29 59 30 75 31 46 32 47 33
REMARK SMILES IDX 58 35 76 36 49 37 36 38 37 39 42 40 38 41 39 42 41 43 43 44
REMARK SMILES IDX 40 45 62 46 63 47 68 48 64 49 65 50 67 51 69 52 66 53 50 54
REMARK SMILES IDX 51 55 56 56 52 57 53 58 55 59 57 60 54 61 6 62 7 63 8 64
REMARK SMILES IDX 9 65 10 66 11 67 12 68 23 69 26 70 24 71 25 72 13 73 14 74
REMARK SMILES IDX 22 75 15 76 17 77 16 78 18 79 21 80 19 81 20 82
REMARK H PARENT 74 23 48 34
REMARK Flexibility Score: inf
ROOT
ATOM      1  C   UNL A   1      31.345  31.661  26.751  1.00  0.00     0.202 C 
ENDROOT
BRANCH   1   2
ATOM      2  C   UNL A   1      32.126  33.001  26.770  1.00  0.00     0.261 C 
BRANCH   2   3
ATOM      3  O   UNL A   1      32.147  33.682  28.043  1.00  0.00    -0.460 OA
BRANCH   3   4
ATOM      4  C   UNL A   1      33.185  34.382  28.582  1.00  0.00     0.338 C 
ATOM      5  O   UNL A   1      33.079  35.583  28.802  1.00  0.00    -0.246 OA
BRANCH   4   6
ATOM      6  C   UNL A   1      34.467  33.701  28.900  1.00  0.00     0.060 A 
ATOM      7  C   UNL A   1      34.479  32.410  29.390  1.00  0.00     0.016 A 
ATOM      8  C   UNL A   1      35.697  34.317  28.683  1.00  0.00     0.016 A 
ATOM      9  C   UNL A   1      35.590  31.788  29.865  1.00  0.00     0.010 A 
ATOM     10  C   UNL A   1      36.878  33.641  29.027  1.00  0.00     0.010 A 
ATOM     11  C   UNL A   1      36.809  32.385  29.651  1.00  0.00    -0.014 A 
BRANCH  11  12
ATOM     12  C   UNL A   1      37.926  31.680  30.279  1.00  0.00     0.031 A 
ATOM     13  C   UNL A   1      38.099  31.859  31.748  1.00  0.00     0.074 A 
ATOM     14  C   UNL A   1      38.559  30.717  29.582  1.00  0.00     0.049 A 
ATOM     15  N   UNL A   1      39.001  31.353  32.535  1.00  0.00    -0.248 NA
ATOM     16  C   UNL A   1      37.109  32.716  32.427  1.00  0.00     0.031 C 
ATOM     17  C   UNL A   1      38.264  30.333  28.192  1.00  0.00     0.029 A 
ATOM     18  N   UNL A   1      39.533  29.840  29.961  1.00  0.00    -0.354 N 
ATOM     19  C   UNL A   1      38.730  31.884  33.787  1.00  0.00     0.074 A 
ATOM     20  C   UNL A   1      37.582  32.748  33.661  1.00  0.00     0.031 C 
ATOM     21  C   UNL A   1      39.029  29.285  27.850  1.00  0.00     0.029 A 
ATOM     22  C   UNL A   1      39.927  28.993  28.954  1.00  0.00     0.049 A 
ATOM     23  H   UNL A   1      39.915  29.815  30.869  1.00  0.00     0.167 HD
ATOM     24  C   UNL A   1      39.411  31.667  34.932  1.00  0.00     0.037 A 
ATOM     25  C   UNL A   1      40.944  28.116  28.931  1.00  0.00     0.037 A 
ATOM     26  C   UNL A   1      40.544  30.787  34.999  1.00  0.00     0.049 A 
ATOM     27  C   UNL A   1      41.769  28.002  30.182  1.00  0.00     0.074 A 
ATOM     28  C   UNL A   1      41.369  30.520  36.070  1.00  0.00     0.029 A 
ATOM     29  N   UNL A   1      41.009  30.031  33.928  1.00  0.00    -0.354 N 
ATOM     30  N   UNL A   1      41.590  28.582  31.347  1.00  0.00    -0.248 NA
ATOM     31  C   UNL A   1      42.941  27.124  30.117  1.00  0.00     0.031 C 
ATOM     32  C   UNL A   1      42.381  29.663  35.626  1.00  0.00     0.029 A 
ATOM     33  C   UNL A   1      42.130  29.319  34.305  1.00  0.00     0.049 A 
ATOM     34  H   UNL A   1      40.598  30.007  33.032  1.00  0.00     0.167 HD
ATOM     35  C   UNL A   1      42.601  28.107  32.168  1.00  0.00     0.074 A 
ATOM     36  C   UNL A   1      43.380  27.184  31.364  1.00  0.00     0.031 C 
ATOM     37  C   UNL A   1      42.863  28.399  33.468  1.00  0.00     0.037 A 
BRANCH  24  38
ATOM     38  C   UNL A   1      39.013  32.485  36.122  1.00  0.00     0.057 A 
ATOM     39  C   UNL A   1      39.488  33.783  36.348  1.00  0.00     0.134 A 
ATOM     40  C   UNL A   1      38.184  31.922  37.100  1.00  0.00     0.134 A 
ATOM     41  F   UNL A   1      40.322  34.366  35.474  1.00  0.00    -0.206 F 
ATOM     42  C   UNL A   1      39.180  34.478  37.521  1.00  0.00     0.040 A 
ATOM     43  C   UNL A   1      37.842  32.618  38.259  1.00  0.00     0.040 A 
ATOM     44  F   UNL A   1      37.712  30.674  36.957  1.00  0.00    -0.206 F 
ATOM     45  C   UNL A   1      38.350  33.896  38.477  1.00  0.00     0.006 A 
ENDBRANCH  24  38
BRANCH  25  46
ATOM     46  C   UNL A   1      41.271  27.353  27.699  1.00  0.00     0.057 A 
ATOM     47  C   UNL A   1      42.095  27.892  26.705  1.00  0.00     0.134 A 
ATOM     48  C   UNL A   1      40.737  26.078  27.463  1.00  0.00     0.134 A 
ATOM     49  F   UNL A   1      42.630  29.112  26.862  1.00  0.00    -0.206 F 
ATOM     50  C   UNL A   1      42.348  27.212  25.512  1.00  0.00     0.040 A 
ATOM     51  C   UNL A   1      41.007  25.372  26.289  1.00  0.00     0.040 A 
ATOM     52  F   UNL A   1      39.944  25.494  28.373  1.00  0.00    -0.206 F 
ATOM     53  C   UNL A   1      41.804  25.946  25.302  1.00  0.00     0.006 A 
ENDBRANCH  25  46
BRANCH  37  54
ATOM     54  C   UNL A   1      43.989  27.645  34.110  1.00  0.00     0.057 A 
ATOM     55  C   UNL A   1      45.306  28.118  34.109  1.00  0.00     0.134 A 
ATOM     56  C   UNL A   1      43.730  26.438  34.773  1.00  0.00     0.134 A 
ATOM     57  F   UNL A   1      45.619  29.262  33.482  1.00  0.00    -0.206 F 
ATOM     58  C   UNL A   1      46.335  27.394  34.711  1.00  0.00     0.040 A 
ATOM     59  C   UNL A   1      44.742  25.729  35.416  1.00  0.00     0.040 A 
ATOM     60  F   UNL A   1      42.484  25.940  34.824  1.00  0.00    -0.206 F 
ATOM     61  C   UNL A   1      46.051  26.201  35.373  1.00  0.00     0.006 A 
ENDBRANCH  37  54
ENDBRANCH  11  12
ENDBRANCH   4   6
ENDBRANCH   3   4
ENDBRANCH   2   3
ENDBRANCH   1   2
BRANCH   1  62
ATOM     62  O   UNL A   1      31.521  30.694  25.714  1.00  0.00    -0.374 OA
BRANCH  62  63
ATOM     63  C   UNL A   1      32.587  29.750  25.821  1.00  0.00     0.202 C 
BRANCH  63  64
ATOM     64  C   UNL A   1      32.481  28.998  27.133  1.00  0.00     0.261 C 
BRANCH  64  65
ATOM     65  O   UNL A   1      32.926  27.663  26.851  1.00  0.00    -0.463 OA
BRANCH  65  66
ATOM     66  C   UNL A   1      31.970  26.748  26.528  1.00  0.00     0.314 C 
ATOM     67  O   UNL A   1      30.809  26.859  26.896  1.00  0.00    -0.252 OA
BRANCH  66  68
ATOM     68  C   UNL A   1      32.552  25.577  25.616  1.00  0.00     0.096 C 
ATOM     69  C   UNL A   1      33.965  25.209  26.129  1.00  0.00     0.050 C 
ATOM     70  C   UNL A   1      31.807  24.339  26.180  1.00  0.00     0.179 C 
ATOM     71  C   UNL A   1      34.058  23.706  26.034  1.00  0.00     0.161 C 
ATOM     72  O   UNL A   1      32.723  23.217  26.168  1.00  0.00    -0.380 OA
BRANCH  68  73
ATOM     73  C   UNL A   1      32.334  26.167  23.874  1.00  0.00     0.014 C 
ATOM     74  C   UNL A   1      31.474  25.606  21.946  1.00  0.00     0.033 C 
ATOM     75  C   UNL A   1      33.758  26.764  23.678  1.00  0.00     0.043 C 
ATOM     76  C   UNL A   1      32.504  25.771  20.677  1.00  0.00     0.161 C 
ATOM     77  C   UNL A   1      33.114  26.322  22.525  1.00  0.00     0.094 C 
ATOM     78  O   UNL A   1      33.640  26.361  21.251  1.00  0.00    -0.372 OA
ATOM     79  C   UNL A   1      32.645  24.434  23.019  1.00  0.00     0.066 C 
ATOM     80  C   UNL A   1      31.503  27.497  22.610  1.00  0.00     0.195 C 
ATOM     81  C   UNL A   1      30.815  24.675  23.645  1.00  0.00     0.163 C 
ATOM     82  O   UNL A   1      30.273  26.399  23.446  1.00  0.00    -0.378 OA
ENDBRANCH  68  73
ENDBRANCH  66  68
ENDBRANCH  65  66
ENDBRANCH  64  65
ENDBRANCH  63  64
ENDBRANCH  62  63
ENDBRANCH   1  62
TORSDOF 15
ENDMDL
MODEL 2
REMARK VINA RESULT:     -11.5      1.157      2.358
REMARK SMILES O=C(OCCOCCOC(=O)[C@@]1([C@@H]2CCO[C@@]3(CCOC3)C2)CCOC1)c1ccc(-c2c3nc(c(-c4c(F)cccc4F)c4ccc([nH]4)c(-c4c(F)cccc4F)c4nc(c(-c5c(F)cccc5F)c5ccc2[nH]5)C=C4)C=C3)cc1
REMARK SMILES IDX 5 1 4 2 3 3 2 4 1 5 27 6 28 7 80 8 29 9 79 10 30 11 31 12
REMARK SMILES IDX 32 13 73 14 33 15 78 16 72 17 74 18 34 19 77 20 71 21 70 22
REMARK SMILES IDX 35 24 61 25 44 26 60 27 45 28 48 29 59 30 75 31 46 32 47 33
REMARK SMILES IDX 58 35 76 36 49 37 36 38 37 39 42 40 38 41 39 42 41 43 43 44
REMARK SMILES IDX 40 45 62 46 63 47 68 48 64 49 65 50 67 51 69 52 66 53 50 54
REMARK SMILES IDX 51 55 56 56 52 57 53 58 55 59 57 60 54 61 6 62 7 63 8 64
REMARK SMILES IDX 9 65 10 66 11 67 12 68 23 69 26 70 24 71 25 72 13 73 14 74
REMARK SMILES IDX 22 75 15 76 17 77 16 78 18 79 21 80 19 81 20 82
REMARK H PARENT 74 23 48 34
REMARK Flexibility Score: inf
ROOT
ATOM      1  C   UNL A   1      31.950  30.757  26.818  1.00  0.00     0.202 C 
ENDROOT
BRANCH   1   2
ATOM      2  C   UNL A   1      31.424  32.197  27.049  1.00  0.00     0.261 C 
BRANCH   2   3
ATOM      3  O   UNL A   1      32.430  33.232  27.004  1.00  0.00    -0.460 OA
BRANCH   3   4
ATOM      4  C   UNL A   1      33.141  33.732  28.055  1.00  0.00     0.338 C 
ATOM      5  O   UNL A   1      32.711  34.680  28.702  1.00  0.00    -0.246 OA
BRANCH   4   6
ATOM      6  C   UNL A   1      34.452  33.141  28.426  1.00  0.00     0.060 A 
ATOM      7  C   UNL A   1      34.544  31.824  28.834  1.00  0.00     0.016 A 
ATOM      8  C   UNL A   1      35.635  33.871  28.342  1.00  0.00     0.016 A 
ATOM      9  C   UNL A   1      35.669  31.266  29.351  1.00  0.00     0.010 A 
ATOM     10  C   UNL A   1      36.844  33.274  28.731  1.00  0.00     0.010 A 
ATOM     11  C   UNL A   1      36.843  31.976  29.269  1.00  0.00    -0.014 A 
BRANCH  11  12
ATOM     12  C   UNL A   1      37.971  31.326  29.933  1.00  0.00     0.031 A 
ATOM     13  C   UNL A   1      38.100  31.531  31.403  1.00  0.00     0.074 A 
ATOM     14  C   UNL A   1      38.660  30.379  29.266  1.00  0.00     0.049 A 
ATOM     15  N   UNL A   1      39.002  31.072  32.220  1.00  0.00    -0.248 NA
ATOM     16  C   UNL A   1      37.059  32.356  32.046  1.00  0.00     0.031 C 
ATOM     17  C   UNL A   1      38.415  29.965  27.874  1.00  0.00     0.029 A 
ATOM     18  N   UNL A   1      39.658  29.548  29.682  1.00  0.00    -0.354 N 
ATOM     19  C   UNL A   1      38.678  31.608  33.457  1.00  0.00     0.074 A 
ATOM     20  C   UNL A   1      37.499  32.423  33.290  1.00  0.00     0.031 C 
ATOM     21  C   UNL A   1      39.230  28.946  27.566  1.00  0.00     0.029 A 
ATOM     22  C   UNL A   1      40.111  28.704  28.697  1.00  0.00     0.049 A 
ATOM     23  H   UNL A   1      40.018  29.551  30.598  1.00  0.00     0.167 HD
ATOM     24  C   UNL A   1      39.338  31.435  34.621  1.00  0.00     0.037 A 
ATOM     25  C   UNL A   1      41.163  27.869  28.711  1.00  0.00     0.037 A 
ATOM     26  C   UNL A   1      40.503  30.602  34.728  1.00  0.00     0.049 A 
ATOM     27  C   UNL A   1      41.961  27.806  29.983  1.00  0.00     0.074 A 
ATOM     28  C   UNL A   1      41.312  30.383  35.824  1.00  0.00     0.029 A 
ATOM     29  N   UNL A   1      41.025  29.851  33.680  1.00  0.00    -0.354 N 
ATOM     30  N   UNL A   1      41.729  28.393  31.135  1.00  0.00    -0.248 NA
ATOM     31  C   UNL A   1      43.168  26.975  29.959  1.00  0.00     0.031 C 
ATOM     32  C   UNL A   1      42.368  29.562  35.416  1.00  0.00     0.029 A 
ATOM     33  C   UNL A   1      42.164  29.190  34.094  1.00  0.00     0.049 A 
ATOM     34  H   UNL A   1      40.639  29.799  32.775  1.00  0.00     0.167 HD
ATOM     35  C   UNL A   1      42.737  27.971  31.987  1.00  0.00     0.074 A 
ATOM     36  C   UNL A   1      43.573  27.069  31.216  1.00  0.00     0.031 C 
ATOM     37  C   UNL A   1      42.954  28.290  33.289  1.00  0.00     0.037 A 
BRANCH  24  38
ATOM     38  C   UNL A   1      38.877  32.251  35.789  1.00  0.00     0.057 A 
ATOM     39  C   UNL A   1      39.242  33.591  35.974  1.00  0.00     0.134 A 
ATOM     40  C   UNL A   1      38.103  31.650  36.789  1.00  0.00     0.134 A 
ATOM     41  F   UNL A   1      40.021  34.216  35.077  1.00  0.00    -0.206 F 
ATOM     42  C   UNL A   1      38.882  34.292  37.127  1.00  0.00     0.040 A 
ATOM     43  C   UNL A   1      37.709  32.349  37.929  1.00  0.00     0.040 A 
ATOM     44  F   UNL A   1      37.738  30.363  36.687  1.00  0.00    -0.206 F 
ATOM     45  C   UNL A   1      38.108  33.672  38.106  1.00  0.00     0.006 A 
ENDBRANCH  24  38
BRANCH  25  46
ATOM     46  C   UNL A   1      41.551  27.104  27.499  1.00  0.00     0.057 A 
ATOM     47  C   UNL A   1      41.192  25.761  27.338  1.00  0.00     0.134 A 
ATOM     48  C   UNL A   1      42.326  27.683  26.483  1.00  0.00     0.134 A 
ATOM     49  F   UNL A   1      40.461  25.142  28.277  1.00  0.00    -0.206 F 
ATOM     50  C   UNL A   1      41.615  25.015  26.236  1.00  0.00     0.040 A 
ATOM     51  C   UNL A   1      42.728  26.958  25.360  1.00  0.00     0.040 A 
ATOM     52  F   UNL A   1      42.703  28.968  26.564  1.00  0.00    -0.206 F 
ATOM     53  C   UNL A   1      42.384  25.615  25.241  1.00  0.00     0.006 A 
ENDBRANCH  25  46
BRANCH  37  54
ATOM     54  C   UNL A   1      44.093  27.592  33.970  1.00  0.00     0.057 A 
ATOM     55  C   UNL A   1      45.377  28.143  34.043  1.00  0.00     0.134 A 
ATOM     56  C   UNL A   1      43.879  26.355  34.593  1.00  0.00     0.134 A 
ATOM     57  F   UNL A   1      45.648  29.320  33.457  1.00  0.00    -0.206 F 
ATOM     58  C   UNL A   1      46.420  27.470  34.679  1.00  0.00     0.040 A 
ATOM     59  C   UNL A   1      44.902  25.694  35.269  1.00  0.00     0.040 A 
ATOM     60  F   UNL A   1      42.666  25.780  34.572  1.00  0.00    -0.206 F 
ATOM     61  C   UNL A   1      46.180  26.246  35.301  1.00  0.00     0.006 A 
ENDBRANCH  37  54
ENDBRANCH  11  12
ENDBRANCH   4   6
ENDBRANCH   3   4
ENDBRANCH   2   3
ENDBRANCH   1   2
BRANCH   1  62
ATOM     62  O   UNL A   1      32.772  30.419  25.699  1.00  0.00    -0.374 OA
BRANCH  62  63
ATOM     63  C   UNL A   1      33.543  29.218  25.744  1.00  0.00     0.202 C 
BRANCH  63  64
ATOM     64  C   UNL A   1      33.521  28.539  24.390  1.00  0.00     0.261 C 
BRANCH  64  65
ATOM     65  O   UNL A   1      34.018  27.211  24.614  1.00  0.00    -0.463 OA
BRANCH  65  66
ATOM     66  C   UNL A   1      33.554  26.230  23.790  1.00  0.00     0.314 C 
ATOM     67  O   UNL A   1      33.597  26.326  22.571  1.00  0.00    -0.252 OA
BRANCH  66  68
ATOM     68  C   UNL A   1      32.997  24.981  24.609  1.00  0.00     0.096 C 
ATOM     69  C   UNL A   1      32.436  25.486  25.960  1.00  0.00     0.050 C 
ATOM     70  C   UNL A   1      31.634  24.729  23.910  1.00  0.00     0.179 C 
ATOM     71  C   UNL A   1      31.181  24.688  26.208  1.00  0.00     0.161 C 
ATOM     72  O   UNL A   1      30.676  24.332  24.921  1.00  0.00    -0.380 OA
BRANCH  68  73
ATOM     73  C   UNL A   1      34.372  23.740  24.593  1.00  0.00     0.014 C 
ATOM     74  C   UNL A   1      34.865  21.703  23.979  1.00  0.00     0.033 C 
ATOM     75  C   UNL A   1      34.923  24.023  26.020  1.00  0.00     0.043 C 
ATOM     76  C   UNL A   1      35.582  20.802  25.152  1.00  0.00     0.161 C 
ATOM     77  C   UNL A   1      35.130  22.738  25.527  1.00  0.00     0.094 C 
ATOM     78  O   UNL A   1      35.763  21.716  26.202  1.00  0.00    -0.372 OA
ATOM     79  C   UNL A   1      33.265  22.186  25.030  1.00  0.00     0.066 C 
ATOM     80  C   UNL A   1      36.187  23.207  23.899  1.00  0.00     0.195 C 
ATOM     81  C   UNL A   1      33.254  22.640  23.135  1.00  0.00     0.163 C 
ATOM     82  O   UNL A   1      34.878  23.252  22.594  1.00  0.00    -0.378 OA
ENDBRANCH  68  73
ENDBRANCH  66  68
ENDBRANCH  65  66
ENDBRANCH  64  65
ENDBRANCH  63  64
ENDBRANCH  62  63
ENDBRANCH   1  62
TORSDOF 15
ENDMDL
MODEL 3
REMARK VINA RESULT:     -11.5      0.906      2.123
REMARK SMILES O=C(OCCOCCOC(=O)[C@@]1([C@@H]2CCO[C@@]3(CCOC3)C2)CCOC1)c1ccc(-c2c3nc(c(-c4c(F)cccc4F)c4ccc([nH]4)c(-c4c(F)cccc4F)c4nc(c(-c5c(F)cccc5F)c5ccc2[nH]5)C=C4)C=C3)cc1
REMARK SMILES IDX 5 1 4 2 3 3 2 4 1 5 27 6 28 7 80 8 29 9 79 10 30 11 31 12
REMARK SMILES IDX 32 13 73 14 33 15 78 16 72 17 74 18 34 19 77 20 71 21 70 22
REMARK SMILES IDX 35 24 61 25 44 26 60 27 45 28 48 29 59 30 75 31 46 32 47 33
REMARK SMILES IDX 58 35 76 36 49 37 36 38 37 39 42 40 38 41 39 42 41 43 43 44
REMARK SMILES IDX 40 45 62 46 63 47 68 48 64 49 65 50 67 51 69 52 66 53 50 54
REMARK SMILES IDX 51 55 56 56 52 57 53 58 55 59 57 60 54 61 6 62 7 63 8 64
REMARK SMILES IDX 9 65 10 66 11 67 12 68 23 69 26 70 24 71 25 72 13 73 14 74
REMARK SMILES IDX 22 75 15 76 17 77 16 78 18 79 21 80 19 81 20 82
REMARK H PARENT 74 23 48 34
REMARK Flexibility Score: inf
ROOT
ATOM      1  C   UNL A   1      32.220  31.007  26.604  1.00  0.00     0.202 C 
ENDROOT
BRANCH   1   2
ATOM      2  C   UNL A   1      31.520  32.346  26.950  1.00  0.00     0.261 C 
BRANCH   2   3
ATOM      3  O   UNL A   1      32.404  33.474  27.127  1.00  0.00    -0.460 OA
BRANCH   3   4
ATOM      4  C   UNL A   1      33.046  33.840  28.273  1.00  0.00     0.338 C 
ATOM      5  O   UNL A   1      32.550  34.672  29.025  1.00  0.00    -0.246 OA
BRANCH   4   6
ATOM      6  C   UNL A   1      34.362  33.246  28.623  1.00  0.00     0.060 A 
ATOM      7  C   UNL A   1      34.454  31.935  29.048  1.00  0.00     0.016 A 
ATOM      8  C   UNL A   1      35.547  33.966  28.500  1.00  0.00     0.016 A 
ATOM      9  C   UNL A   1      35.587  31.376  29.547  1.00  0.00     0.010 A 
ATOM     10  C   UNL A   1      36.761  33.366  28.870  1.00  0.00     0.010 A 
ATOM     11  C   UNL A   1      36.763  32.077  29.427  1.00  0.00    -0.014 A 
BRANCH  11  12
ATOM     12  C   UNL A   1      37.903  31.428  30.075  1.00  0.00     0.031 A 
ATOM     13  C   UNL A   1      38.043  31.621  31.546  1.00  0.00     0.074 A 
ATOM     14  C   UNL A   1      38.592  30.493  29.393  1.00  0.00     0.049 A 
ATOM     15  N   UNL A   1      38.956  31.162  32.350  1.00  0.00    -0.248 NA
ATOM     16  C   UNL A   1      37.003  32.433  32.205  1.00  0.00     0.031 C 
ATOM     17  C   UNL A   1      38.337  30.090  28.000  1.00  0.00     0.029 A 
ATOM     18  N   UNL A   1      39.599  29.665  29.791  1.00  0.00    -0.354 N 
ATOM     19  C   UNL A   1      38.640  31.684  33.594  1.00  0.00     0.074 A 
ATOM     20  C   UNL A   1      37.454  32.492  33.446  1.00  0.00     0.031 C 
ATOM     21  C   UNL A   1      39.156  29.079  27.675  1.00  0.00     0.029 A 
ATOM     22  C   UNL A   1      40.049  28.834  28.794  1.00  0.00     0.049 A 
ATOM     23  H   UNL A   1      39.968  29.663  30.705  1.00  0.00     0.167 HD
ATOM     24  C   UNL A   1      39.313  31.504  34.751  1.00  0.00     0.037 A 
ATOM     25  C   UNL A   1      41.108  28.006  28.792  1.00  0.00     0.037 A 
ATOM     26  C   UNL A   1      40.484  30.679  34.840  1.00  0.00     0.049 A 
ATOM     27  C   UNL A   1      41.917  27.937  30.055  1.00  0.00     0.074 A 
ATOM     28  C   UNL A   1      41.305  30.456  35.925  1.00  0.00     0.029 A 
ATOM     29  N   UNL A   1      41.002  29.942  33.779  1.00  0.00    -0.354 N 
ATOM     30  N   UNL A   1      41.692  28.512  31.215  1.00  0.00    -0.248 NA
ATOM     31  C   UNL A   1      43.130  27.115  30.013  1.00  0.00     0.031 C 
ATOM     32  C   UNL A   1      42.362  29.646  35.501  1.00  0.00     0.029 A 
ATOM     33  C   UNL A   1      42.149  29.285  34.177  1.00  0.00     0.049 A 
ATOM     34  H   UNL A   1      40.607  29.895  32.878  1.00  0.00     0.167 HD
ATOM     35  C   UNL A   1      42.711  28.089  32.054  1.00  0.00     0.074 A 
ATOM     36  C   UNL A   1      43.546  27.201  31.267  1.00  0.00     0.031 C 
ATOM     37  C   UNL A   1      42.938  28.398  33.356  1.00  0.00     0.037 A 
BRANCH  24  38
ATOM     38  C   UNL A   1      38.857  32.307  35.930  1.00  0.00     0.057 A 
ATOM     39  C   UNL A   1      39.205  33.650  36.119  1.00  0.00     0.134 A 
ATOM     40  C   UNL A   1      38.106  31.688  36.938  1.00  0.00     0.134 A 
ATOM     41  F   UNL A   1      39.962  34.292  35.215  1.00  0.00    -0.206 F 
ATOM     42  C   UNL A   1      38.852  34.339  37.282  1.00  0.00     0.040 A 
ATOM     43  C   UNL A   1      37.717  32.375  38.088  1.00  0.00     0.040 A 
ATOM     44  F   UNL A   1      37.757  30.397  36.832  1.00  0.00    -0.206 F 
ATOM     45  C   UNL A   1      38.101  33.702  38.268  1.00  0.00     0.006 A 
ENDBRANCH  24  38
BRANCH  25  46
ATOM     46  C   UNL A   1      41.490  27.255  27.569  1.00  0.00     0.057 A 
ATOM     47  C   UNL A   1      42.323  27.820  26.596  1.00  0.00     0.134 A 
ATOM     48  C   UNL A   1      41.001  25.965  27.318  1.00  0.00     0.134 A 
ATOM     49  F   UNL A   1      42.817  29.055  26.768  1.00  0.00    -0.206 F 
ATOM     50  C   UNL A   1      42.627  27.149  25.410  1.00  0.00     0.040 A 
ATOM     51  C   UNL A   1      41.323  25.269  26.152  1.00  0.00     0.040 A 
ATOM     52  F   UNL A   1      40.202  25.356  28.207  1.00  0.00    -0.206 F 
ATOM     53  C   UNL A   1      42.128  25.868  25.186  1.00  0.00     0.006 A 
ENDBRANCH  25  46
BRANCH  37  54
ATOM     54  C   UNL A   1      44.088  27.701  34.020  1.00  0.00     0.057 A 
ATOM     55  C   UNL A   1      45.367  28.264  34.091  1.00  0.00     0.134 A 
ATOM     56  C   UNL A   1      43.890  26.455  34.630  1.00  0.00     0.134 A 
ATOM     57  F   UNL A   1      45.623  29.450  33.518  1.00  0.00    -0.206 F 
ATOM     58  C   UNL A   1      46.421  27.592  34.711  1.00  0.00     0.040 A 
ATOM     59  C   UNL A   1      44.923  25.795  35.290  1.00  0.00     0.040 A 
ATOM     60  F   UNL A   1      42.682  25.870  34.610  1.00  0.00    -0.206 F 
ATOM     61  C   UNL A   1      46.196  26.359  35.319  1.00  0.00     0.006 A 
ENDBRANCH  37  54
ENDBRANCH  11  12
ENDBRANCH   4   6
ENDBRANCH   3   4
ENDBRANCH   2   3
ENDBRANCH   1   2
BRANCH   1  62
ATOM     62  O   UNL A   1      31.620  29.741  26.887  1.00  0.00    -0.374 OA
BRANCH  62  63
ATOM     63  C   UNL A   1      32.462  28.621  27.160  1.00  0.00     0.202 C 
BRANCH  63  64
ATOM     64  C   UNL A   1      31.770  27.339  26.743  1.00  0.00     0.261 C 
BRANCH  64  65
ATOM     65  O   UNL A   1      32.260  27.045  25.426  1.00  0.00    -0.463 OA
BRANCH  65  66
ATOM     66  C   UNL A   1      31.482  26.248  24.641  1.00  0.00     0.314 C 
ATOM     67  O   UNL A   1      30.264  26.219  24.745  1.00  0.00    -0.252 OA
BRANCH  66  68
ATOM     68  C   UNL A   1      32.350  25.416  23.594  1.00  0.00     0.096 C 
ATOM     69  C   UNL A   1      31.659  25.490  22.211  1.00  0.00     0.050 C 
ATOM     70  C   UNL A   1      33.508  26.404  23.290  1.00  0.00     0.179 C 
ATOM     71  C   UNL A   1      32.772  25.636  21.203  1.00  0.00     0.161 C 
ATOM     72  O   UNL A   1      33.843  26.288  21.886  1.00  0.00    -0.380 OA
BRANCH  68  73
ATOM     73  C   UNL A   1      32.627  23.769  24.395  1.00  0.00     0.014 C 
ATOM     74  C   UNL A   1      34.194  22.437  25.128  1.00  0.00     0.033 C 
ATOM     75  C   UNL A   1      31.568  22.965  23.587  1.00  0.00     0.043 C 
ATOM     76  C   UNL A   1      34.065  20.888  24.592  1.00  0.00     0.161 C 
ATOM     77  C   UNL A   1      32.650  22.237  24.072  1.00  0.00     0.094 C 
ATOM     78  O   UNL A   1      32.855  20.887  23.882  1.00  0.00    -0.372 OA
ATOM     79  C   UNL A   1      34.204  23.280  23.343  1.00  0.00     0.066 C 
ATOM     80  C   UNL A   1      32.407  22.599  26.021  1.00  0.00     0.195 C 
ATOM     81  C   UNL A   1      34.611  24.423  24.869  1.00  0.00     0.163 C 
ATOM     82  O   UNL A   1      33.542  24.034  26.287  1.00  0.00    -0.378 OA
ENDBRANCH  68  73
ENDBRANCH  66  68
ENDBRANCH  65  66
ENDBRANCH  64  65
ENDBRANCH  63  64
ENDBRANCH  62  63
ENDBRANCH   1  62
TORSDOF 15
ENDMDL
