MODEL 1
REMARK VINA RESULT:     -10.5      0.000      0.000
REMARK SMILES C[C@H]1OCC[C@H]1c1nnnn1CC(=O)OCCOCCOC(=O)c1ccc(-c2c3nc(c(-c4c(F)cccc4F)c4ccc([nH]4)c(-c4c(F)cccc4F)c4nc(c(-c5c(F)cccc5F)c5ccc2[nH]5)C=C4)C=C3)cc1
REMARK SMILES IDX 18 1 17 2 16 3 15 4 13 5 14 6 12 7 11 8 7 9 8 10 9 11 10 12
REMARK SMILES IDX 6 13 1 14 2 15 3 16 4 17 5 18 19 19 20 20 21 21 22 22 23 23
REMARK SMILES IDX 24 24 25 25 77 26 26 27 76 28 27 29 28 30 29 31 70 32 30 33
REMARK SMILES IDX 75 34 69 35 71 36 31 37 74 38 68 39 67 40 32 42 58 43 41 44
REMARK SMILES IDX 57 45 42 46 45 47 56 48 72 49 43 50 44 51 55 53 73 54 46 55
REMARK SMILES IDX 33 56 34 57 39 58 35 59 36 60 38 61 40 62 37 63 59 64 60 65
REMARK SMILES IDX 65 66 61 67 62 68 64 69 66 70 63 71 47 72 48 73 53 74 49 75
REMARK SMILES IDX 50 76 52 77 54 78 51 79
REMARK H PARENT 71 41 45 52
REMARK Flexibility Score: inf
ROOT
ATOM      1  O   UNL A   1      40.463  21.625  25.918  1.00  0.00    -0.374 OA
ENDROOT
BRANCH   1   2
ATOM      2  C   UNL A   1      39.149  22.145  26.097  1.00  0.00     0.202 C 
BRANCH   2   3
ATOM      3  C   UNL A   1      37.969  21.428  25.440  1.00  0.00     0.261 C 
BRANCH   3   4
ATOM      4  O   UNL A   1      37.419  22.144  24.323  1.00  0.00    -0.462 OA
BRANCH   4   5
ATOM      5  C   UNL A   1      36.292  22.832  24.620  1.00  0.00     0.327 C 
ATOM      6  O   UNL A   1      36.262  23.894  25.238  1.00  0.00    -0.250 OA
BRANCH   5   7
ATOM      7  C   UNL A   1      35.023  22.191  24.187  1.00  0.00     0.270 C 
BRANCH   7   8
ATOM      8  N   UNL A   1      34.054  22.984  23.466  1.00  0.00    -0.218 N 
ATOM      9  C   UNL A   1      32.992  23.690  23.988  1.00  0.00     0.157 A 
ATOM     10  N   UNL A   1      32.557  24.508  23.050  1.00  0.00    -0.113 NA
ATOM     11  N   UNL A   1      33.400  24.357  21.981  1.00  0.00    -0.024 NA
ATOM     12  N   UNL A   1      34.341  23.463  22.243  1.00  0.00    -0.044 NA
BRANCH   9  13
ATOM     13  C   UNL A   1      32.455  23.516  25.372  1.00  0.00     0.090 C 
ATOM     14  C   UNL A   1      33.509  25.898  25.911  1.00  0.00     0.039 C 
ATOM     15  C   UNL A   1      32.667  24.700  26.346  1.00  0.00     0.126 C 
ATOM     16  O   UNL A   1      31.365  25.218  26.683  1.00  0.00    -0.378 OA
ATOM     17  C   UNL A   1      30.438  24.717  25.721  1.00  0.00     0.161 C 
ATOM     18  C   UNL A   1      30.941  23.332  25.393  1.00  0.00     0.043 C 
ENDBRANCH   9  13
ENDBRANCH   7   8
ENDBRANCH   5   7
ENDBRANCH   4   5
ENDBRANCH   3   4
ENDBRANCH   2   3
ENDBRANCH   1   2
BRANCH   1  19
ATOM     19  C   UNL A   1      40.918  20.481  26.638  1.00  0.00     0.202 C 
BRANCH  19  20
ATOM     20  C   UNL A   1      42.384  20.083  26.543  1.00  0.00     0.261 C 
BRANCH  20  21
ATOM     21  O   UNL A   1      42.796  20.072  25.186  1.00  0.00    -0.460 OA
BRANCH  21  22
ATOM     22  C   UNL A   1      44.130  20.006  25.007  1.00  0.00     0.338 C 
ATOM     23  O   UNL A   1      44.835  19.020  25.049  1.00  0.00    -0.246 OA
BRANCH  22  24
ATOM     24  C   UNL A   1      44.640  21.374  24.829  1.00  0.00     0.060 A 
ATOM     25  C   UNL A   1      45.685  21.691  25.693  1.00  0.00     0.016 A 
ATOM     26  C   UNL A   1      43.811  22.346  24.252  1.00  0.00     0.016 A 
ATOM     27  C   UNL A   1      45.625  22.911  26.307  1.00  0.00     0.010 A 
ATOM     28  C   UNL A   1      43.767  23.577  24.850  1.00  0.00     0.010 A 
ATOM     29  C   UNL A   1      44.577  23.771  25.963  1.00  0.00    -0.014 A 
BRANCH  29  30
ATOM     30  C   UNL A   1      44.370  24.919  26.807  1.00  0.00     0.031 A 
ATOM     31  C   UNL A   1      45.484  25.875  26.703  1.00  0.00     0.074 A 
ATOM     32  C   UNL A   1      43.257  25.078  27.543  1.00  0.00     0.049 A 
ATOM     33  N   UNL A   1      46.398  26.119  27.581  1.00  0.00    -0.248 NA
ATOM     34  C   UNL A   1      45.748  26.443  25.371  1.00  0.00     0.031 C 
ATOM     35  C   UNL A   1      42.012  24.306  27.528  1.00  0.00     0.029 A 
ATOM     36  N   UNL A   1      42.990  26.077  28.423  1.00  0.00    -0.354 N 
ATOM     37  C   UNL A   1      47.232  27.049  26.979  1.00  0.00     0.074 A 
ATOM     38  C   UNL A   1      46.926  27.029  25.574  1.00  0.00     0.031 C 
ATOM     39  C   UNL A   1      41.049  25.007  28.171  1.00  0.00     0.029 A 
ATOM     40  C   UNL A   1      41.644  26.198  28.747  1.00  0.00     0.049 A 
ATOM     41  H   UNL A   1      43.688  26.662  28.800  1.00  0.00     0.167 HD
ATOM     42  C   UNL A   1      47.896  27.972  27.720  1.00  0.00     0.037 A 
ATOM     43  C   UNL A   1      41.102  27.301  29.322  1.00  0.00     0.037 A 
ATOM     44  C   UNL A   1      47.990  27.575  29.102  1.00  0.00     0.049 A 
ATOM     45  C   UNL A   1      42.223  28.030  29.990  1.00  0.00     0.074 A 
ATOM     46  C   UNL A   1      48.549  26.493  29.757  1.00  0.00     0.029 A 
ATOM     47  N   UNL A   1      47.105  28.133  29.994  1.00  0.00    -0.354 N 
ATOM     48  N   UNL A   1      42.882  27.545  31.011  1.00  0.00    -0.248 NA
ATOM     49  C   UNL A   1      42.944  29.019  29.197  1.00  0.00     0.031 C 
ATOM     50  C   UNL A   1      47.619  26.167  30.789  1.00  0.00     0.029 A 
ATOM     51  C   UNL A   1      46.588  27.106  30.745  1.00  0.00     0.049 A 
ATOM     52  H   UNL A   1      46.884  29.088  30.078  1.00  0.00     0.167 HD
ATOM     53  C   UNL A   1      44.214  27.849  30.757  1.00  0.00     0.074 A 
ATOM     54  C   UNL A   1      44.184  28.794  29.642  1.00  0.00     0.031 C 
ATOM     55  C   UNL A   1      45.236  27.092  31.258  1.00  0.00     0.037 A 
BRANCH  42  56
ATOM     56  C   UNL A   1      48.089  29.390  27.259  1.00  0.00     0.057 A 
ATOM     57  C   UNL A   1      49.373  29.953  27.305  1.00  0.00     0.134 A 
ATOM     58  C   UNL A   1      47.037  30.308  27.043  1.00  0.00     0.134 A 
ATOM     59  F   UNL A   1      50.452  29.186  27.524  1.00  0.00    -0.206 F 
ATOM     60  C   UNL A   1      49.585  31.332  27.209  1.00  0.00     0.040 A 
ATOM     61  C   UNL A   1      47.243  31.678  26.890  1.00  0.00     0.040 A 
ATOM     62  F   UNL A   1      45.747  29.953  27.072  1.00  0.00    -0.206 F 
ATOM     63  C   UNL A   1      48.518  32.200  27.007  1.00  0.00     0.006 A 
ENDBRANCH  42  56
BRANCH  43  64
ATOM     64  C   UNL A   1      39.822  27.947  28.940  1.00  0.00     0.057 A 
ATOM     65  C   UNL A   1      38.774  28.105  29.856  1.00  0.00     0.134 A 
ATOM     66  C   UNL A   1      39.684  28.649  27.726  1.00  0.00     0.134 A 
ATOM     67  F   UNL A   1      38.836  27.527  31.065  1.00  0.00    -0.206 F 
ATOM     68  C   UNL A   1      37.654  28.906  29.579  1.00  0.00     0.040 A 
ATOM     69  C   UNL A   1      38.572  29.444  27.434  1.00  0.00     0.040 A 
ATOM     70  F   UNL A   1      40.665  28.658  26.812  1.00  0.00    -0.206 F 
ATOM     71  C   UNL A   1      37.553  29.582  28.366  1.00  0.00     0.006 A 
ENDBRANCH  43  64
BRANCH  55  72
ATOM     72  C   UNL A   1      44.900  25.990  32.229  1.00  0.00     0.057 A 
ATOM     73  C   UNL A   1      44.595  24.677  31.837  1.00  0.00     0.134 A 
ATOM     74  C   UNL A   1      45.090  26.209  33.597  1.00  0.00     0.134 A 
ATOM     75  F   UNL A   1      44.499  24.347  30.544  1.00  0.00    -0.206 F 
ATOM     76  C   UNL A   1      44.452  23.640  32.766  1.00  0.00     0.040 A 
ATOM     77  C   UNL A   1      44.980  25.176  34.532  1.00  0.00     0.040 A 
ATOM     78  F   UNL A   1      45.448  27.424  34.041  1.00  0.00    -0.206 F 
ATOM     79  C   UNL A   1      44.655  23.887  34.119  1.00  0.00     0.006 A 
ENDBRANCH  55  72
ENDBRANCH  29  30
ENDBRANCH  22  24
ENDBRANCH  21  22
ENDBRANCH  20  21
ENDBRANCH  19  20
ENDBRANCH   1  19
TORSDOF 16
ENDMDL
MODEL 2
REMARK VINA RESULT:     -10.2      4.473      7.242
REMARK SMILES C[C@H]1OCC[C@H]1c1nnnn1CC(=O)OCCOCCOC(=O)c1ccc(-c2c3nc(c(-c4c(F)cccc4F)c4ccc([nH]4)c(-c4c(F)cccc4F)c4nc(c(-c5c(F)cccc5F)c5ccc2[nH]5)C=C4)C=C3)cc1
REMARK SMILES IDX 18 1 17 2 16 3 15 4 13 5 14 6 12 7 11 8 7 9 8 10 9 11 10 12
REMARK SMILES IDX 6 13 1 14 2 15 3 16 4 17 5 18 19 19 20 20 21 21 22 22 23 23
REMARK SMILES IDX 24 24 25 25 77 26 26 27 76 28 27 29 28 30 29 31 70 32 30 33
REMARK SMILES IDX 75 34 69 35 71 36 31 37 74 38 68 39 67 40 32 42 58 43 41 44
REMARK SMILES IDX 57 45 42 46 45 47 56 48 72 49 43 50 44 51 55 53 73 54 46 55
REMARK SMILES IDX 33 56 34 57 39 58 35 59 36 60 38 61 40 62 37 63 59 64 60 65
REMARK SMILES IDX 65 66 61 67 62 68 64 69 66 70 63 71 47 72 48 73 53 74 49 75
REMARK SMILES IDX 50 76 52 77 54 78 51 79
REMARK H PARENT 71 41 45 52
REMARK Flexibility Score: inf
ROOT
ATOM      1  O   UNL A   1      42.092  20.094  25.760  1.00  0.00    -0.374 OA
ENDROOT
BRANCH   1   2
ATOM      2  C   UNL A   1      42.861  18.895  25.747  1.00  0.00     0.202 C 
BRANCH   2   3
ATOM      3  C   UNL A   1      44.168  18.857  24.953  1.00  0.00     0.261 C 
BRANCH   3   4
ATOM      4  O   UNL A   1      44.471  20.097  24.296  1.00  0.00    -0.462 OA
BRANCH   4   5
ATOM      5  C   UNL A   1      45.482  20.786  24.877  1.00  0.00     0.327 C 
ATOM      6  O   UNL A   1      46.634  20.374  24.991  1.00  0.00    -0.250 OA
BRANCH   5   7
ATOM      7  C   UNL A   1      45.109  22.109  25.440  1.00  0.00     0.270 C 
BRANCH   7   8
ATOM      8  N   UNL A   1      45.674  23.301  24.850  1.00  0.00    -0.218 N 
ATOM      9  C   UNL A   1      45.561  24.596  25.305  1.00  0.00     0.157 A 
ATOM     10  N   UNL A   1      46.462  25.321  24.671  1.00  0.00    -0.113 NA
ATOM     11  N   UNL A   1      47.174  24.455  23.884  1.00  0.00    -0.024 NA
ATOM     12  N   UNL A   1      46.729  23.215  24.022  1.00  0.00    -0.044 NA
BRANCH   9  13
ATOM     13  C   UNL A   1      44.572  25.054  26.326  1.00  0.00     0.090 C 
ATOM     14  C   UNL A   1      46.371  24.352  28.155  1.00  0.00     0.039 C 
ATOM     15  C   UNL A   1      45.029  24.990  27.804  1.00  0.00     0.126 C 
ATOM     16  O   UNL A   1      45.079  26.343  28.298  1.00  0.00    -0.378 OA
ATOM     17  C   UNL A   1      45.072  27.216  27.169  1.00  0.00     0.161 C 
ATOM     18  C   UNL A   1      44.194  26.523  26.157  1.00  0.00     0.043 C 
ENDBRANCH   9  13
ENDBRANCH   7   8
ENDBRANCH   5   7
ENDBRANCH   4   5
ENDBRANCH   3   4
ENDBRANCH   2   3
ENDBRANCH   1   2
BRANCH   1  19
ATOM     19  C   UNL A   1      41.021  20.284  26.684  1.00  0.00     0.202 C 
BRANCH  19  20
ATOM     20  C   UNL A   1      40.050  21.434  26.462  1.00  0.00     0.261 C 
BRANCH  20  21
ATOM     21  O   UNL A   1      40.352  22.501  27.345  1.00  0.00    -0.460 OA
BRANCH  21  22
ATOM     22  C   UNL A   1      39.696  23.649  27.079  1.00  0.00     0.338 C 
ATOM     23  O   UNL A   1      38.521  23.784  26.811  1.00  0.00    -0.246 OA
BRANCH  22  24
ATOM     24  C   UNL A   1      40.671  24.749  27.081  1.00  0.00     0.060 A 
ATOM     25  C   UNL A   1      41.385  24.853  28.272  1.00  0.00     0.016 A 
ATOM     26  C   UNL A   1      40.485  25.834  26.212  1.00  0.00     0.016 A 
ATOM     27  C   UNL A   1      41.535  26.108  28.792  1.00  0.00     0.010 A 
ATOM     28  C   UNL A   1      40.658  27.092  26.723  1.00  0.00     0.010 A 
ATOM     29  C   UNL A   1      41.037  27.190  28.056  1.00  0.00    -0.014 A 
BRANCH  29  30
ATOM     30  C   UNL A   1      40.953  28.457  28.733  1.00  0.00     0.031 A 
ATOM     31  C   UNL A   1      42.078  29.337  28.377  1.00  0.00     0.074 A 
ATOM     32  C   UNL A   1      39.928  28.772  29.543  1.00  0.00     0.049 A 
ATOM     33  N   UNL A   1      43.084  29.666  29.114  1.00  0.00    -0.248 NA
ATOM     34  C   UNL A   1      42.218  29.690  26.956  1.00  0.00     0.031 C 
ATOM     35  C   UNL A   1      38.666  28.061  29.768  1.00  0.00     0.029 A 
ATOM     36  N   UNL A   1      39.784  29.900  30.285  1.00  0.00    -0.354 N 
ATOM     37  C   UNL A   1      43.878  30.460  28.299  1.00  0.00     0.074 A 
ATOM     38  C   UNL A   1      43.427  30.247  26.950  1.00  0.00     0.031 C 
ATOM     39  C   UNL A   1      37.796  28.891  30.390  1.00  0.00     0.029 A 
ATOM     40  C   UNL A   1      38.482  30.127  30.718  1.00  0.00     0.049 A 
ATOM     41  H   UNL A   1      40.533  30.503  30.498  1.00  0.00     0.167 HD
ATOM     42  C   UNL A   1      44.643  31.452  28.823  1.00  0.00     0.037 A 
ATOM     43  C   UNL A   1      38.036  31.326  31.170  1.00  0.00     0.037 A 
ATOM     44  C   UNL A   1      44.868  31.259  30.233  1.00  0.00     0.049 A 
ATOM     45  C   UNL A   1      39.241  32.094  31.607  1.00  0.00     0.074 A 
ATOM     46  C   UNL A   1      45.461  30.261  30.985  1.00  0.00     0.029 A 
ATOM     47  N   UNL A   1      44.098  31.980  31.114  1.00  0.00    -0.354 N 
ATOM     48  N   UNL A   1      39.988  31.736  32.620  1.00  0.00    -0.248 NA
ATOM     49  C   UNL A   1      39.904  32.923  30.607  1.00  0.00     0.031 C 
ATOM     50  C   UNL A   1      44.634  30.132  32.142  1.00  0.00     0.029 A 
ATOM     51  C   UNL A   1      43.632  31.099  32.058  1.00  0.00     0.049 A 
ATOM     52  H   UNL A   1      43.914  32.946  31.074  1.00  0.00     0.167 HD
ATOM     53  C   UNL A   1      41.295  31.940  32.192  1.00  0.00     0.074 A 
ATOM     54  C   UNL A   1      41.177  32.711  30.956  1.00  0.00     0.031 C 
ATOM     55  C   UNL A   1      42.341  31.220  32.698  1.00  0.00     0.037 A 
BRANCH  42  56
ATOM     56  C   UNL A   1      44.828  32.777  28.137  1.00  0.00     0.057 A 
ATOM     57  C   UNL A   1      43.787  33.716  28.175  1.00  0.00     0.134 A 
ATOM     58  C   UNL A   1      45.859  33.059  27.214  1.00  0.00     0.134 A 
ATOM     59  F   UNL A   1      42.740  33.548  28.999  1.00  0.00    -0.206 F 
ATOM     60  C   UNL A   1      43.743  34.815  27.312  1.00  0.00     0.040 A 
ATOM     61  C   UNL A   1      45.854  34.182  26.389  1.00  0.00     0.040 A 
ATOM     62  F   UNL A   1      46.874  32.218  26.979  1.00  0.00    -0.206 F 
ATOM     63  C   UNL A   1      44.776  35.048  26.411  1.00  0.00     0.006 A 
ENDBRANCH  42  56
BRANCH  43  64
ATOM     64  C   UNL A   1      36.742  31.964  30.823  1.00  0.00     0.057 A 
ATOM     65  C   UNL A   1      35.789  32.278  31.801  1.00  0.00     0.134 A 
ATOM     66  C   UNL A   1      36.508  32.508  29.545  1.00  0.00     0.134 A 
ATOM     67  F   UNL A   1      35.950  31.860  33.065  1.00  0.00    -0.206 F 
ATOM     68  C   UNL A   1      34.669  33.079  31.523  1.00  0.00     0.040 A 
ATOM     69  C   UNL A   1      35.394  33.300  29.251  1.00  0.00     0.040 A 
ATOM     70  F   UNL A   1      37.399  32.362  28.553  1.00  0.00    -0.206 F 
ATOM     71  C   UNL A   1      34.472  33.595  30.246  1.00  0.00     0.006 A 
ENDBRANCH  43  64
BRANCH  55  72
ATOM     72  C   UNL A   1      42.076  30.290  33.853  1.00  0.00     0.057 A 
ATOM     73  C   UNL A   1      41.707  28.943  33.696  1.00  0.00     0.134 A 
ATOM     74  C   UNL A   1      42.400  30.705  35.148  1.00  0.00     0.134 A 
ATOM     75  F   UNL A   1      41.482  28.427  32.483  1.00  0.00    -0.206 F 
ATOM     76  C   UNL A   1      41.632  28.063  34.781  1.00  0.00     0.040 A 
ATOM     77  C   UNL A   1      42.358  29.828  36.236  1.00  0.00     0.040 A 
ATOM     78  F   UNL A   1      42.823  31.960  35.368  1.00  0.00    -0.206 F 
ATOM     79  C   UNL A   1      41.968  28.504  36.057  1.00  0.00     0.006 A 
ENDBRANCH  55  72
ENDBRANCH  29  30
ENDBRANCH  22  24
ENDBRANCH  21  22
ENDBRANCH  20  21
ENDBRANCH  19  20
ENDBRANCH   1  19
TORSDOF 16
ENDMDL
MODEL 3
REMARK VINA RESULT:     -10.2      5.328     10.375
REMARK SMILES C[C@H]1OCC[C@H]1c1nnnn1CC(=O)OCCOCCOC(=O)c1ccc(-c2c3nc(c(-c4c(F)cccc4F)c4ccc([nH]4)c(-c4c(F)cccc4F)c4nc(c(-c5c(F)cccc5F)c5ccc2[nH]5)C=C4)C=C3)cc1
REMARK SMILES IDX 18 1 17 2 16 3 15 4 13 5 14 6 12 7 11 8 7 9 8 10 9 11 10 12
REMARK SMILES IDX 6 13 1 14 2 15 3 16 4 17 5 18 19 19 20 20 21 21 22 22 23 23
REMARK SMILES IDX 24 24 25 25 77 26 26 27 76 28 27 29 28 30 29 31 70 32 30 33
REMARK SMILES IDX 75 34 69 35 71 36 31 37 74 38 68 39 67 40 32 42 58 43 41 44
REMARK SMILES IDX 57 45 42 46 45 47 56 48 72 49 43 50 44 51 55 53 73 54 46 55
REMARK SMILES IDX 33 56 34 57 39 58 35 59 36 60 38 61 40 62 37 63 59 64 60 65
REMARK SMILES IDX 65 66 61 67 62 68 64 69 66 70 63 71 47 72 48 73 53 74 49 75
REMARK SMILES IDX 50 76 52 77 54 78 51 79
REMARK H PARENT 71 41 45 52
REMARK Flexibility Score: inf
ROOT
ATOM      1  O   UNL A   1      33.220  33.538  28.132  1.00  0.00    -0.374 OA
ENDROOT
BRANCH   1   2
ATOM      2  C   UNL A   1      34.035  32.470  28.606  1.00  0.00     0.202 C 
BRANCH   2   3
ATOM      3  C   UNL A   1      34.519  31.407  27.618  1.00  0.00     0.261 C 
BRANCH   3   4
ATOM      4  O   UNL A   1      33.886  30.131  27.800  1.00  0.00    -0.462 OA
BRANCH   4   5
ATOM      5  C   UNL A   1      33.245  29.681  26.696  1.00  0.00     0.327 C 
ATOM      6  O   UNL A   1      32.504  30.362  25.991  1.00  0.00    -0.250 OA
BRANCH   5   7
ATOM      7  C   UNL A   1      33.450  28.243  26.384  1.00  0.00     0.270 C 
BRANCH   7   8
ATOM      8  N   UNL A   1      32.299  27.429  26.067  1.00  0.00    -0.218 N 
ATOM      9  C   UNL A   1      32.155  26.554  25.012  1.00  0.00     0.157 A 
ATOM     10  N   UNL A   1      31.103  25.800  25.261  1.00  0.00    -0.113 NA
ATOM     11  N   UNL A   1      30.648  26.163  26.501  1.00  0.00    -0.024 NA
ATOM     12  N   UNL A   1      31.398  27.124  27.017  1.00  0.00    -0.044 NA
BRANCH   9  13
ATOM     13  C   UNL A   1      33.050  26.511  23.816  1.00  0.00     0.090 C 
ATOM     14  C   UNL A   1      34.449  24.665  25.123  1.00  0.00     0.039 C 
ATOM     15  C   UNL A   1      34.200  25.475  23.853  1.00  0.00     0.126 C 
ATOM     16  O   UNL A   1      33.951  24.520  22.804  1.00  0.00    -0.378 OA
ATOM     17  C   UNL A   1      32.589  24.661  22.403  1.00  0.00     0.161 C 
ATOM     18  C   UNL A   1      32.302  26.136  22.540  1.00  0.00     0.043 C 
ENDBRANCH   9  13
ENDBRANCH   7   8
ENDBRANCH   5   7
ENDBRANCH   4   5
ENDBRANCH   3   4
ENDBRANCH   2   3
ENDBRANCH   1   2
BRANCH   1  19
ATOM     19  C   UNL A   1      33.585  34.902  28.334  1.00  0.00     0.202 C 
BRANCH  19  20
ATOM     20  C   UNL A   1      33.123  35.610  29.600  1.00  0.00     0.261 C 
BRANCH  20  21
ATOM     21  O   UNL A   1      34.011  35.324  30.667  1.00  0.00    -0.460 OA
BRANCH  21  22
ATOM     22  C   UNL A   1      33.407  35.085  31.848  1.00  0.00     0.338 C 
ATOM     23  O   UNL A   1      32.277  35.382  32.175  1.00  0.00    -0.246 OA
BRANCH  22  24
ATOM     24  C   UNL A   1      34.386  34.458  32.748  1.00  0.00     0.060 A 
ATOM     25  C   UNL A   1      35.529  35.229  32.946  1.00  0.00     0.016 A 
ATOM     26  C   UNL A   1      34.372  33.066  32.915  1.00  0.00     0.016 A 
ATOM     27  C   UNL A   1      36.728  34.577  32.885  1.00  0.00     0.010 A 
ATOM     28  C   UNL A   1      35.574  32.412  32.879  1.00  0.00     0.010 A 
ATOM     29  C   UNL A   1      36.715  33.188  32.713  1.00  0.00    -0.014 A 
BRANCH  29  30
ATOM     30  C   UNL A   1      37.965  32.560  32.375  1.00  0.00     0.031 A 
ATOM     31  C   UNL A   1      38.878  32.514  33.529  1.00  0.00     0.074 A 
ATOM     32  C   UNL A   1      38.206  32.049  31.156  1.00  0.00     0.049 A 
ATOM     33  N   UNL A   1      39.945  33.214  33.718  1.00  0.00    -0.248 NA
ATOM     34  C   UNL A   1      38.408  31.780  34.715  1.00  0.00     0.031 C 
ATOM     35  C   UNL A   1      37.286  31.842  30.035  1.00  0.00     0.029 A 
ATOM     36  N   UNL A   1      39.367  31.503  30.709  1.00  0.00    -0.354 N 
ATOM     37  C   UNL A   1      40.403  32.835  34.972  1.00  0.00     0.074 A 
ATOM     38  C   UNL A   1      39.316  32.148  35.618  1.00  0.00     0.031 C 
ATOM     39  C   UNL A   1      37.859  31.002  29.141  1.00  0.00     0.029 A 
ATOM     40  C   UNL A   1      39.219  30.727  29.565  1.00  0.00     0.049 A 
ATOM     41  H   UNL A   1      40.234  31.646  31.153  1.00  0.00     0.167 HD
ATOM     42  C   UNL A   1      41.728  32.852  35.265  1.00  0.00     0.037 A 
ATOM     43  C   UNL A   1      40.144  29.830  29.138  1.00  0.00     0.037 A 
ATOM     44  C   UNL A   1      42.461  33.698  34.358  1.00  0.00     0.049 A 
ATOM     45  C   UNL A   1      41.446  30.233  29.750  1.00  0.00     0.074 A 
ATOM     46  C   UNL A   1      42.406  35.042  34.038  1.00  0.00     0.029 A 
ATOM     47  N   UNL A   1      43.140  33.098  33.324  1.00  0.00    -0.354 N 
ATOM     48  N   UNL A   1      42.061  31.349  29.452  1.00  0.00    -0.248 NA
ATOM     49  C   UNL A   1      41.772  29.674  31.058  1.00  0.00     0.031 C 
ATOM     50  C   UNL A   1      42.601  35.094  32.625  1.00  0.00     0.029 A 
ATOM     51  C   UNL A   1      42.829  33.791  32.180  1.00  0.00     0.049 A 
ATOM     52  H   UNL A   1      43.737  32.319  33.391  1.00  0.00     0.167 HD
ATOM     53  C   UNL A   1      42.524  31.841  30.667  1.00  0.00     0.074 A 
ATOM     54  C   UNL A   1      42.348  30.743  31.616  1.00  0.00     0.031 C 
ATOM     55  C   UNL A   1      42.725  33.177  30.875  1.00  0.00     0.037 A 
BRANCH  42  56
ATOM     56  C   UNL A   1      42.383  31.793  36.108  1.00  0.00     0.057 A 
ATOM     57  C   UNL A   1      43.229  32.183  37.157  1.00  0.00     0.134 A 
ATOM     58  C   UNL A   1      42.444  30.424  35.762  1.00  0.00     0.134 A 
ATOM     59  F   UNL A   1      43.274  33.461  37.563  1.00  0.00    -0.206 F 
ATOM     60  C   UNL A   1      44.115  31.291  37.768  1.00  0.00     0.040 A 
ATOM     61  C   UNL A   1      43.283  29.516  36.404  1.00  0.00     0.040 A 
ATOM     62  F   UNL A   1      41.779  29.908  34.721  1.00  0.00    -0.206 F 
ATOM     63  C   UNL A   1      44.148  29.954  37.389  1.00  0.00     0.006 A 
ENDBRANCH  42  56
BRANCH  43  64
ATOM     64  C   UNL A   1      39.867  28.461  28.636  1.00  0.00     0.057 A 
ATOM     65  C   UNL A   1      40.328  28.027  27.386  1.00  0.00     0.134 A 
ATOM     66  C   UNL A   1      39.348  27.458  29.478  1.00  0.00     0.134 A 
ATOM     67  F   UNL A   1      40.896  28.894  26.534  1.00  0.00    -0.206 F 
ATOM     68  C   UNL A   1      40.272  26.680  26.996  1.00  0.00     0.040 A 
ATOM     69  C   UNL A   1      39.278  26.114  29.099  1.00  0.00     0.040 A 
ATOM     70  F   UNL A   1      38.969  27.732  30.734  1.00  0.00    -0.206 F 
ATOM     71  C   UNL A   1      39.749  25.718  27.855  1.00  0.00     0.006 A 
ENDBRANCH  43  64
BRANCH  55  72
ATOM     72  C   UNL A   1      42.579  34.113  29.704  1.00  0.00     0.057 A 
ATOM     73  C   UNL A   1      41.375  34.755  29.369  1.00  0.00     0.134 A 
ATOM     74  C   UNL A   1      43.725  34.535  29.024  1.00  0.00     0.134 A 
ATOM     75  F   UNL A   1      40.246  34.495  30.037  1.00  0.00    -0.206 F 
ATOM     76  C   UNL A   1      41.312  35.744  28.381  1.00  0.00     0.040 A 
ATOM     77  C   UNL A   1      43.681  35.543  28.057  1.00  0.00     0.040 A 
ATOM     78  F   UNL A   1      44.923  34.014  29.335  1.00  0.00    -0.206 F 
ATOM     79  C   UNL A   1      42.471  36.147  27.728  1.00  0.00     0.006 A 
ENDBRANCH  55  72
ENDBRANCH  29  30
ENDBRANCH  22  24
ENDBRANCH  21  22
ENDBRANCH  20  21
ENDBRANCH  19  20
ENDBRANCH   1  19
TORSDOF 16
ENDMDL
