MODEL 1
REMARK VINA RESULT:     -11.4      0.000      0.000
REMARK SMILES O=C(Cn1c(=O)n(Cc2cccnc2)c(=O)c2sccc21)OCCOCCOC(=O)c1ccc(-c2c3nc(c(-c4c(F)cccc4F)c4ccc([nH]4)c(-c4c(F)cccc4F)c4nc(c(-c5c(F)cccc5F)c5ccc2[nH]5)C=C4)C=C3)cc1
REMARK SMILES IDX 24 1 23 2 22 3 2 4 1 5 3 6 4 7 5 8 21 9 6 10 7 11 17 12
REMARK SMILES IDX 20 13 15 14 18 15 19 16 16 17 8 18 9 19 10 20 14 21 11 22
REMARK SMILES IDX 13 23 12 24 25 25 26 26 27 27 28 28 29 29 30 30 31 31 32 32
REMARK SMILES IDX 84 33 33 34 83 35 34 36 35 37 36 38 77 39 37 40 82 41 76 42
REMARK SMILES IDX 78 43 38 44 81 45 75 46 74 47 39 49 65 50 48 51 64 52 49 53
REMARK SMILES IDX 52 54 63 55 79 56 50 57 51 58 62 60 80 61 53 62 40 63 41 64
REMARK SMILES IDX 46 65 42 66 43 67 45 68 47 69 44 70 66 71 67 72 72 73 68 74
REMARK SMILES IDX 69 75 71 76 73 77 70 78 54 79 55 80 60 81 56 82 57 83 59 84
REMARK SMILES IDX 61 85 58 86
REMARK H PARENT 78 48 52 59
REMARK Flexibility Score: inf
ROOT
ATOM      1  C   UNL A   1      40.479  21.067  26.405  1.00  0.00     0.202 C 
ENDROOT
BRANCH   1   2
ATOM      2  C   UNL A   1      39.096  21.158  25.771  1.00  0.00     0.261 C 
BRANCH   2   3
ATOM      3  O   UNL A   1      38.234  22.151  26.339  1.00  0.00    -0.462 OA
BRANCH   3   4
ATOM      4  C   UNL A   1      37.719  23.240  25.727  1.00  0.00     0.326 C 
ATOM      5  O   UNL A   1      38.083  24.355  26.117  1.00  0.00    -0.250 OA
BRANCH   4   6
ATOM      6  C   UNL A   1      36.546  23.146  24.748  1.00  0.00     0.250 C 
BRANCH   6   7
ATOM      7  N   UNL A   1      35.198  22.886  25.228  1.00  0.00    -0.281 N 
ATOM      8  C   UNL A   1      34.812  21.538  25.256  1.00  0.00     0.332 A 
ATOM      9  C   UNL A   1      34.253  23.890  25.456  1.00  0.00     0.070 A 
ATOM     10  O   UNL A   1      35.603  20.652  24.925  1.00  0.00    -0.247 OA
ATOM     11  N   UNL A   1      33.532  21.251  25.719  1.00  0.00    -0.254 N 
ATOM     12  C   UNL A   1      32.941  23.536  25.622  1.00  0.00     0.116 A 
ATOM     13  C   UNL A   1      34.413  25.306  25.520  1.00  0.00     0.039 A 
ATOM     14  C   UNL A   1      32.490  22.172  25.631  1.00  0.00     0.274 A 
ATOM     15  S   UNL A   1      31.898  24.861  25.803  1.00  0.00    -0.136 S 
ATOM     16  C   UNL A   1      33.209  25.958  25.708  1.00  0.00     0.068 A 
ATOM     17  O   UNL A   1      31.313  21.837  25.531  1.00  0.00    -0.268 OA
BRANCH  11  18
ATOM     18  C   UNL A   1      33.204  19.859  26.012  1.00  0.00     0.168 C 
BRANCH  18  19
ATOM     19  C   UNL A   1      33.134  18.973  24.785  1.00  0.00    -0.010 A 
ATOM     20  C   UNL A   1      33.897  17.804  24.665  1.00  0.00     0.009 A 
ATOM     21  C   UNL A   1      32.342  19.318  23.692  1.00  0.00     0.116 A 
ATOM     22  C   UNL A   1      33.854  17.064  23.481  1.00  0.00     0.020 A 
ATOM     23  N   UNL A   1      32.266  18.607  22.543  1.00  0.00    -0.264 NA
ATOM     24  C   UNL A   1      33.030  17.502  22.459  1.00  0.00     0.111 A 
ENDBRANCH  18  19
ENDBRANCH  11  18
ENDBRANCH   6   7
ENDBRANCH   4   6
ENDBRANCH   3   4
ENDBRANCH   2   3
ENDBRANCH   1   2
BRANCH   1  25
ATOM     25  O   UNL A   1      41.180  19.829  26.339  1.00  0.00    -0.374 OA
BRANCH  25  26
ATOM     26  C   UNL A   1      42.606  19.797  26.353  1.00  0.00     0.202 C 
BRANCH  26  27
ATOM     27  C   UNL A   1      43.351  18.820  25.466  1.00  0.00     0.261 C 
BRANCH  27  28
ATOM     28  O   UNL A   1      44.631  19.326  25.138  1.00  0.00    -0.460 OA
BRANCH  28  29
ATOM     29  C   UNL A   1      44.675  19.989  23.967  1.00  0.00     0.338 C 
ATOM     30  O   UNL A   1      44.516  19.535  22.848  1.00  0.00    -0.246 OA
BRANCH  29  31
ATOM     31  C   UNL A   1      45.060  21.371  24.243  1.00  0.00     0.060 A 
ATOM     32  C   UNL A   1      46.002  21.542  25.258  1.00  0.00     0.016 A 
ATOM     33  C   UNL A   1      44.238  22.410  23.781  1.00  0.00     0.016 A 
ATOM     34  C   UNL A   1      45.928  22.688  26.005  1.00  0.00     0.010 A 
ATOM     35  C   UNL A   1      44.144  23.538  24.546  1.00  0.00     0.010 A 
ATOM     36  C   UNL A   1      44.925  23.609  25.696  1.00  0.00    -0.014 A 
BRANCH  36  37
ATOM     37  C   UNL A   1      44.735  24.713  26.600  1.00  0.00     0.031 A 
ATOM     38  C   UNL A   1      45.878  25.642  26.598  1.00  0.00     0.074 A 
ATOM     39  C   UNL A   1      43.574  24.894  27.251  1.00  0.00     0.049 A 
ATOM     40  N   UNL A   1      46.714  25.873  27.552  1.00  0.00    -0.248 NA
ATOM     41  C   UNL A   1      46.240  26.254  25.307  1.00  0.00     0.031 C 
ATOM     42  C   UNL A   1      42.303  24.191  27.047  1.00  0.00     0.029 A 
ATOM     43  N   UNL A   1      43.257  25.841  28.167  1.00  0.00    -0.354 N 
ATOM     44  C   UNL A   1      47.570  26.842  27.045  1.00  0.00     0.074 A 
ATOM     45  C   UNL A   1      47.376  26.873  25.619  1.00  0.00     0.031 C 
ATOM     46  C   UNL A   1      41.312  24.892  27.646  1.00  0.00     0.029 A 
ATOM     47  C   UNL A   1      41.896  26.010  28.366  1.00  0.00     0.049 A 
ATOM     48  H   UNL A   1      43.938  26.365  28.651  1.00  0.00     0.167 HD
ATOM     49  C   UNL A   1      48.132  27.770  27.859  1.00  0.00     0.037 A 
ATOM     50  C   UNL A   1      41.320  27.067  28.992  1.00  0.00     0.037 A 
ATOM     51  C   UNL A   1      48.139  27.348  29.233  1.00  0.00     0.049 A 
ATOM     52  C   UNL A   1      42.384  27.747  29.779  1.00  0.00     0.074 A 
ATOM     53  C   UNL A   1      48.648  26.252  29.902  1.00  0.00     0.029 A 
ATOM     54  N   UNL A   1      47.216  27.911  30.080  1.00  0.00    -0.354 N 
ATOM     55  N   UNL A   1      42.962  27.236  30.831  1.00  0.00    -0.248 NA
ATOM     56  C   UNL A   1      43.115  28.830  29.135  1.00  0.00     0.031 C 
ATOM     57  C   UNL A   1      47.683  25.946  30.904  1.00  0.00     0.029 A 
ATOM     58  C   UNL A   1      46.666  26.898  30.823  1.00  0.00     0.049 A 
ATOM     59  H   UNL A   1      46.991  28.867  30.143  1.00  0.00     0.167 HD
ATOM     60  C   UNL A   1      44.289  27.633  30.739  1.00  0.00     0.074 A 
ATOM     61  C   UNL A   1      44.302  28.691  29.733  1.00  0.00     0.031 C 
ATOM     62  C   UNL A   1      45.291  26.873  31.270  1.00  0.00     0.037 A 
BRANCH  49  63
ATOM     63  C   UNL A   1      48.292  29.199  27.431  1.00  0.00     0.057 A 
ATOM     64  C   UNL A   1      49.532  29.833  27.578  1.00  0.00     0.134 A 
ATOM     65  C   UNL A   1      47.207  30.049  27.117  1.00  0.00     0.134 A 
ATOM     66  F   UNL A   1      50.620  29.135  27.936  1.00  0.00    -0.206 F 
ATOM     67  C   UNL A   1      49.678  31.218  27.437  1.00  0.00     0.040 A 
ATOM     68  C   UNL A   1      47.353  31.419  26.910  1.00  0.00     0.040 A 
ATOM     69  F   UNL A   1      45.941  29.615  27.096  1.00  0.00    -0.206 F 
ATOM     70  C   UNL A   1      48.589  32.014  27.094  1.00  0.00     0.006 A 
ENDBRANCH  49  63
BRANCH  50  71
ATOM     71  C   UNL A   1      40.031  27.729  28.683  1.00  0.00     0.057 A 
ATOM     72  C   UNL A   1      39.029  27.826  29.659  1.00  0.00     0.134 A 
ATOM     73  C   UNL A   1      39.850  28.522  27.535  1.00  0.00     0.134 A 
ATOM     74  F   UNL A   1      39.127  27.137  30.805  1.00  0.00    -0.206 F 
ATOM     75  C   UNL A   1      37.933  28.689  29.521  1.00  0.00     0.040 A 
ATOM     76  C   UNL A   1      38.755  29.377  27.379  1.00  0.00     0.040 A 
ATOM     77  F   UNL A   1      40.773  28.566  26.564  1.00  0.00    -0.206 F 
ATOM     78  C   UNL A   1      37.801  29.478  28.382  1.00  0.00     0.006 A 
ENDBRANCH  50  71
BRANCH  62  79
ATOM     79  C   UNL A   1      44.907  25.752  32.196  1.00  0.00     0.057 A 
ATOM     80  C   UNL A   1      44.640  25.920  33.564  1.00  0.00     0.134 A 
ATOM     81  C   UNL A   1      44.637  24.492  31.650  1.00  0.00     0.134 A 
ATOM     82  F   UNL A   1      44.773  27.113  34.156  1.00  0.00    -0.206 F 
ATOM     83  C   UNL A   1      44.160  24.871  34.355  1.00  0.00     0.040 A 
ATOM     84  C   UNL A   1      44.126  23.447  32.421  1.00  0.00     0.040 A 
ATOM     85  F   UNL A   1      44.816  24.274  30.337  1.00  0.00    -0.206 F 
ATOM     86  C   UNL A   1      43.893  23.632  33.781  1.00  0.00     0.006 A 
ENDBRANCH  62  79
ENDBRANCH  36  37
ENDBRANCH  29  31
ENDBRANCH  28  29
ENDBRANCH  27  28
ENDBRANCH  26  27
ENDBRANCH  25  26
ENDBRANCH   1  25
TORSDOF 17
ENDMDL
MODEL 2
REMARK VINA RESULT:     -11.2      1.491      3.015
REMARK SMILES O=C(Cn1c(=O)n(Cc2cccnc2)c(=O)c2sccc21)OCCOCCOC(=O)c1ccc(-c2c3nc(c(-c4c(F)cccc4F)c4ccc([nH]4)c(-c4c(F)cccc4F)c4nc(c(-c5c(F)cccc5F)c5ccc2[nH]5)C=C4)C=C3)cc1
REMARK SMILES IDX 24 1 23 2 22 3 2 4 1 5 3 6 4 7 5 8 21 9 6 10 7 11 17 12
REMARK SMILES IDX 20 13 15 14 18 15 19 16 16 17 8 18 9 19 10 20 14 21 11 22
REMARK SMILES IDX 13 23 12 24 25 25 26 26 27 27 28 28 29 29 30 30 31 31 32 32
REMARK SMILES IDX 84 33 33 34 83 35 34 36 35 37 36 38 77 39 37 40 82 41 76 42
REMARK SMILES IDX 78 43 38 44 81 45 75 46 74 47 39 49 65 50 48 51 64 52 49 53
REMARK SMILES IDX 52 54 63 55 79 56 50 57 51 58 62 60 80 61 53 62 40 63 41 64
REMARK SMILES IDX 46 65 42 66 43 67 45 68 47 69 44 70 66 71 67 72 72 73 68 74
REMARK SMILES IDX 69 75 71 76 73 77 70 78 54 79 55 80 60 81 56 82 57 83 59 84
REMARK SMILES IDX 61 85 58 86
REMARK H PARENT 78 48 52 59
REMARK Flexibility Score: inf
ROOT
ATOM      1  C   UNL A   1      40.137  21.536  26.827  1.00  0.00     0.202 C 
ENDROOT
BRANCH   1   2
ATOM      2  C   UNL A   1      39.067  21.484  25.744  1.00  0.00     0.261 C 
BRANCH   2   3
ATOM      3  O   UNL A   1      37.838  22.141  26.075  1.00  0.00    -0.462 OA
BRANCH   3   4
ATOM      4  C   UNL A   1      37.473  23.406  25.770  1.00  0.00     0.326 C 
ATOM      5  O   UNL A   1      37.942  24.327  26.449  1.00  0.00    -0.250 OA
BRANCH   4   6
ATOM      6  C   UNL A   1      36.340  23.713  24.788  1.00  0.00     0.250 C 
BRANCH   6   7
ATOM      7  N   UNL A   1      34.953  23.483  25.160  1.00  0.00    -0.281 N 
ATOM      8  C   UNL A   1      34.292  24.572  25.749  1.00  0.00     0.332 A 
ATOM      9  C   UNL A   1      34.347  22.223  25.140  1.00  0.00     0.070 A 
ATOM     10  O   UNL A   1      34.868  25.652  25.891  1.00  0.00    -0.247 OA
ATOM     11  N   UNL A   1      32.961  24.390  26.108  1.00  0.00    -0.254 N 
ATOM     12  C   UNL A   1      33.146  22.059  25.776  1.00  0.00     0.116 A 
ATOM     13  C   UNL A   1      34.798  20.996  24.571  1.00  0.00     0.039 A 
ATOM     14  C   UNL A   1      32.443  23.134  26.418  1.00  0.00     0.274 A 
ATOM     15  S   UNL A   1      32.576  20.462  25.745  1.00  0.00    -0.136 S 
ATOM     16  C   UNL A   1      33.925  19.955  24.822  1.00  0.00     0.068 A 
ATOM     17  O   UNL A   1      31.506  22.975  27.195  1.00  0.00    -0.268 OA
BRANCH  11  18
ATOM     18  C   UNL A   1      32.181  25.570  26.467  1.00  0.00     0.168 C 
BRANCH  18  19
ATOM     19  C   UNL A   1      31.361  26.136  25.325  1.00  0.00    -0.010 A 
ATOM     20  C   UNL A   1      29.986  25.899  25.205  1.00  0.00     0.009 A 
ATOM     21  C   UNL A   1      31.959  26.876  24.308  1.00  0.00     0.116 A 
ATOM     22  C   UNL A   1      29.292  26.377  24.092  1.00  0.00     0.020 A 
ATOM     23  N   UNL A   1      31.306  27.369  23.231  1.00  0.00    -0.264 NA
ATOM     24  C   UNL A   1      29.990  27.102  23.141  1.00  0.00     0.111 A 
ENDBRANCH  18  19
ENDBRANCH  11  18
ENDBRANCH   6   7
ENDBRANCH   4   6
ENDBRANCH   3   4
ENDBRANCH   2   3
ENDBRANCH   1   2
BRANCH   1  25
ATOM     25  O   UNL A   1      40.582  20.313  27.405  1.00  0.00    -0.374 OA
BRANCH  25  26
ATOM     26  C   UNL A   1      41.911  19.844  27.186  1.00  0.00     0.202 C 
BRANCH  26  27
ATOM     27  C   UNL A   1      42.432  19.674  25.773  1.00  0.00     0.261 C 
BRANCH  27  28
ATOM     28  O   UNL A   1      43.839  19.818  25.743  1.00  0.00    -0.460 OA
BRANCH  28  29
ATOM     29  C   UNL A   1      44.317  20.291  24.575  1.00  0.00     0.338 C 
ATOM     30  O   UNL A   1      44.511  19.671  23.545  1.00  0.00    -0.246 OA
BRANCH  29  31
ATOM     31  C   UNL A   1      44.681  21.692  24.769  1.00  0.00     0.060 A 
ATOM     32  C   UNL A   1      45.628  21.936  25.764  1.00  0.00     0.016 A 
ATOM     33  C   UNL A   1      43.837  22.689  24.258  1.00  0.00     0.016 A 
ATOM     34  C   UNL A   1      45.541  23.121  26.446  1.00  0.00     0.010 A 
ATOM     35  C   UNL A   1      43.730  23.858  24.959  1.00  0.00     0.010 A 
ATOM     36  C   UNL A   1      44.520  24.006  26.095  1.00  0.00    -0.014 A 
BRANCH  36  37
ATOM     37  C   UNL A   1      44.319  25.156  26.937  1.00  0.00     0.031 A 
ATOM     38  C   UNL A   1      45.410  26.138  26.814  1.00  0.00     0.074 A 
ATOM     39  C   UNL A   1      43.185  25.321  27.639  1.00  0.00     0.049 A 
ATOM     40  N   UNL A   1      46.281  26.473  27.704  1.00  0.00    -0.248 NA
ATOM     41  C   UNL A   1      45.671  26.682  25.469  1.00  0.00     0.031 C 
ATOM     42  C   UNL A   1      41.945  24.544  27.550  1.00  0.00     0.029 A 
ATOM     43  N   UNL A   1      42.867  26.309  28.510  1.00  0.00    -0.354 N 
ATOM     44  C   UNL A   1      47.057  27.447  27.090  1.00  0.00     0.074 A 
ATOM     45  C   UNL A   1      46.787  27.376  25.678  1.00  0.00     0.031 C 
ATOM     46  C   UNL A   1      40.951  25.233  28.158  1.00  0.00     0.029 A 
ATOM     47  C   UNL A   1      41.511  26.424  28.773  1.00  0.00     0.049 A 
ATOM     48  H   UNL A   1      43.543  26.897  28.922  1.00  0.00     0.167 HD
ATOM     49  C   UNL A   1      47.611  28.453  27.812  1.00  0.00     0.037 A 
ATOM     50  C   UNL A   1      40.914  27.489  29.363  1.00  0.00     0.037 A 
ATOM     51  C   UNL A   1      47.711  28.123  29.208  1.00  0.00     0.049 A 
ATOM     52  C   UNL A   1      41.980  28.272  30.045  1.00  0.00     0.074 A 
ATOM     53  C   UNL A   1      48.312  27.100  29.915  1.00  0.00     0.029 A 
ATOM     54  N   UNL A   1      46.805  28.694  30.067  1.00  0.00    -0.354 N 
ATOM     55  N   UNL A   1      42.638  27.860  31.094  1.00  0.00    -0.248 NA
ATOM     56  C   UNL A   1      42.617  29.345  29.295  1.00  0.00     0.031 C 
ATOM     57  C   UNL A   1      47.418  26.812  30.986  1.00  0.00     0.029 A 
ATOM     58  C   UNL A   1      46.350  27.705  30.902  1.00  0.00     0.049 A 
ATOM     59  H   UNL A   1      46.533  29.639  30.082  1.00  0.00     0.167 HD
ATOM     60  C   UNL A   1      43.936  28.315  30.903  1.00  0.00     0.074 A 
ATOM     61  C   UNL A   1      43.839  29.304  29.834  1.00  0.00     0.031 C 
ATOM     62  C   UNL A   1      45.002  27.642  31.425  1.00  0.00     0.037 A 
BRANCH  49  63
ATOM     63  C   UNL A   1      47.672  29.858  27.287  1.00  0.00     0.057 A 
ATOM     64  C   UNL A   1      48.879  30.565  27.337  1.00  0.00     0.134 A 
ATOM     65  C   UNL A   1      46.529  30.626  26.970  1.00  0.00     0.134 A 
ATOM     66  F   UNL A   1      50.019  29.951  27.687  1.00  0.00    -0.206 F 
ATOM     67  C   UNL A   1      48.941  31.944  27.101  1.00  0.00     0.040 A 
ATOM     68  C   UNL A   1      46.588  31.986  26.670  1.00  0.00     0.040 A 
ATOM     69  F   UNL A   1      45.288  30.125  27.035  1.00  0.00    -0.206 F 
ATOM     70  C   UNL A   1      47.796  32.656  26.758  1.00  0.00     0.006 A 
ENDBRANCH  49  63
BRANCH  50  71
ATOM     71  C   UNL A   1      39.576  28.064  29.085  1.00  0.00     0.057 A 
ATOM     72  C   UNL A   1      38.605  28.126  30.093  1.00  0.00     0.134 A 
ATOM     73  C   UNL A   1      39.309  28.817  27.926  1.00  0.00     0.134 A 
ATOM     74  F   UNL A   1      38.783  27.472  31.251  1.00  0.00    -0.206 F 
ATOM     75  C   UNL A   1      37.454  28.918  29.975  1.00  0.00     0.040 A 
ATOM     76  C   UNL A   1      38.159  29.601  27.791  1.00  0.00     0.040 A 
ATOM     77  F   UNL A   1      40.194  28.893  26.923  1.00  0.00    -0.206 F 
ATOM     78  C   UNL A   1      37.235  29.668  28.825  1.00  0.00     0.006 A 
ENDBRANCH  50  71
BRANCH  62  79
ATOM     79  C   UNL A   1      44.728  26.566  32.439  1.00  0.00     0.057 A 
ATOM     80  C   UNL A   1      44.537  25.213  32.117  1.00  0.00     0.134 A 
ATOM     81  C   UNL A   1      44.826  26.884  33.799  1.00  0.00     0.134 A 
ATOM     82  F   UNL A   1      44.528  24.797  30.846  1.00  0.00    -0.206 F 
ATOM     83  C   UNL A   1      44.415  24.231  33.106  1.00  0.00     0.040 A 
ATOM     84  C   UNL A   1      44.739  25.909  34.793  1.00  0.00     0.040 A 
ATOM     85  F   UNL A   1      45.063  28.150  34.180  1.00  0.00    -0.206 F 
ATOM     86  C   UNL A   1      44.526  24.577  34.449  1.00  0.00     0.006 A 
ENDBRANCH  62  79
ENDBRANCH  36  37
ENDBRANCH  29  31
ENDBRANCH  28  29
ENDBRANCH  27  28
ENDBRANCH  26  27
ENDBRANCH  25  26
ENDBRANCH   1  25
TORSDOF 17
ENDMDL
MODEL 3
REMARK VINA RESULT:     -10.8      5.687     10.715
REMARK SMILES O=C(Cn1c(=O)n(Cc2cccnc2)c(=O)c2sccc21)OCCOCCOC(=O)c1ccc(-c2c3nc(c(-c4c(F)cccc4F)c4ccc([nH]4)c(-c4c(F)cccc4F)c4nc(c(-c5c(F)cccc5F)c5ccc2[nH]5)C=C4)C=C3)cc1
REMARK SMILES IDX 24 1 23 2 22 3 2 4 1 5 3 6 4 7 5 8 21 9 6 10 7 11 17 12
REMARK SMILES IDX 20 13 15 14 18 15 19 16 16 17 8 18 9 19 10 20 14 21 11 22
REMARK SMILES IDX 13 23 12 24 25 25 26 26 27 27 28 28 29 29 30 30 31 31 32 32
REMARK SMILES IDX 84 33 33 34 83 35 34 36 35 37 36 38 77 39 37 40 82 41 76 42
REMARK SMILES IDX 78 43 38 44 81 45 75 46 74 47 39 49 65 50 48 51 64 52 49 53
REMARK SMILES IDX 52 54 63 55 79 56 50 57 51 58 62 60 80 61 53 62 40 63 41 64
REMARK SMILES IDX 46 65 42 66 43 67 45 68 47 69 44 70 66 71 67 72 72 73 68 74
REMARK SMILES IDX 69 75 71 76 73 77 70 78 54 79 55 80 60 81 56 82 57 83 59 84
REMARK SMILES IDX 61 85 58 86
REMARK H PARENT 78 48 52 59
REMARK Flexibility Score: inf
ROOT
ATOM      1  C   UNL A   1      34.025  32.726  28.977  1.00  0.00     0.202 C 
ENDROOT
BRANCH   1   2
ATOM      2  C   UNL A   1      34.474  31.737  27.908  1.00  0.00     0.261 C 
BRANCH   2   3
ATOM      3  O   UNL A   1      33.868  30.441  27.989  1.00  0.00    -0.462 OA
BRANCH   3   4
ATOM      4  C   UNL A   1      34.154  29.352  27.243  1.00  0.00     0.326 C 
ATOM      5  O   UNL A   1      35.271  29.283  26.718  1.00  0.00    -0.250 OA
BRANCH   4   6
ATOM      6  C   UNL A   1      33.082  28.337  26.838  1.00  0.00     0.250 C 
BRANCH   6   7
ATOM      7  N   UNL A   1      32.996  27.855  25.470  1.00  0.00    -0.281 N 
ATOM      8  C   UNL A   1      32.195  28.617  24.605  1.00  0.00     0.332 A 
ATOM      9  C   UNL A   1      33.489  26.614  25.056  1.00  0.00     0.070 A 
ATOM     10  O   UNL A   1      31.646  29.646  25.003  1.00  0.00    -0.247 OA
ATOM     11  N   UNL A   1      32.098  28.189  23.285  1.00  0.00    -0.254 N 
ATOM     12  C   UNL A   1      33.108  26.126  23.834  1.00  0.00     0.116 A 
ATOM     13  C   UNL A   1      34.344  25.693  25.731  1.00  0.00     0.039 A 
ATOM     14  C   UNL A   1      32.268  26.854  22.925  1.00  0.00     0.274 A 
ATOM     15  S   UNL A   1      33.712  24.577  23.505  1.00  0.00    -0.136 S 
ATOM     16  C   UNL A   1      34.551  24.541  24.996  1.00  0.00     0.068 A 
ATOM     17  O   UNL A   1      31.716  26.353  21.949  1.00  0.00    -0.268 OA
BRANCH  11  18
ATOM     18  C   UNL A   1      31.502  29.100  22.312  1.00  0.00     0.168 C 
BRANCH  18  19
ATOM     19  C   UNL A   1      30.007  29.281  22.475  1.00  0.00    -0.010 A 
ATOM     20  C   UNL A   1      29.198  28.305  23.072  1.00  0.00     0.009 A 
ATOM     21  C   UNL A   1      29.360  30.413  21.983  1.00  0.00     0.116 A 
ATOM     22  C   UNL A   1      27.815  28.486  23.127  1.00  0.00     0.020 A 
ATOM     23  N   UNL A   1      28.025  30.623  22.044  1.00  0.00    -0.264 NA
ATOM     24  C   UNL A   1      27.281  29.652  22.605  1.00  0.00     0.111 A 
ENDBRANCH  18  19
ENDBRANCH  11  18
ENDBRANCH   6   7
ENDBRANCH   4   6
ENDBRANCH   3   4
ENDBRANCH   2   3
ENDBRANCH   1   2
BRANCH   1  25
ATOM     25  O   UNL A   1      34.197  34.118  28.734  1.00  0.00    -0.374 OA
BRANCH  25  26
ATOM     26  C   UNL A   1      33.083  35.008  28.776  1.00  0.00     0.202 C 
BRANCH  26  27
ATOM     27  C   UNL A   1      32.904  35.945  29.955  1.00  0.00     0.261 C 
BRANCH  27  28
ATOM     28  O   UNL A   1      33.898  35.706  30.933  1.00  0.00    -0.460 OA
BRANCH  28  29
ATOM     29  C   UNL A   1      33.449  35.052  32.022  1.00  0.00     0.338 C 
ATOM     30  O   UNL A   1      32.340  35.114  32.522  1.00  0.00    -0.246 OA
BRANCH  29  31
ATOM     31  C   UNL A   1      34.568  34.310  32.597  1.00  0.00     0.060 A 
ATOM     32  C   UNL A   1      35.719  35.055  32.849  1.00  0.00     0.016 A 
ATOM     33  C   UNL A   1      34.568  32.909  32.512  1.00  0.00     0.016 A 
ATOM     34  C   UNL A   1      36.926  34.415  32.739  1.00  0.00     0.010 A 
ATOM     35  C   UNL A   1      35.772  32.278  32.372  1.00  0.00     0.010 A 
ATOM     36  C   UNL A   1      36.921  33.062  32.393  1.00  0.00    -0.014 A 
BRANCH  36  37
ATOM     37  C   UNL A   1      38.189  32.448  32.095  1.00  0.00     0.031 A 
ATOM     38  C   UNL A   1      39.067  32.375  33.275  1.00  0.00     0.074 A 
ATOM     39  C   UNL A   1      38.439  31.907  30.891  1.00  0.00     0.049 A 
ATOM     40  N   UNL A   1      40.176  33.002  33.479  1.00  0.00    -0.248 NA
ATOM     41  C   UNL A   1      38.550  31.650  34.450  1.00  0.00     0.031 C 
ATOM     42  C   UNL A   1      37.497  31.665  29.794  1.00  0.00     0.029 A 
ATOM     43  N   UNL A   1      39.587  31.346  30.440  1.00  0.00    -0.354 N 
ATOM     44  C   UNL A   1      40.608  32.560  34.722  1.00  0.00     0.074 A 
ATOM     45  C   UNL A   1      39.486  31.920  35.357  1.00  0.00     0.031 C 
ATOM     46  C   UNL A   1      38.059  30.805  28.913  1.00  0.00     0.029 A 
ATOM     47  C   UNL A   1      39.428  30.540  29.323  1.00  0.00     0.049 A 
ATOM     48  H   UNL A   1      40.461  31.498  30.869  1.00  0.00     0.167 HD
ATOM     49  C   UNL A   1      41.931  32.461  35.005  1.00  0.00     0.037 A 
ATOM     50  C   UNL A   1      40.341  29.650  28.860  1.00  0.00     0.037 A 
ATOM     51  C   UNL A   1      42.731  33.275  34.132  1.00  0.00     0.049 A 
ATOM     52  C   UNL A   1      41.651  30.004  29.472  1.00  0.00     0.074 A 
ATOM     53  C   UNL A   1      42.757  34.621  33.825  1.00  0.00     0.029 A 
ATOM     54  N   UNL A   1      43.422  32.645  33.126  1.00  0.00    -0.354 N 
ATOM     55  N   UNL A   1      42.327  31.084  29.192  1.00  0.00    -0.248 NA
ATOM     56  C   UNL A   1      42.008  29.358  30.728  1.00  0.00     0.031 C 
ATOM     57  C   UNL A   1      43.051  34.680  32.432  1.00  0.00     0.029 A 
ATOM     58  C   UNL A   1      43.236  33.374  31.979  1.00  0.00     0.049 A 
ATOM     59  H   UNL A   1      43.955  31.822  33.212  1.00  0.00     0.167 HD
ATOM     60  C   UNL A   1      42.884  31.481  30.400  1.00  0.00     0.074 A 
ATOM     61  C   UNL A   1      42.736  30.330  31.285  1.00  0.00     0.031 C 
ATOM     62  C   UNL A   1      43.148  32.795  30.656  1.00  0.00     0.037 A 
BRANCH  49  63
ATOM     63  C   UNL A   1      42.481  31.316  35.806  1.00  0.00     0.057 A 
ATOM     64  C   UNL A   1      43.350  31.571  36.873  1.00  0.00     0.134 A 
ATOM     65  C   UNL A   1      42.388  29.964  35.405  1.00  0.00     0.134 A 
ATOM     66  F   UNL A   1      43.564  32.826  37.298  1.00  0.00    -0.206 F 
ATOM     67  C   UNL A   1      44.086  30.552  37.489  1.00  0.00     0.040 A 
ATOM     68  C   UNL A   1      43.066  28.934  36.053  1.00  0.00     0.040 A 
ATOM     69  F   UNL A   1      41.720  29.587  34.308  1.00  0.00    -0.206 F 
ATOM     70  C   UNL A   1      43.939  29.229  37.086  1.00  0.00     0.006 A 
ENDBRANCH  49  63
BRANCH  50  71
ATOM     71  C   UNL A   1      40.103  28.331  28.229  1.00  0.00     0.057 A 
ATOM     72  C   UNL A   1      40.693  28.016  26.997  1.00  0.00     0.134 A 
ATOM     73  C   UNL A   1      39.533  27.254  28.932  1.00  0.00     0.134 A 
ATOM     74  F   UNL A   1      41.294  28.966  26.267  1.00  0.00    -0.206 F 
ATOM     75  C   UNL A   1      40.748  26.702  26.510  1.00  0.00     0.040 A 
ATOM     76  C   UNL A   1      39.570  25.941  28.450  1.00  0.00     0.040 A 
ATOM     77  F   UNL A   1      39.001  27.419  30.151  1.00  0.00    -0.206 F 
ATOM     78  C   UNL A   1      40.196  25.658  27.245  1.00  0.00     0.006 A 
ENDBRANCH  50  71
BRANCH  62  79
ATOM     79  C   UNL A   1      43.087  33.762  29.505  1.00  0.00     0.057 A 
ATOM     80  C   UNL A   1      41.944  34.500  29.159  1.00  0.00     0.134 A 
ATOM     81  C   UNL A   1      44.272  34.080  28.831  1.00  0.00     0.134 A 
ATOM     82  F   UNL A   1      40.788  34.337  29.813  1.00  0.00    -0.206 F 
ATOM     83  C   UNL A   1      41.975  35.482  28.163  1.00  0.00     0.040 A 
ATOM     84  C   UNL A   1      44.323  35.081  27.860  1.00  0.00     0.040 A 
ATOM     85  F   UNL A   1      45.417  33.454  29.149  1.00  0.00    -0.206 F 
ATOM     86  C   UNL A   1      43.171  35.782  27.517  1.00  0.00     0.006 A 
ENDBRANCH  62  79
ENDBRANCH  36  37
ENDBRANCH  29  31
ENDBRANCH  28  29
ENDBRANCH  27  28
ENDBRANCH  26  27
ENDBRANCH  25  26
ENDBRANCH   1  25
TORSDOF 17
ENDMDL
