MODEL 1
REMARK VINA RESULT:     -10.8      0.000      0.000
REMARK SMILES COC(=O)[C@H]1CCN(S(=O)(=O)N2CCC[C@H](C(=O)OCCOCCOC(=O)c3ccc(-c4c5nc(c(-c6c(F)cccc6F)c6ccc([nH]6)c(-c6c(F)cccc6F)c6nc(c(-c7c(F)cccc7F)c7ccc4[nH]7)C=C6)C=C5)cc3)C2)C1
REMARK SMILES IDX 21 1 20 2 19 3 17 4 18 5 16 6 12 7 13 8 82 9 14 10 15 11
REMARK SMILES IDX 9 12 10 13 11 14 8 15 5 16 6 17 83 18 7 19 3 20 4 21 2 22
REMARK SMILES IDX 1 23 22 24 23 25 24 26 25 27 26 28 27 29 28 30 29 31 81 32
REMARK SMILES IDX 30 33 80 34 31 35 32 36 33 37 74 38 34 39 79 40 73 41 75 42
REMARK SMILES IDX 35 43 78 44 72 45 71 46 36 48 62 49 45 50 61 51 46 52 49 53
REMARK SMILES IDX 60 54 76 55 47 56 48 57 59 59 77 60 50 61 37 62 38 63 43 64
REMARK SMILES IDX 39 65 40 66 42 67 44 68 41 69 63 70 64 71 69 72 65 73 66 74
REMARK SMILES IDX 68 75 70 76 67 77 51 78 52 79 57 80 53 81 54 82 56 83 58 84
REMARK SMILES IDX 55 85
REMARK H PARENT 75 47 49 58
REMARK Flexibility Score: inf
ROOT
ATOM      1  C   UNL A   1      31.804  28.887  26.812  1.00  0.00     0.202 C 
ENDROOT
BRANCH   1   2
ATOM      2  C   UNL A   1      32.689  27.647  26.678  1.00  0.00     0.261 C 
BRANCH   2   3
ATOM      3  O   UNL A   1      32.312  26.870  25.535  1.00  0.00    -0.463 OA
BRANCH   3   4
ATOM      4  C   UNL A   1      31.289  26.007  25.741  1.00  0.00     0.310 C 
ATOM      5  O   UNL A   1      31.048  25.433  26.798  1.00  0.00    -0.252 OA
BRANCH   4   6
ATOM      6  C   UNL A   1      30.406  25.831  24.527  1.00  0.00     0.114 C 
ATOM      7  N   UNL A   1      31.972  24.516  23.172  1.00  0.00    -0.188 NA
ATOM      8  C   UNL A   1      31.938  25.439  22.021  1.00  0.00     0.103 C 
ATOM      9  C   UNL A   1      30.719  24.478  23.944  1.00  0.00     0.118 C 
ATOM     10  C   UNL A   1      31.614  26.852  22.510  1.00  0.00     0.018 C 
ATOM     11  C   UNL A   1      30.394  26.895  23.427  1.00  0.00     0.018 C 
BRANCH   7  12
ATOM     12  S   UNL A   1      32.839  23.087  23.021  1.00  0.00     0.282 S 
ATOM     13  O   UNL A   1      34.108  23.379  22.403  1.00  0.00    -0.195 OA
ATOM     14  O   UNL A   1      31.950  22.092  22.460  1.00  0.00    -0.195 OA
BRANCH  12  15
ATOM     15  N   UNL A   1      33.140  22.654  24.638  1.00  0.00    -0.188 NA
ATOM     16  C   UNL A   1      33.304  20.299  25.260  1.00  0.00     0.116 C 
ATOM     17  C   UNL A   1      34.659  20.831  24.836  1.00  0.00     0.033 C 
ATOM     18  C   UNL A   1      32.326  21.464  25.073  1.00  0.00     0.118 C 
ATOM     19  C   UNL A   1      34.527  22.318  25.045  1.00  0.00     0.104 C 
BRANCH  16  20
ATOM     20  C   UNL A   1      33.009  19.038  24.486  1.00  0.00     0.310 C 
ATOM     21  O   UNL A   1      32.330  19.042  23.466  1.00  0.00    -0.252 OA
BRANCH  20  22
ATOM     22  O   UNL A   1      33.525  17.928  25.065  1.00  0.00    -0.469 OA
ATOM     23  C   UNL A   1      32.577  16.886  25.289  1.00  0.00     0.282 C 
ENDBRANCH  20  22
ENDBRANCH  16  20
ENDBRANCH  12  15
ENDBRANCH   7  12
ENDBRANCH   4   6
ENDBRANCH   3   4
ENDBRANCH   2   3
ENDBRANCH   1   2
BRANCH   1  24
ATOM     24  O   UNL A   1      32.313  30.130  26.337  1.00  0.00    -0.374 OA
BRANCH  24  25
ATOM     25  C   UNL A   1      31.413  31.218  26.147  1.00  0.00     0.202 C 
BRANCH  25  26
ATOM     26  C   UNL A   1      31.479  32.407  27.116  1.00  0.00     0.261 C 
BRANCH  26  27
ATOM     27  O   UNL A   1      32.584  33.293  26.863  1.00  0.00    -0.460 OA
BRANCH  27  28
ATOM     28  C   UNL A   1      33.173  33.776  27.985  1.00  0.00     0.338 C 
ATOM     29  O   UNL A   1      32.696  34.558  28.792  1.00  0.00    -0.246 OA
BRANCH  28  30
ATOM     30  C   UNL A   1      34.450  33.087  28.244  1.00  0.00     0.060 A 
ATOM     31  C   UNL A   1      34.397  31.707  28.475  1.00  0.00     0.016 A 
ATOM     32  C   UNL A   1      35.646  33.789  28.392  1.00  0.00     0.016 A 
ATOM     33  C   UNL A   1      35.530  31.029  28.915  1.00  0.00     0.010 A 
ATOM     34  C   UNL A   1      36.783  33.106  28.843  1.00  0.00     0.010 A 
ATOM     35  C   UNL A   1      36.718  31.732  29.147  1.00  0.00    -0.014 A 
BRANCH  35  36
ATOM     36  C   UNL A   1      37.836  31.055  29.847  1.00  0.00     0.031 A 
ATOM     37  C   UNL A   1      38.085  31.358  31.300  1.00  0.00     0.074 A 
ATOM     38  C   UNL A   1      38.593  30.145  29.209  1.00  0.00     0.049 A 
ATOM     39  N   UNL A   1      39.028  30.913  32.091  1.00  0.00    -0.248 NA
ATOM     40  C   UNL A   1      37.148  32.290  31.947  1.00  0.00     0.031 C 
ATOM     41  C   UNL A   1      38.421  29.730  27.817  1.00  0.00     0.029 A 
ATOM     42  N   UNL A   1      39.665  29.410  29.650  1.00  0.00    -0.354 N 
ATOM     43  C   UNL A   1      38.808  31.521  33.322  1.00  0.00     0.074 A 
ATOM     44  C   UNL A   1      37.659  32.387  33.166  1.00  0.00     0.031 C 
ATOM     45  C   UNL A   1      39.366  28.824  27.513  1.00  0.00     0.029 A 
ATOM     46  C   UNL A   1      40.229  28.624  28.674  1.00  0.00     0.049 A 
ATOM     47  H   UNL A   1      39.998  29.443  30.575  1.00  0.00     0.167 HD
ATOM     48  C   UNL A   1      39.497  31.365  34.477  1.00  0.00     0.037 A 
ATOM     49  C   UNL A   1      41.335  27.856  28.708  1.00  0.00     0.037 A 
ATOM     50  C   UNL A   1      40.633  30.493  34.629  1.00  0.00     0.049 A 
ATOM     51  C   UNL A   1      42.124  27.754  29.987  1.00  0.00     0.074 A 
ATOM     52  C   UNL A   1      41.381  30.245  35.768  1.00  0.00     0.029 A 
ATOM     53  N   UNL A   1      41.191  29.735  33.612  1.00  0.00    -0.354 N 
ATOM     54  N   UNL A   1      41.893  28.312  31.151  1.00  0.00    -0.248 NA
ATOM     55  C   UNL A   1      43.328  26.910  29.957  1.00  0.00     0.031 C 
ATOM     56  C   UNL A   1      42.429  29.387  35.424  1.00  0.00     0.029 A 
ATOM     57  C   UNL A   1      42.293  29.044  34.088  1.00  0.00     0.049 A 
ATOM     58  H   UNL A   1      40.854  29.693  32.688  1.00  0.00     0.167 HD
ATOM     59  C   UNL A   1      42.900  27.860  31.998  1.00  0.00     0.074 A 
ATOM     60  C   UNL A   1      43.735  26.972  31.217  1.00  0.00     0.031 C 
ATOM     61  C   UNL A   1      43.111  28.153  33.304  1.00  0.00     0.037 A 
BRANCH  48  62
ATOM     62  C   UNL A   1      39.066  32.178  35.665  1.00  0.00     0.057 A 
ATOM     63  C   UNL A   1      39.455  33.513  35.835  1.00  0.00     0.134 A 
ATOM     64  C   UNL A   1      38.203  31.631  36.623  1.00  0.00     0.134 A 
ATOM     65  F   UNL A   1      40.290  34.096  34.962  1.00  0.00    -0.206 F 
ATOM     66  C   UNL A   1      39.016  34.267  36.927  1.00  0.00     0.040 A 
ATOM     67  C   UNL A   1      37.733  32.383  37.700  1.00  0.00     0.040 A 
ATOM     68  F   UNL A   1      37.786  30.359  36.517  1.00  0.00    -0.206 F 
ATOM     69  C   UNL A   1      38.145  33.705  37.857  1.00  0.00     0.006 A 
ENDBRANCH  48  62
BRANCH  49  70
ATOM     70  C   UNL A   1      41.783  27.141  27.485  1.00  0.00     0.057 A 
ATOM     71  C   UNL A   1      42.623  27.751  26.548  1.00  0.00     0.134 A 
ATOM     72  C   UNL A   1      41.354  25.836  27.211  1.00  0.00     0.134 A 
ATOM     73  F   UNL A   1      43.049  29.009  26.742  1.00  0.00    -0.206 F 
ATOM     74  C   UNL A   1      43.001  27.103  25.371  1.00  0.00     0.040 A 
ATOM     75  C   UNL A   1      41.750  25.163  26.054  1.00  0.00     0.040 A 
ATOM     76  F   UNL A   1      40.547  25.193  28.067  1.00  0.00    -0.206 F 
ATOM     77  C   UNL A   1      42.567  25.801  25.124  1.00  0.00     0.006 A 
ENDBRANCH  49  70
BRANCH  61  78
ATOM     78  C   UNL A   1      44.261  27.471  33.991  1.00  0.00     0.057 A 
ATOM     79  C   UNL A   1      44.133  26.209  34.584  1.00  0.00     0.134 A 
ATOM     80  C   UNL A   1      45.527  28.072  34.021  1.00  0.00     0.134 A 
ATOM     81  F   UNL A   1      42.947  25.582  34.601  1.00  0.00    -0.206 F 
ATOM     82  C   UNL A   1      45.215  25.582  35.206  1.00  0.00     0.040 A 
ATOM     83  C   UNL A   1      46.623  27.441  34.610  1.00  0.00     0.040 A 
ATOM     84  F   UNL A   1      45.724  29.276  33.462  1.00  0.00    -0.206 F 
ATOM     85  C   UNL A   1      46.466  26.195  35.212  1.00  0.00     0.006 A 
ENDBRANCH  61  78
ENDBRANCH  35  36
ENDBRANCH  28  30
ENDBRANCH  27  28
ENDBRANCH  26  27
ENDBRANCH  25  26
ENDBRANCH  24  25
ENDBRANCH   1  24
TORSDOF 18
ENDMDL
MODEL 2
REMARK VINA RESULT:     -10.6      1.438      6.300
REMARK SMILES COC(=O)[C@H]1CCN(S(=O)(=O)N2CCC[C@H](C(=O)OCCOCCOC(=O)c3ccc(-c4c5nc(c(-c6c(F)cccc6F)c6ccc([nH]6)c(-c6c(F)cccc6F)c6nc(c(-c7c(F)cccc7F)c7ccc4[nH]7)C=C6)C=C5)cc3)C2)C1
REMARK SMILES IDX 21 1 20 2 19 3 17 4 18 5 16 6 12 7 13 8 82 9 14 10 15 11
REMARK SMILES IDX 9 12 10 13 11 14 8 15 5 16 6 17 83 18 7 19 3 20 4 21 2 22
REMARK SMILES IDX 1 23 22 24 23 25 24 26 25 27 26 28 27 29 28 30 29 31 81 32
REMARK SMILES IDX 30 33 80 34 31 35 32 36 33 37 74 38 34 39 79 40 73 41 75 42
REMARK SMILES IDX 35 43 78 44 72 45 71 46 36 48 62 49 45 50 61 51 46 52 49 53
REMARK SMILES IDX 60 54 76 55 47 56 48 57 59 59 77 60 50 61 37 62 38 63 43 64
REMARK SMILES IDX 39 65 40 66 42 67 44 68 41 69 63 70 64 71 69 72 65 73 66 74
REMARK SMILES IDX 68 75 70 76 67 77 51 78 52 79 57 80 53 81 54 82 56 83 58 84
REMARK SMILES IDX 55 85
REMARK H PARENT 75 47 49 58
REMARK Flexibility Score: inf
ROOT
ATOM      1  C   UNL A   1      33.411  28.652  27.168  1.00  0.00     0.202 C 
ENDROOT
BRANCH   1   2
ATOM      2  C   UNL A   1      31.974  28.127  27.185  1.00  0.00     0.261 C 
BRANCH   2   3
ATOM      3  O   UNL A   1      31.542  27.780  25.864  1.00  0.00    -0.463 OA
BRANCH   3   4
ATOM      4  C   UNL A   1      30.969  26.559  25.750  1.00  0.00     0.310 C 
ATOM      5  O   UNL A   1      31.069  25.650  26.568  1.00  0.00    -0.252 OA
BRANCH   4   6
ATOM      6  C   UNL A   1      30.127  26.411  24.503  1.00  0.00     0.114 C 
ATOM      7  N   UNL A   1      31.758  25.173  23.153  1.00  0.00    -0.188 NA
ATOM      8  C   UNL A   1      31.743  26.136  22.035  1.00  0.00     0.103 C 
ATOM      9  C   UNL A   1      30.483  25.085  23.883  1.00  0.00     0.118 C 
ATOM     10  C   UNL A   1      31.378  27.525  22.562  1.00  0.00     0.018 C 
ATOM     11  C   UNL A   1      30.129  27.514  23.441  1.00  0.00     0.018 C 
BRANCH   7  12
ATOM     12  S   UNL A   1      32.656  23.766  22.978  1.00  0.00     0.282 S 
ATOM     13  O   UNL A   1      33.638  23.968  21.944  1.00  0.00    -0.195 OA
ATOM     14  O   UNL A   1      31.726  22.657  22.915  1.00  0.00    -0.195 OA
BRANCH  12  15
ATOM     15  N   UNL A   1      33.482  23.658  24.462  1.00  0.00    -0.188 NA
ATOM     16  C   UNL A   1      33.869  21.477  25.488  1.00  0.00     0.116 C 
ATOM     17  C   UNL A   1      35.000  21.824  24.539  1.00  0.00     0.033 C 
ATOM     18  C   UNL A   1      32.872  22.637  25.385  1.00  0.00     0.118 C 
ATOM     19  C   UNL A   1      34.930  23.327  24.454  1.00  0.00     0.104 C 
BRANCH  16  20
ATOM     20  C   UNL A   1      33.346  20.104  25.144  1.00  0.00     0.310 C 
ATOM     21  O   UNL A   1      32.170  19.795  25.301  1.00  0.00    -0.252 OA
BRANCH  20  22
ATOM     22  O   UNL A   1      34.313  19.264  24.704  1.00  0.00    -0.469 OA
ATOM     23  C   UNL A   1      33.834  17.993  24.266  1.00  0.00     0.282 C 
ENDBRANCH  20  22
ENDBRANCH  16  20
ENDBRANCH  12  15
ENDBRANCH   7  12
ENDBRANCH   4   6
ENDBRANCH   3   4
ENDBRANCH   2   3
ENDBRANCH   1   2
BRANCH   1  24
ATOM     24  O   UNL A   1      33.645  29.950  26.628  1.00  0.00    -0.374 OA
BRANCH  24  25
ATOM     25  C   UNL A   1      33.910  31.030  27.518  1.00  0.00     0.202 C 
BRANCH  25  26
ATOM     26  C   UNL A   1      32.886  32.170  27.617  1.00  0.00     0.261 C 
BRANCH  26  27
ATOM     27  O   UNL A   1      33.439  33.466  27.322  1.00  0.00    -0.460 OA
BRANCH  27  28
ATOM     28  C   UNL A   1      33.397  34.335  28.362  1.00  0.00     0.338 C 
ATOM     29  O   UNL A   1      32.524  35.151  28.608  1.00  0.00    -0.246 OA
BRANCH  28  30
ATOM     30  C   UNL A   1      34.483  34.056  29.319  1.00  0.00     0.060 A 
ATOM     31  C   UNL A   1      35.797  34.225  28.865  1.00  0.00     0.016 A 
ATOM     32  C   UNL A   1      34.230  33.515  30.580  1.00  0.00     0.016 A 
ATOM     33  C   UNL A   1      36.866  33.797  29.645  1.00  0.00     0.010 A 
ATOM     34  C   UNL A   1      35.308  33.078  31.360  1.00  0.00     0.010 A 
ATOM     35  C   UNL A   1      36.626  33.178  30.877  1.00  0.00    -0.014 A 
BRANCH  35  36
ATOM     36  C   UNL A   1      37.747  32.507  31.580  1.00  0.00     0.031 A 
ATOM     37  C   UNL A   1      38.425  31.332  30.928  1.00  0.00     0.074 A 
ATOM     38  C   UNL A   1      38.186  32.966  32.766  1.00  0.00     0.049 A 
ATOM     39  N   UNL A   1      39.392  30.575  31.382  1.00  0.00    -0.248 NA
ATOM     40  C   UNL A   1      37.948  30.958  29.587  1.00  0.00     0.031 C 
ATOM     41  C   UNL A   1      37.642  34.123  33.476  1.00  0.00     0.029 A 
ATOM     42  N   UNL A   1      39.187  32.507  33.584  1.00  0.00    -0.354 N 
ATOM     43  C   UNL A   1      39.628  29.629  30.390  1.00  0.00     0.074 A 
ATOM     44  C   UNL A   1      38.685  29.889  29.324  1.00  0.00     0.031 C 
ATOM     45  C   UNL A   1      38.309  34.275  34.633  1.00  0.00     0.029 A 
ATOM     46  C   UNL A   1      39.296  33.206  34.761  1.00  0.00     0.049 A 
ATOM     47  H   UNL A   1      39.770  31.749  33.350  1.00  0.00     0.167 HD
ATOM     48  C   UNL A   1      40.552  28.638  30.370  1.00  0.00     0.037 A 
ATOM     49  C   UNL A   1      40.082  32.988  35.833  1.00  0.00     0.037 A 
ATOM     50  C   UNL A   1      41.495  28.391  31.430  1.00  0.00     0.049 A 
ATOM     51  C   UNL A   1      41.053  31.836  35.814  1.00  0.00     0.074 A 
ATOM     52  C   UNL A   1      42.490  27.429  31.489  1.00  0.00     0.029 A 
ATOM     53  N   UNL A   1      41.557  29.103  32.617  1.00  0.00    -0.354 N 
ATOM     54  N   UNL A   1      41.287  30.963  34.863  1.00  0.00    -0.248 NA
ATOM     55  C   UNL A   1      41.875  31.642  37.018  1.00  0.00     0.031 C 
ATOM     56  C   UNL A   1      43.109  27.519  32.739  1.00  0.00     0.029 A 
ATOM     57  C   UNL A   1      42.550  28.581  33.430  1.00  0.00     0.049 A 
ATOM     58  H   UNL A   1      40.980  29.867  32.849  1.00  0.00     0.167 HD
ATOM     59  C   UNL A   1      42.302  30.141  35.339  1.00  0.00     0.074 A 
ATOM     60  C   UNL A   1      42.649  30.628  36.657  1.00  0.00     0.031 C 
ATOM     61  C   UNL A   1      42.894  29.081  34.737  1.00  0.00     0.037 A 
BRANCH  48  62
ATOM     62  C   UNL A   1      40.570  27.722  29.180  1.00  0.00     0.057 A 
ATOM     63  C   UNL A   1      39.730  26.605  29.087  1.00  0.00     0.134 A 
ATOM     64  C   UNL A   1      41.403  27.996  28.088  1.00  0.00     0.134 A 
ATOM     65  F   UNL A   1      38.916  26.278  30.101  1.00  0.00    -0.206 F 
ATOM     66  C   UNL A   1      39.732  25.783  27.957  1.00  0.00     0.040 A 
ATOM     67  C   UNL A   1      41.392  27.200  26.941  1.00  0.00     0.040 A 
ATOM     68  F   UNL A   1      42.228  29.053  28.108  1.00  0.00    -0.206 F 
ATOM     69  C   UNL A   1      40.558  26.085  26.876  1.00  0.00     0.006 A 
ENDBRANCH  48  62
BRANCH  49  70
ATOM     70  C   UNL A   1      39.969  33.860  37.030  1.00  0.00     0.057 A 
ATOM     71  C   UNL A   1      40.782  34.987  37.193  1.00  0.00     0.134 A 
ATOM     72  C   UNL A   1      39.061  33.567  38.057  1.00  0.00     0.134 A 
ATOM     73  F   UNL A   1      41.687  35.307  36.257  1.00  0.00    -0.206 F 
ATOM     74  C   UNL A   1      40.716  35.777  38.342  1.00  0.00     0.040 A 
ATOM     75  C   UNL A   1      38.962  34.366  39.196  1.00  0.00     0.040 A 
ATOM     76  F   UNL A   1      38.253  32.501  37.964  1.00  0.00    -0.206 F 
ATOM     77  C   UNL A   1      39.799  35.469  39.346  1.00  0.00     0.006 A 
ENDBRANCH  49  70
BRANCH  61  78
ATOM     78  C   UNL A   1      44.015  28.402  35.474  1.00  0.00     0.057 A 
ATOM     79  C   UNL A   1      43.795  27.317  36.330  1.00  0.00     0.134 A 
ATOM     80  C   UNL A   1      45.341  28.818  35.288  1.00  0.00     0.134 A 
ATOM     81  F   UNL A   1      42.549  26.874  36.562  1.00  0.00    -0.206 F 
ATOM     82  C   UNL A   1      44.849  26.687  36.996  1.00  0.00     0.040 A 
ATOM     83  C   UNL A   1      46.405  28.176  35.921  1.00  0.00     0.040 A 
ATOM     84  F   UNL A   1      45.625  29.844  34.471  1.00  0.00    -0.206 F 
ATOM     85  C   UNL A   1      46.159  27.111  36.786  1.00  0.00     0.006 A 
ENDBRANCH  61  78
ENDBRANCH  35  36
ENDBRANCH  28  30
ENDBRANCH  27  28
ENDBRANCH  26  27
ENDBRANCH  25  26
ENDBRANCH  24  25
ENDBRANCH   1  24
TORSDOF 18
ENDMDL
MODEL 3
REMARK VINA RESULT:     -10.5      1.302      2.047
REMARK SMILES COC(=O)[C@H]1CCN(S(=O)(=O)N2CCC[C@H](C(=O)OCCOCCOC(=O)c3ccc(-c4c5nc(c(-c6c(F)cccc6F)c6ccc([nH]6)c(-c6c(F)cccc6F)c6nc(c(-c7c(F)cccc7F)c7ccc4[nH]7)C=C6)C=C5)cc3)C2)C1
REMARK SMILES IDX 21 1 20 2 19 3 17 4 18 5 16 6 12 7 13 8 82 9 14 10 15 11
REMARK SMILES IDX 9 12 10 13 11 14 8 15 5 16 6 17 83 18 7 19 3 20 4 21 2 22
REMARK SMILES IDX 1 23 22 24 23 25 24 26 25 27 26 28 27 29 28 30 29 31 81 32
REMARK SMILES IDX 30 33 80 34 31 35 32 36 33 37 74 38 34 39 79 40 73 41 75 42
REMARK SMILES IDX 35 43 78 44 72 45 71 46 36 48 62 49 45 50 61 51 46 52 49 53
REMARK SMILES IDX 60 54 76 55 47 56 48 57 59 59 77 60 50 61 37 62 38 63 43 64
REMARK SMILES IDX 39 65 40 66 42 67 44 68 41 69 63 70 64 71 69 72 65 73 66 74
REMARK SMILES IDX 68 75 70 76 67 77 51 78 52 79 57 80 53 81 54 82 56 83 58 84
REMARK SMILES IDX 55 85
REMARK H PARENT 75 47 49 58
REMARK Flexibility Score: inf
ROOT
ATOM      1  C   UNL A   1      33.977  29.093  26.689  1.00  0.00     0.202 C 
ENDROOT
BRANCH   1   2
ATOM      2  C   UNL A   1      33.065  27.881  26.882  1.00  0.00     0.261 C 
BRANCH   2   3
ATOM      3  O   UNL A   1      31.727  28.176  26.464  1.00  0.00    -0.463 OA
BRANCH   3   4
ATOM      4  C   UNL A   1      31.063  27.141  25.896  1.00  0.00     0.310 C 
ATOM      5  O   UNL A   1      30.802  26.078  26.450  1.00  0.00    -0.252 OA
BRANCH   4   6
ATOM      6  C   UNL A   1      30.614  27.428  24.481  1.00  0.00     0.114 C 
ATOM      7  N   UNL A   1      32.214  25.970  23.329  1.00  0.00    -0.188 NA
ATOM      8  C   UNL A   1      32.762  27.044  22.478  1.00  0.00     0.103 C 
ATOM      9  C   UNL A   1      30.800  26.159  23.692  1.00  0.00     0.118 C 
ATOM     10  C   UNL A   1      32.610  28.388  23.192  1.00  0.00     0.018 C 
ATOM     11  C   UNL A   1      31.196  28.621  23.719  1.00  0.00     0.018 C 
BRANCH   7  12
ATOM     12  S   UNL A   1      32.751  24.401  23.074  1.00  0.00     0.282 S 
ATOM     13  O   UNL A   1      33.609  24.387  21.917  1.00  0.00    -0.195 OA
ATOM     14  O   UNL A   1      31.601  23.524  23.158  1.00  0.00    -0.195 OA
BRANCH  12  15
ATOM     15  N   UNL A   1      33.721  24.106  24.440  1.00  0.00    -0.188 NA
ATOM     16  C   UNL A   1      33.790  21.875  25.430  1.00  0.00     0.116 C 
ATOM     17  C   UNL A   1      34.838  22.005  24.341  1.00  0.00     0.033 C 
ATOM     18  C   UNL A   1      33.041  23.213  25.444  1.00  0.00     0.118 C 
ATOM     19  C   UNL A   1      35.060  23.492  24.251  1.00  0.00     0.104 C 
BRANCH  16  20
ATOM     20  C   UNL A   1      32.963  20.641  25.169  1.00  0.00     0.310 C 
ATOM     21  O   UNL A   1      31.740  20.677  25.095  1.00  0.00    -0.252 OA
BRANCH  20  22
ATOM     22  O   UNL A   1      33.708  19.513  25.082  1.00  0.00    -0.469 OA
ATOM     23  C   UNL A   1      32.952  18.325  24.849  1.00  0.00     0.282 C 
ENDBRANCH  20  22
ENDBRANCH  16  20
ENDBRANCH  12  15
ENDBRANCH   7  12
ENDBRANCH   4   6
ENDBRANCH   3   4
ENDBRANCH   2   3
ENDBRANCH   1   2
BRANCH   1  24
ATOM     24  O   UNL A   1      33.369  30.372  26.525  1.00  0.00    -0.374 OA
BRANCH  24  25
ATOM     25  C   UNL A   1      33.605  31.379  27.504  1.00  0.00     0.202 C 
BRANCH  25  26
ATOM     26  C   UNL A   1      32.661  32.588  27.560  1.00  0.00     0.261 C 
BRANCH  26  27
ATOM     27  O   UNL A   1      33.345  33.854  27.524  1.00  0.00    -0.460 OA
BRANCH  27  28
ATOM     28  C   UNL A   1      33.392  34.491  28.720  1.00  0.00     0.338 C 
ATOM     29  O   UNL A   1      32.554  35.242  29.190  1.00  0.00    -0.246 OA
BRANCH  28  30
ATOM     30  C   UNL A   1      34.538  34.020  29.518  1.00  0.00     0.060 A 
ATOM     31  C   UNL A   1      35.817  34.216  28.981  1.00  0.00     0.016 A 
ATOM     32  C   UNL A   1      34.364  33.285  30.691  1.00  0.00     0.016 A 
ATOM     33  C   UNL A   1      36.925  33.627  29.583  1.00  0.00     0.010 A 
ATOM     34  C   UNL A   1      35.480  32.688  31.290  1.00  0.00     0.010 A 
ATOM     35  C   UNL A   1      36.758  32.820  30.714  1.00  0.00    -0.014 A 
BRANCH  35  36
ATOM     36  C   UNL A   1      37.898  32.003  31.196  1.00  0.00     0.031 A 
ATOM     37  C   UNL A   1      38.486  32.290  32.552  1.00  0.00     0.074 A 
ATOM     38  C   UNL A   1      38.375  30.987  30.455  1.00  0.00     0.049 A 
ATOM     39  N   UNL A   1      39.507  31.729  33.149  1.00  0.00    -0.248 NA
ATOM     40  C   UNL A   1      37.840  33.353  33.337  1.00  0.00     0.031 C 
ATOM     41  C   UNL A   1      37.859  30.581  29.148  1.00  0.00     0.029 A 
ATOM     42  N   UNL A   1      39.408  30.117  30.696  1.00  0.00    -0.354 N 
ATOM     43  C   UNL A   1      39.634  32.380  34.371  1.00  0.00     0.074 A 
ATOM     44  C   UNL A   1      38.604  33.395  34.418  1.00  0.00     0.031 C 
ATOM     45  C   UNL A   1      38.589  29.547  28.696  1.00  0.00     0.029 A 
ATOM     46  C   UNL A   1      39.643  29.245  29.660  1.00  0.00     0.049 A 
ATOM     47  H   UNL A   1      39.930  30.117  31.531  1.00  0.00     0.167 HD
ATOM     48  C   UNL A   1      40.525  32.146  35.364  1.00  0.00     0.037 A 
ATOM     49  C   UNL A   1      40.619  28.331  29.498  1.00  0.00     0.037 A 
ATOM     50  C   UNL A   1      41.541  31.126  35.315  1.00  0.00     0.049 A 
ATOM     51  C   UNL A   1      41.639  28.138  30.588  1.00  0.00     0.074 A 
ATOM     52  C   UNL A   1      42.472  30.793  36.285  1.00  0.00     0.029 A 
ATOM     53  N   UNL A   1      41.765  30.283  34.239  1.00  0.00    -0.354 N 
ATOM     54  N   UNL A   1      41.736  28.740  31.750  1.00  0.00    -0.248 NA
ATOM     55  C   UNL A   1      42.686  27.134  30.347  1.00  0.00     0.031 C 
ATOM     56  C   UNL A   1      43.300  29.792  35.768  1.00  0.00     0.029 A 
ATOM     57  C   UNL A   1      42.840  29.452  34.506  1.00  0.00     0.049 A 
ATOM     58  H   UNL A   1      41.238  30.275  33.407  1.00  0.00     0.167 HD
ATOM     59  C   UNL A   1      42.829  28.165  32.389  1.00  0.00     0.074 A 
ATOM     60  C   UNL A   1      43.354  27.158  31.492  1.00  0.00     0.031 C 
ATOM     61  C   UNL A   1      43.348  28.444  33.609  1.00  0.00     0.037 A 
BRANCH  48  62
ATOM     62  C   UNL A   1      40.467  33.028  36.579  1.00  0.00     0.057 A 
ATOM     63  C   UNL A   1      41.350  34.099  36.765  1.00  0.00     0.134 A 
ATOM     64  C   UNL A   1      39.474  32.835  37.548  1.00  0.00     0.134 A 
ATOM     65  F   UNL A   1      42.332  34.334  35.882  1.00  0.00    -0.206 F 
ATOM     66  C   UNL A   1      41.260  34.933  37.883  1.00  0.00     0.040 A 
ATOM     67  C   UNL A   1      39.355  33.680  38.653  1.00  0.00     0.040 A 
ATOM     68  F   UNL A   1      38.590  31.832  37.429  1.00  0.00    -0.206 F 
ATOM     69  C   UNL A   1      40.254  34.730  38.825  1.00  0.00     0.006 A 
ENDBRANCH  48  62
BRANCH  49  70
ATOM     70  C   UNL A   1      40.699  27.543  28.241  1.00  0.00     0.057 A 
ATOM     71  C   UNL A   1      40.066  26.301  28.115  1.00  0.00     0.134 A 
ATOM     72  C   UNL A   1      41.438  28.003  27.143  1.00  0.00     0.134 A 
ATOM     73  F   UNL A   1      39.363  25.795  29.140  1.00  0.00    -0.206 F 
ATOM     74  C   UNL A   1      40.186  25.533  26.956  1.00  0.00     0.040 A 
ATOM     75  C   UNL A   1      41.539  27.261  25.966  1.00  0.00     0.040 A 
ATOM     76  F   UNL A   1      42.069  29.185  27.198  1.00  0.00    -0.206 F 
ATOM     77  C   UNL A   1      40.920  26.016  25.874  1.00  0.00     0.006 A 
ENDBRANCH  49  70
BRANCH  61  78
ATOM     78  C   UNL A   1      44.515  27.618  34.072  1.00  0.00     0.057 A 
ATOM     79  C   UNL A   1      45.841  28.034  33.894  1.00  0.00     0.134 A 
ATOM     80  C   UNL A   1      44.305  26.407  34.745  1.00  0.00     0.134 A 
ATOM     81  F   UNL A   1      46.114  29.178  33.249  1.00  0.00    -0.206 F 
ATOM     82  C   UNL A   1      46.914  27.262  34.344  1.00  0.00     0.040 A 
ATOM     83  C   UNL A   1      45.368  25.643  35.228  1.00  0.00     0.040 A 
ATOM     84  F   UNL A   1      43.060  25.954  34.961  1.00  0.00    -0.206 F 
ATOM     85  C   UNL A   1      46.678  26.067  35.020  1.00  0.00     0.006 A 
ENDBRANCH  61  78
ENDBRANCH  35  36
ENDBRANCH  28  30
ENDBRANCH  27  28
ENDBRANCH  26  27
ENDBRANCH  25  26
ENDBRANCH  24  25
ENDBRANCH   1  24
TORSDOF 18
ENDMDL
