MODEL 1
REMARK VINA RESULT:     -12.0      0.000      0.000
REMARK SMILES Cc1cc(C(=O)OCCOCCOC(=O)c2ccc(-c3c4nc(c(-c5c(F)cccc5F)c5ccc([nH]5)c(-c5c(F)cccc5F)c5nc(c(-c6c(F)cccc6F)c6ccc3[nH]6)C=C5)C=C4)cc2)ccc1NC(=O)N1C[C@@H](C)[C@H](C)C1
REMARK SMILES IDX 11 1 10 2 9 3 8 4 7 5 5 6 6 7 4 8 1 9 2 10 3 11 72 12 71 13
REMARK SMILES IDX 70 14 73 15 74 16 75 18 76 19 77 20 82 21 78 22 80 23 79 24
REMARK SMILES IDX 81 25 12 26 13 27 14 28 15 29 16 30 17 31 69 32 18 33 68 34
REMARK SMILES IDX 19 35 20 36 21 37 62 38 22 39 67 40 61 41 63 42 23 43 66 44
REMARK SMILES IDX 60 45 59 46 24 48 50 49 33 50 49 51 34 52 37 53 48 54 64 55
REMARK SMILES IDX 35 56 36 57 47 59 65 60 38 61 25 62 26 63 31 64 27 65 28 66
REMARK SMILES IDX 30 67 32 68 29 69 51 70 52 71 57 72 53 73 54 74 56 75 58 76
REMARK SMILES IDX 55 77 39 78 40 79 45 80 41 81 42 82 44 83 46 84 43 85
REMARK H PARENT 73 17 63 47 37 58
REMARK Flexibility Score: inf
ROOT
ATOM      1  C   UNL A   1      32.890  36.217  29.979  1.00  0.00     0.202 C 
ENDROOT
BRANCH   1   2
ATOM      2  O   UNL A   1      32.736  34.883  29.540  1.00  0.00    -0.374 OA
BRANCH   2   3
ATOM      3  C   UNL A   1      33.148  34.621  28.210  1.00  0.00     0.202 C 
BRANCH   3   4
ATOM      4  C   UNL A   1      34.187  33.543  28.309  1.00  0.00     0.261 C 
BRANCH   4   5
ATOM      5  O   UNL A   1      33.679  32.233  28.001  1.00  0.00    -0.460 OA
BRANCH   5   6
ATOM      6  C   UNL A   1      34.563  31.224  27.755  1.00  0.00     0.338 C 
ATOM      7  O   UNL A   1      35.750  31.197  27.990  1.00  0.00    -0.246 OA
BRANCH   6   8
ATOM      8  C   UNL A   1      33.783  30.169  27.081  1.00  0.00     0.060 A 
ATOM      9  C   UNL A   1      30.960  29.767  24.608  1.00  0.00     0.046 C 
ATOM     10  C   UNL A   1      31.932  29.431  25.704  1.00  0.00    -0.027 A 
ATOM     11  C   UNL A   1      32.750  30.467  26.195  1.00  0.00     0.021 A 
ATOM     12  C   UNL A   1      32.134  28.132  26.205  1.00  0.00     0.045 A 
ATOM     13  C   UNL A   1      33.336  27.833  26.832  1.00  0.00     0.027 A 
ATOM     14  C   UNL A   1      34.127  28.840  27.315  1.00  0.00     0.018 A 
BRANCH  12  15
ATOM     15  N   UNL A   1      31.146  27.133  26.148  1.00  0.00    -0.308 N 
ATOM     16  C   UNL A   1      30.814  26.335  25.078  1.00  0.00     0.321 C 
ATOM     17  H   UNL A   1      30.628  26.988  26.973  1.00  0.00     0.171 HD
ATOM     18  O   UNL A   1      29.669  25.893  24.998  1.00  0.00    -0.248 OA
ATOM     19  N   UNL A   1      31.770  26.069  24.119  1.00  0.00    -0.324 N 
ATOM     20  C   UNL A   1      31.415  25.944  22.720  1.00  0.00     0.125 C 
ATOM     21  C   UNL A   1      33.099  25.513  24.379  1.00  0.00     0.125 C 
ATOM     22  C   UNL A   1      32.402  24.938  22.141  1.00  0.00     0.010 C 
ATOM     23  C   UNL A   1      33.666  25.148  22.997  1.00  0.00     0.010 C 
ATOM     24  C   UNL A   1      32.640  25.143  20.652  1.00  0.00     0.010 C 
ATOM     25  C   UNL A   1      34.577  23.923  23.015  1.00  0.00     0.010 C 
ENDBRANCH  12  15
ENDBRANCH   6   8
ENDBRANCH   5   6
ENDBRANCH   4   5
ENDBRANCH   3   4
ENDBRANCH   2   3
ENDBRANCH   1   2
BRANCH   1  26
ATOM     26  C   UNL A   1      32.826  36.339  31.506  1.00  0.00     0.261 C 
BRANCH  26  27
ATOM     27  O   UNL A   1      33.265  35.100  32.105  1.00  0.00    -0.460 OA
BRANCH  27  28
ATOM     28  C   UNL A   1      34.544  35.072  32.577  1.00  0.00     0.338 C 
ATOM     29  O   UNL A   1      35.130  36.012  33.089  1.00  0.00    -0.246 OA
BRANCH  28  30
ATOM     30  C   UNL A   1      35.230  33.831  32.106  1.00  0.00     0.060 A 
ATOM     31  C   UNL A   1      35.120  32.639  32.853  1.00  0.00     0.016 A 
ATOM     32  C   UNL A   1      36.237  33.956  31.151  1.00  0.00     0.016 A 
ATOM     33  C   UNL A   1      36.115  31.650  32.759  1.00  0.00     0.010 A 
ATOM     34  C   UNL A   1      37.257  33.029  31.136  1.00  0.00     0.010 A 
ATOM     35  C   UNL A   1      37.232  31.892  31.962  1.00  0.00    -0.014 A 
BRANCH  35  36
ATOM     36  C   UNL A   1      38.500  31.150  31.989  1.00  0.00     0.031 A 
ATOM     37  C   UNL A   1      38.635  29.952  31.129  1.00  0.00     0.074 A 
ATOM     38  C   UNL A   1      39.621  31.719  32.503  1.00  0.00     0.049 A 
ATOM     39  N   UNL A   1      39.673  29.196  31.128  1.00  0.00    -0.248 NA
ATOM     40  C   UNL A   1      37.598  29.465  30.218  1.00  0.00     0.031 C 
ATOM     41  C   UNL A   1      41.020  31.477  32.131  1.00  0.00     0.029 A 
ATOM     42  N   UNL A   1      39.742  32.700  33.493  1.00  0.00    -0.354 N 
ATOM     43  C   UNL A   1      39.615  28.398  30.014  1.00  0.00     0.074 A 
ATOM     44  C   UNL A   1      38.247  28.488  29.574  1.00  0.00     0.031 C 
ATOM     45  C   UNL A   1      41.837  32.037  33.041  1.00  0.00     0.029 A 
ATOM     46  C   UNL A   1      41.000  32.564  34.102  1.00  0.00     0.049 A 
ATOM     47  H   UNL A   1      39.061  33.372  33.724  1.00  0.00     0.167 HD
ATOM     48  C   UNL A   1      40.781  27.873  29.547  1.00  0.00     0.037 A 
ATOM     49  C   UNL A   1      41.102  32.334  35.437  1.00  0.00     0.037 A 
ATOM     50  C   UNL A   1      41.869  28.106  30.512  1.00  0.00     0.049 A 
ATOM     51  C   UNL A   1      41.673  30.959  35.613  1.00  0.00     0.074 A 
ATOM     52  C   UNL A   1      43.000  28.904  30.511  1.00  0.00     0.029 A 
ATOM     53  N   UNL A   1      41.700  27.679  31.833  1.00  0.00    -0.354 N 
ATOM     54  N   UNL A   1      41.584  30.051  34.677  1.00  0.00    -0.248 NA
ATOM     55  C   UNL A   1      42.495  30.527  36.736  1.00  0.00     0.031 C 
ATOM     56  C   UNL A   1      43.435  29.040  31.866  1.00  0.00     0.029 A 
ATOM     57  C   UNL A   1      42.602  28.288  32.684  1.00  0.00     0.049 A 
ATOM     58  H   UNL A   1      41.021  27.026  32.121  1.00  0.00     0.167 HD
ATOM     59  C   UNL A   1      42.394  29.008  34.981  1.00  0.00     0.074 A 
ATOM     60  C   UNL A   1      42.898  29.315  36.308  1.00  0.00     0.031 C 
ATOM     61  C   UNL A   1      42.615  27.981  34.115  1.00  0.00     0.037 A 
BRANCH  48  62
ATOM     62  C   UNL A   1      40.991  27.274  28.169  1.00  0.00     0.057 A 
ATOM     63  C   UNL A   1      41.572  28.046  27.144  1.00  0.00     0.134 A 
ATOM     64  C   UNL A   1      40.583  25.989  27.751  1.00  0.00     0.134 A 
ATOM     65  F   UNL A   1      41.980  29.304  27.364  1.00  0.00    -0.206 F 
ATOM     66  C   UNL A   1      41.753  27.574  25.832  1.00  0.00     0.040 A 
ATOM     67  C   UNL A   1      40.805  25.487  26.458  1.00  0.00     0.040 A 
ATOM     68  F   UNL A   1      39.895  25.160  28.540  1.00  0.00    -0.206 F 
ATOM     69  C   UNL A   1      41.387  26.282  25.488  1.00  0.00     0.006 A 
ENDBRANCH  48  62
BRANCH  49  70
ATOM     70  C   UNL A   1      40.046  33.063  36.200  1.00  0.00     0.057 A 
ATOM     71  C   UNL A   1      38.959  32.290  36.666  1.00  0.00     0.134 A 
ATOM     72  C   UNL A   1      40.312  34.246  36.901  1.00  0.00     0.134 A 
ATOM     73  F   UNL A   1      38.655  31.127  36.065  1.00  0.00    -0.206 F 
ATOM     74  C   UNL A   1      38.260  32.607  37.838  1.00  0.00     0.040 A 
ATOM     75  C   UNL A   1      39.625  34.564  38.086  1.00  0.00     0.040 A 
ATOM     76  F   UNL A   1      41.337  35.032  36.545  1.00  0.00    -0.206 F 
ATOM     77  C   UNL A   1      38.625  33.725  38.579  1.00  0.00     0.006 A 
ENDBRANCH  49  70
BRANCH  61  78
ATOM     78  C   UNL A   1      42.912  26.591  34.593  1.00  0.00     0.057 A 
ATOM     79  C   UNL A   1      41.968  25.795  35.263  1.00  0.00     0.134 A 
ATOM     80  C   UNL A   1      44.096  25.932  34.208  1.00  0.00     0.134 A 
ATOM     81  F   UNL A   1      40.747  26.254  35.576  1.00  0.00    -0.206 F 
ATOM     82  C   UNL A   1      42.210  24.461  35.590  1.00  0.00     0.040 A 
ATOM     83  C   UNL A   1      44.321  24.581  34.473  1.00  0.00     0.040 A 
ATOM     84  F   UNL A   1      45.065  26.557  33.523  1.00  0.00    -0.206 F 
ATOM     85  C   UNL A   1      43.385  23.845  35.183  1.00  0.00     0.006 A 
ENDBRANCH  61  78
ENDBRANCH  35  36
ENDBRANCH  28  30
ENDBRANCH  27  28
ENDBRANCH  26  27
ENDBRANCH   1  26
TORSDOF 15
ENDMDL
MODEL 2
REMARK VINA RESULT:     -11.8      1.459      2.169
REMARK SMILES Cc1cc(C(=O)OCCOCCOC(=O)c2ccc(-c3c4nc(c(-c5c(F)cccc5F)c5ccc([nH]5)c(-c5c(F)cccc5F)c5nc(c(-c6c(F)cccc6F)c6ccc3[nH]6)C=C5)C=C4)cc2)ccc1NC(=O)N1C[C@@H](C)[C@H](C)C1
REMARK SMILES IDX 11 1 10 2 9 3 8 4 7 5 5 6 6 7 4 8 1 9 2 10 3 11 72 12 71 13
REMARK SMILES IDX 70 14 73 15 74 16 75 18 76 19 77 20 82 21 78 22 80 23 79 24
REMARK SMILES IDX 81 25 12 26 13 27 14 28 15 29 16 30 17 31 69 32 18 33 68 34
REMARK SMILES IDX 19 35 20 36 21 37 62 38 22 39 67 40 61 41 63 42 23 43 66 44
REMARK SMILES IDX 60 45 59 46 24 48 50 49 33 50 49 51 34 52 37 53 48 54 64 55
REMARK SMILES IDX 35 56 36 57 47 59 65 60 38 61 25 62 26 63 31 64 27 65 28 66
REMARK SMILES IDX 30 67 32 68 29 69 51 70 52 71 57 72 53 73 54 74 56 75 58 76
REMARK SMILES IDX 55 77 39 78 40 79 45 80 41 81 42 82 44 83 46 84 43 85
REMARK H PARENT 73 17 63 47 37 58
REMARK Flexibility Score: inf
ROOT
ATOM      1  C   UNL A   1      32.970  34.023  28.433  1.00  0.00     0.202 C 
ENDROOT
BRANCH   1   2
ATOM      2  O   UNL A   1      33.965  33.245  27.800  1.00  0.00    -0.374 OA
BRANCH   2   3
ATOM      3  C   UNL A   1      34.003  31.877  28.166  1.00  0.00     0.202 C 
BRANCH   3   4
ATOM      4  C   UNL A   1      33.203  31.154  27.122  1.00  0.00     0.261 C 
BRANCH   4   5
ATOM      5  O   UNL A   1      33.369  29.726  27.166  1.00  0.00    -0.460 OA
BRANCH   5   6
ATOM      6  C   UNL A   1      32.293  28.929  26.911  1.00  0.00     0.338 C 
ATOM      7  O   UNL A   1      31.494  28.477  27.700  1.00  0.00    -0.246 OA
BRANCH   6   8
ATOM      8  C   UNL A   1      32.323  28.672  25.459  1.00  0.00     0.060 A 
ATOM      9  C   UNL A   1      30.130  28.983  22.402  1.00  0.00     0.046 C 
ATOM     10  C   UNL A   1      31.246  28.517  23.294  1.00  0.00    -0.027 A 
ATOM     11  C   UNL A   1      31.224  28.930  24.641  1.00  0.00     0.021 A 
ATOM     12  C   UNL A   1      32.352  27.772  22.846  1.00  0.00     0.045 A 
ATOM     13  C   UNL A   1      33.527  27.803  23.585  1.00  0.00     0.027 A 
ATOM     14  C   UNL A   1      33.504  28.197  24.895  1.00  0.00     0.018 A 
BRANCH  12  15
ATOM     15  N   UNL A   1      32.302  26.947  21.708  1.00  0.00    -0.308 N 
ATOM     16  C   UNL A   1      32.804  25.675  21.566  1.00  0.00     0.321 C 
ATOM     17  H   UNL A   1      31.854  27.328  20.918  1.00  0.00     0.171 HD
ATOM     18  O   UNL A   1      33.134  25.288  20.445  1.00  0.00    -0.248 OA
ATOM     19  N   UNL A   1      32.939  24.880  22.684  1.00  0.00    -0.324 N 
ATOM     20  C   UNL A   1      34.046  23.954  22.818  1.00  0.00     0.125 C 
ATOM     21  C   UNL A   1      31.871  24.567  23.636  1.00  0.00     0.125 C 
ATOM     22  C   UNL A   1      33.500  22.787  23.632  1.00  0.00     0.010 C 
ATOM     23  C   UNL A   1      32.432  23.446  24.526  1.00  0.00     0.010 C 
ATOM     24  C   UNL A   1      34.585  22.066  24.418  1.00  0.00     0.010 C 
ATOM     25  C   UNL A   1      31.372  22.457  25.005  1.00  0.00     0.010 C 
ENDBRANCH  12  15
ENDBRANCH   6   8
ENDBRANCH   5   6
ENDBRANCH   4   5
ENDBRANCH   3   4
ENDBRANCH   2   3
ENDBRANCH   1   2
BRANCH   1  26
ATOM     26  C   UNL A   1      33.564  35.063  29.391  1.00  0.00     0.261 C 
BRANCH  26  27
ATOM     27  O   UNL A   1      33.408  34.604  30.752  1.00  0.00    -0.460 OA
BRANCH  27  28
ATOM     28  C   UNL A   1      34.543  34.534  31.504  1.00  0.00     0.338 C 
ATOM     29  O   UNL A   1      34.967  35.418  32.230  1.00  0.00    -0.246 OA
BRANCH  28  30
ATOM     30  C   UNL A   1      35.355  33.352  31.085  1.00  0.00     0.060 A 
ATOM     31  C   UNL A   1      35.216  32.124  31.763  1.00  0.00     0.016 A 
ATOM     32  C   UNL A   1      36.472  33.572  30.280  1.00  0.00     0.016 A 
ATOM     33  C   UNL A   1      36.269  31.192  31.767  1.00  0.00     0.010 A 
ATOM     34  C   UNL A   1      37.537  32.701  30.368  1.00  0.00     0.010 A 
ATOM     35  C   UNL A   1      37.466  31.527  31.139  1.00  0.00    -0.014 A 
BRANCH  35  36
ATOM     36  C   UNL A   1      38.760  30.852  31.310  1.00  0.00     0.031 A 
ATOM     37  C   UNL A   1      39.066  29.686  30.449  1.00  0.00     0.074 A 
ATOM     38  C   UNL A   1      39.775  31.463  31.972  1.00  0.00     0.049 A 
ATOM     39  N   UNL A   1      40.136  28.985  30.563  1.00  0.00    -0.248 NA
ATOM     40  C   UNL A   1      38.178  29.171  29.405  1.00  0.00     0.031 C 
ATOM     41  C   UNL A   1      41.221  31.304  31.774  1.00  0.00     0.029 A 
ATOM     42  N   UNL A   1      39.719  32.422  32.990  1.00  0.00    -0.354 N 
ATOM     43  C   UNL A   1      40.259  28.216  29.434  1.00  0.00     0.074 A 
ATOM     44  C   UNL A   1      38.954  28.247  28.828  1.00  0.00     0.031 C 
ATOM     45  C   UNL A   1      41.887  31.880  32.791  1.00  0.00     0.029 A 
ATOM     46  C   UNL A   1      40.897  32.333  33.749  1.00  0.00     0.049 A 
ATOM     47  H   UNL A   1      38.979  33.051  33.147  1.00  0.00     0.167 HD
ATOM     48  C   UNL A   1      41.501  27.764  29.106  1.00  0.00     0.037 A 
ATOM     49  C   UNL A   1      40.845  32.073  35.081  1.00  0.00     0.037 A 
ATOM     50  C   UNL A   1      42.447  28.027  30.206  1.00  0.00     0.049 A 
ATOM     51  C   UNL A   1      41.463  30.725  35.299  1.00  0.00     0.074 A 
ATOM     52  C   UNL A   1      43.524  28.881  30.363  1.00  0.00     0.029 A 
ATOM     53  N   UNL A   1      42.139  27.556  31.486  1.00  0.00    -0.354 N 
ATOM     54  N   UNL A   1      41.540  29.840  34.340  1.00  0.00    -0.248 NA
ATOM     55  C   UNL A   1      42.162  30.306  36.508  1.00  0.00     0.031 C 
ATOM     56  C   UNL A   1      43.779  29.002  31.764  1.00  0.00     0.029 A 
ATOM     57  C   UNL A   1      42.893  28.187  32.456  1.00  0.00     0.049 A 
ATOM     58  H   UNL A   1      41.466  26.861  31.673  1.00  0.00     0.167 HD
ATOM     59  C   UNL A   1      42.362  28.832  34.722  1.00  0.00     0.074 A 
ATOM     60  C   UNL A   1      42.680  29.128  36.108  1.00  0.00     0.031 C 
ATOM     61  C   UNL A   1      42.745  27.841  33.870  1.00  0.00     0.037 A 
BRANCH  48  62
ATOM     62  C   UNL A   1      41.913  27.214  27.754  1.00  0.00     0.057 A 
ATOM     63  C   UNL A   1      42.377  25.889  27.641  1.00  0.00     0.134 A 
ATOM     64  C   UNL A   1      41.958  27.937  26.542  1.00  0.00     0.134 A 
ATOM     65  F   UNL A   1      42.436  25.077  28.707  1.00  0.00    -0.206 F 
ATOM     66  C   UNL A   1      42.821  25.328  26.431  1.00  0.00     0.040 A 
ATOM     67  C   UNL A   1      42.349  27.373  25.317  1.00  0.00     0.040 A 
ATOM     68  F   UNL A   1      41.685  29.242  26.472  1.00  0.00    -0.206 F 
ATOM     69  C   UNL A   1      42.790  26.064  25.257  1.00  0.00     0.006 A 
ENDBRANCH  48  62
BRANCH  49  70
ATOM     70  C   UNL A   1      39.664  32.725  35.721  1.00  0.00     0.057 A 
ATOM     71  C   UNL A   1      38.637  31.866  36.171  1.00  0.00     0.134 A 
ATOM     72  C   UNL A   1      39.748  33.974  36.349  1.00  0.00     0.134 A 
ATOM     73  F   UNL A   1      38.505  30.639  35.639  1.00  0.00    -0.206 F 
ATOM     74  C   UNL A   1      37.825  32.177  37.271  1.00  0.00     0.040 A 
ATOM     75  C   UNL A   1      38.948  34.288  37.462  1.00  0.00     0.040 A 
ATOM     76  F   UNL A   1      40.705  34.847  36.004  1.00  0.00    -0.206 F 
ATOM     77  C   UNL A   1      38.013  33.375  37.950  1.00  0.00     0.006 A 
ENDBRANCH  49  70
BRANCH  61  78
ATOM     78  C   UNL A   1      43.056  26.456  34.353  1.00  0.00     0.057 A 
ATOM     79  C   UNL A   1      42.099  25.626  34.961  1.00  0.00     0.134 A 
ATOM     80  C   UNL A   1      44.278  25.836  34.031  1.00  0.00     0.134 A 
ATOM     81  F   UNL A   1      40.849  26.046  35.208  1.00  0.00    -0.206 F 
ATOM     82  C   UNL A   1      42.362  24.296  35.290  1.00  0.00     0.040 A 
ATOM     83  C   UNL A   1      44.528  24.490  34.297  1.00  0.00     0.040 A 
ATOM     84  F   UNL A   1      45.266  26.496  33.407  1.00  0.00    -0.206 F 
ATOM     85  C   UNL A   1      43.575  23.719  34.946  1.00  0.00     0.006 A 
ENDBRANCH  61  78
ENDBRANCH  35  36
ENDBRANCH  28  30
ENDBRANCH  27  28
ENDBRANCH  26  27
ENDBRANCH   1  26
TORSDOF 15
ENDMDL
MODEL 3
REMARK VINA RESULT:     -11.5      4.350      9.483
REMARK SMILES Cc1cc(C(=O)OCCOCCOC(=O)c2ccc(-c3c4nc(c(-c5c(F)cccc5F)c5ccc([nH]5)c(-c5c(F)cccc5F)c5nc(c(-c6c(F)cccc6F)c6ccc3[nH]6)C=C5)C=C4)cc2)ccc1NC(=O)N1C[C@@H](C)[C@H](C)C1
REMARK SMILES IDX 11 1 10 2 9 3 8 4 7 5 5 6 6 7 4 8 1 9 2 10 3 11 72 12 71 13
REMARK SMILES IDX 70 14 73 15 74 16 75 18 76 19 77 20 82 21 78 22 80 23 79 24
REMARK SMILES IDX 81 25 12 26 13 27 14 28 15 29 16 30 17 31 69 32 18 33 68 34
REMARK SMILES IDX 19 35 20 36 21 37 62 38 22 39 67 40 61 41 63 42 23 43 66 44
REMARK SMILES IDX 60 45 59 46 24 48 50 49 33 50 49 51 34 52 37 53 48 54 64 55
REMARK SMILES IDX 35 56 36 57 47 59 65 60 38 61 25 62 26 63 31 64 27 65 28 66
REMARK SMILES IDX 30 67 32 68 29 69 51 70 52 71 57 72 53 73 54 74 56 75 58 76
REMARK SMILES IDX 55 77 39 78 40 79 45 80 41 81 42 82 44 83 46 84 43 85
REMARK H PARENT 73 17 63 47 37 58
REMARK Flexibility Score: inf
ROOT
ATOM      1  C   UNL A   1      38.010  22.331  25.534  1.00  0.00     0.202 C 
ENDROOT
BRANCH   1   2
ATOM      2  O   UNL A   1      37.144  21.215  25.516  1.00  0.00    -0.374 OA
BRANCH   2   3
ATOM      3  C   UNL A   1      35.827  21.464  25.057  1.00  0.00     0.202 C 
BRANCH   3   4
ATOM      4  C   UNL A   1      35.109  20.150  25.147  1.00  0.00     0.261 C 
BRANCH   4   5
ATOM      5  O   UNL A   1      34.001  20.044  24.236  1.00  0.00    -0.460 OA
BRANCH   5   6
ATOM      6  C   UNL A   1      32.734  20.016  24.739  1.00  0.00     0.338 C 
ATOM      7  O   UNL A   1      32.135  19.072  25.204  1.00  0.00    -0.246 OA
BRANCH   6   8
ATOM      8  C   UNL A   1      32.201  21.379  24.550  1.00  0.00     0.060 A 
ATOM      9  C   UNL A   1      30.513  24.138  26.495  1.00  0.00     0.046 C 
ATOM     10  C   UNL A   1      30.969  23.316  25.323  1.00  0.00    -0.027 A 
ATOM     11  C   UNL A   1      31.606  22.088  25.591  1.00  0.00     0.021 A 
ATOM     12  C   UNL A   1      30.879  23.738  23.984  1.00  0.00     0.045 A 
ATOM     13  C   UNL A   1      31.729  23.174  23.043  1.00  0.00     0.027 A 
ATOM     14  C   UNL A   1      32.342  21.977  23.301  1.00  0.00     0.018 A 
BRANCH  12  15
ATOM     15  N   UNL A   1      29.923  24.671  23.544  1.00  0.00    -0.308 N 
ATOM     16  C   UNL A   1      29.908  26.029  23.762  1.00  0.00     0.321 C 
ATOM     17  H   UNL A   1      29.174  24.308  23.018  1.00  0.00     0.171 HD
ATOM     18  O   UNL A   1      28.827  26.618  23.771  1.00  0.00    -0.248 OA
ATOM     19  N   UNL A   1      31.100  26.685  23.981  1.00  0.00    -0.324 N 
ATOM     20  C   UNL A   1      31.186  27.802  24.901  1.00  0.00     0.125 C 
ATOM     21  C   UNL A   1      32.268  26.638  23.098  1.00  0.00     0.125 C 
ATOM     22  C   UNL A   1      32.269  28.711  24.334  1.00  0.00     0.010 C 
ATOM     23  C   UNL A   1      33.217  27.730  23.619  1.00  0.00     0.010 C 
ATOM     24  C   UNL A   1      32.956  29.542  25.408  1.00  0.00     0.010 C 
ATOM     25  C   UNL A   1      34.039  28.400  22.519  1.00  0.00     0.010 C 
ENDBRANCH  12  15
ENDBRANCH   6   8
ENDBRANCH   5   6
ENDBRANCH   4   5
ENDBRANCH   3   4
ENDBRANCH   2   3
ENDBRANCH   1   2
BRANCH   1  26
ATOM     26  C   UNL A   1      39.362  22.010  26.185  1.00  0.00     0.261 C 
BRANCH  26  27
ATOM     27  O   UNL A   1      39.617  22.953  27.248  1.00  0.00    -0.460 OA
BRANCH  27  28
ATOM     28  C   UNL A   1      40.641  23.832  27.048  1.00  0.00     0.338 C 
ATOM     29  O   UNL A   1      41.823  23.538  26.977  1.00  0.00    -0.246 OA
BRANCH  28  30
ATOM     30  C   UNL A   1      40.149  25.231  27.232  1.00  0.00     0.060 A 
ATOM     31  C   UNL A   1      40.597  26.255  26.371  1.00  0.00     0.016 A 
ATOM     32  C   UNL A   1      39.548  25.564  28.444  1.00  0.00     0.016 A 
ATOM     33  C   UNL A   1      40.592  27.594  26.800  1.00  0.00     0.010 A 
ATOM     34  C   UNL A   1      39.637  26.863  28.896  1.00  0.00     0.010 A 
ATOM     35  C   UNL A   1      40.193  27.882  28.103  1.00  0.00    -0.014 A 
BRANCH  35  36
ATOM     36  C   UNL A   1      40.424  29.139  28.828  1.00  0.00     0.031 A 
ATOM     37  C   UNL A   1      39.296  30.086  28.977  1.00  0.00     0.074 A 
ATOM     38  C   UNL A   1      41.511  29.282  29.629  1.00  0.00     0.049 A 
ATOM     39  N   UNL A   1      39.409  31.238  29.532  1.00  0.00    -0.248 NA
ATOM     40  C   UNL A   1      37.941  29.845  28.477  1.00  0.00     0.031 C 
ATOM     41  C   UNL A   1      41.654  30.106  30.836  1.00  0.00     0.029 A 
ATOM     42  N   UNL A   1      42.765  28.667  29.539  1.00  0.00    -0.354 N 
ATOM     43  C   UNL A   1      38.147  31.705  29.798  1.00  0.00     0.074 A 
ATOM     44  C   UNL A   1      37.279  30.889  28.989  1.00  0.00     0.031 C 
ATOM     45  C   UNL A   1      42.950  30.177  31.189  1.00  0.00     0.029 A 
ATOM     46  C   UNL A   1      43.713  29.499  30.158  1.00  0.00     0.049 A 
ATOM     47  H   UNL A   1      42.952  27.799  29.115  1.00  0.00     0.167 HD
ATOM     48  C   UNL A   1      38.009  32.643  30.776  1.00  0.00     0.037 A 
ATOM     49  C   UNL A   1      44.780  29.971  29.462  1.00  0.00     0.037 A 
ATOM     50  C   UNL A   1      39.332  33.135  31.202  1.00  0.00     0.049 A 
ATOM     51  C   UNL A   1      44.618  31.458  29.350  1.00  0.00     0.074 A 
ATOM     52  C   UNL A   1      40.081  33.000  32.357  1.00  0.00     0.029 A 
ATOM     53  N   UNL A   1      40.204  33.643  30.233  1.00  0.00    -0.354 N 
ATOM     54  N   UNL A   1      43.450  32.034  29.461  1.00  0.00    -0.248 NA
ATOM     55  C   UNL A   1      45.711  32.417  29.259  1.00  0.00     0.031 C 
ATOM     56  C   UNL A   1      41.435  33.324  32.035  1.00  0.00     0.029 A 
ATOM     57  C   UNL A   1      41.502  33.703  30.700  1.00  0.00     0.049 A 
ATOM     58  H   UNL A   1      39.927  33.922  29.330  1.00  0.00     0.167 HD
ATOM     59  C   UNL A   1      43.618  33.373  29.581  1.00  0.00     0.074 A 
ATOM     60  C   UNL A   1      45.043  33.580  29.386  1.00  0.00     0.031 C 
ATOM     61  C   UNL A   1      42.584  34.215  29.858  1.00  0.00     0.037 A 
BRANCH  48  62
ATOM     62  C   UNL A   1      36.709  33.025  31.457  1.00  0.00     0.057 A 
ATOM     63  C   UNL A   1      35.790  33.870  30.803  1.00  0.00     0.134 A 
ATOM     64  C   UNL A   1      36.324  32.674  32.768  1.00  0.00     0.134 A 
ATOM     65  F   UNL A   1      36.022  34.327  29.564  1.00  0.00    -0.206 F 
ATOM     66  C   UNL A   1      34.589  34.304  31.390  1.00  0.00     0.040 A 
ATOM     67  C   UNL A   1      35.103  33.059  33.348  1.00  0.00     0.040 A 
ATOM     68  F   UNL A   1      37.120  31.991  33.594  1.00  0.00    -0.206 F 
ATOM     69  C   UNL A   1      34.231  33.884  32.661  1.00  0.00     0.006 A 
ENDBRANCH  48  62
BRANCH  49  70
ATOM     70  C   UNL A   1      45.286  28.963  28.485  1.00  0.00     0.057 A 
ATOM     71  C   UNL A   1      45.001  29.207  27.123  1.00  0.00     0.134 A 
ATOM     72  C   UNL A   1      46.400  28.157  28.751  1.00  0.00     0.134 A 
ATOM     73  F   UNL A   1      43.965  29.993  26.783  1.00  0.00    -0.206 F 
ATOM     74  C   UNL A   1      45.850  28.786  26.090  1.00  0.00     0.040 A 
ATOM     75  C   UNL A   1      47.264  27.742  27.723  1.00  0.00     0.040 A 
ATOM     76  F   UNL A   1      46.760  27.889  30.013  1.00  0.00    -0.206 F 
ATOM     77  C   UNL A   1      47.014  28.089  26.395  1.00  0.00     0.006 A 
ENDBRANCH  49  70
BRANCH  61  78
ATOM     78  C   UNL A   1      42.563  35.632  29.369  1.00  0.00     0.057 A 
ATOM     79  C   UNL A   1      43.346  36.650  29.940  1.00  0.00     0.134 A 
ATOM     80  C   UNL A   1      41.911  35.973  28.168  1.00  0.00     0.134 A 
ATOM     81  F   UNL A   1      44.122  36.431  31.012  1.00  0.00    -0.206 F 
ATOM     82  C   UNL A   1      43.417  37.933  29.399  1.00  0.00     0.040 A 
ATOM     83  C   UNL A   1      42.027  37.234  27.583  1.00  0.00     0.040 A 
ATOM     84  F   UNL A   1      41.167  35.087  27.489  1.00  0.00    -0.206 F 
ATOM     85  C   UNL A   1      42.768  38.226  28.209  1.00  0.00     0.006 A 
ENDBRANCH  61  78
ENDBRANCH  35  36
ENDBRANCH  28  30
ENDBRANCH  27  28
ENDBRANCH  26  27
ENDBRANCH   1  26
TORSDOF 15
ENDMDL
