MODEL 1
REMARK VINA RESULT:     -11.9      0.000      0.000
REMARK SMILES Cc1cc(F)ccc1OC1(C(=O)OCCOCCOC(=O)c2ccc(-c3c4nc(c(-c5c(F)cccc5F)c5ccc([nH]5)c(-c5c(F)cccc5F)c5nc(c(-c6c(F)cccc6F)c6ccc3[nH]6)C=C5)C=C4)cc2)CCN(C(=O)[C@H]2CCOC2)CC1
REMARK SMILES IDX 16 1 15 2 14 3 13 4 11 5 12 6 10 7 76 8 87 9 77 10 86 11
REMARK SMILES IDX 78 12 79 13 80 14 9 15 8 16 1 17 2 18 3 19 4 20 7 21 5 22
REMARK SMILES IDX 6 23 81 24 82 25 85 26 83 27 84 28 17 29 18 30 19 31 20 32
REMARK SMILES IDX 21 33 22 34 23 35 75 36 24 37 74 38 25 39 26 40 27 41 68 42
REMARK SMILES IDX 28 43 73 44 67 45 69 46 29 47 72 48 66 49 65 50 30 52 56 53
REMARK SMILES IDX 39 54 55 55 40 56 43 57 54 58 70 59 41 60 42 61 53 63 71 64
REMARK SMILES IDX 44 65 31 66 32 67 37 68 33 69 34 70 36 71 38 72 35 73 57 74
REMARK SMILES IDX 58 75 63 76 59 77 60 78 62 79 64 80 61 81 45 82 46 83 51 84
REMARK SMILES IDX 47 85 48 86 50 87 52 88 49 89
REMARK H PARENT 69 51 43 62
REMARK Flexibility Score: inf
ROOT
ATOM      1  O   UNL A   1      41.200  20.864  25.928  1.00  0.00    -0.374 OA
ENDROOT
BRANCH   1   2
ATOM      2  C   UNL A   1      40.149  21.498  26.661  1.00  0.00     0.202 C 
BRANCH   2   3
ATOM      3  C   UNL A   1      39.163  22.325  25.830  1.00  0.00     0.261 C 
BRANCH   3   4
ATOM      4  O   UNL A   1      37.815  21.895  26.107  1.00  0.00    -0.460 OA
BRANCH   4   5
ATOM      5  C   UNL A   1      37.268  21.027  25.213  1.00  0.00     0.350 C 
ATOM      6  O   UNL A   1      37.930  20.188  24.605  1.00  0.00    -0.247 OA
BRANCH   5   7
ATOM      7  C   UNL A   1      35.724  21.210  25.037  1.00  0.00     0.209 C 
ATOM      8  C   UNL A   1      35.000  21.478  26.355  1.00  0.00     0.082 C 
ATOM      9  C   UNL A   1      35.641  22.293  23.968  1.00  0.00     0.082 C 
ATOM     10  C   UNL A   1      34.154  22.740  26.453  1.00  0.00     0.124 C 
ATOM     11  C   UNL A   1      34.365  23.099  23.954  1.00  0.00     0.124 C 
ATOM     12  N   UNL A   1      33.923  23.555  25.267  1.00  0.00    -0.342 N 
ATOM     13  C   UNL A   1      33.070  24.646  25.473  1.00  0.00     0.228 C 
ATOM     14  O   UNL A   1      32.657  24.916  26.604  1.00  0.00    -0.274 OA
BRANCH   7  15
ATOM     15  O   UNL A   1      35.500  19.865  24.572  1.00  0.00    -0.475 OA
BRANCH  15  16
ATOM     16  C   UNL A   1      34.560  18.906  24.630  1.00  0.00     0.124 A 
ATOM     17  C   UNL A   1      32.270  20.118  24.580  1.00  0.00     0.048 C 
ATOM     18  C   UNL A   1      33.164  18.925  24.608  1.00  0.00    -0.006 A 
ATOM     19  C   UNL A   1      32.463  17.693  24.677  1.00  0.00     0.046 A 
ATOM     20  C   UNL A   1      33.128  16.482  24.807  1.00  0.00     0.123 A 
ATOM     21  C   UNL A   1      35.203  17.653  24.778  1.00  0.00     0.050 A 
ATOM     22  F   UNL A   1      32.427  15.345  24.886  1.00  0.00    -0.207 F 
ATOM     23  C   UNL A   1      34.503  16.451  24.871  1.00  0.00     0.043 A 
ENDBRANCH  15  16
ENDBRANCH   7  15
BRANCH  13  24
ATOM     24  C   UNL A   1      32.613  25.459  24.275  1.00  0.00     0.107 C 
ATOM     25  C   UNL A   1      31.413  26.327  24.594  1.00  0.00     0.044 C 
ATOM     26  C   UNL A   1      33.644  26.498  23.870  1.00  0.00     0.173 C 
ATOM     27  C   UNL A   1      31.561  27.500  23.645  1.00  0.00     0.161 C 
ATOM     28  O   UNL A   1      32.926  27.557  23.225  1.00  0.00    -0.381 OA
ENDBRANCH  13  24
ENDBRANCH   5   7
ENDBRANCH   4   5
ENDBRANCH   3   4
ENDBRANCH   2   3
ENDBRANCH   1   2
BRANCH   1  29
ATOM     29  C   UNL A   1      42.537  21.062  26.384  1.00  0.00     0.202 C 
BRANCH  29  30
ATOM     30  C   UNL A   1      43.507  21.694  25.376  1.00  0.00     0.261 C 
BRANCH  30  31
ATOM     31  O   UNL A   1      42.986  22.907  24.801  1.00  0.00    -0.460 OA
BRANCH  31  32
ATOM     32  C   UNL A   1      43.739  24.008  25.034  1.00  0.00     0.338 C 
ATOM     33  O   UNL A   1      44.807  24.299  24.509  1.00  0.00    -0.246 OA
BRANCH  32  34
ATOM     34  C   UNL A   1      43.022  24.953  25.908  1.00  0.00     0.060 A 
ATOM     35  C   UNL A   1      43.619  26.202  26.124  1.00  0.00     0.016 A 
ATOM     36  C   UNL A   1      41.848  24.603  26.578  1.00  0.00     0.016 A 
ATOM     37  C   UNL A   1      43.077  27.083  27.056  1.00  0.00     0.010 A 
ATOM     38  C   UNL A   1      41.308  25.489  27.519  1.00  0.00     0.010 A 
ATOM     39  C   UNL A   1      41.942  26.716  27.791  1.00  0.00    -0.014 A 
BRANCH  39  40
ATOM     40  C   UNL A   1      41.520  27.556  28.940  1.00  0.00     0.031 A 
ATOM     41  C   UNL A   1      42.294  27.480  30.228  1.00  0.00     0.074 A 
ATOM     42  C   UNL A   1      40.496  28.420  28.824  1.00  0.00     0.049 A 
ATOM     43  N   UNL A   1      42.105  28.127  31.351  1.00  0.00    -0.248 NA
ATOM     44  C   UNL A   1      43.436  26.553  30.253  1.00  0.00     0.031 C 
ATOM     45  C   UNL A   1      39.695  28.622  27.619  1.00  0.00     0.029 A 
ATOM     46  N   UNL A   1      39.957  29.290  29.739  1.00  0.00    -0.354 N 
ATOM     47  C   UNL A   1      43.098  27.682  32.215  1.00  0.00     0.074 A 
ATOM     48  C   UNL A   1      43.869  26.689  31.498  1.00  0.00     0.031 C 
ATOM     49  C   UNL A   1      38.762  29.556  27.869  1.00  0.00     0.029 A 
ATOM     50  C   UNL A   1      38.882  29.995  29.259  1.00  0.00     0.049 A 
ATOM     51  H   UNL A   1      40.309  29.398  30.652  1.00  0.00     0.167 HD
ATOM     52  C   UNL A   1      43.352  28.072  33.487  1.00  0.00     0.037 A 
ATOM     53  C   UNL A   1      38.075  30.880  29.877  1.00  0.00     0.037 A 
ATOM     54  C   UNL A   1      42.588  29.061  34.203  1.00  0.00     0.049 A 
ATOM     55  C   UNL A   1      38.331  31.241  31.315  1.00  0.00     0.074 A 
ATOM     56  C   UNL A   1      42.784  29.538  35.488  1.00  0.00     0.029 A 
ATOM     57  N   UNL A   1      41.477  29.718  33.697  1.00  0.00    -0.354 N 
ATOM     58  N   UNL A   1      39.287  30.835  32.114  1.00  0.00    -0.248 NA
ATOM     59  C   UNL A   1      37.394  32.189  31.937  1.00  0.00     0.031 C 
ATOM     60  C   UNL A   1      41.761  30.448  35.776  1.00  0.00     0.029 A 
ATOM     61  C   UNL A   1      40.959  30.575  34.654  1.00  0.00     0.049 A 
ATOM     62  H   UNL A   1      41.110  29.594  32.792  1.00  0.00     0.167 HD
ATOM     63  C   UNL A   1      39.084  31.494  33.319  1.00  0.00     0.074 A 
ATOM     64  C   UNL A   1      37.919  32.337  33.144  1.00  0.00     0.031 C 
ATOM     65  C   UNL A   1      39.801  31.412  34.468  1.00  0.00     0.037 A 
BRANCH  52  66
ATOM     66  C   UNL A   1      44.491  27.404  34.198  1.00  0.00     0.057 A 
ATOM     67  C   UNL A   1      44.323  26.210  34.911  1.00  0.00     0.134 A 
ATOM     68  C   UNL A   1      45.781  27.949  34.147  1.00  0.00     0.134 A 
ATOM     69  F   UNL A   1      43.111  25.642  35.011  1.00  0.00    -0.206 F 
ATOM     70  C   UNL A   1      45.391  25.595  35.568  1.00  0.00     0.040 A 
ATOM     71  C   UNL A   1      46.861  27.330  34.778  1.00  0.00     0.040 A 
ATOM     72  F   UNL A   1      46.013  29.087  33.477  1.00  0.00    -0.206 F 
ATOM     73  C   UNL A   1      46.665  26.153  35.496  1.00  0.00     0.006 A 
ENDBRANCH  52  66
BRANCH  53  74
ATOM     74  C   UNL A   1      36.936  31.483  29.139  1.00  0.00     0.057 A 
ATOM     75  C   UNL A   1      36.993  32.796  28.663  1.00  0.00     0.134 A 
ATOM     76  C   UNL A   1      35.758  30.762  28.907  1.00  0.00     0.134 A 
ATOM     77  F   UNL A   1      38.086  33.546  28.876  1.00  0.00    -0.206 F 
ATOM     78  C   UNL A   1      35.915  33.378  27.993  1.00  0.00     0.040 A 
ATOM     79  C   UNL A   1      34.682  31.322  28.218  1.00  0.00     0.040 A 
ATOM     80  F   UNL A   1      35.641  29.497  29.339  1.00  0.00    -0.206 F 
ATOM     81  C   UNL A   1      34.756  32.638  27.765  1.00  0.00     0.006 A 
ENDBRANCH  53  74
BRANCH  65  82
ATOM     82  C   UNL A   1      39.367  32.277  35.616  1.00  0.00     0.057 A 
ATOM     83  C   UNL A   1      38.479  31.817  36.595  1.00  0.00     0.134 A 
ATOM     84  C   UNL A   1      39.880  33.573  35.765  1.00  0.00     0.134 A 
ATOM     85  F   UNL A   1      37.942  30.591  36.505  1.00  0.00    -0.206 F 
ATOM     86  C   UNL A   1      38.097  32.623  37.670  1.00  0.00     0.040 A 
ATOM     87  C   UNL A   1      39.526  34.378  36.848  1.00  0.00     0.040 A 
ATOM     88  F   UNL A   1      40.743  34.072  34.867  1.00  0.00    -0.206 F 
ATOM     89  C   UNL A   1      38.627  33.905  37.802  1.00  0.00     0.006 A 
ENDBRANCH  65  82
ENDBRANCH  39  40
ENDBRANCH  32  34
ENDBRANCH  31  32
ENDBRANCH  30  31
ENDBRANCH  29  30
ENDBRANCH   1  29
TORSDOF 17
ENDMDL
MODEL 2
REMARK VINA RESULT:     -11.7      3.505      8.320
REMARK SMILES Cc1cc(F)ccc1OC1(C(=O)OCCOCCOC(=O)c2ccc(-c3c4nc(c(-c5c(F)cccc5F)c5ccc([nH]5)c(-c5c(F)cccc5F)c5nc(c(-c6c(F)cccc6F)c6ccc3[nH]6)C=C5)C=C4)cc2)CCN(C(=O)[C@H]2CCOC2)CC1
REMARK SMILES IDX 16 1 15 2 14 3 13 4 11 5 12 6 10 7 76 8 87 9 77 10 86 11
REMARK SMILES IDX 78 12 79 13 80 14 9 15 8 16 1 17 2 18 3 19 4 20 7 21 5 22
REMARK SMILES IDX 6 23 81 24 82 25 85 26 83 27 84 28 17 29 18 30 19 31 20 32
REMARK SMILES IDX 21 33 22 34 23 35 75 36 24 37 74 38 25 39 26 40 27 41 68 42
REMARK SMILES IDX 28 43 73 44 67 45 69 46 29 47 72 48 66 49 65 50 30 52 56 53
REMARK SMILES IDX 39 54 55 55 40 56 43 57 54 58 70 59 41 60 42 61 53 63 71 64
REMARK SMILES IDX 44 65 31 66 32 67 37 68 33 69 34 70 36 71 38 72 35 73 57 74
REMARK SMILES IDX 58 75 63 76 59 77 60 78 62 79 64 80 61 81 45 82 46 83 51 84
REMARK SMILES IDX 47 85 48 86 50 87 52 88 49 89
REMARK H PARENT 69 51 43 62
REMARK Flexibility Score: inf
ROOT
ATOM      1  O   UNL A   1      32.749  30.823  26.813  1.00  0.00    -0.374 OA
ENDROOT
BRANCH   1   2
ATOM      2  C   UNL A   1      32.486  29.508  27.307  1.00  0.00     0.202 C 
BRANCH   2   3
ATOM      3  C   UNL A   1      33.637  28.506  27.180  1.00  0.00     0.261 C 
BRANCH   3   4
ATOM      4  O   UNL A   1      33.227  27.398  26.355  1.00  0.00    -0.460 OA
BRANCH   4   5
ATOM      5  C   UNL A   1      31.886  27.246  26.180  1.00  0.00     0.350 C 
ATOM      6  O   UNL A   1      31.106  27.073  27.114  1.00  0.00    -0.247 OA
BRANCH   5   7
ATOM      7  C   UNL A   1      31.445  27.308  24.681  1.00  0.00     0.209 C 
ATOM      8  C   UNL A   1      30.055  26.721  24.441  1.00  0.00     0.082 C 
ATOM      9  C   UNL A   1      31.644  28.780  24.341  1.00  0.00     0.082 C 
ATOM     10  C   UNL A   1      29.019  27.612  23.770  1.00  0.00     0.124 C 
ATOM     11  C   UNL A   1      30.814  29.302  23.192  1.00  0.00     0.124 C 
ATOM     12  N   UNL A   1      29.411  28.909  23.232  1.00  0.00    -0.342 N 
ATOM     13  C   UNL A   1      28.383  29.596  22.575  1.00  0.00     0.228 C 
ATOM     14  O   UNL A   1      27.232  29.151  22.571  1.00  0.00    -0.274 OA
BRANCH   7  15
ATOM     15  O   UNL A   1      32.482  26.422  24.217  1.00  0.00    -0.475 OA
BRANCH  15  16
ATOM     16  C   UNL A   1      32.616  25.216  23.640  1.00  0.00     0.124 A 
ATOM     17  C   UNL A   1      32.604  25.622  21.081  1.00  0.00     0.048 C 
ATOM     18  C   UNL A   1      32.706  24.789  22.314  1.00  0.00    -0.006 A 
ATOM     19  C   UNL A   1      32.856  23.403  22.051  1.00  0.00     0.046 A 
ATOM     20  C   UNL A   1      32.873  22.465  23.072  1.00  0.00     0.123 A 
ATOM     21  C   UNL A   1      32.621  24.228  24.655  1.00  0.00     0.050 A 
ATOM     22  F   UNL A   1      32.998  21.165  22.778  1.00  0.00    -0.207 F 
ATOM     23  C   UNL A   1      32.742  22.866  24.383  1.00  0.00     0.043 A 
ENDBRANCH  15  16
ENDBRANCH   7  15
BRANCH  13  24
ATOM     24  C   UNL A   1      28.716  30.871  21.821  1.00  0.00     0.107 C 
ATOM     25  C   UNL A   1      27.940  30.991  20.526  1.00  0.00     0.044 C 
ATOM     26  C   UNL A   1      28.257  32.109  22.571  1.00  0.00     0.173 C 
ATOM     27  C   UNL A   1      27.821  32.489  20.321  1.00  0.00     0.161 C 
ATOM     28  O   UNL A   1      28.031  33.124  21.584  1.00  0.00    -0.381 OA
ENDBRANCH  13  24
ENDBRANCH   5   7
ENDBRANCH   4   5
ENDBRANCH   3   4
ENDBRANCH   2   3
ENDBRANCH   1   2
BRANCH   1  29
ATOM     29  C   UNL A   1      31.644  31.716  26.683  1.00  0.00     0.202 C 
BRANCH  29  30
ATOM     30  C   UNL A   1      31.952  33.206  26.879  1.00  0.00     0.261 C 
BRANCH  30  31
ATOM     31  O   UNL A   1      32.298  33.519  28.241  1.00  0.00    -0.460 OA
BRANCH  31  32
ATOM     32  C   UNL A   1      33.400  34.294  28.378  1.00  0.00     0.338 C 
ATOM     33  O   UNL A   1      33.443  35.517  28.434  1.00  0.00    -0.246 OA
BRANCH  32  34
ATOM     34  C   UNL A   1      34.591  33.465  28.633  1.00  0.00     0.060 A 
ATOM     35  C   UNL A   1      34.390  32.242  29.286  1.00  0.00     0.016 A 
ATOM     36  C   UNL A   1      35.883  33.905  28.334  1.00  0.00     0.016 A 
ATOM     37  C   UNL A   1      35.482  31.481  29.695  1.00  0.00     0.010 A 
ATOM     38  C   UNL A   1      36.980  33.139  28.752  1.00  0.00     0.010 A 
ATOM     39  C   UNL A   1      36.784  31.944  29.469  1.00  0.00    -0.014 A 
BRANCH  39  40
ATOM     40  C   UNL A   1      37.924  31.247  30.116  1.00  0.00     0.031 A 
ATOM     41  C   UNL A   1      38.238  31.537  31.559  1.00  0.00     0.074 A 
ATOM     42  C   UNL A   1      38.638  30.324  29.447  1.00  0.00     0.049 A 
ATOM     43  N   UNL A   1      39.179  31.039  32.321  1.00  0.00    -0.248 NA
ATOM     44  C   UNL A   1      37.372  32.515  32.234  1.00  0.00     0.031 C 
ATOM     45  C   UNL A   1      38.408  29.920  28.062  1.00  0.00     0.029 A 
ATOM     46  N   UNL A   1      39.704  29.560  29.851  1.00  0.00    -0.354 N 
ATOM     47  C   UNL A   1      39.023  31.647  33.560  1.00  0.00     0.074 A 
ATOM     48  C   UNL A   1      37.916  32.571  33.441  1.00  0.00     0.031 C 
ATOM     49  C   UNL A   1      39.311  28.982  27.728  1.00  0.00     0.029 A 
ATOM     50  C   UNL A   1      40.198  28.742  28.866  1.00  0.00     0.049 A 
ATOM     51  H   UNL A   1      40.079  29.594  30.761  1.00  0.00     0.167 HD
ATOM     52  C   UNL A   1      39.730  31.446  34.698  1.00  0.00     0.037 A 
ATOM     53  C   UNL A   1      41.257  27.909  28.874  1.00  0.00     0.037 A 
ATOM     54  C   UNL A   1      40.830  30.526  34.821  1.00  0.00     0.049 A 
ATOM     55  C   UNL A   1      42.074  27.759  30.129  1.00  0.00     0.074 A 
ATOM     56  C   UNL A   1      41.593  30.238  35.940  1.00  0.00     0.029 A 
ATOM     57  N   UNL A   1      41.329  29.750  33.786  1.00  0.00    -0.354 N 
ATOM     58  N   UNL A   1      41.902  28.318  31.302  1.00  0.00    -0.248 NA
ATOM     59  C   UNL A   1      43.235  26.858  30.061  1.00  0.00     0.031 C 
ATOM     60  C   UNL A   1      42.585  29.324  35.569  1.00  0.00     0.029 A 
ATOM     61  C   UNL A   1      42.408  29.005  34.232  1.00  0.00     0.049 A 
ATOM     62  H   UNL A   1      40.971  29.732  32.870  1.00  0.00     0.167 HD
ATOM     63  C   UNL A   1      42.911  27.819  32.115  1.00  0.00     0.074 A 
ATOM     64  C   UNL A   1      43.686  26.902  31.305  1.00  0.00     0.031 C 
ATOM     65  C   UNL A   1      43.171  28.093  33.418  1.00  0.00     0.037 A 
BRANCH  52  66
ATOM     66  C   UNL A   1      39.349  32.262  35.898  1.00  0.00     0.057 A 
ATOM     67  C   UNL A   1      39.917  33.517  36.153  1.00  0.00     0.134 A 
ATOM     68  C   UNL A   1      38.382  31.797  36.798  1.00  0.00     0.134 A 
ATOM     69  F   UNL A   1      40.859  34.015  35.337  1.00  0.00    -0.206 F 
ATOM     70  C   UNL A   1      39.555  34.269  37.272  1.00  0.00     0.040 A 
ATOM     71  C   UNL A   1      37.993  32.551  37.906  1.00  0.00     0.040 A 
ATOM     72  F   UNL A   1      37.794  30.606  36.611  1.00  0.00    -0.206 F 
ATOM     73  C   UNL A   1      38.585  33.788  38.149  1.00  0.00     0.006 A 
ENDBRANCH  52  66
BRANCH  53  74
ATOM     74  C   UNL A   1      41.615  27.154  27.647  1.00  0.00     0.057 A 
ATOM     75  C   UNL A   1      42.410  27.725  26.649  1.00  0.00     0.134 A 
ATOM     76  C   UNL A   1      41.155  25.847  27.438  1.00  0.00     0.134 A 
ATOM     77  F   UNL A   1      42.859  28.983  26.780  1.00  0.00    -0.206 F 
ATOM     78  C   UNL A   1      42.726  27.031  25.480  1.00  0.00     0.040 A 
ATOM     79  C   UNL A   1      41.482  25.132  26.286  1.00  0.00     0.040 A 
ATOM     80  F   UNL A   1      40.388  25.244  28.358  1.00  0.00    -0.206 F 
ATOM     81  C   UNL A   1      42.266  25.727  25.298  1.00  0.00     0.006 A 
ENDBRANCH  53  74
BRANCH  65  82
ATOM     82  C   UNL A   1      44.320  27.370  34.060  1.00  0.00     0.057 A 
ATOM     83  C   UNL A   1      44.167  26.106  34.643  1.00  0.00     0.134 A 
ATOM     84  C   UNL A   1      45.605  27.928  34.054  1.00  0.00     0.134 A 
ATOM     85  F   UNL A   1      42.960  25.522  34.692  1.00  0.00    -0.206 F 
ATOM     86  C   UNL A   1      45.247  25.433  35.219  1.00  0.00     0.040 A 
ATOM     87  C   UNL A   1      46.696  27.255  34.604  1.00  0.00     0.040 A 
ATOM     88  F   UNL A   1      45.823  29.132  33.503  1.00  0.00    -0.206 F 
ATOM     89  C   UNL A   1      46.517  26.005  35.194  1.00  0.00     0.006 A 
ENDBRANCH  65  82
ENDBRANCH  39  40
ENDBRANCH  32  34
ENDBRANCH  31  32
ENDBRANCH  30  31
ENDBRANCH  29  30
ENDBRANCH   1  29
TORSDOF 17
ENDMDL
MODEL 3
REMARK VINA RESULT:     -11.5      3.956      7.066
REMARK SMILES Cc1cc(F)ccc1OC1(C(=O)OCCOCCOC(=O)c2ccc(-c3c4nc(c(-c5c(F)cccc5F)c5ccc([nH]5)c(-c5c(F)cccc5F)c5nc(c(-c6c(F)cccc6F)c6ccc3[nH]6)C=C5)C=C4)cc2)CCN(C(=O)[C@H]2CCOC2)CC1
REMARK SMILES IDX 16 1 15 2 14 3 13 4 11 5 12 6 10 7 76 8 87 9 77 10 86 11
REMARK SMILES IDX 78 12 79 13 80 14 9 15 8 16 1 17 2 18 3 19 4 20 7 21 5 22
REMARK SMILES IDX 6 23 81 24 82 25 85 26 83 27 84 28 17 29 18 30 19 31 20 32
REMARK SMILES IDX 21 33 22 34 23 35 75 36 24 37 74 38 25 39 26 40 27 41 68 42
REMARK SMILES IDX 28 43 73 44 67 45 69 46 29 47 72 48 66 49 65 50 30 52 56 53
REMARK SMILES IDX 39 54 55 55 40 56 43 57 54 58 70 59 41 60 42 61 53 63 71 64
REMARK SMILES IDX 44 65 31 66 32 67 37 68 33 69 34 70 36 71 38 72 35 73 57 74
REMARK SMILES IDX 58 75 63 76 59 77 60 78 62 79 64 80 61 81 45 82 46 83 51 84
REMARK SMILES IDX 47 85 48 86 50 87 52 88 49 89
REMARK H PARENT 69 51 43 62
REMARK Flexibility Score: inf
ROOT
ATOM      1  O   UNL A   1      37.784  21.347  25.314  1.00  0.00    -0.374 OA
ENDROOT
BRANCH   1   2
ATOM      2  C   UNL A   1      37.314  22.173  24.246  1.00  0.00     0.202 C 
BRANCH   2   3
ATOM      3  C   UNL A   1      36.839  23.573  24.647  1.00  0.00     0.261 C 
BRANCH   3   4
ATOM      4  O   UNL A   1      35.491  23.501  25.154  1.00  0.00    -0.460 OA
BRANCH   4   5
ATOM      5  C   UNL A   1      34.505  23.404  24.221  1.00  0.00     0.350 C 
ATOM      6  O   UNL A   1      34.505  24.054  23.178  1.00  0.00    -0.247 OA
BRANCH   5   7
ATOM      7  C   UNL A   1      33.379  22.391  24.613  1.00  0.00     0.209 C 
ATOM      8  C   UNL A   1      32.593  21.875  23.409  1.00  0.00     0.082 C 
ATOM      9  C   UNL A   1      34.138  21.359  25.438  1.00  0.00     0.082 C 
ATOM     10  C   UNL A   1      32.526  20.369  23.201  1.00  0.00     0.124 C 
ATOM     11  C   UNL A   1      33.512  19.986  25.502  1.00  0.00     0.124 C 
ATOM     12  N   UNL A   1      33.056  19.469  24.218  1.00  0.00    -0.342 N 
ATOM     13  C   UNL A   1      32.867  18.110  23.941  1.00  0.00     0.228 C 
ATOM     14  O   UNL A   1      32.384  17.749  22.864  1.00  0.00    -0.274 OA
BRANCH   7  15
ATOM     15  O   UNL A   1      32.619  23.350  25.373  1.00  0.00    -0.475 OA
BRANCH  15  16
ATOM     16  C   UNL A   1      32.108  24.586  25.243  1.00  0.00     0.124 A 
ATOM     17  C   UNL A   1      30.490  24.501  23.220  1.00  0.00     0.048 C 
ATOM     18  C   UNL A   1      31.175  25.154  24.373  1.00  0.00    -0.006 A 
ATOM     19  C   UNL A   1      30.847  26.526  24.524  1.00  0.00     0.046 A 
ATOM     20  C   UNL A   1      31.459  27.321  25.482  1.00  0.00     0.123 A 
ATOM     21  C   UNL A   1      32.723  25.431  26.198  1.00  0.00     0.050 A 
ATOM     22  F   UNL A   1      31.133  28.615  25.579  1.00  0.00    -0.207 F 
ATOM     23  C   UNL A   1      32.412  26.785  26.320  1.00  0.00     0.043 A 
ENDBRANCH  15  16
ENDBRANCH   7  15
BRANCH  13  24
ATOM     24  C   UNL A   1      33.214  17.087  25.008  1.00  0.00     0.107 C 
ATOM     25  C   UNL A   1      32.119  16.056  25.193  1.00  0.00     0.044 C 
ATOM     26  C   UNL A   1      34.389  16.216  24.597  1.00  0.00     0.173 C 
ATOM     27  C   UNL A   1      32.866  14.825  25.666  1.00  0.00     0.161 C 
ATOM     28  O   UNL A   1      34.238  14.972  25.293  1.00  0.00    -0.381 OA
ENDBRANCH  13  24
ENDBRANCH   5   7
ENDBRANCH   4   5
ENDBRANCH   3   4
ENDBRANCH   2   3
ENDBRANCH   1   2
BRANCH   1  29
ATOM     29  C   UNL A   1      38.180  20.013  24.996  1.00  0.00     0.202 C 
BRANCH  29  30
ATOM     30  C   UNL A   1      39.208  19.371  25.937  1.00  0.00     0.261 C 
BRANCH  30  31
ATOM     31  O   UNL A   1      40.536  19.375  25.381  1.00  0.00    -0.460 OA
BRANCH  31  32
ATOM     32  C   UNL A   1      41.525  19.563  26.287  1.00  0.00     0.338 C 
ATOM     33  O   UNL A   1      42.395  18.764  26.609  1.00  0.00    -0.246 OA
BRANCH  32  34
ATOM     34  C   UNL A   1      41.548  20.962  26.748  1.00  0.00     0.060 A 
ATOM     35  C   UNL A   1      41.246  21.952  25.804  1.00  0.00     0.016 A 
ATOM     36  C   UNL A   1      41.947  21.313  28.041  1.00  0.00     0.016 A 
ATOM     37  C   UNL A   1      41.397  23.297  26.130  1.00  0.00     0.010 A 
ATOM     38  C   UNL A   1      42.104  22.667  28.364  1.00  0.00     0.010 A 
ATOM     39  C   UNL A   1      41.868  23.663  27.398  1.00  0.00    -0.014 A 
BRANCH  39  40
ATOM     40  C   UNL A   1      42.250  25.076  27.648  1.00  0.00     0.031 A 
ATOM     41  C   UNL A   1      43.588  25.570  27.170  1.00  0.00     0.074 A 
ATOM     42  C   UNL A   1      41.395  25.926  28.244  1.00  0.00     0.049 A 
ATOM     43  N   UNL A   1      44.120  26.762  27.275  1.00  0.00    -0.248 NA
ATOM     44  C   UNL A   1      44.439  24.592  26.475  1.00  0.00     0.031 C 
ATOM     45  C   UNL A   1      40.054  25.585  28.714  1.00  0.00     0.029 A 
ATOM     46  N   UNL A   1      41.535  27.256  28.554  1.00  0.00    -0.354 N 
ATOM     47  C   UNL A   1      45.366  26.675  26.668  1.00  0.00     0.074 A 
ATOM     48  C   UNL A   1      45.525  25.307  26.222  1.00  0.00     0.031 C 
ATOM     49  C   UNL A   1      39.493  26.678  29.257  1.00  0.00     0.029 A 
ATOM     50  C   UNL A   1      40.446  27.786  29.200  1.00  0.00     0.049 A 
ATOM     51  H   UNL A   1      42.339  27.780  28.334  1.00  0.00     0.167 HD
ATOM     52  C   UNL A   1      46.292  27.647  26.487  1.00  0.00     0.037 A 
ATOM     53  C   UNL A   1      40.247  29.021  29.703  1.00  0.00     0.037 A 
ATOM     54  C   UNL A   1      46.137  29.009  26.928  1.00  0.00     0.049 A 
ATOM     55  C   UNL A   1      41.321  30.064  29.557  1.00  0.00     0.074 A 
ATOM     56  C   UNL A   1      47.011  30.071  26.770  1.00  0.00     0.029 A 
ATOM     57  N   UNL A   1      45.038  29.495  27.619  1.00  0.00    -0.354 N 
ATOM     58  N   UNL A   1      42.484  29.978  28.959  1.00  0.00    -0.248 NA
ATOM     59  C   UNL A   1      41.053  31.380  30.157  1.00  0.00     0.031 C 
ATOM     60  C   UNL A   1      46.463  31.187  27.410  1.00  0.00     0.029 A 
ATOM     61  C   UNL A   1      45.224  30.834  27.921  1.00  0.00     0.049 A 
ATOM     62  H   UNL A   1      44.243  28.967  27.861  1.00  0.00     0.167 HD
ATOM     63  C   UNL A   1      43.073  31.230  29.085  1.00  0.00     0.074 A 
ATOM     64  C   UNL A   1      42.134  32.063  29.809  1.00  0.00     0.031 C 
ATOM     65  C   UNL A   1      44.282  31.654  28.639  1.00  0.00     0.037 A 
BRANCH  52  66
ATOM     66  C   UNL A   1      47.571  27.262  25.805  1.00  0.00     0.057 A 
ATOM     67  C   UNL A   1      47.754  27.423  24.425  1.00  0.00     0.134 A 
ATOM     68  C   UNL A   1      48.645  26.748  26.542  1.00  0.00     0.134 A 
ATOM     69  F   UNL A   1      46.760  27.899  23.659  1.00  0.00    -0.206 F 
ATOM     70  C   UNL A   1      48.949  27.064  23.800  1.00  0.00     0.040 A 
ATOM     71  C   UNL A   1      49.854  26.409  25.933  1.00  0.00     0.040 A 
ATOM     72  F   UNL A   1      48.539  26.573  27.868  1.00  0.00    -0.206 F 
ATOM     73  C   UNL A   1      50.006  26.560  24.557  1.00  0.00     0.006 A 
ENDBRANCH  52  66
BRANCH  53  74
ATOM     74  C   UNL A   1      38.977  29.338  30.404  1.00  0.00     0.057 A 
ATOM     75  C   UNL A   1      38.838  29.136  31.780  1.00  0.00     0.134 A 
ATOM     76  C   UNL A   1      37.869  29.838  29.708  1.00  0.00     0.134 A 
ATOM     77  F   UNL A   1      39.856  28.636  32.497  1.00  0.00    -0.206 F 
ATOM     78  C   UNL A   1      37.638  29.406  32.440  1.00  0.00     0.040 A 
ATOM     79  C   UNL A   1      36.671  30.134  30.359  1.00  0.00     0.040 A 
ATOM     80  F   UNL A   1      37.939  30.053  28.386  1.00  0.00    -0.206 F 
ATOM     81  C   UNL A   1      36.551  29.912  31.729  1.00  0.00     0.006 A 
ENDBRANCH  53  74
BRANCH  65  82
ATOM     82  C   UNL A   1      44.646  33.088  28.891  1.00  0.00     0.057 A 
ATOM     83  C   UNL A   1      44.323  34.105  27.985  1.00  0.00     0.134 A 
ATOM     84  C   UNL A   1      45.292  33.461  30.078  1.00  0.00     0.134 A 
ATOM     85  F   UNL A   1      43.716  33.813  26.825  1.00  0.00    -0.206 F 
ATOM     86  C   UNL A   1      44.648  35.440  28.238  1.00  0.00     0.040 A 
ATOM     87  C   UNL A   1      45.600  34.794  30.354  1.00  0.00     0.040 A 
ATOM     88  F   UNL A   1      45.622  32.538  30.994  1.00  0.00    -0.206 F 
ATOM     89  C   UNL A   1      45.283  35.787  29.430  1.00  0.00     0.006 A 
ENDBRANCH  65  82
ENDBRANCH  39  40
ENDBRANCH  32  34
ENDBRANCH  31  32
ENDBRANCH  30  31
ENDBRANCH  29  30
ENDBRANCH   1  29
TORSDOF 17
ENDMDL
