MODEL 1
REMARK VINA RESULT:     -11.6      0.000      0.000
REMARK SMILES CC(C)CCc1cc2c(cc1Cl)C=C(C(=O)OCCOCCOC(=O)c1ccc(-c3c4nc(c(-c5c(F)cccc5F)c5ccc([nH]5)c(-c5c(F)cccc5F)c5nc(c(-c6c(F)cccc6F)c6ccc3[nH]6)C=C5)C=C4)cc1)[C@H](C(F)(F)F)O2
REMARK SMILES IDX 19 1 18 2 17 3 15 4 16 5 14 6 6 7 7 8 11 9 8 10 10 11 12 12
REMARK SMILES IDX 9 13 85 14 13 15 80 16 5 17 4 18 2 19 1 20 3 21 81 22 82 23
REMARK SMILES IDX 83 24 84 25 20 26 21 27 22 28 23 29 24 30 25 31 26 32 27 33
REMARK SMILES IDX 79 34 28 35 78 36 29 37 30 38 31 39 72 40 32 41 77 42 71 43
REMARK SMILES IDX 73 44 33 45 76 46 70 47 69 48 34 50 60 51 43 52 59 53 44 54
REMARK SMILES IDX 47 55 58 56 74 57 45 58 46 59 57 61 75 62 48 63 35 64 36 65
REMARK SMILES IDX 41 66 37 67 38 68 40 69 42 70 39 71 61 72 62 73 67 74 63 75
REMARK SMILES IDX 64 76 66 77 68 78 65 79 49 80 50 81 55 82 51 83 52 84 54 85
REMARK SMILES IDX 56 86 53 87
REMARK H PARENT 73 49 47 60
REMARK Flexibility Score: inf
ROOT
ATOM      1  C   UNL A   1      32.567  30.280  26.862  1.00  0.00     0.202 C 
ENDROOT
BRANCH   1   2
ATOM      2  C   UNL A   1      33.583  29.509  26.017  1.00  0.00     0.261 C 
BRANCH   2   3
ATOM      3  O   UNL A   1      32.898  28.633  25.107  1.00  0.00    -0.460 OA
BRANCH   3   4
ATOM      4  C   UNL A   1      33.652  28.206  24.074  1.00  0.00     0.338 C 
ATOM      5  O   UNL A   1      34.381  28.893  23.378  1.00  0.00    -0.246 OA
BRANCH   4   6
ATOM      6  C   UNL A   1      33.555  26.741  23.952  1.00  0.00     0.087 C 
ATOM      7  C   UNL A   1      34.255  21.843  24.822  1.00  0.00    -0.026 A 
ATOM      8  C   UNL A   1      34.334  22.690  23.702  1.00  0.00     0.052 A 
ATOM      9  C   UNL A   1      33.937  22.436  26.058  1.00  0.00     0.045 A 
ATOM     10  C   UNL A   1      34.032  24.044  23.781  1.00  0.00     0.128 A 
ATOM     11  C   UNL A   1      33.683  23.811  26.153  1.00  0.00     0.032 A 
ATOM     12  Cl  UNL A   1      33.903  21.543  27.539  1.00  0.00    -0.084 Cl
ATOM     13  C   UNL A   1      33.730  24.615  25.013  1.00  0.00     0.019 A 
ATOM     14  O   UNL A   1      34.132  24.763  22.617  1.00  0.00    -0.475 OA
ATOM     15  C   UNL A   1      33.624  26.058  25.103  1.00  0.00     0.027 C 
ATOM     16  C   UNL A   1      33.476  26.063  22.610  1.00  0.00     0.316 C 
BRANCH   7  17
ATOM     17  C   UNL A   1      34.606  20.375  24.669  1.00  0.00     0.037 C 
BRANCH  17  18
ATOM     18  C   UNL A   1      33.425  19.387  24.563  1.00  0.00     0.008 C 
BRANCH  18  19
ATOM     19  C   UNL A   1      33.727  17.883  24.728  1.00  0.00    -0.017 C 
ATOM     20  C   UNL A   1      32.593  17.114  25.409  1.00  0.00     0.007 C 
ATOM     21  C   UNL A   1      34.039  17.244  23.372  1.00  0.00     0.007 C 
ENDBRANCH  18  19
ENDBRANCH  17  18
ENDBRANCH   7  17
BRANCH  16  22
ATOM     22  C   UNL A   1      32.049  25.921  22.035  1.00  0.00     0.430 C 
ATOM     23  F   UNL A   1      31.254  26.970  22.356  1.00  0.00    -0.167 F 
ATOM     24  F   UNL A   1      32.035  25.818  20.687  1.00  0.00    -0.167 F 
ATOM     25  F   UNL A   1      31.446  24.801  22.507  1.00  0.00    -0.167 F 
ENDBRANCH  16  22
ENDBRANCH   4   6
ENDBRANCH   3   4
ENDBRANCH   2   3
ENDBRANCH   1   2
BRANCH   1  26
ATOM     26  O   UNL A   1      31.697  31.146  26.132  1.00  0.00    -0.374 OA
BRANCH  26  27
ATOM     27  C   UNL A   1      31.408  32.415  26.725  1.00  0.00     0.202 C 
BRANCH  27  28
ATOM     28  C   UNL A   1      32.617  33.237  27.192  1.00  0.00     0.261 C 
BRANCH  28  29
ATOM     29  O   UNL A   1      32.243  34.180  28.213  1.00  0.00    -0.460 OA
BRANCH  29  30
ATOM     30  C   UNL A   1      33.227  35.014  28.625  1.00  0.00     0.338 C 
ATOM     31  O   UNL A   1      33.146  36.220  28.797  1.00  0.00    -0.246 OA
BRANCH  30  32
ATOM     32  C   UNL A   1      34.390  34.212  29.067  1.00  0.00     0.060 A 
ATOM     33  C   UNL A   1      35.686  34.471  28.616  1.00  0.00     0.016 A 
ATOM     34  C   UNL A   1      34.150  33.154  29.956  1.00  0.00     0.016 A 
ATOM     35  C   UNL A   1      36.746  33.690  29.088  1.00  0.00     0.010 A 
ATOM     36  C   UNL A   1      35.209  32.378  30.427  1.00  0.00     0.010 A 
ATOM     37  C   UNL A   1      36.519  32.655  30.015  1.00  0.00    -0.014 A 
BRANCH  37  38
ATOM     38  C   UNL A   1      37.665  31.956  30.653  1.00  0.00     0.031 A 
ATOM     39  C   UNL A   1      38.145  32.314  32.028  1.00  0.00     0.074 A 
ATOM     40  C   UNL A   1      38.300  30.999  29.947  1.00  0.00     0.049 A 
ATOM     41  N   UNL A   1      39.103  31.764  32.733  1.00  0.00    -0.248 NA
ATOM     42  C   UNL A   1      37.472  33.435  32.697  1.00  0.00     0.031 C 
ATOM     43  C   UNL A   1      37.958  30.593  28.583  1.00  0.00     0.029 A 
ATOM     44  N   UNL A   1      39.361  30.195  30.279  1.00  0.00    -0.354 N 
ATOM     45  C   UNL A   1      39.137  32.456  33.937  1.00  0.00     0.074 A 
ATOM     46  C   UNL A   1      38.137  33.501  33.843  1.00  0.00     0.031 C 
ATOM     47  C   UNL A   1      38.773  29.596  28.205  1.00  0.00     0.029 A 
ATOM     48  C   UNL A   1      39.716  29.318  29.283  1.00  0.00     0.049 A 
ATOM     49  H   UNL A   1      39.823  30.243  31.147  1.00  0.00     0.167 HD
ATOM     50  C   UNL A   1      39.917  32.230  35.022  1.00  0.00     0.037 A 
ATOM     51  C   UNL A   1      40.694  28.395  29.242  1.00  0.00     0.037 A 
ATOM     52  C   UNL A   1      40.932  31.207  35.102  1.00  0.00     0.049 A 
ATOM     53  C   UNL A   1      41.584  28.210  30.440  1.00  0.00     0.074 A 
ATOM     54  C   UNL A   1      41.746  30.879  36.174  1.00  0.00     0.029 A 
ATOM     55  N   UNL A   1      41.286  30.359  34.064  1.00  0.00    -0.354 N 
ATOM     56  N   UNL A   1      41.544  28.811  31.604  1.00  0.00    -0.248 NA
ATOM     57  C   UNL A   1      42.654  27.211  30.316  1.00  0.00     0.031 C 
ATOM     58  C   UNL A   1      42.631  29.875  35.766  1.00  0.00     0.029 A 
ATOM     59  C   UNL A   1      42.329  29.532  34.459  1.00  0.00     0.049 A 
ATOM     60  H   UNL A   1      40.861  30.344  33.175  1.00  0.00     0.167 HD
ATOM     61  C   UNL A   1      42.561  28.241  32.360  1.00  0.00     0.074 A 
ATOM     62  C   UNL A   1      43.184  27.232  31.530  1.00  0.00     0.031 C 
ATOM     63  C   UNL A   1      42.946  28.530  33.627  1.00  0.00     0.037 A 
BRANCH  50  64
ATOM     64  C   UNL A   1      39.708  33.110  36.222  1.00  0.00     0.057 A 
ATOM     65  C   UNL A   1      40.442  34.292  36.387  1.00  0.00     0.134 A 
ATOM     66  C   UNL A   1      38.816  32.759  37.246  1.00  0.00     0.134 A 
ATOM     67  F   UNL A   1      41.322  34.682  35.453  1.00  0.00    -0.206 F 
ATOM     68  C   UNL A   1      40.298  35.089  37.523  1.00  0.00     0.040 A 
ATOM     69  C   UNL A   1      38.644  33.563  38.374  1.00  0.00     0.040 A 
ATOM     70  F   UNL A   1      38.078  31.643  37.151  1.00  0.00    -0.206 F 
ATOM     71  C   UNL A   1      39.392  34.730  38.518  1.00  0.00     0.006 A 
ENDBRANCH  50  64
BRANCH  51  72
ATOM     72  C   UNL A   1      40.889  27.561  28.029  1.00  0.00     0.057 A 
ATOM     73  C   UNL A   1      40.221  26.342  27.867  1.00  0.00     0.134 A 
ATOM     74  C   UNL A   1      41.712  27.991  26.982  1.00  0.00     0.134 A 
ATOM     75  F   UNL A   1      39.425  25.869  28.837  1.00  0.00    -0.206 F 
ATOM     76  C   UNL A   1      40.358  25.584  26.703  1.00  0.00     0.040 A 
ATOM     77  C   UNL A   1      41.833  27.259  25.800  1.00  0.00     0.040 A 
ATOM     78  F   UNL A   1      42.364  29.159  27.071  1.00  0.00    -0.206 F 
ATOM     79  C   UNL A   1      41.155  26.051  25.659  1.00  0.00     0.006 A 
ENDBRANCH  51  72
BRANCH  63  80
ATOM     80  C   UNL A   1      44.071  27.715  34.202  1.00  0.00     0.057 A 
ATOM     81  C   UNL A   1      45.396  28.161  34.108  1.00  0.00     0.134 A 
ATOM     82  C   UNL A   1      43.848  26.491  34.848  1.00  0.00     0.134 A 
ATOM     83  F   UNL A   1      45.684  29.321  33.497  1.00  0.00    -0.206 F 
ATOM     84  C   UNL A   1      46.456  27.423  34.637  1.00  0.00     0.040 A 
ATOM     85  C   UNL A   1      44.897  25.760  35.410  1.00  0.00     0.040 A 
ATOM     86  F   UNL A   1      42.602  26.012  34.987  1.00  0.00    -0.206 F 
ATOM     87  C   UNL A   1      46.206  26.223  35.300  1.00  0.00     0.006 A 
ENDBRANCH  63  80
ENDBRANCH  37  38
ENDBRANCH  30  32
ENDBRANCH  29  30
ENDBRANCH  28  29
ENDBRANCH  27  28
ENDBRANCH  26  27
ENDBRANCH   1  26
TORSDOF 18
ENDMDL
MODEL 2
REMARK VINA RESULT:     -11.5      4.383      9.503
REMARK SMILES CC(C)CCc1cc2c(cc1Cl)C=C(C(=O)OCCOCCOC(=O)c1ccc(-c3c4nc(c(-c5c(F)cccc5F)c5ccc([nH]5)c(-c5c(F)cccc5F)c5nc(c(-c6c(F)cccc6F)c6ccc3[nH]6)C=C5)C=C4)cc1)[C@H](C(F)(F)F)O2
REMARK SMILES IDX 19 1 18 2 17 3 15 4 16 5 14 6 6 7 7 8 11 9 8 10 10 11 12 12
REMARK SMILES IDX 9 13 85 14 13 15 80 16 5 17 4 18 2 19 1 20 3 21 81 22 82 23
REMARK SMILES IDX 83 24 84 25 20 26 21 27 22 28 23 29 24 30 25 31 26 32 27 33
REMARK SMILES IDX 79 34 28 35 78 36 29 37 30 38 31 39 72 40 32 41 77 42 71 43
REMARK SMILES IDX 73 44 33 45 76 46 70 47 69 48 34 50 60 51 43 52 59 53 44 54
REMARK SMILES IDX 47 55 58 56 74 57 45 58 46 59 57 61 75 62 48 63 35 64 36 65
REMARK SMILES IDX 41 66 37 67 38 68 40 69 42 70 39 71 61 72 62 73 67 74 63 75
REMARK SMILES IDX 64 76 66 77 68 78 65 79 49 80 50 81 55 82 51 83 52 84 54 85
REMARK SMILES IDX 56 86 53 87
REMARK H PARENT 73 49 47 60
REMARK Flexibility Score: inf
ROOT
ATOM      1  C   UNL A   1      36.821  21.034  24.943  1.00  0.00     0.202 C 
ENDROOT
BRANCH   1   2
ATOM      2  C   UNL A   1      35.516  21.168  25.731  1.00  0.00     0.261 C 
BRANCH   2   3
ATOM      3  O   UNL A   1      35.393  22.502  26.250  1.00  0.00    -0.460 OA
BRANCH   3   4
ATOM      4  C   UNL A   1      34.313  22.695  27.035  1.00  0.00     0.338 C 
ATOM      5  O   UNL A   1      34.117  22.194  28.130  1.00  0.00    -0.246 OA
BRANCH   4   6
ATOM      6  C   UNL A   1      33.420  23.696  26.426  1.00  0.00     0.087 C 
ATOM      7  C   UNL A   1      31.720  28.037  24.557  1.00  0.00    -0.026 A 
ATOM      8  C   UNL A   1      31.271  27.103  25.508  1.00  0.00     0.052 A 
ATOM      9  C   UNL A   1      32.965  27.791  23.948  1.00  0.00     0.045 A 
ATOM     10  C   UNL A   1      31.975  25.938  25.784  1.00  0.00     0.128 A 
ATOM     11  C   UNL A   1      33.704  26.643  24.263  1.00  0.00     0.032 A 
ATOM     12  Cl  UNL A   1      33.695  28.897  22.837  1.00  0.00    -0.084 Cl
ATOM     13  C   UNL A   1      33.208  25.716  25.182  1.00  0.00     0.019 A 
ATOM     14  O   UNL A   1      31.428  25.100  26.721  1.00  0.00    -0.475 OA
ATOM     15  C   UNL A   1      34.016  24.603  25.641  1.00  0.00     0.027 C 
ATOM     16  C   UNL A   1      31.949  23.739  26.745  1.00  0.00     0.316 C 
BRANCH   7  17
ATOM     17  C   UNL A   1      30.907  29.294  24.308  1.00  0.00     0.037 C 
BRANCH  17  18
ATOM     18  C   UNL A   1      29.684  29.155  23.375  1.00  0.00     0.008 C 
BRANCH  18  19
ATOM     19  C   UNL A   1      28.959  30.446  22.940  1.00  0.00    -0.017 C 
ATOM     20  C   UNL A   1      29.009  30.682  21.430  1.00  0.00     0.007 C 
ATOM     21  C   UNL A   1      27.503  30.430  23.410  1.00  0.00     0.007 C 
ENDBRANCH  18  19
ENDBRANCH  17  18
ENDBRANCH   7  17
BRANCH  16  22
ATOM     22  C   UNL A   1      31.065  22.829  25.864  1.00  0.00     0.430 C 
ATOM     23  F   UNL A   1      31.618  21.610  25.659  1.00  0.00    -0.167 F 
ATOM     24  F   UNL A   1      29.838  22.618  26.395  1.00  0.00    -0.167 F 
ATOM     25  F   UNL A   1      30.858  23.387  24.645  1.00  0.00    -0.167 F 
ENDBRANCH  16  22
ENDBRANCH   4   6
ENDBRANCH   3   4
ENDBRANCH   2   3
ENDBRANCH   1   2
BRANCH   1  26
ATOM     26  O   UNL A   1      37.848  21.959  25.301  1.00  0.00    -0.374 OA
BRANCH  26  27
ATOM     27  C   UNL A   1      38.960  21.433  26.032  1.00  0.00     0.202 C 
BRANCH  27  28
ATOM     28  C   UNL A   1      39.503  20.078  25.559  1.00  0.00     0.261 C 
BRANCH  28  29
ATOM     29  O   UNL A   1      40.564  19.615  26.413  1.00  0.00    -0.460 OA
BRANCH  29  30
ATOM     30  C   UNL A   1      41.819  19.882  25.980  1.00  0.00     0.338 C 
ATOM     31  O   UNL A   1      42.454  19.267  25.138  1.00  0.00    -0.246 OA
BRANCH  30  32
ATOM     32  C   UNL A   1      42.250  21.192  26.518  1.00  0.00     0.060 A 
ATOM     33  C   UNL A   1      42.749  22.205  25.696  1.00  0.00     0.016 A 
ATOM     34  C   UNL A   1      42.157  21.389  27.903  1.00  0.00     0.016 A 
ATOM     35  C   UNL A   1      43.118  23.429  26.262  1.00  0.00     0.010 A 
ATOM     36  C   UNL A   1      42.524  22.612  28.465  1.00  0.00     0.010 A 
ATOM     37  C   UNL A   1      42.987  23.651  27.646  1.00  0.00    -0.014 A 
BRANCH  37  38
ATOM     38  C   UNL A   1      43.202  25.008  28.211  1.00  0.00     0.031 A 
ATOM     39  C   UNL A   1      44.557  25.475  28.654  1.00  0.00     0.074 A 
ATOM     40  C   UNL A   1      42.133  25.815  28.354  1.00  0.00     0.049 A 
ATOM     41  N   UNL A   1      44.908  26.646  29.125  1.00  0.00    -0.248 NA
ATOM     42  C   UNL A   1      45.657  24.506  28.565  1.00  0.00     0.031 C 
ATOM     43  C   UNL A   1      40.757  25.458  28.003  1.00  0.00     0.029 A 
ATOM     44  N   UNL A   1      42.035  27.099  28.827  1.00  0.00    -0.354 N 
ATOM     45  C   UNL A   1      46.273  26.565  29.371  1.00  0.00     0.074 A 
ATOM     46  C   UNL A   1      46.674  25.211  29.046  1.00  0.00     0.031 C 
ATOM     47  C   UNL A   1      39.957  26.509  28.245  1.00  0.00     0.029 A 
ATOM     48  C   UNL A   1      40.755  27.597  28.800  1.00  0.00     0.049 A 
ATOM     49  H   UNL A   1      42.808  27.614  29.154  1.00  0.00     0.167 HD
ATOM     50  C   UNL A   1      47.114  27.534  29.810  1.00  0.00     0.037 A 
ATOM     51  C   UNL A   1      40.277  28.795  29.182  1.00  0.00     0.037 A 
ATOM     52  C   UNL A   1      46.707  28.873  30.161  1.00  0.00     0.049 A 
ATOM     53  C   UNL A   1      41.226  29.828  29.725  1.00  0.00     0.074 A 
ATOM     54  C   UNL A   1      47.494  29.933  30.581  1.00  0.00     0.029 A 
ATOM     55  N   UNL A   1      45.398  29.332  30.154  1.00  0.00    -0.354 N 
ATOM     56  N   UNL A   1      42.528  29.767  29.866  1.00  0.00    -0.248 NA
ATOM     57  C   UNL A   1      40.634  31.101  30.157  1.00  0.00     0.031 C 
ATOM     58  C   UNL A   1      46.657  31.013  30.883  1.00  0.00     0.029 A 
ATOM     59  C   UNL A   1      45.353  30.648  30.593  1.00  0.00     0.049 A 
ATOM     60  H   UNL A   1      44.615  28.803  29.877  1.00  0.00     0.167 HD
ATOM     61  C   UNL A   1      42.912  31.002  30.372  1.00  0.00     0.074 A 
ATOM     62  C   UNL A   1      41.710  31.799  30.491  1.00  0.00     0.031 C 
ATOM     63  C   UNL A   1      44.151  31.435  30.711  1.00  0.00     0.037 A 
BRANCH  50  64
ATOM     64  C   UNL A   1      48.568  27.182  29.942  1.00  0.00     0.057 A 
ATOM     65  C   UNL A   1      49.084  26.683  31.145  1.00  0.00     0.134 A 
ATOM     66  C   UNL A   1      49.473  27.390  28.891  1.00  0.00     0.134 A 
ATOM     67  F   UNL A   1      48.278  26.473  32.196  1.00  0.00    -0.206 F 
ATOM     68  C   UNL A   1      50.443  26.405  31.299  1.00  0.00     0.040 A 
ATOM     69  C   UNL A   1      50.831  27.090  29.024  1.00  0.00     0.040 A 
ATOM     70  F   UNL A   1      49.047  27.861  27.710  1.00  0.00    -0.206 F 
ATOM     71  C   UNL A   1      51.320  26.602  30.234  1.00  0.00     0.006 A 
ENDBRANCH  50  64
BRANCH  51  72
ATOM     72  C   UNL A   1      38.829  29.099  29.063  1.00  0.00     0.057 A 
ATOM     73  C   UNL A   1      37.974  29.024  30.169  1.00  0.00     0.134 A 
ATOM     74  C   UNL A   1      38.277  29.522  27.848  1.00  0.00     0.134 A 
ATOM     75  F   UNL A   1      38.438  28.618  31.359  1.00  0.00    -0.206 F 
ATOM     76  C   UNL A   1      36.624  29.365  30.072  1.00  0.00     0.040 A 
ATOM     77  C   UNL A   1      36.937  29.897  27.745  1.00  0.00     0.040 A 
ATOM     78  F   UNL A   1      39.050  29.632  26.757  1.00  0.00    -0.206 F 
ATOM     79  C   UNL A   1      36.106  29.817  28.860  1.00  0.00     0.006 A 
ENDBRANCH  51  72
BRANCH  63  80
ATOM     80  C   UNL A   1      44.267  32.850  31.207  1.00  0.00     0.057 A 
ATOM     81  C   UNL A   1      44.450  33.909  30.309  1.00  0.00     0.134 A 
ATOM     82  C   UNL A   1      44.199  33.168  32.570  1.00  0.00     0.134 A 
ATOM     83  F   UNL A   1      44.532  33.678  28.989  1.00  0.00    -0.206 F 
ATOM     84  C   UNL A   1      44.557  35.230  30.746  1.00  0.00     0.040 A 
ATOM     85  C   UNL A   1      44.272  34.489  33.018  1.00  0.00     0.040 A 
ATOM     86  F   UNL A   1      44.009  32.204  33.485  1.00  0.00    -0.206 F 
ATOM     87  C   UNL A   1      44.457  35.524  32.104  1.00  0.00     0.006 A 
ENDBRANCH  63  80
ENDBRANCH  37  38
ENDBRANCH  30  32
ENDBRANCH  29  30
ENDBRANCH  28  29
ENDBRANCH  27  28
ENDBRANCH  26  27
ENDBRANCH   1  26
TORSDOF 18
ENDMDL
MODEL 3
REMARK VINA RESULT:     -11.4      1.334      2.005
REMARK SMILES CC(C)CCc1cc2c(cc1Cl)C=C(C(=O)OCCOCCOC(=O)c1ccc(-c3c4nc(c(-c5c(F)cccc5F)c5ccc([nH]5)c(-c5c(F)cccc5F)c5nc(c(-c6c(F)cccc6F)c6ccc3[nH]6)C=C5)C=C4)cc1)[C@H](C(F)(F)F)O2
REMARK SMILES IDX 19 1 18 2 17 3 15 4 16 5 14 6 6 7 7 8 11 9 8 10 10 11 12 12
REMARK SMILES IDX 9 13 85 14 13 15 80 16 5 17 4 18 2 19 1 20 3 21 81 22 82 23
REMARK SMILES IDX 83 24 84 25 20 26 21 27 22 28 23 29 24 30 25 31 26 32 27 33
REMARK SMILES IDX 79 34 28 35 78 36 29 37 30 38 31 39 72 40 32 41 77 42 71 43
REMARK SMILES IDX 73 44 33 45 76 46 70 47 69 48 34 50 60 51 43 52 59 53 44 54
REMARK SMILES IDX 47 55 58 56 74 57 45 58 46 59 57 61 75 62 48 63 35 64 36 65
REMARK SMILES IDX 41 66 37 67 38 68 40 69 42 70 39 71 61 72 62 73 67 74 63 75
REMARK SMILES IDX 64 76 66 77 68 78 65 79 49 80 50 81 55 82 51 83 52 84 54 85
REMARK SMILES IDX 56 86 53 87
REMARK H PARENT 73 49 47 60
REMARK Flexibility Score: inf
ROOT
ATOM      1  C   UNL A   1      33.179  29.795  26.949  1.00  0.00     0.202 C 
ENDROOT
BRANCH   1   2
ATOM      2  C   UNL A   1      34.158  28.844  26.258  1.00  0.00     0.261 C 
BRANCH   2   3
ATOM      3  O   UNL A   1      33.575  27.536  26.148  1.00  0.00    -0.460 OA
BRANCH   3   4
ATOM      4  C   UNL A   1      33.656  26.993  24.916  1.00  0.00     0.338 C 
ATOM      5  O   UNL A   1      34.080  27.541  23.912  1.00  0.00    -0.246 OA
BRANCH   4   6
ATOM      6  C   UNL A   1      33.247  25.579  24.960  1.00  0.00     0.087 C 
ATOM      7  C   UNL A   1      33.266  20.602  24.277  1.00  0.00    -0.026 A 
ATOM      8  C   UNL A   1      32.349  21.647  24.061  1.00  0.00     0.052 A 
ATOM      9  C   UNL A   1      34.534  20.950  24.779  1.00  0.00     0.045 A 
ATOM     10  C   UNL A   1      32.639  22.962  24.403  1.00  0.00     0.128 A 
ATOM     11  C   UNL A   1      34.850  22.283  25.076  1.00  0.00     0.032 A 
ATOM     12  Cl  UNL A   1      35.799  19.792  25.000  1.00  0.00    -0.084 Cl
ATOM     13  C   UNL A   1      33.901  23.289  24.887  1.00  0.00     0.019 A 
ATOM     14  O   UNL A   1      31.659  23.889  24.156  1.00  0.00    -0.475 OA
ATOM     15  C   UNL A   1      34.246  24.689  25.038  1.00  0.00     0.027 C 
ATOM     16  C   UNL A   1      31.804  25.170  24.834  1.00  0.00     0.316 C 
BRANCH   7  17
ATOM     17  C   UNL A   1      32.890  19.189  23.874  1.00  0.00     0.037 C 
BRANCH  17  18
ATOM     18  C   UNL A   1      32.692  18.171  25.017  1.00  0.00     0.008 C 
BRANCH  18  19
ATOM     19  C   UNL A   1      33.487  16.850  24.953  1.00  0.00    -0.017 C 
ATOM     20  C   UNL A   1      32.675  15.638  25.412  1.00  0.00     0.007 C 
ATOM     21  C   UNL A   1      34.015  16.608  23.537  1.00  0.00     0.007 C 
ENDBRANCH  18  19
ENDBRANCH  17  18
ENDBRANCH   7  17
BRANCH  16  22
ATOM     22  C   UNL A   1      31.016  25.146  26.163  1.00  0.00     0.430 C 
ATOM     23  F   UNL A   1      29.876  24.420  26.077  1.00  0.00    -0.167 F 
ATOM     24  F   UNL A   1      31.733  24.629  27.187  1.00  0.00    -0.167 F 
ATOM     25  F   UNL A   1      30.665  26.401  26.542  1.00  0.00    -0.167 F 
ENDBRANCH  16  22
ENDBRANCH   4   6
ENDBRANCH   3   4
ENDBRANCH   2   3
ENDBRANCH   1   2
BRANCH   1  26
ATOM     26  O   UNL A   1      32.697  30.869  26.139  1.00  0.00    -0.374 OA
BRANCH  26  27
ATOM     27  C   UNL A   1      31.575  31.599  26.644  1.00  0.00     0.202 C 
BRANCH  27  28
ATOM     28  C   UNL A   1      31.789  33.102  26.870  1.00  0.00     0.261 C 
BRANCH  28  29
ATOM     29  O   UNL A   1      32.200  33.371  28.222  1.00  0.00    -0.460 OA
BRANCH  29  30
ATOM     30  C   UNL A   1      33.199  34.277  28.358  1.00  0.00     0.338 C 
ATOM     31  O   UNL A   1      33.102  35.492  28.303  1.00  0.00    -0.246 OA
BRANCH  30  32
ATOM     32  C   UNL A   1      34.423  33.584  28.821  1.00  0.00     0.060 A 
ATOM     33  C   UNL A   1      35.661  34.226  28.883  1.00  0.00     0.016 A 
ATOM     34  C   UNL A   1      34.308  32.235  29.186  1.00  0.00     0.016 A 
ATOM     35  C   UNL A   1      36.776  33.523  29.350  1.00  0.00     0.010 A 
ATOM     36  C   UNL A   1      35.421  31.537  29.653  1.00  0.00     0.010 A 
ATOM     37  C   UNL A   1      36.660  32.181  29.761  1.00  0.00    -0.014 A 
BRANCH  37  38
ATOM     38  C   UNL A   1      37.800  31.501  30.428  1.00  0.00     0.031 A 
ATOM     39  C   UNL A   1      38.191  31.812  31.842  1.00  0.00     0.074 A 
ATOM     40  C   UNL A   1      38.512  30.605  29.716  1.00  0.00     0.049 A 
ATOM     41  N   UNL A   1      39.133  31.270  32.573  1.00  0.00    -0.248 NA
ATOM     42  C   UNL A   1      37.435  32.872  32.523  1.00  0.00     0.031 C 
ATOM     43  C   UNL A   1      38.260  30.251  28.318  1.00  0.00     0.029 A 
ATOM     44  N   UNL A   1      39.589  29.831  30.068  1.00  0.00    -0.354 N 
ATOM     45  C   UNL A   1      39.073  31.905  33.807  1.00  0.00     0.074 A 
ATOM     46  C   UNL A   1      38.035  32.911  33.706  1.00  0.00     0.031 C 
ATOM     47  C   UNL A   1      39.137  29.307  27.941  1.00  0.00     0.029 A 
ATOM     48  C   UNL A   1      40.033  29.018  29.055  1.00  0.00     0.049 A 
ATOM     49  H   UNL A   1      40.002  29.856  30.962  1.00  0.00     0.167 HD
ATOM     50  C   UNL A   1      39.804  31.659  34.922  1.00  0.00     0.037 A 
ATOM     51  C   UNL A   1      41.051  28.138  29.026  1.00  0.00     0.037 A 
ATOM     52  C   UNL A   1      40.856  30.676  35.011  1.00  0.00     0.049 A 
ATOM     53  C   UNL A   1      41.884  27.934  30.261  1.00  0.00     0.074 A 
ATOM     54  C   UNL A   1      41.626  30.332  36.110  1.00  0.00     0.029 A 
ATOM     55  N   UNL A   1      41.302  29.894  33.956  1.00  0.00    -0.354 N 
ATOM     56  N   UNL A   1      41.757  28.476  31.447  1.00  0.00    -0.248 NA
ATOM     57  C   UNL A   1      43.002  26.986  30.150  1.00  0.00     0.031 C 
ATOM     58  C   UNL A   1      42.575  29.385  35.706  1.00  0.00     0.029 A 
ATOM     59  C   UNL A   1      42.357  29.093  34.370  1.00  0.00     0.049 A 
ATOM     60  H   UNL A   1      40.925  29.904  33.046  1.00  0.00     0.167 HD
ATOM     61  C   UNL A   1      42.756  27.913  32.231  1.00  0.00     0.074 A 
ATOM     62  C   UNL A   1      43.465  26.971  31.392  1.00  0.00     0.031 C 
ATOM     63  C   UNL A   1      43.060  28.158  33.529  1.00  0.00     0.037 A 
BRANCH  50  64
ATOM     64  C   UNL A   1      39.493  32.471  36.148  1.00  0.00     0.057 A 
ATOM     65  C   UNL A   1      38.465  32.094  37.022  1.00  0.00     0.134 A 
ATOM     66  C   UNL A   1      40.178  33.661  36.435  1.00  0.00     0.134 A 
ATOM     67  F   UNL A   1      37.760  30.975  36.801  1.00  0.00    -0.206 F 
ATOM     68  C   UNL A   1      38.129  32.870  38.133  1.00  0.00     0.040 A 
ATOM     69  C   UNL A   1      39.869  34.430  37.559  1.00  0.00     0.040 A 
ATOM     70  F   UNL A   1      41.176  34.078  35.643  1.00  0.00    -0.206 F 
ATOM     71  C   UNL A   1      38.836  34.038  38.408  1.00  0.00     0.006 A 
ENDBRANCH  50  64
BRANCH  51  72
ATOM     72  C   UNL A   1      41.346  27.371  27.789  1.00  0.00     0.057 A 
ATOM     73  C   UNL A   1      40.785  26.110  27.562  1.00  0.00     0.134 A 
ATOM     74  C   UNL A   1      42.158  27.908  26.783  1.00  0.00     0.134 A 
ATOM     75  F   UNL A   1      40.006  25.536  28.489  1.00  0.00    -0.206 F 
ATOM     76  C   UNL A   1      41.015  25.412  26.375  1.00  0.00     0.040 A 
ATOM     77  C   UNL A   1      42.370  27.236  25.579  1.00  0.00     0.040 A 
ATOM     78  F   UNL A   1      42.709  29.122  26.935  1.00  0.00    -0.206 F 
ATOM     79  C   UNL A   1      41.798  25.983  25.373  1.00  0.00     0.006 A 
ENDBRANCH  51  72
BRANCH  63  80
ATOM     80  C   UNL A   1      44.188  27.363  34.127  1.00  0.00     0.057 A 
ATOM     81  C   UNL A   1      43.945  26.124  34.734  1.00  0.00     0.134 A 
ATOM     82  C   UNL A   1      45.513  27.819  34.104  1.00  0.00     0.134 A 
ATOM     83  F   UNL A   1      42.699  25.628  34.799  1.00  0.00    -0.206 F 
ATOM     84  C   UNL A   1      44.976  25.368  35.293  1.00  0.00     0.040 A 
ATOM     85  C   UNL A   1      46.559  27.056  34.630  1.00  0.00     0.040 A 
ATOM     86  F   UNL A   1      45.820  28.990  33.524  1.00  0.00    -0.206 F 
ATOM     87  C   UNL A   1      46.289  25.828  35.232  1.00  0.00     0.006 A 
ENDBRANCH  63  80
ENDBRANCH  37  38
ENDBRANCH  30  32
ENDBRANCH  29  30
ENDBRANCH  28  29
ENDBRANCH  27  28
ENDBRANCH  26  27
ENDBRANCH   1  26
TORSDOF 18
ENDMDL
