MODEL 1
REMARK VINA RESULT:     -11.4      0.000      0.000
REMARK SMILES CC1CCN(C(=O)Nc2nccnc2C(=O)OCCOCCOC(=O)c2ccc(-c3c4nc(c(-c5c(F)cccc5F)c5ccc([nH]5)c(-c5c(F)cccc5F)c5nc(c(-c6c(F)cccc6F)c6ccc3[nH]6)C=C5)C=C4)cc2)CC1
REMARK SMILES IDX 21 1 20 2 19 3 18 4 17 5 15 6 16 7 14 8 9 9 10 10 11 11
REMARK SMILES IDX 13 12 12 13 8 14 1 15 2 16 3 17 81 18 4 19 80 20 5 21 6 22
REMARK SMILES IDX 7 23 22 25 23 26 24 27 25 28 26 29 27 30 79 31 28 32 78 33
REMARK SMILES IDX 29 34 30 35 31 36 72 37 32 38 77 39 71 40 73 41 33 42 76 43
REMARK SMILES IDX 70 44 69 45 34 47 60 48 43 49 59 50 44 51 47 52 58 53 74 54
REMARK SMILES IDX 45 55 46 56 57 58 75 59 48 60 35 61 36 62 41 63 37 64 38 65
REMARK SMILES IDX 40 66 42 67 39 68 61 69 62 70 67 71 63 72 64 73 66 74 68 75
REMARK SMILES IDX 65 76 49 77 50 78 55 79 51 80 52 81 54 82 56 83 53 84
REMARK H PARENT 8 24 73 46 47 57
REMARK Flexibility Score: inf
ROOT
ATOM      1  C   UNL A   1      31.375  32.308  26.832  1.00  0.00     0.202 C 
ENDROOT
BRANCH   1   2
ATOM      2  O   UNL A   1      31.648  31.062  26.190  1.00  0.00    -0.374 OA
BRANCH   2   3
ATOM      3  C   UNL A   1      32.974  30.547  26.303  1.00  0.00     0.202 C 
BRANCH   3   4
ATOM      4  C   UNL A   1      33.185  29.514  27.411  1.00  0.00     0.261 C 
BRANCH   4   5
ATOM      5  O   UNL A   1      33.034  28.176  26.897  1.00  0.00    -0.458 OA
BRANCH   5   6
ATOM      6  C   UNL A   1      31.783  27.657  27.012  1.00  0.00     0.360 C 
ATOM      7  O   UNL A   1      31.075  27.765  28.003  1.00  0.00    -0.244 OA
BRANCH   6   8
ATOM      8  C   UNL A   1      31.318  26.983  25.757  1.00  0.00     0.191 A 
ATOM      9  C   UNL A   1      31.012  25.617  25.613  1.00  0.00     0.167 A 
ATOM     10  N   UNL A   1      30.484  25.181  24.445  1.00  0.00    -0.235 NA
ATOM     11  C   UNL A   1      30.401  26.055  23.415  1.00  0.00     0.133 A 
ATOM     12  N   UNL A   1      31.241  27.857  24.700  1.00  0.00    -0.244 NA
ATOM     13  C   UNL A   1      30.804  27.362  23.531  1.00  0.00     0.132 A 
BRANCH   9  14
ATOM     14  N   UNL A   1      31.236  24.688  26.641  1.00  0.00    -0.290 N 
ATOM     15  C   UNL A   1      36.097  22.918  23.248  1.00  0.00     0.008 C 
ATOM     16  C   UNL A   1      35.676  23.414  24.632  1.00  0.00    -0.011 C 
ATOM     17  C   UNL A   1      35.056  22.266  25.453  1.00  0.00     0.025 C 
ATOM     18  C   UNL A   1      34.696  24.593  24.511  1.00  0.00     0.025 C 
ATOM     19  C   UNL A   1      34.407  22.747  26.754  1.00  0.00     0.121 C 
ATOM     20  C   UNL A   1      34.187  25.003  25.893  1.00  0.00     0.121 C 
ATOM     21  N   UNL A   1      33.500  23.871  26.505  1.00  0.00    -0.324 N 
ATOM     22  C   UNL A   1      32.205  23.790  26.938  1.00  0.00     0.323 C 
ATOM     23  O   UNL A   1      31.853  22.894  27.717  1.00  0.00    -0.248 OA
ATOM     24  H   UNL A   1      30.513  24.689  27.309  1.00  0.00     0.173 HD
ENDBRANCH   9  14
ENDBRANCH   6   8
ENDBRANCH   5   6
ENDBRANCH   4   5
ENDBRANCH   3   4
ENDBRANCH   2   3
ENDBRANCH   1   2
BRANCH   1  25
ATOM     25  C   UNL A   1      32.593  33.194  27.116  1.00  0.00     0.261 C 
BRANCH  25  26
ATOM     26  O   UNL A   1      32.310  34.168  28.137  1.00  0.00    -0.460 OA
BRANCH  26  27
ATOM     27  C   UNL A   1      33.380  34.873  28.570  1.00  0.00     0.338 C 
ATOM     28  O   UNL A   1      33.424  36.070  28.825  1.00  0.00    -0.246 OA
BRANCH  27  29
ATOM     29  C   UNL A   1      34.490  33.957  28.887  1.00  0.00     0.060 A 
ATOM     30  C   UNL A   1      34.179  32.760  29.548  1.00  0.00     0.016 A 
ATOM     31  C   UNL A   1      35.816  34.282  28.594  1.00  0.00     0.016 A 
ATOM     32  C   UNL A   1      35.199  31.906  29.963  1.00  0.00     0.010 A 
ATOM     33  C   UNL A   1      36.837  33.430  29.022  1.00  0.00     0.010 A 
ATOM     34  C   UNL A   1      36.535  32.257  29.737  1.00  0.00    -0.014 A 
BRANCH  34  35
ATOM     35  C   UNL A   1      37.624  31.474  30.366  1.00  0.00     0.031 A 
ATOM     36  C   UNL A   1      37.977  31.744  31.801  1.00  0.00     0.074 A 
ATOM     37  C   UNL A   1      38.296  30.545  29.667  1.00  0.00     0.049 A 
ATOM     38  N   UNL A   1      38.945  31.245  32.526  1.00  0.00    -0.248 NA
ATOM     39  C   UNL A   1      37.127  32.713  32.509  1.00  0.00     0.031 C 
ATOM     40  C   UNL A   1      38.027  30.176  28.280  1.00  0.00     0.029 A 
ATOM     41  N   UNL A   1      39.358  29.757  30.031  1.00  0.00    -0.354 N 
ATOM     42  C   UNL A   1      38.830  31.849  33.772  1.00  0.00     0.074 A 
ATOM     43  C   UNL A   1      37.713  32.768  33.696  1.00  0.00     0.031 C 
ATOM     44  C   UNL A   1      38.919  29.246  27.899  1.00  0.00     0.029 A 
ATOM     45  C   UNL A   1      39.839  28.984  29.004  1.00  0.00     0.049 A 
ATOM     46  H   UNL A   1      39.738  29.747  30.939  1.00  0.00     0.167 HD
ATOM     47  C   UNL A   1      39.585  31.654  34.879  1.00  0.00     0.037 A 
ATOM     48  C   UNL A   1      40.920  28.181  28.954  1.00  0.00     0.037 A 
ATOM     49  C   UNL A   1      40.698  30.745  34.949  1.00  0.00     0.049 A 
ATOM     50  C   UNL A   1      41.783  28.023  30.177  1.00  0.00     0.074 A 
ATOM     51  C   UNL A   1      41.511  30.454  36.031  1.00  0.00     0.029 A 
ATOM     52  N   UNL A   1      41.163  29.985  33.884  1.00  0.00    -0.354 N 
ATOM     53  N   UNL A   1      41.653  28.576  31.358  1.00  0.00    -0.248 NA
ATOM     54  C   UNL A   1      42.942  27.127  30.058  1.00  0.00     0.031 C 
ATOM     55  C   UNL A   1      42.497  29.557  35.608  1.00  0.00     0.029 A 
ATOM     56  C   UNL A   1      42.268  29.247  34.277  1.00  0.00     0.049 A 
ATOM     57  H   UNL A   1      40.766  29.973  32.983  1.00  0.00     0.167 HD
ATOM     58  C   UNL A   1      42.697  28.080  32.129  1.00  0.00     0.074 A 
ATOM     59  C   UNL A   1      43.446  27.174  31.283  1.00  0.00     0.031 C 
ATOM     60  C   UNL A   1      43.004  28.348  33.423  1.00  0.00     0.037 A 
BRANCH  47  61
ATOM     61  C   UNL A   1      39.246  32.472  36.090  1.00  0.00     0.057 A 
ATOM     62  C   UNL A   1      38.337  32.025  37.058  1.00  0.00     0.134 A 
ATOM     63  C   UNL A   1      39.838  33.726  36.290  1.00  0.00     0.134 A 
ATOM     64  F   UNL A   1      37.724  30.841  36.919  1.00  0.00    -0.206 F 
ATOM     65  C   UNL A   1      38.003  32.810  38.164  1.00  0.00     0.040 A 
ATOM     66  C   UNL A   1      39.532  34.508  37.406  1.00  0.00     0.040 A 
ATOM     67  F   UNL A   1      40.720  34.212  35.405  1.00  0.00    -0.206 F 
ATOM     68  C   UNL A   1      38.606  34.055  38.341  1.00  0.00     0.006 A 
ENDBRANCH  47  61
BRANCH  48  69
ATOM     69  C   UNL A   1      41.251  27.479  27.691  1.00  0.00     0.057 A 
ATOM     70  C   UNL A   1      40.741  26.207  27.413  1.00  0.00     0.134 A 
ATOM     71  C   UNL A   1      42.070  28.074  26.723  1.00  0.00     0.134 A 
ATOM     72  F   UNL A   1      39.972  25.578  28.313  1.00  0.00    -0.206 F 
ATOM     73  C   UNL A   1      41.038  25.547  26.219  1.00  0.00     0.040 A 
ATOM     74  C   UNL A   1      42.356  27.436  25.516  1.00  0.00     0.040 A 
ATOM     75  F   UNL A   1      42.590  29.293  26.932  1.00  0.00    -0.206 F 
ATOM     76  C   UNL A   1      41.841  26.166  25.262  1.00  0.00     0.006 A 
ENDBRANCH  48  69
BRANCH  60  77
ATOM     77  C   UNL A   1      44.182  27.629  34.014  1.00  0.00     0.057 A 
ATOM     78  C   UNL A   1      45.462  28.195  34.034  1.00  0.00     0.134 A 
ATOM     79  C   UNL A   1      44.020  26.373  34.614  1.00  0.00     0.134 A 
ATOM     80  F   UNL A   1      45.687  29.390  33.466  1.00  0.00    -0.206 F 
ATOM     81  C   UNL A   1      46.545  27.528  34.611  1.00  0.00     0.040 A 
ATOM     82  C   UNL A   1      45.089  25.708  35.216  1.00  0.00     0.040 A 
ATOM     83  F   UNL A   1      42.818  25.779  34.637  1.00  0.00    -0.206 F 
ATOM     84  C   UNL A   1      46.357  26.284  35.211  1.00  0.00     0.006 A 
ENDBRANCH  60  77
ENDBRANCH  34  35
ENDBRANCH  27  29
ENDBRANCH  26  27
ENDBRANCH  25  26
ENDBRANCH   1  25
TORSDOF 15
ENDMDL
MODEL 2
REMARK VINA RESULT:     -11.4      3.131      8.173
REMARK SMILES CC1CCN(C(=O)Nc2nccnc2C(=O)OCCOCCOC(=O)c2ccc(-c3c4nc(c(-c5c(F)cccc5F)c5ccc([nH]5)c(-c5c(F)cccc5F)c5nc(c(-c6c(F)cccc6F)c6ccc3[nH]6)C=C5)C=C4)cc2)CC1
REMARK SMILES IDX 21 1 20 2 19 3 18 4 17 5 15 6 16 7 14 8 9 9 10 10 11 11
REMARK SMILES IDX 13 12 12 13 8 14 1 15 2 16 3 17 81 18 4 19 80 20 5 21 6 22
REMARK SMILES IDX 7 23 22 25 23 26 24 27 25 28 26 29 27 30 79 31 28 32 78 33
REMARK SMILES IDX 29 34 30 35 31 36 72 37 32 38 77 39 71 40 73 41 33 42 76 43
REMARK SMILES IDX 70 44 69 45 34 47 60 48 43 49 59 50 44 51 47 52 58 53 74 54
REMARK SMILES IDX 45 55 46 56 57 58 75 59 48 60 35 61 36 62 41 63 37 64 38 65
REMARK SMILES IDX 40 66 42 67 39 68 61 69 62 70 67 71 63 72 64 73 66 74 68 75
REMARK SMILES IDX 65 76 49 77 50 78 55 79 51 80 52 81 54 82 56 83 53 84
REMARK H PARENT 8 24 73 46 47 57
REMARK Flexibility Score: inf
ROOT
ATOM      1  C   UNL A   1      41.722  21.034  26.108  1.00  0.00     0.202 C 
ENDROOT
BRANCH   1   2
ATOM      2  O   UNL A   1      40.647  21.940  25.856  1.00  0.00    -0.374 OA
BRANCH   2   3
ATOM      3  C   UNL A   1      39.326  21.476  26.130  1.00  0.00     0.202 C 
BRANCH   3   4
ATOM      4  C   UNL A   1      38.196  22.342  25.570  1.00  0.00     0.261 C 
BRANCH   4   5
ATOM      5  O   UNL A   1      37.310  21.556  24.750  1.00  0.00    -0.458 OA
BRANCH   5   6
ATOM      6  C   UNL A   1      36.445  22.277  23.988  1.00  0.00     0.360 C 
ATOM      7  O   UNL A   1      36.774  22.987  23.048  1.00  0.00    -0.244 OA
BRANCH   6   8
ATOM      8  C   UNL A   1      35.013  22.060  24.373  1.00  0.00     0.191 A 
ATOM      9  C   UNL A   1      33.891  22.647  23.760  1.00  0.00     0.167 A 
ATOM     10  N   UNL A   1      32.653  22.256  24.143  1.00  0.00    -0.235 NA
ATOM     11  C   UNL A   1      32.545  21.415  25.197  1.00  0.00     0.133 A 
ATOM     12  N   UNL A   1      34.890  21.217  25.451  1.00  0.00    -0.244 NA
ATOM     13  C   UNL A   1      33.644  20.930  25.861  1.00  0.00     0.132 A 
BRANCH   9  14
ATOM     14  N   UNL A   1      34.011  23.628  22.762  1.00  0.00    -0.290 N 
ATOM     15  C   UNL A   1      31.490  27.423  26.947  1.00  0.00     0.008 C 
ATOM     16  C   UNL A   1      32.699  27.229  26.032  1.00  0.00    -0.011 C 
ATOM     17  C   UNL A   1      32.343  27.601  24.579  1.00  0.00     0.025 C 
ATOM     18  C   UNL A   1      33.216  25.783  26.116  1.00  0.00     0.025 C 
ATOM     19  C   UNL A   1      33.436  27.211  23.579  1.00  0.00     0.121 C 
ATOM     20  C   UNL A   1      34.345  25.564  25.109  1.00  0.00     0.121 C 
ATOM     21  N   UNL A   1      33.842  25.814  23.763  1.00  0.00    -0.324 N 
ATOM     22  C   UNL A   1      33.807  24.964  22.692  1.00  0.00     0.323 C 
ATOM     23  O   UNL A   1      33.653  25.401  21.543  1.00  0.00    -0.248 OA
ATOM     24  H   UNL A   1      34.318  23.253  21.906  1.00  0.00     0.173 HD
ENDBRANCH   9  14
ENDBRANCH   6   8
ENDBRANCH   5   6
ENDBRANCH   4   5
ENDBRANCH   3   4
ENDBRANCH   2   3
ENDBRANCH   1   2
BRANCH   1  25
ATOM     25  C   UNL A   1      43.124  21.552  25.769  1.00  0.00     0.261 C 
BRANCH  25  26
ATOM     26  O   UNL A   1      43.074  22.864  25.180  1.00  0.00    -0.460 OA
BRANCH  26  27
ATOM     27  C   UNL A   1      43.969  23.750  25.673  1.00  0.00     0.338 C 
ATOM     28  O   UNL A   1      45.147  23.864  25.361  1.00  0.00    -0.246 OA
BRANCH  27  29
ATOM     29  C   UNL A   1      43.284  24.725  26.542  1.00  0.00     0.060 A 
ATOM     30  C   UNL A   1      43.686  26.065  26.459  1.00  0.00     0.016 A 
ATOM     31  C   UNL A   1      42.308  24.332  27.458  1.00  0.00     0.016 A 
ATOM     32  C   UNL A   1      43.147  27.011  27.329  1.00  0.00     0.010 A 
ATOM     33  C   UNL A   1      41.777  25.280  28.337  1.00  0.00     0.010 A 
ATOM     34  C   UNL A   1      42.219  26.615  28.299  1.00  0.00    -0.014 A 
BRANCH  34  35
ATOM     35  C   UNL A   1      41.810  27.558  29.364  1.00  0.00     0.031 A 
ATOM     36  C   UNL A   1      42.544  27.536  30.675  1.00  0.00     0.074 A 
ATOM     37  C   UNL A   1      40.794  28.415  29.173  1.00  0.00     0.049 A 
ATOM     38  N   UNL A   1      42.305  28.206  31.773  1.00  0.00    -0.248 NA
ATOM     39  C   UNL A   1      43.699  26.629  30.759  1.00  0.00     0.031 C 
ATOM     40  C   UNL A   1      40.026  28.549  27.938  1.00  0.00     0.029 A 
ATOM     41  N   UNL A   1      40.224  29.322  30.030  1.00  0.00    -0.354 N 
ATOM     42  C   UNL A   1      43.270  27.793  32.683  1.00  0.00     0.074 A 
ATOM     43  C   UNL A   1      44.082  26.797  32.016  1.00  0.00     0.031 C 
ATOM     44  C   UNL A   1      39.065  29.470  28.124  1.00  0.00     0.029 A 
ATOM     45  C   UNL A   1      39.132  29.962  29.498  1.00  0.00     0.049 A 
ATOM     46  H   UNL A   1      40.565  29.497  30.936  1.00  0.00     0.167 HD
ATOM     47  C   UNL A   1      43.462  28.207  33.958  1.00  0.00     0.037 A 
ATOM     48  C   UNL A   1      38.267  30.821  30.069  1.00  0.00     0.037 A 
ATOM     49  C   UNL A   1      42.648  29.193  34.620  1.00  0.00     0.049 A 
ATOM     50  C   UNL A   1      38.461  31.224  31.506  1.00  0.00     0.074 A 
ATOM     51  C   UNL A   1      42.776  29.701  35.901  1.00  0.00     0.029 A 
ATOM     52  N   UNL A   1      41.543  29.812  34.052  1.00  0.00    -0.354 N 
ATOM     53  N   UNL A   1      39.390  30.850  32.352  1.00  0.00    -0.248 NA
ATOM     54  C   UNL A   1      37.486  32.171  32.066  1.00  0.00     0.031 C 
ATOM     55  C   UNL A   1      41.720  30.591  36.125  1.00  0.00     0.029 A 
ATOM     56  C   UNL A   1      40.965  30.677  34.967  1.00  0.00     0.049 A 
ATOM     57  H   UNL A   1      41.219  29.658  33.136  1.00  0.00     0.167 HD
ATOM     58  C   UNL A   1      39.126  31.530  33.534  1.00  0.00     0.074 A 
ATOM     59  C   UNL A   1      37.955  32.347  33.294  1.00  0.00     0.031 C 
ATOM     60  C   UNL A   1      39.798  31.484  34.712  1.00  0.00     0.037 A 
BRANCH  47  61
ATOM     61  C   UNL A   1      44.578  27.561  34.725  1.00  0.00     0.057 A 
ATOM     62  C   UNL A   1      45.875  28.092  34.738  1.00  0.00     0.134 A 
ATOM     63  C   UNL A   1      44.351  26.391  35.461  1.00  0.00     0.134 A 
ATOM     64  F   UNL A   1      46.162  29.201  34.043  1.00  0.00    -0.206 F 
ATOM     65  C   UNL A   1      46.913  27.463  35.428  1.00  0.00     0.040 A 
ATOM     66  C   UNL A   1      45.376  25.769  36.176  1.00  0.00     0.040 A 
ATOM     67  F   UNL A   1      43.132  25.832  35.495  1.00  0.00    -0.206 F 
ATOM     68  C   UNL A   1      46.663  26.299  36.153  1.00  0.00     0.006 A 
ENDBRANCH  47  61
BRANCH  48  69
ATOM     69  C   UNL A   1      37.127  31.344  29.278  1.00  0.00     0.057 A 
ATOM     70  C   UNL A   1      35.982  30.572  29.059  1.00  0.00     0.134 A 
ATOM     71  C   UNL A   1      37.149  32.636  28.738  1.00  0.00     0.134 A 
ATOM     72  F   UNL A   1      35.914  29.318  29.530  1.00  0.00    -0.206 F 
ATOM     73  C   UNL A   1      34.899  31.063  28.327  1.00  0.00     0.040 A 
ATOM     74  C   UNL A   1      36.065  33.148  28.025  1.00  0.00     0.040 A 
ATOM     75  F   UNL A   1      38.220  33.425  28.914  1.00  0.00    -0.206 F 
ATOM     76  C   UNL A   1      34.936  32.359  27.815  1.00  0.00     0.006 A 
ENDBRANCH  48  69
BRANCH  60  77
ATOM     77  C   UNL A   1      39.302  32.366  35.822  1.00  0.00     0.057 A 
ATOM     78  C   UNL A   1      39.745  33.685  35.974  1.00  0.00     0.134 A 
ATOM     79  C   UNL A   1      38.332  31.901  36.720  1.00  0.00     0.134 A 
ATOM     80  F   UNL A   1      40.681  34.188  35.155  1.00  0.00    -0.206 F 
ATOM     81  C   UNL A   1      39.256  34.504  36.994  1.00  0.00     0.040 A 
ATOM     82  C   UNL A   1      37.817  32.719  37.727  1.00  0.00     0.040 A 
ATOM     83  F   UNL A   1      37.859  30.650  36.623  1.00  0.00    -0.206 F 
ATOM     84  C   UNL A   1      38.283  34.024  37.869  1.00  0.00     0.006 A 
ENDBRANCH  60  77
ENDBRANCH  34  35
ENDBRANCH  27  29
ENDBRANCH  26  27
ENDBRANCH  25  26
ENDBRANCH   1  25
TORSDOF 15
ENDMDL
MODEL 3
REMARK VINA RESULT:     -11.2      1.477      6.571
REMARK SMILES CC1CCN(C(=O)Nc2nccnc2C(=O)OCCOCCOC(=O)c2ccc(-c3c4nc(c(-c5c(F)cccc5F)c5ccc([nH]5)c(-c5c(F)cccc5F)c5nc(c(-c6c(F)cccc6F)c6ccc3[nH]6)C=C5)C=C4)cc2)CC1
REMARK SMILES IDX 21 1 20 2 19 3 18 4 17 5 15 6 16 7 14 8 9 9 10 10 11 11
REMARK SMILES IDX 13 12 12 13 8 14 1 15 2 16 3 17 81 18 4 19 80 20 5 21 6 22
REMARK SMILES IDX 7 23 22 25 23 26 24 27 25 28 26 29 27 30 79 31 28 32 78 33
REMARK SMILES IDX 29 34 30 35 31 36 72 37 32 38 77 39 71 40 73 41 33 42 76 43
REMARK SMILES IDX 70 44 69 45 34 47 60 48 43 49 59 50 44 51 47 52 58 53 74 54
REMARK SMILES IDX 45 55 46 56 57 58 75 59 48 60 35 61 36 62 41 63 37 64 38 65
REMARK SMILES IDX 40 66 42 67 39 68 61 69 62 70 67 71 63 72 64 73 66 74 68 75
REMARK SMILES IDX 65 76 49 77 50 78 55 79 51 80 52 81 54 82 56 83 53 84
REMARK H PARENT 8 24 73 46 47 57
REMARK Flexibility Score: inf
ROOT
ATOM      1  C   UNL A   1      32.013  31.975  27.241  1.00  0.00     0.202 C 
ENDROOT
BRANCH   1   2
ATOM      2  O   UNL A   1      33.009  30.955  27.344  1.00  0.00    -0.374 OA
BRANCH   2   3
ATOM      3  C   UNL A   1      32.565  29.601  27.271  1.00  0.00     0.202 C 
BRANCH   3   4
ATOM      4  C   UNL A   1      33.514  28.637  26.557  1.00  0.00     0.261 C 
BRANCH   4   5
ATOM      5  O   UNL A   1      32.804  27.860  25.572  1.00  0.00    -0.458 OA
BRANCH   5   6
ATOM      6  C   UNL A   1      32.987  28.261  24.286  1.00  0.00     0.360 C 
ATOM      7  O   UNL A   1      34.071  28.316  23.723  1.00  0.00    -0.244 OA
BRANCH   6   8
ATOM      8  C   UNL A   1      31.698  28.572  23.588  1.00  0.00     0.191 A 
ATOM      9  C   UNL A   1      31.218  27.954  22.418  1.00  0.00     0.167 A 
ATOM     10  N   UNL A   1      29.975  28.258  21.976  1.00  0.00    -0.235 NA
ATOM     11  C   UNL A   1      29.298  29.249  22.602  1.00  0.00     0.133 A 
ATOM     12  N   UNL A   1      31.007  29.585  24.206  1.00  0.00    -0.244 NA
ATOM     13  C   UNL A   1      29.819  29.924  23.678  1.00  0.00     0.132 A 
BRANCH   9  14
ATOM     14  N   UNL A   1      31.985  27.030  21.691  1.00  0.00    -0.290 N 
ATOM     15  C   UNL A   1      31.802  23.631  26.857  1.00  0.00     0.008 C 
ATOM     16  C   UNL A   1      31.492  23.613  25.360  1.00  0.00    -0.011 C 
ATOM     17  C   UNL A   1      32.783  23.411  24.543  1.00  0.00     0.025 C 
ATOM     18  C   UNL A   1      30.775  24.907  24.939  1.00  0.00     0.025 C 
ATOM     19  C   UNL A   1      32.576  23.613  23.039  1.00  0.00     0.121 C 
ATOM     20  C   UNL A   1      30.579  24.934  23.423  1.00  0.00     0.121 C 
ATOM     21  N   UNL A   1      31.882  24.877  22.770  1.00  0.00    -0.324 N 
ATOM     22  C   UNL A   1      32.445  25.775  21.906  1.00  0.00     0.323 C 
ATOM     23  O   UNL A   1      33.402  25.449  21.190  1.00  0.00    -0.248 OA
ATOM     24  H   UNL A   1      32.254  27.378  20.811  1.00  0.00     0.173 HD
ENDBRANCH   9  14
ENDBRANCH   6   8
ENDBRANCH   5   6
ENDBRANCH   4   5
ENDBRANCH   3   4
ENDBRANCH   2   3
ENDBRANCH   1   2
BRANCH   1  25
ATOM     25  C   UNL A   1      32.538  33.410  27.126  1.00  0.00     0.261 C 
BRANCH  25  26
ATOM     26  O   UNL A   1      32.310  34.153  28.337  1.00  0.00    -0.460 OA
BRANCH  26  27
ATOM     27  C   UNL A   1      33.326  34.961  28.715  1.00  0.00     0.338 C 
ATOM     28  O   UNL A   1      33.288  36.175  28.875  1.00  0.00    -0.246 OA
BRANCH  27  29
ATOM     29  C   UNL A   1      34.495  34.150  29.104  1.00  0.00     0.060 A 
ATOM     30  C   UNL A   1      34.285  33.093  30.001  1.00  0.00     0.016 A 
ATOM     31  C   UNL A   1      35.779  34.448  28.646  1.00  0.00     0.016 A 
ATOM     32  C   UNL A   1      35.367  32.360  30.481  1.00  0.00     0.010 A 
ATOM     33  C   UNL A   1      36.865  33.719  29.139  1.00  0.00     0.010 A 
ATOM     34  C   UNL A   1      36.667  32.695  30.083  1.00  0.00    -0.014 A 
BRANCH  34  35
ATOM     35  C   UNL A   1      37.832  32.075  30.754  1.00  0.00     0.031 A 
ATOM     36  C   UNL A   1      38.571  30.971  30.053  1.00  0.00     0.074 A 
ATOM     37  C   UNL A   1      38.220  32.481  31.974  1.00  0.00     0.049 A 
ATOM     38  N   UNL A   1      39.559  30.228  30.483  1.00  0.00    -0.248 NA
ATOM     39  C   UNL A   1      38.130  30.658  28.686  1.00  0.00     0.031 C 
ATOM     40  C   UNL A   1      37.601  33.558  32.740  1.00  0.00     0.029 A 
ATOM     41  N   UNL A   1      39.222  32.014  32.788  1.00  0.00    -0.354 N 
ATOM     42  C   UNL A   1      39.849  29.352  29.446  1.00  0.00     0.074 A 
ATOM     43  C   UNL A   1      38.917  29.639  28.375  1.00  0.00     0.031 C 
ATOM     44  C   UNL A   1      38.222  33.657  33.928  1.00  0.00     0.029 A 
ATOM     45  C   UNL A   1      39.256  32.627  34.015  1.00  0.00     0.049 A 
ATOM     46  H   UNL A   1      39.853  31.309  32.518  1.00  0.00     0.167 HD
ATOM     47  C   UNL A   1      40.806  28.395  29.390  1.00  0.00     0.037 A 
ATOM     48  C   UNL A   1      40.015  32.364  35.096  1.00  0.00     0.037 A 
ATOM     49  C   UNL A   1      41.727  28.108  30.458  1.00  0.00     0.049 A 
ATOM     50  C   UNL A   1      41.032  31.257  35.036  1.00  0.00     0.074 A 
ATOM     51  C   UNL A   1      42.751  27.178  30.491  1.00  0.00     0.029 A 
ATOM     52  N   UNL A   1      41.724  28.744  31.692  1.00  0.00    -0.354 N 
ATOM     53  N   UNL A   1      41.319  30.450  34.043  1.00  0.00    -0.248 NA
ATOM     54  C   UNL A   1      41.833  31.027  36.247  1.00  0.00     0.031 C 
ATOM     55  C   UNL A   1      43.336  27.216  31.761  1.00  0.00     0.029 A 
ATOM     56  C   UNL A   1      42.712  28.207  32.502  1.00  0.00     0.049 A 
ATOM     57  H   UNL A   1      41.111  29.469  31.952  1.00  0.00     0.167 HD
ATOM     58  C   UNL A   1      42.345  29.633  34.500  1.00  0.00     0.074 A 
ATOM     59  C   UNL A   1      42.637  30.048  35.857  1.00  0.00     0.031 C 
ATOM     60  C   UNL A   1      42.991  28.631  33.851  1.00  0.00     0.037 A 
BRANCH  47  61
ATOM     61  C   UNL A   1      40.875  27.569  28.138  1.00  0.00     0.057 A 
ATOM     62  C   UNL A   1      40.198  26.349  28.015  1.00  0.00     0.134 A 
ATOM     63  C   UNL A   1      41.630  28.003  27.041  1.00  0.00     0.134 A 
ATOM     64  F   UNL A   1      39.470  25.870  29.034  1.00  0.00    -0.206 F 
ATOM     65  C   UNL A   1      40.297  25.573  26.858  1.00  0.00     0.040 A 
ATOM     66  C   UNL A   1      41.714  27.249  25.870  1.00  0.00     0.040 A 
ATOM     67  F   UNL A   1      42.299  29.164  27.090  1.00  0.00    -0.206 F 
ATOM     68  C   UNL A   1      41.055  26.025  25.780  1.00  0.00     0.006 A 
ENDBRANCH  47  61
BRANCH  48  69
ATOM     69  C   UNL A   1      39.824  33.158  36.334  1.00  0.00     0.057 A 
ATOM     70  C   UNL A   1      40.579  34.308  36.581  1.00  0.00     0.134 A 
ATOM     71  C   UNL A   1      38.866  32.795  37.289  1.00  0.00     0.134 A 
ATOM     72  F   UNL A   1      41.527  34.692  35.714  1.00  0.00    -0.206 F 
ATOM     73  C   UNL A   1      40.394  35.068  37.738  1.00  0.00     0.040 A 
ATOM     74  C   UNL A   1      38.655  33.557  38.438  1.00  0.00     0.040 A 
ATOM     75  F   UNL A   1      38.111  31.701  37.109  1.00  0.00    -0.206 F 
ATOM     76  C   UNL A   1      39.423  34.697  38.666  1.00  0.00     0.006 A 
ENDBRANCH  48  69
BRANCH  60  77
ATOM     77  C   UNL A   1      44.098  27.935  34.588  1.00  0.00     0.057 A 
ATOM     78  C   UNL A   1      43.877  26.767  35.328  1.00  0.00     0.134 A 
ATOM     79  C   UNL A   1      45.412  28.416  34.516  1.00  0.00     0.134 A 
ATOM     80  F   UNL A   1      42.640  26.261  35.447  1.00  0.00    -0.206 F 
ATOM     81  C   UNL A   1      44.921  26.114  35.987  1.00  0.00     0.040 A 
ATOM     82  C   UNL A   1      46.467  27.758  35.149  1.00  0.00     0.040 A 
ATOM     83  F   UNL A   1      45.694  29.526  33.817  1.00  0.00    -0.206 F 
ATOM     84  C   UNL A   1      46.222  26.605  35.892  1.00  0.00     0.006 A 
ENDBRANCH  60  77
ENDBRANCH  34  35
ENDBRANCH  27  29
ENDBRANCH  26  27
ENDBRANCH  25  26
ENDBRANCH   1  25
TORSDOF 15
ENDMDL
