MODEL 1
REMARK VINA RESULT:     -12.2      0.000      0.000
REMARK SMILES CS(=O)(=O)c1ccc(/C=C(/C(=O)OCCOCCOC(=O)c2ccc(-c3c4nc(c(-c5c(F)cccc5F)c5ccc([nH]5)c(-c5c(F)cccc5F)c5nc(c(-c6c(F)cccc6F)c6ccc3[nH]6)C=C5)C=C4)cc2)c2cccc(-c3ccc(S(C)(=O)=O)cc3)c2)cc1
REMARK SMILES IDX 15 1 14 2 13 3 11 4 12 5 10 6 9 7 8 8 5 9 6 10 93 11 7 12
REMARK SMILES IDX 92 13 2 14 1 15 3 16 4 17 76 18 77 19 91 20 78 21 80 22
REMARK SMILES IDX 79 23 81 24 82 25 90 26 83 27 89 28 84 29 85 30 86 31 87 32
REMARK SMILES IDX 88 33 16 34 17 35 18 36 19 37 20 38 21 39 22 40 23 41 75 42
REMARK SMILES IDX 24 43 74 44 25 45 26 46 27 47 68 48 28 49 73 50 67 51 69 52
REMARK SMILES IDX 29 53 72 54 66 55 65 56 30 58 56 59 39 60 55 61 40 62 43 63
REMARK SMILES IDX 54 64 70 65 41 66 42 67 53 69 71 70 44 71 31 72 32 73 37 74
REMARK SMILES IDX 33 75 34 76 36 77 38 78 35 79 57 80 58 81 63 82 59 83 60 84
REMARK SMILES IDX 62 85 64 86 61 87 45 88 46 89 51 90 47 91 48 92 50 93 52 94
REMARK SMILES IDX 49 95
REMARK H PARENT 69 57 43 68
REMARK Flexibility Score: inf
ROOT
ATOM      1  C   UNL A   1      32.974  21.861  25.699  1.00  0.00     0.202 C 
ENDROOT
BRANCH   1   2
ATOM      2  C   UNL A   1      32.256  22.719  24.654  1.00  0.00     0.261 C 
BRANCH   2   3
ATOM      3  O   UNL A   1      30.966  23.136  25.138  1.00  0.00    -0.460 OA
BRANCH   3   4
ATOM      4  C   UNL A   1      30.965  24.343  25.757  1.00  0.00     0.338 C 
ATOM      5  O   UNL A   1      31.154  24.529  26.952  1.00  0.00    -0.246 OA
BRANCH   4   6
ATOM      6  C   UNL A   1      30.823  25.470  24.785  1.00  0.00     0.067 C 
ATOM      7  C   UNL A   1      29.606  25.763  24.267  1.00  0.00     0.024 C 
BRANCH   7   8
ATOM      8  C   UNL A   1      29.182  27.005  23.563  1.00  0.00    -0.025 A 
ATOM      9  C   UNL A   1      28.353  29.555  22.701  1.00  0.00     0.067 A 
ATOM     10  C   UNL A   1      29.644  29.114  22.422  1.00  0.00     0.021 A 
ATOM     11  C   UNL A   1      27.433  28.695  23.301  1.00  0.00     0.021 A 
ATOM     12  C   UNL A   1      30.036  27.831  22.817  1.00  0.00     0.009 A 
ATOM     13  C   UNL A   1      27.852  27.431  23.734  1.00  0.00     0.009 A 
BRANCH   9  14
ATOM     14  S   UNL A   1      27.891  31.231  22.327  1.00  0.00     0.175 S 
ATOM     15  C   UNL A   1      29.399  32.154  22.497  1.00  0.00     0.163 C 
ATOM     16  O   UNL A   1      26.972  31.651  23.367  1.00  0.00    -0.224 OA
ATOM     17  O   UNL A   1      27.511  31.276  20.927  1.00  0.00    -0.224 OA
ENDBRANCH   9  14
ENDBRANCH   7   8
BRANCH   6  18
ATOM     18  C   UNL A   1      32.022  26.302  24.592  1.00  0.00    -0.010 A 
ATOM     19  C   UNL A   1      32.750  26.254  23.397  1.00  0.00     0.009 A 
ATOM     20  C   UNL A   1      32.392  27.213  25.580  1.00  0.00     0.017 A 
ATOM     21  C   UNL A   1      33.823  27.120  23.187  1.00  0.00     0.001 A 
ATOM     22  C   UNL A   1      33.423  28.137  25.357  1.00  0.00    -0.018 A 
ATOM     23  C   UNL A   1      34.149  28.065  24.160  1.00  0.00     0.009 A 
BRANCH  22  24
ATOM     24  C   UNL A   1      33.612  29.224  26.320  1.00  0.00    -0.018 A 
ATOM     25  C   UNL A   1      34.813  29.315  27.042  1.00  0.00     0.010 A 
ATOM     26  C   UNL A   1      32.672  30.262  26.432  1.00  0.00     0.010 A 
ATOM     27  C   UNL A   1      35.086  30.427  27.834  1.00  0.00     0.021 A 
ATOM     28  C   UNL A   1      32.933  31.378  27.227  1.00  0.00     0.021 A 
ATOM     29  C   UNL A   1      34.141  31.451  27.920  1.00  0.00     0.067 A 
BRANCH  29  30
ATOM     30  S   UNL A   1      34.517  32.881  28.899  1.00  0.00     0.175 S 
ATOM     31  C   UNL A   1      33.371  34.093  28.297  1.00  0.00     0.163 C 
ATOM     32  O   UNL A   1      34.177  32.555  30.270  1.00  0.00    -0.224 OA
ATOM     33  O   UNL A   1      35.854  33.318  28.546  1.00  0.00    -0.224 OA
ENDBRANCH  29  30
ENDBRANCH  22  24
ENDBRANCH   6  18
ENDBRANCH   4   6
ENDBRANCH   3   4
ENDBRANCH   2   3
ENDBRANCH   1   2
BRANCH   1  34
ATOM     34  O   UNL A   1      33.854  20.850  25.203  1.00  0.00    -0.374 OA
BRANCH  34  35
ATOM     35  C   UNL A   1      35.086  21.275  24.628  1.00  0.00     0.202 C 
BRANCH  35  36
ATOM     36  C   UNL A   1      36.380  20.753  25.262  1.00  0.00     0.261 C 
BRANCH  36  37
ATOM     37  O   UNL A   1      37.468  21.678  25.132  1.00  0.00    -0.460 OA
BRANCH  37  38
ATOM     38  C   UNL A   1      38.615  21.272  25.723  1.00  0.00     0.338 C 
ATOM     39  O   UNL A   1      39.155  20.179  25.628  1.00  0.00    -0.246 OA
BRANCH  38  40
ATOM     40  C   UNL A   1      39.261  22.415  26.389  1.00  0.00     0.060 A 
ATOM     41  C   UNL A   1      38.790  23.695  26.068  1.00  0.00     0.016 A 
ATOM     42  C   UNL A   1      40.333  22.246  27.268  1.00  0.00     0.016 A 
ATOM     43  C   UNL A   1      39.424  24.818  26.589  1.00  0.00     0.010 A 
ATOM     44  C   UNL A   1      40.976  23.376  27.780  1.00  0.00     0.010 A 
ATOM     45  C   UNL A   1      40.546  24.664  27.413  1.00  0.00    -0.014 A 
BRANCH  45  46
ATOM     46  C   UNL A   1      41.360  25.852  27.755  1.00  0.00     0.031 A 
ATOM     47  C   UNL A   1      40.762  26.910  28.637  1.00  0.00     0.074 A 
ATOM     48  C   UNL A   1      42.625  25.967  27.316  1.00  0.00     0.049 A 
ATOM     49  N   UNL A   1      41.283  28.035  29.054  1.00  0.00    -0.248 NA
ATOM     50  C   UNL A   1      39.389  26.666  29.111  1.00  0.00     0.031 C 
ATOM     51  C   UNL A   1      43.322  24.988  26.485  1.00  0.00     0.029 A 
ATOM     52  N   UNL A   1      43.543  26.966  27.508  1.00  0.00    -0.354 N 
ATOM     53  C   UNL A   1      40.304  28.633  29.838  1.00  0.00     0.074 A 
ATOM     54  C   UNL A   1      39.147  27.765  29.811  1.00  0.00     0.031 C 
ATOM     55  C   UNL A   1      44.560  25.443  26.226  1.00  0.00     0.029 A 
ATOM     56  C   UNL A   1      44.729  26.753  26.852  1.00  0.00     0.049 A 
ATOM     57  H   UNL A   1      43.368  27.761  28.062  1.00  0.00     0.167 HD
ATOM     58  C   UNL A   1      40.368  29.796  30.528  1.00  0.00     0.037 A 
ATOM     59  C   UNL A   1      45.819  27.537  26.755  1.00  0.00     0.037 A 
ATOM     60  C   UNL A   1      41.518  30.661  30.547  1.00  0.00     0.049 A 
ATOM     61  C   UNL A   1      45.845  28.858  27.474  1.00  0.00     0.074 A 
ATOM     62  C   UNL A   1      41.689  31.856  31.224  1.00  0.00     0.029 A 
ATOM     63  N   UNL A   1      42.691  30.427  29.845  1.00  0.00    -0.354 N 
ATOM     64  N   UNL A   1      44.925  29.404  28.234  1.00  0.00    -0.248 NA
ATOM     65  C   UNL A   1      47.062  29.670  27.328  1.00  0.00     0.031 C 
ATOM     66  C   UNL A   1      42.950  32.366  30.896  1.00  0.00     0.029 A 
ATOM     67  C   UNL A   1      43.583  31.465  30.054  1.00  0.00     0.049 A 
ATOM     68  H   UNL A   1      42.864  29.637  29.283  1.00  0.00     0.167 HD
ATOM     69  C   UNL A   1      45.459  30.610  28.673  1.00  0.00     0.074 A 
ATOM     70  C   UNL A   1      46.787  30.709  28.104  1.00  0.00     0.031 C 
ATOM     71  C   UNL A   1      44.900  31.548  29.477  1.00  0.00     0.037 A 
BRANCH  58  72
ATOM     72  C   UNL A   1      39.145  30.206  31.294  1.00  0.00     0.057 A 
ATOM     73  C   UNL A   1      38.187  31.072  30.749  1.00  0.00     0.134 A 
ATOM     74  C   UNL A   1      38.920  29.727  32.590  1.00  0.00     0.134 A 
ATOM     75  F   UNL A   1      38.353  31.581  29.519  1.00  0.00    -0.206 F 
ATOM     76  C   UNL A   1      37.064  31.468  31.476  1.00  0.00     0.040 A 
ATOM     77  C   UNL A   1      37.788  30.095  33.318  1.00  0.00     0.040 A 
ATOM     78  F   UNL A   1      39.797  28.894  33.170  1.00  0.00    -0.206 F 
ATOM     79  C   UNL A   1      36.859  30.975  32.763  1.00  0.00     0.006 A 
ENDBRANCH  58  72
BRANCH  59  80
ATOM     80  C   UNL A   1      46.974  27.095  25.935  1.00  0.00     0.057 A 
ATOM     81  C   UNL A   1      47.059  27.400  24.573  1.00  0.00     0.134 A 
ATOM     82  C   UNL A   1      48.022  26.356  26.499  1.00  0.00     0.134 A 
ATOM     83  F   UNL A   1      46.075  28.086  23.972  1.00  0.00    -0.206 F 
ATOM     84  C   UNL A   1      48.140  26.979  23.797  1.00  0.00     0.040 A 
ATOM     85  C   UNL A   1      49.119  25.948  25.740  1.00  0.00     0.040 A 
ATOM     86  F   UNL A   1      48.001  26.034  27.800  1.00  0.00    -0.206 F 
ATOM     87  C   UNL A   1      49.178  26.256  24.382  1.00  0.00     0.006 A 
ENDBRANCH  59  80
BRANCH  71  88
ATOM     88  C   UNL A   1      45.734  32.752  29.809  1.00  0.00     0.057 A 
ATOM     89  C   UNL A   1      46.552  32.793  30.945  1.00  0.00     0.134 A 
ATOM     90  C   UNL A   1      45.752  33.863  28.957  1.00  0.00     0.134 A 
ATOM     91  F   UNL A   1      46.571  31.765  31.807  1.00  0.00    -0.206 F 
ATOM     92  C   UNL A   1      47.343  33.907  31.233  1.00  0.00     0.040 A 
ATOM     93  C   UNL A   1      46.557  34.972  29.221  1.00  0.00     0.040 A 
ATOM     94  F   UNL A   1      44.998  33.883  27.847  1.00  0.00    -0.206 F 
ATOM     95  C   UNL A   1      47.351  34.997  30.365  1.00  0.00     0.006 A 
ENDBRANCH  71  88
ENDBRANCH  45  46
ENDBRANCH  38  40
ENDBRANCH  37  38
ENDBRANCH  36  37
ENDBRANCH  35  36
ENDBRANCH  34  35
ENDBRANCH   1  34
TORSDOF 19
ENDMDL
MODEL 2
REMARK VINA RESULT:     -11.9      0.415      5.828
REMARK SMILES CS(=O)(=O)c1ccc(/C=C(/C(=O)OCCOCCOC(=O)c2ccc(-c3c4nc(c(-c5c(F)cccc5F)c5ccc([nH]5)c(-c5c(F)cccc5F)c5nc(c(-c6c(F)cccc6F)c6ccc3[nH]6)C=C5)C=C4)cc2)c2cccc(-c3ccc(S(C)(=O)=O)cc3)c2)cc1
REMARK SMILES IDX 15 1 14 2 13 3 11 4 12 5 10 6 9 7 8 8 5 9 6 10 93 11 7 12
REMARK SMILES IDX 92 13 2 14 1 15 3 16 4 17 76 18 77 19 91 20 78 21 80 22
REMARK SMILES IDX 79 23 81 24 82 25 90 26 83 27 89 28 84 29 85 30 86 31 87 32
REMARK SMILES IDX 88 33 16 34 17 35 18 36 19 37 20 38 21 39 22 40 23 41 75 42
REMARK SMILES IDX 24 43 74 44 25 45 26 46 27 47 68 48 28 49 73 50 67 51 69 52
REMARK SMILES IDX 29 53 72 54 66 55 65 56 30 58 56 59 39 60 55 61 40 62 43 63
REMARK SMILES IDX 54 64 70 65 41 66 42 67 53 69 71 70 44 71 31 72 32 73 37 74
REMARK SMILES IDX 33 75 34 76 36 77 38 78 35 79 57 80 58 81 63 82 59 83 60 84
REMARK SMILES IDX 62 85 64 86 61 87 45 88 46 89 51 90 47 91 48 92 50 93 52 94
REMARK SMILES IDX 49 95
REMARK H PARENT 69 57 43 68
REMARK Flexibility Score: inf
ROOT
ATOM      1  C   UNL A   1      32.997  21.772  25.705  1.00  0.00     0.202 C 
ENDROOT
BRANCH   1   2
ATOM      2  C   UNL A   1      32.229  22.630  24.695  1.00  0.00     0.261 C 
BRANCH   2   3
ATOM      3  O   UNL A   1      30.928  22.974  25.205  1.00  0.00    -0.460 OA
BRANCH   3   4
ATOM      4  C   UNL A   1      30.876  24.170  25.843  1.00  0.00     0.338 C 
ATOM      5  O   UNL A   1      31.003  24.340  27.047  1.00  0.00    -0.246 OA
BRANCH   4   6
ATOM      6  C   UNL A   1      30.762  25.310  24.882  1.00  0.00     0.067 C 
ATOM      7  C   UNL A   1      29.551  25.647  24.377  1.00  0.00     0.024 C 
BRANCH   7   8
ATOM      8  C   UNL A   1      29.161  26.908  23.687  1.00  0.00    -0.025 A 
ATOM      9  C   UNL A   1      28.394  29.487  22.856  1.00  0.00     0.067 A 
ATOM     10  C   UNL A   1      29.681  29.026  22.589  1.00  0.00     0.021 A 
ATOM     11  C   UNL A   1      27.449  28.635  23.428  1.00  0.00     0.021 A 
ATOM     12  C   UNL A   1      30.043  27.729  22.968  1.00  0.00     0.009 A 
ATOM     13  C   UNL A   1      27.838  27.356  23.846  1.00  0.00     0.009 A 
BRANCH   9  14
ATOM     14  S   UNL A   1      27.969  31.177  22.504  1.00  0.00     0.175 S 
ATOM     15  C   UNL A   1      29.383  32.110  23.038  1.00  0.00     0.163 C 
ATOM     16  O   UNL A   1      26.846  31.511  23.357  1.00  0.00    -0.224 OA
ATOM     17  O   UNL A   1      27.882  31.313  21.061  1.00  0.00    -0.224 OA
ENDBRANCH   9  14
ENDBRANCH   7   8
BRANCH   6  18
ATOM     18  C   UNL A   1      31.986  26.105  24.687  1.00  0.00    -0.010 A 
ATOM     19  C   UNL A   1      32.721  26.020  23.498  1.00  0.00     0.009 A 
ATOM     20  C   UNL A   1      32.374  27.020  25.665  1.00  0.00     0.017 A 
ATOM     21  C   UNL A   1      33.819  26.852  23.285  1.00  0.00     0.001 A 
ATOM     22  C   UNL A   1      33.432  27.911  25.437  1.00  0.00    -0.018 A 
ATOM     23  C   UNL A   1      34.164  27.801  24.246  1.00  0.00     0.009 A 
BRANCH  22  24
ATOM     24  C   UNL A   1      33.643  29.006  26.386  1.00  0.00    -0.018 A 
ATOM     25  C   UNL A   1      34.883  29.138  27.033  1.00  0.00     0.010 A 
ATOM     26  C   UNL A   1      32.679  30.014  26.555  1.00  0.00     0.010 A 
ATOM     27  C   UNL A   1      35.167  30.261  27.806  1.00  0.00     0.021 A 
ATOM     28  C   UNL A   1      32.952  31.139  27.332  1.00  0.00     0.021 A 
ATOM     29  C   UNL A   1      34.196  31.253  27.949  1.00  0.00     0.067 A 
BRANCH  29  30
ATOM     30  S   UNL A   1      34.585  32.697  28.902  1.00  0.00     0.175 S 
ATOM     31  C   UNL A   1      33.395  33.885  28.337  1.00  0.00     0.163 C 
ATOM     32  O   UNL A   1      34.305  32.377  30.288  1.00  0.00    -0.224 OA
ATOM     33  O   UNL A   1      35.899  33.155  28.495  1.00  0.00    -0.224 OA
ENDBRANCH  29  30
ENDBRANCH  22  24
ENDBRANCH   6  18
ENDBRANCH   4   6
ENDBRANCH   3   4
ENDBRANCH   2   3
ENDBRANCH   1   2
BRANCH   1  34
ATOM     34  O   UNL A   1      33.947  20.849  25.170  1.00  0.00    -0.374 OA
BRANCH  34  35
ATOM     35  C   UNL A   1      35.154  21.383  24.634  1.00  0.00     0.202 C 
BRANCH  35  36
ATOM     36  C   UNL A   1      36.472  20.945  25.283  1.00  0.00     0.261 C 
BRANCH  36  37
ATOM     37  O   UNL A   1      37.463  21.981  25.266  1.00  0.00    -0.460 OA
BRANCH  37  38
ATOM     38  C   UNL A   1      38.660  21.611  25.777  1.00  0.00     0.338 C 
ATOM     39  O   UNL A   1      39.269  20.571  25.569  1.00  0.00    -0.246 OA
BRANCH  38  40
ATOM     40  C   UNL A   1      39.255  22.738  26.513  1.00  0.00     0.060 A 
ATOM     41  C   UNL A   1      38.690  24.005  26.314  1.00  0.00     0.016 A 
ATOM     42  C   UNL A   1      40.367  22.573  27.340  1.00  0.00     0.016 A 
ATOM     43  C   UNL A   1      39.269  25.124  26.903  1.00  0.00     0.010 A 
ATOM     44  C   UNL A   1      40.955  23.700  27.922  1.00  0.00     0.010 A 
ATOM     45  C   UNL A   1      40.428  24.981  27.676  1.00  0.00    -0.014 A 
BRANCH  45  46
ATOM     46  C   UNL A   1      41.176  26.190  28.088  1.00  0.00     0.031 A 
ATOM     47  C   UNL A   1      42.587  26.366  27.607  1.00  0.00     0.074 A 
ATOM     48  C   UNL A   1      40.593  27.132  28.848  1.00  0.00     0.049 A 
ATOM     49  N   UNL A   1      43.433  27.335  27.851  1.00  0.00    -0.248 NA
ATOM     50  C   UNL A   1      43.118  25.306  26.735  1.00  0.00     0.031 C 
ATOM     51  C   UNL A   1      39.219  27.087  29.343  1.00  0.00     0.029 A 
ATOM     52  N   UNL A   1      41.092  28.311  29.339  1.00  0.00    -0.354 N 
ATOM     53  C   UNL A   1      44.593  27.001  27.164  1.00  0.00     0.074 A 
ATOM     54  C   UNL A   1      44.357  25.726  26.523  1.00  0.00     0.031 C 
ATOM     55  C   UNL A   1      38.987  28.186  30.082  1.00  0.00     0.029 A 
ATOM     56  C   UNL A   1      40.203  28.995  30.129  1.00  0.00     0.049 A 
ATOM     57  H   UNL A   1      42.002  28.635  29.143  1.00  0.00     0.167 HD
ATOM     58  C   UNL A   1      45.748  27.701  27.067  1.00  0.00     0.037 A 
ATOM     59  C   UNL A   1      40.364  30.136  30.826  1.00  0.00     0.037 A 
ATOM     60  C   UNL A   1      45.982  28.965  27.712  1.00  0.00     0.049 A 
ATOM     61  C   UNL A   1      41.678  30.864  30.759  1.00  0.00     0.074 A 
ATOM     62  C   UNL A   1      47.114  29.762  27.667  1.00  0.00     0.029 A 
ATOM     63  N   UNL A   1      45.069  29.613  28.530  1.00  0.00    -0.354 N 
ATOM     64  N   UNL A   1      42.762  30.554  30.087  1.00  0.00    -0.248 NA
ATOM     65  C   UNL A   1      41.792  32.102  31.544  1.00  0.00     0.031 C 
ATOM     66  C   UNL A   1      46.901  30.869  28.495  1.00  0.00     0.029 A 
ATOM     67  C   UNL A   1      45.618  30.788  29.016  1.00  0.00     0.049 A 
ATOM     68  H   UNL A   1      44.163  29.286  28.734  1.00  0.00     0.167 HD
ATOM     69  C   UNL A   1      43.676  31.568  30.349  1.00  0.00     0.074 A 
ATOM     70  C   UNL A   1      43.015  32.507  31.232  1.00  0.00     0.031 C 
ATOM     71  C   UNL A   1      44.946  31.709  29.896  1.00  0.00     0.037 A 
BRANCH  58  72
ATOM     72  C   UNL A   1      46.851  27.092  26.253  1.00  0.00     0.057 A 
ATOM     73  C   UNL A   1      47.801  26.232  26.822  1.00  0.00     0.134 A 
ATOM     74  C   UNL A   1      46.963  27.363  24.885  1.00  0.00     0.134 A 
ATOM     75  F   UNL A   1      47.761  25.945  28.132  1.00  0.00    -0.206 F 
ATOM     76  C   UNL A   1      48.839  25.687  26.064  1.00  0.00     0.040 A 
ATOM     77  C   UNL A   1      47.982  26.805  24.111  1.00  0.00     0.040 A 
ATOM     78  F   UNL A   1      46.086  28.177  24.278  1.00  0.00    -0.206 F 
ATOM     79  C   UNL A   1      48.928  25.970  24.702  1.00  0.00     0.006 A 
ENDBRANCH  58  72
BRANCH  59  80
ATOM     80  C   UNL A   1      39.248  30.654  31.655  1.00  0.00     0.057 A 
ATOM     81  C   UNL A   1      39.065  30.232  32.976  1.00  0.00     0.134 A 
ATOM     82  C   UNL A   1      38.338  31.589  31.143  1.00  0.00     0.134 A 
ATOM     83  F   UNL A   1      39.892  29.323  33.514  1.00  0.00    -0.206 F 
ATOM     84  C   UNL A   1      38.013  30.712  33.757  1.00  0.00     0.040 A 
ATOM     85  C   UNL A   1      37.294  32.093  31.920  1.00  0.00     0.040 A 
ATOM     86  F   UNL A   1      38.461  32.035  29.885  1.00  0.00    -0.206 F 
ATOM     87  C   UNL A   1      37.127  31.651  33.230  1.00  0.00     0.006 A 
ENDBRANCH  59  80
BRANCH  71  88
ATOM     88  C   UNL A   1      45.696  32.936  30.328  1.00  0.00     0.057 A 
ATOM     89  C   UNL A   1      46.506  32.942  31.470  1.00  0.00     0.134 A 
ATOM     90  C   UNL A   1      45.642  34.110  29.567  1.00  0.00     0.134 A 
ATOM     91  F   UNL A   1      46.592  31.853  32.249  1.00  0.00    -0.206 F 
ATOM     92  C   UNL A   1      47.220  34.080  31.852  1.00  0.00     0.040 A 
ATOM     93  C   UNL A   1      46.369  35.246  29.923  1.00  0.00     0.040 A 
ATOM     94  F   UNL A   1      44.891  34.167  28.456  1.00  0.00    -0.206 F 
ATOM     95  C   UNL A   1      47.157  35.233  31.073  1.00  0.00     0.006 A 
ENDBRANCH  71  88
ENDBRANCH  45  46
ENDBRANCH  38  40
ENDBRANCH  37  38
ENDBRANCH  36  37
ENDBRANCH  35  36
ENDBRANCH  34  35
ENDBRANCH   1  34
TORSDOF 19
ENDMDL
MODEL 3
REMARK VINA RESULT:     -11.8      2.660      7.887
REMARK SMILES CS(=O)(=O)c1ccc(/C=C(/C(=O)OCCOCCOC(=O)c2ccc(-c3c4nc(c(-c5c(F)cccc5F)c5ccc([nH]5)c(-c5c(F)cccc5F)c5nc(c(-c6c(F)cccc6F)c6ccc3[nH]6)C=C5)C=C4)cc2)c2cccc(-c3ccc(S(C)(=O)=O)cc3)c2)cc1
REMARK SMILES IDX 15 1 14 2 13 3 11 4 12 5 10 6 9 7 8 8 5 9 6 10 93 11 7 12
REMARK SMILES IDX 92 13 2 14 1 15 3 16 4 17 76 18 77 19 91 20 78 21 80 22
REMARK SMILES IDX 79 23 81 24 82 25 90 26 83 27 89 28 84 29 85 30 86 31 87 32
REMARK SMILES IDX 88 33 16 34 17 35 18 36 19 37 20 38 21 39 22 40 23 41 75 42
REMARK SMILES IDX 24 43 74 44 25 45 26 46 27 47 68 48 28 49 73 50 67 51 69 52
REMARK SMILES IDX 29 53 72 54 66 55 65 56 30 58 56 59 39 60 55 61 40 62 43 63
REMARK SMILES IDX 54 64 70 65 41 66 42 67 53 69 71 70 44 71 31 72 32 73 37 74
REMARK SMILES IDX 33 75 34 76 36 77 38 78 35 79 57 80 58 81 63 82 59 83 60 84
REMARK SMILES IDX 62 85 64 86 61 87 45 88 46 89 51 90 47 91 48 92 50 93 52 94
REMARK SMILES IDX 49 95
REMARK H PARENT 69 57 43 68
REMARK Flexibility Score: inf
ROOT
ATOM      1  C   UNL A   1      38.113  23.240  26.088  1.00  0.00     0.202 C 
ENDROOT
BRANCH   1   2
ATOM      2  C   UNL A   1      36.589  23.102  26.093  1.00  0.00     0.261 C 
BRANCH   2   3
ATOM      3  O   UNL A   1      35.962  24.367  25.814  1.00  0.00    -0.460 OA
BRANCH   3   4
ATOM      4  C   UNL A   1      35.476  24.483  24.554  1.00  0.00     0.338 C 
ATOM      5  O   UNL A   1      35.989  24.016  23.547  1.00  0.00    -0.246 OA
BRANCH   4   6
ATOM      6  C   UNL A   1      34.143  25.162  24.531  1.00  0.00     0.067 C 
ATOM      7  C   UNL A   1      34.071  26.509  24.646  1.00  0.00     0.024 C 
BRANCH   7   8
ATOM      8  C   UNL A   1      32.919  27.399  24.328  1.00  0.00    -0.025 A 
ATOM      9  C   UNL A   1      30.637  28.737  23.361  1.00  0.00     0.067 A 
ATOM     10  C   UNL A   1      30.612  28.145  24.622  1.00  0.00     0.021 A 
ATOM     11  C   UNL A   1      31.822  28.771  22.626  1.00  0.00     0.021 A 
ATOM     12  C   UNL A   1      31.762  27.517  25.113  1.00  0.00     0.009 A 
ATOM     13  C   UNL A   1      32.952  28.098  23.109  1.00  0.00     0.009 A 
BRANCH   9  14
ATOM     14  S   UNL A   1      29.144  29.413  22.673  1.00  0.00     0.175 S 
ATOM     15  C   UNL A   1      28.903  30.938  23.552  1.00  0.00     0.163 C 
ATOM     16  O   UNL A   1      28.073  28.502  23.025  1.00  0.00    -0.224 OA
ATOM     17  O   UNL A   1      29.417  29.752  21.288  1.00  0.00    -0.224 OA
ENDBRANCH   9  14
ENDBRANCH   7   8
BRANCH   6  18
ATOM     18  C   UNL A   1      32.994  24.300  24.204  1.00  0.00    -0.010 A 
ATOM     19  C   UNL A   1      31.877  24.810  23.531  1.00  0.00     0.009 A 
ATOM     20  C   UNL A   1      33.052  22.937  24.493  1.00  0.00     0.017 A 
ATOM     21  C   UNL A   1      30.841  23.964  23.138  1.00  0.00     0.001 A 
ATOM     22  C   UNL A   1      32.053  22.063  24.044  1.00  0.00    -0.018 A 
ATOM     23  C   UNL A   1      30.936  22.594  23.383  1.00  0.00     0.009 A 
BRANCH  22  24
ATOM     24  C   UNL A   1      32.279  20.621  24.159  1.00  0.00    -0.018 A 
ATOM     25  C   UNL A   1      32.234  19.814  23.009  1.00  0.00     0.010 A 
ATOM     26  C   UNL A   1      32.683  20.047  25.376  1.00  0.00     0.010 A 
ATOM     27  C   UNL A   1      32.610  18.474  23.064  1.00  0.00     0.021 A 
ATOM     28  C   UNL A   1      33.056  18.705  25.442  1.00  0.00     0.021 A 
ATOM     29  C   UNL A   1      33.018  17.930  24.283  1.00  0.00     0.067 A 
BRANCH  29  30
ATOM     30  S   UNL A   1      33.534  16.235  24.331  1.00  0.00     0.175 S 
ATOM     31  C   UNL A   1      34.959  16.278  25.387  1.00  0.00     0.163 C 
ATOM     32  O   UNL A   1      32.482  15.491  24.995  1.00  0.00    -0.224 OA
ATOM     33  O   UNL A   1      33.978  15.870  22.999  1.00  0.00    -0.224 OA
ENDBRANCH  29  30
ENDBRANCH  22  24
ENDBRANCH   6  18
ENDBRANCH   4   6
ENDBRANCH   3   4
ENDBRANCH   2   3
ENDBRANCH   1   2
BRANCH   1  34
ATOM     34  O   UNL A   1      38.867  22.028  26.158  1.00  0.00    -0.374 OA
BRANCH  34  35
ATOM     35  C   UNL A   1      38.438  20.939  25.345  1.00  0.00     0.202 C 
BRANCH  35  36
ATOM     36  C   UNL A   1      39.244  19.637  25.424  1.00  0.00     0.261 C 
BRANCH  36  37
ATOM     37  O   UNL A   1      40.129  19.607  26.552  1.00  0.00    -0.460 OA
BRANCH  37  38
ATOM     38  C   UNL A   1      41.441  19.573  26.226  1.00  0.00     0.338 C 
ATOM     39  O   UNL A   1      42.049  18.663  25.679  1.00  0.00    -0.246 OA
BRANCH  38  40
ATOM     40  C   UNL A   1      42.046  20.894  26.460  1.00  0.00     0.060 A 
ATOM     41  C   UNL A   1      42.276  21.267  27.791  1.00  0.00     0.016 A 
ATOM     42  C   UNL A   1      42.336  21.768  25.411  1.00  0.00     0.016 A 
ATOM     43  C   UNL A   1      42.753  22.541  28.082  1.00  0.00     0.010 A 
ATOM     44  C   UNL A   1      42.804  23.052  25.706  1.00  0.00     0.010 A 
ATOM     45  C   UNL A   1      42.980  23.453  27.043  1.00  0.00    -0.014 A 
BRANCH  45  46
ATOM     46  C   UNL A   1      43.242  24.872  27.371  1.00  0.00     0.031 A 
ATOM     47  C   UNL A   1      44.614  25.430  27.121  1.00  0.00     0.074 A 
ATOM     48  C   UNL A   1      42.264  25.658  27.850  1.00  0.00     0.049 A 
ATOM     49  N   UNL A   1      45.073  26.635  27.343  1.00  0.00    -0.248 NA
ATOM     50  C   UNL A   1      45.601  24.504  26.543  1.00  0.00     0.031 C 
ATOM     51  C   UNL A   1      40.888  25.237  28.099  1.00  0.00     0.029 A 
ATOM     52  N   UNL A   1      42.287  26.979  28.217  1.00  0.00    -0.354 N 
ATOM     53  C   UNL A   1      46.400  26.612  26.933  1.00  0.00     0.074 A 
ATOM     54  C   UNL A   1      46.683  25.266  26.483  1.00  0.00     0.031 C 
ATOM     55  C   UNL A   1      40.197  26.279  28.593  1.00  0.00     0.029 A 
ATOM     56  C   UNL A   1      41.091  27.429  28.715  1.00  0.00     0.049 A 
ATOM     57  H   UNL A   1      43.085  27.550  28.131  1.00  0.00     0.167 HD
ATOM     58  C   UNL A   1      47.299  27.624  26.923  1.00  0.00     0.037 A 
ATOM     59  C   UNL A   1      40.763  28.630  29.230  1.00  0.00     0.037 A 
ATOM     60  C   UNL A   1      47.016  28.959  27.379  1.00  0.00     0.049 A 
ATOM     61  C   UNL A   1      41.796  29.722  29.272  1.00  0.00     0.074 A 
ATOM     62  C   UNL A   1      47.854  30.060  27.400  1.00  0.00     0.029 A 
ATOM     63  N   UNL A   1      45.802  29.370  27.907  1.00  0.00    -0.354 N 
ATOM     64  N   UNL A   1      43.041  29.699  28.859  1.00  0.00    -0.248 NA
ATOM     65  C   UNL A   1      41.379  31.009  29.847  1.00  0.00     0.031 C 
ATOM     66  C   UNL A   1      47.159  31.126  27.981  1.00  0.00     0.029 A 
ATOM     67  C   UNL A   1      45.873  30.702  28.278  1.00  0.00     0.049 A 
ATOM     68  H   UNL A   1      45.005  28.799  28.002  1.00  0.00     0.167 HD
ATOM     69  C   UNL A   1      43.548  30.970  29.104  1.00  0.00     0.074 A 
ATOM     70  C   UNL A   1      42.471  31.742  29.689  1.00  0.00     0.031 C 
ATOM     71  C   UNL A   1      44.792  31.454  28.861  1.00  0.00     0.037 A 
BRANCH  58  72
ATOM     72  C   UNL A   1      48.679  27.309  26.427  1.00  0.00     0.057 A 
ATOM     73  C   UNL A   1      48.998  27.338  25.062  1.00  0.00     0.134 A 
ATOM     74  C   UNL A   1      49.702  26.977  27.322  1.00  0.00     0.134 A 
ATOM     75  F   UNL A   1      48.059  27.630  24.150  1.00  0.00    -0.206 F 
ATOM     76  C   UNL A   1      50.279  27.020  24.605  1.00  0.00     0.040 A 
ATOM     77  C   UNL A   1      50.992  26.682  26.880  1.00  0.00     0.040 A 
ATOM     78  F   UNL A   1      49.464  26.933  28.641  1.00  0.00    -0.206 F 
ATOM     79  C   UNL A   1      51.282  26.696  25.517  1.00  0.00     0.006 A 
ENDBRANCH  58  72
BRANCH  59  80
ATOM     80  C   UNL A   1      39.394  28.857  29.754  1.00  0.00     0.057 A 
ATOM     81  C   UNL A   1      38.380  29.376  28.942  1.00  0.00     0.134 A 
ATOM     82  C   UNL A   1      39.067  28.556  31.083  1.00  0.00     0.134 A 
ATOM     83  F   UNL A   1      38.638  29.703  27.667  1.00  0.00    -0.206 F 
ATOM     84  C   UNL A   1      37.093  29.597  29.433  1.00  0.00     0.040 A 
ATOM     85  C   UNL A   1      37.779  28.752  31.581  1.00  0.00     0.040 A 
ATOM     86  F   UNL A   1      39.994  28.054  31.911  1.00  0.00    -0.206 F 
ATOM     87  C   UNL A   1      36.787  29.279  30.755  1.00  0.00     0.006 A 
ENDBRANCH  59  80
BRANCH  71  88
ATOM     88  C   UNL A   1      45.047  32.893  29.207  1.00  0.00     0.057 A 
ATOM     89  C   UNL A   1      44.765  33.929  28.308  1.00  0.00     0.134 A 
ATOM     90  C   UNL A   1      45.538  33.246  30.470  1.00  0.00     0.134 A 
ATOM     91  F   UNL A   1      44.305  33.656  27.078  1.00  0.00    -0.206 F 
ATOM     92  C   UNL A   1      44.983  35.266  28.646  1.00  0.00     0.040 A 
ATOM     93  C   UNL A   1      45.736  34.579  30.829  1.00  0.00     0.040 A 
ATOM     94  F   UNL A   1      45.818  32.301  31.381  1.00  0.00    -0.206 F 
ATOM     95  C   UNL A   1      45.463  35.594  29.913  1.00  0.00     0.006 A 
ENDBRANCH  71  88
ENDBRANCH  45  46
ENDBRANCH  38  40
ENDBRANCH  37  38
ENDBRANCH  36  37
ENDBRANCH  35  36
ENDBRANCH  34  35
ENDBRANCH   1  34
TORSDOF 19
ENDMDL
