MODEL 1
REMARK VINA RESULT:     -13.3      0.000      0.000
REMARK SMILES Cc1ccc(S(=O)(=O)n2cc(C(=O)C(=O)NCC(=O)N[C@H](Cc3c[nH]c4ccccc34)C(=O)OCCOCCOC(=O)c3ccc(-c4c5nc(c(-c6c(F)cccc6F)c6ccc([nH]6)c(-c6c(F)cccc6F)c6nc(c(-c7c(F)cccc7F)c7ccc4[nH]7)C=C6)C=C5)cc3)c3ccccc32)cc1
REMARK SMILES IDX 35 1 34 2 32 3 33 4 21 5 20 6 18 7 19 8 17 10 16 11 14 12
REMARK SMILES IDX 15 13 12 15 13 16 11 17 9 18 10 19 102 20 97 21 101 22 98 23
REMARK SMILES IDX 100 24 99 25 6 26 7 27 8 28 5 29 1 30 2 31 3 32 104 33 4 34
REMARK SMILES IDX 103 35 22 36 23 37 24 38 31 39 25 40 26 41 30 42 27 44 29 45
REMARK SMILES IDX 28 46 36 47 37 48 38 49 39 50 40 51 41 52 42 53 43 54 44 55
REMARK SMILES IDX 96 56 45 57 95 58 46 59 47 60 48 61 89 62 49 63 94 64 88 65
REMARK SMILES IDX 90 66 50 67 93 68 87 69 86 70 51 72 77 73 60 74 76 75 61 76
REMARK SMILES IDX 64 77 75 78 91 79 62 80 63 81 74 83 92 84 65 85 52 86 53 87
REMARK SMILES IDX 58 88 54 89 55 90 57 91 59 92 56 93 78 94 79 95 84 96 80 97
REMARK SMILES IDX 81 98 83 99 85 100 82 101 66 102 67 103 72 104 68 105 69 106
REMARK SMILES IDX 71 107 73 108 70 109
REMARK H PARENT 20 9 16 14 25 43 90 71 64 82
REMARK Flexibility Score: inf
ROOT
ATOM      1  C   UNL A   1      33.335  28.701  24.710  1.00  0.00     0.261 C 
ENDROOT
BRANCH   1   2
ATOM      2  O   UNL A   1      34.242  27.988  23.883  1.00  0.00    -0.462 OA
BRANCH   2   3
ATOM      3  C   UNL A   1      33.809  27.744  22.612  1.00  0.00     0.329 C 
ATOM      4  O   UNL A   1      34.227  28.222  21.585  1.00  0.00    -0.250 OA
BRANCH   3   5
ATOM      5  C   UNL A   1      32.731  26.686  22.651  1.00  0.00     0.196 C 
BRANCH   5   6
ATOM      6  N   UNL A   1      33.329  25.416  22.233  1.00  0.00    -0.341 N 
ATOM      7  C   UNL A   1      33.932  24.474  23.037  1.00  0.00     0.240 C 
ATOM      8  O   UNL A   1      34.372  23.462  22.486  1.00  0.00    -0.273 OA
ATOM      9  H   UNL A   1      33.297  25.214  21.270  1.00  0.00     0.164 HD
BRANCH   7  10
ATOM     10  C   UNL A   1      34.082  24.684  24.580  1.00  0.00     0.216 C 
BRANCH  10  11
ATOM     11  N   UNL A   1      33.004  25.426  25.243  1.00  0.00    -0.340 N 
ATOM     12  C   UNL A   1      32.091  25.018  26.208  1.00  0.00     0.292 C 
ATOM     13  O   UNL A   1      31.269  25.790  26.692  1.00  0.00    -0.265 OA
ATOM     14  H   UNL A   1      32.913  26.365  24.958  1.00  0.00     0.164 HD
BRANCH  12  15
ATOM     15  C   UNL A   1      32.136  23.583  26.718  1.00  0.00     0.252 C 
ATOM     16  O   UNL A   1      31.297  23.299  27.577  1.00  0.00    -0.283 OA
BRANCH  15  17
ATOM     17  C   UNL A   1      33.216  22.649  26.358  1.00  0.00     0.054 A 
ATOM     18  N   UNL A   1      35.056  21.337  26.229  1.00  0.00    -0.240 N 
ATOM     19  C   UNL A   1      34.544  22.504  26.798  1.00  0.00     0.117 A 
ATOM     20  C   UNL A   1      33.979  20.680  25.593  1.00  0.00     0.065 A 
ATOM     21  C   UNL A   1      33.048  21.678  25.332  1.00  0.00     0.012 A 
ATOM     22  C   UNL A   1      33.924  19.437  24.930  1.00  0.00     0.028 A 
ATOM     23  C   UNL A   1      32.162  21.514  24.249  1.00  0.00     0.011 A 
ATOM     24  C   UNL A   1      33.123  19.346  23.793  1.00  0.00     0.002 A 
ATOM     25  C   UNL A   1      32.281  20.388  23.432  1.00  0.00     0.001 A 
BRANCH  18  26
ATOM     26  S   UNL A   1      36.499  21.116  25.276  1.00  0.00     0.268 S 
ATOM     27  O   UNL A   1      36.327  22.125  24.239  1.00  0.00    -0.201 OA
ATOM     28  O   UNL A   1      36.400  19.693  24.966  1.00  0.00    -0.201 OA
BRANCH  26  29
ATOM     29  C   UNL A   1      38.215  21.204  25.631  1.00  0.00     0.088 A 
ATOM     30  C   UNL A   1      42.204  20.095  26.898  1.00  0.00     0.044 C 
ATOM     31  C   UNL A   1      40.854  20.539  26.408  1.00  0.00    -0.051 A 
ATOM     32  C   UNL A   1      40.052  19.568  25.833  1.00  0.00     0.005 A 
ATOM     33  C   UNL A   1      40.341  21.850  26.552  1.00  0.00     0.005 A 
ATOM     34  C   UNL A   1      38.771  19.906  25.444  1.00  0.00     0.022 A 
ATOM     35  C   UNL A   1      39.010  22.195  26.173  1.00  0.00     0.022 A 
ENDBRANCH  26  29
ENDBRANCH  18  26
ENDBRANCH  15  17
ENDBRANCH  12  15
ENDBRANCH  10  11
ENDBRANCH   7  10
ENDBRANCH   5   6
BRANCH   5  36
ATOM     36  C   UNL A   1      31.481  27.186  21.851  1.00  0.00     0.074 C 
BRANCH  36  37
ATOM     37  C   UNL A   1      30.216  27.616  22.596  1.00  0.00    -0.020 A 
ATOM     38  C   UNL A   1      29.455  26.849  23.463  1.00  0.00     0.087 A 
ATOM     39  C   UNL A   1      29.530  28.897  22.509  1.00  0.00     0.003 A 
ATOM     40  N   UNL A   1      28.295  27.521  23.744  1.00  0.00    -0.361 N 
ATOM     41  C   UNL A   1      28.314  28.775  23.191  1.00  0.00     0.046 A 
ATOM     42  C   UNL A   1      29.773  30.122  21.844  1.00  0.00     0.010 A 
ATOM     43  H   UNL A   1      27.550  27.155  24.273  1.00  0.00     0.166 HD
ATOM     44  C   UNL A   1      27.333  29.779  23.218  1.00  0.00     0.026 A 
ATOM     45  C   UNL A   1      28.819  31.153  21.894  1.00  0.00     0.001 A 
ATOM     46  C   UNL A   1      27.612  30.979  22.564  1.00  0.00     0.002 A 
ENDBRANCH  36  37
ENDBRANCH   5  36
ENDBRANCH   3   5
ENDBRANCH   2   3
ENDBRANCH   1   2
BRANCH   1  47
ATOM     47  C   UNL A   1      33.780  28.888  26.122  1.00  0.00     0.202 C 
BRANCH  47  48
ATOM     48  O   UNL A   1      32.622  28.911  26.935  1.00  0.00    -0.374 OA
BRANCH  48  49
ATOM     49  C   UNL A   1      32.175  30.227  27.199  1.00  0.00     0.202 C 
BRANCH  49  50
ATOM     50  C   UNL A   1      33.343  31.218  27.148  1.00  0.00     0.261 C 
BRANCH  50  51
ATOM     51  O   UNL A   1      34.036  31.186  28.422  1.00  0.00    -0.460 OA
BRANCH  51  52
ATOM     52  C   UNL A   1      35.352  31.548  28.401  1.00  0.00     0.338 C 
ATOM     53  O   UNL A   1      35.774  32.639  28.049  1.00  0.00    -0.246 OA
BRANCH  52  54
ATOM     54  C   UNL A   1      36.235  30.342  28.546  1.00  0.00     0.060 A 
ATOM     55  C   UNL A   1      36.406  29.749  29.815  1.00  0.00     0.016 A 
ATOM     56  C   UNL A   1      37.150  30.058  27.541  1.00  0.00     0.016 A 
ATOM     57  C   UNL A   1      37.585  29.042  30.127  1.00  0.00     0.010 A 
ATOM     58  C   UNL A   1      38.347  29.450  27.887  1.00  0.00     0.010 A 
ATOM     59  C   UNL A   1      38.612  28.980  29.193  1.00  0.00    -0.014 A 
BRANCH  59  60
ATOM     60  C   UNL A   1      40.016  28.570  29.456  1.00  0.00     0.031 A 
ATOM     61  C   UNL A   1      40.433  27.232  28.933  1.00  0.00     0.074 A 
ATOM     62  C   UNL A   1      40.980  29.424  29.915  1.00  0.00     0.049 A 
ATOM     63  N   UNL A   1      41.578  26.683  29.141  1.00  0.00    -0.248 NA
ATOM     64  C   UNL A   1      39.562  26.379  28.127  1.00  0.00     0.031 C 
ATOM     65  C   UNL A   1      42.437  29.260  29.807  1.00  0.00     0.029 A 
ATOM     66  N   UNL A   1      40.887  30.668  30.583  1.00  0.00    -0.354 N 
ATOM     67  C   UNL A   1      41.715  25.606  28.292  1.00  0.00     0.074 A 
ATOM     68  C   UNL A   1      40.405  25.425  27.731  1.00  0.00     0.031 C 
ATOM     69  C   UNL A   1      43.073  30.184  30.547  1.00  0.00     0.029 A 
ATOM     70  C   UNL A   1      42.059  30.827  31.355  1.00  0.00     0.049 A 
ATOM     71  H   UNL A   1      40.141  31.306  30.520  1.00  0.00     0.167 HD
ATOM     72  C   UNL A   1      42.959  25.072  28.120  1.00  0.00     0.037 A 
ATOM     73  C   UNL A   1      42.024  30.846  32.716  1.00  0.00     0.037 A 
ATOM     74  C   UNL A   1      43.888  25.650  29.112  1.00  0.00     0.049 A 
ATOM     75  C   UNL A   1      42.762  29.655  33.261  1.00  0.00     0.074 A 
ATOM     76  C   UNL A   1      44.909  26.583  29.041  1.00  0.00     0.029 A 
ATOM     77  N   UNL A   1      43.593  25.510  30.475  1.00  0.00    -0.354 N 
ATOM     78  N   UNL A   1      43.019  28.607  32.525  1.00  0.00    -0.248 NA
ATOM     79  C   UNL A   1      43.306  29.535  34.606  1.00  0.00     0.031 C 
ATOM     80  C   UNL A   1      45.135  27.085  30.360  1.00  0.00     0.029 A 
ATOM     81  C   UNL A   1      44.283  26.432  31.243  1.00  0.00     0.049 A 
ATOM     82  H   UNL A   1      42.971  24.840  30.840  1.00  0.00     0.167 HD
ATOM     83  C   UNL A   1      43.741  27.707  33.230  1.00  0.00     0.074 A 
ATOM     84  C   UNL A   1      43.886  28.321  34.540  1.00  0.00     0.031 C 
ATOM     85  C   UNL A   1      44.094  26.507  32.694  1.00  0.00     0.037 A 
BRANCH  72  86
ATOM     86  C   UNL A   1      43.396  24.165  26.970  1.00  0.00     0.057 A 
ATOM     87  C   UNL A   1      44.338  23.137  27.192  1.00  0.00     0.134 A 
ATOM     88  C   UNL A   1      43.002  24.263  25.618  1.00  0.00     0.134 A 
ATOM     89  F   UNL A   1      44.810  22.871  28.418  1.00  0.00    -0.206 F 
ATOM     90  C   UNL A   1      44.855  22.320  26.168  1.00  0.00     0.040 A 
ATOM     91  C   UNL A   1      43.513  23.461  24.585  1.00  0.00     0.040 A 
ATOM     92  F   UNL A   1      42.082  25.125  25.190  1.00  0.00    -0.206 F 
ATOM     93  C   UNL A   1      44.451  22.485  24.855  1.00  0.00     0.006 A 
ENDBRANCH  72  86
BRANCH  73  94
ATOM     94  C   UNL A   1      40.794  31.495  33.243  1.00  0.00     0.057 A 
ATOM     95  C   UNL A   1      40.733  32.901  33.224  1.00  0.00     0.134 A 
ATOM     96  C   UNL A   1      39.572  30.815  33.265  1.00  0.00     0.134 A 
ATOM     97  F   UNL A   1      41.862  33.626  33.191  1.00  0.00    -0.206 F 
ATOM     98  C   UNL A   1      39.520  33.591  33.109  1.00  0.00     0.040 A 
ATOM     99  C   UNL A   1      38.355  31.496  33.111  1.00  0.00     0.040 A 
ATOM    100  F   UNL A   1      39.540  29.474  33.272  1.00  0.00    -0.206 F 
ATOM    101  C   UNL A   1      38.330  32.883  32.987  1.00  0.00     0.006 A 
ENDBRANCH  73  94
BRANCH  85 102
ATOM    102  C   UNL A   1      44.319  25.319  33.573  1.00  0.00     0.057 A 
ATOM    103  C   UNL A   1      45.552  24.646  33.634  1.00  0.00     0.134 A 
ATOM    104  C   UNL A   1      43.353  24.911  34.507  1.00  0.00     0.134 A 
ATOM    105  F   UNL A   1      46.609  25.043  32.910  1.00  0.00    -0.206 F 
ATOM    106  C   UNL A   1      45.771  23.563  34.482  1.00  0.00     0.040 A 
ATOM    107  C   UNL A   1      43.585  23.871  35.406  1.00  0.00     0.040 A 
ATOM    108  F   UNL A   1      42.166  25.527  34.605  1.00  0.00    -0.206 F 
ATOM    109  C   UNL A   1      44.785  23.173  35.377  1.00  0.00     0.006 A 
ENDBRANCH  85 102
ENDBRANCH  59  60
ENDBRANCH  52  54
ENDBRANCH  51  52
ENDBRANCH  50  51
ENDBRANCH  49  50
ENDBRANCH  48  49
ENDBRANCH  47  48
ENDBRANCH   1  47
TORSDOF 23
ENDMDL
MODEL 2
REMARK VINA RESULT:     -12.6      2.122      3.842
REMARK SMILES Cc1ccc(S(=O)(=O)n2cc(C(=O)C(=O)NCC(=O)N[C@H](Cc3c[nH]c4ccccc34)C(=O)OCCOCCOC(=O)c3ccc(-c4c5nc(c(-c6c(F)cccc6F)c6ccc([nH]6)c(-c6c(F)cccc6F)c6nc(c(-c7c(F)cccc7F)c7ccc4[nH]7)C=C6)C=C5)cc3)c3ccccc32)cc1
REMARK SMILES IDX 35 1 34 2 32 3 33 4 21 5 20 6 18 7 19 8 17 10 16 11 14 12
REMARK SMILES IDX 15 13 12 15 13 16 11 17 9 18 10 19 102 20 97 21 101 22 98 23
REMARK SMILES IDX 100 24 99 25 6 26 7 27 8 28 5 29 1 30 2 31 3 32 104 33 4 34
REMARK SMILES IDX 103 35 22 36 23 37 24 38 31 39 25 40 26 41 30 42 27 44 29 45
REMARK SMILES IDX 28 46 36 47 37 48 38 49 39 50 40 51 41 52 42 53 43 54 44 55
REMARK SMILES IDX 96 56 45 57 95 58 46 59 47 60 48 61 89 62 49 63 94 64 88 65
REMARK SMILES IDX 90 66 50 67 93 68 87 69 86 70 51 72 77 73 60 74 76 75 61 76
REMARK SMILES IDX 64 77 75 78 91 79 62 80 63 81 74 83 92 84 65 85 52 86 53 87
REMARK SMILES IDX 58 88 54 89 55 90 57 91 59 92 56 93 78 94 79 95 84 96 80 97
REMARK SMILES IDX 81 98 83 99 85 100 82 101 66 102 67 103 72 104 68 105 69 106
REMARK SMILES IDX 71 107 73 108 70 109
REMARK H PARENT 20 9 16 14 25 43 90 71 64 82
REMARK Flexibility Score: inf
ROOT
ATOM      1  C   UNL A   1      31.045  27.730  27.189  1.00  0.00     0.261 C 
ENDROOT
BRANCH   1   2
ATOM      2  O   UNL A   1      31.396  26.365  27.015  1.00  0.00    -0.462 OA
BRANCH   2   3
ATOM      3  C   UNL A   1      30.594  25.658  26.166  1.00  0.00     0.329 C 
ATOM      4  O   UNL A   1      29.393  25.548  26.207  1.00  0.00    -0.250 OA
BRANCH   3   5
ATOM      5  C   UNL A   1      31.441  25.061  25.066  1.00  0.00     0.196 C 
BRANCH   5   6
ATOM      6  N   UNL A   1      32.805  25.571  25.219  1.00  0.00    -0.341 N 
ATOM      7  C   UNL A   1      33.975  24.945  24.851  1.00  0.00     0.240 C 
ATOM      8  O   UNL A   1      35.029  25.550  25.063  1.00  0.00    -0.273 OA
ATOM      9  H   UNL A   1      32.895  26.461  25.631  1.00  0.00     0.164 HD
BRANCH   7  10
ATOM     10  C   UNL A   1      33.979  23.514  24.218  1.00  0.00     0.216 C 
BRANCH  10  11
ATOM     11  N   UNL A   1      34.381  22.413  25.101  1.00  0.00    -0.340 N 
ATOM     12  C   UNL A   1      35.646  21.955  25.449  1.00  0.00     0.292 C 
ATOM     13  O   UNL A   1      35.807  21.035  26.245  1.00  0.00    -0.265 OA
ATOM     14  H   UNL A   1      33.635  21.920  25.512  1.00  0.00     0.164 HD
BRANCH  12  15
ATOM     15  C   UNL A   1      36.875  22.641  24.864  1.00  0.00     0.252 C 
ATOM     16  O   UNL A   1      36.890  22.742  23.634  1.00  0.00    -0.283 OA
BRANCH  15  17
ATOM     17  C   UNL A   1      38.049  22.990  25.680  1.00  0.00     0.054 A 
ATOM     18  N   UNL A   1      39.592  23.905  27.061  1.00  0.00    -0.240 N 
ATOM     19  C   UNL A   1      38.503  24.198  26.239  1.00  0.00     0.117 A 
ATOM     20  C   UNL A   1      39.681  22.497  27.144  1.00  0.00     0.065 A 
ATOM     21  C   UNL A   1      39.044  22.026  26.001  1.00  0.00     0.012 A 
ATOM     22  C   UNL A   1      40.547  21.673  27.891  1.00  0.00     0.028 A 
ATOM     23  C   UNL A   1      39.428  20.776  25.477  1.00  0.00     0.011 A 
ATOM     24  C   UNL A   1      40.996  20.497  27.293  1.00  0.00     0.002 A 
ATOM     25  C   UNL A   1      40.473  20.073  26.080  1.00  0.00     0.001 A 
BRANCH  18  26
ATOM     26  S   UNL A   1      41.201  24.575  27.041  1.00  0.00     0.268 S 
ATOM     27  O   UNL A   1      41.365  24.997  28.425  1.00  0.00    -0.201 OA
ATOM     28  O   UNL A   1      41.068  25.555  25.966  1.00  0.00    -0.201 OA
BRANCH  26  29
ATOM     29  C   UNL A   1      42.781  23.930  26.634  1.00  0.00     0.088 A 
ATOM     30  C   UNL A   1      45.941  21.824  24.555  1.00  0.00     0.044 C 
ATOM     31  C   UNL A   1      44.903  22.606  25.311  1.00  0.00    -0.051 A 
ATOM     32  C   UNL A   1      43.891  23.181  24.561  1.00  0.00     0.005 A 
ATOM     33  C   UNL A   1      44.866  22.734  26.720  1.00  0.00     0.005 A 
ATOM     34  C   UNL A   1      42.868  23.837  25.215  1.00  0.00     0.022 A 
ATOM     35  C   UNL A   1      43.798  23.392  27.399  1.00  0.00     0.022 A 
ENDBRANCH  26  29
ENDBRANCH  18  26
ENDBRANCH  15  17
ENDBRANCH  12  15
ENDBRANCH  10  11
ENDBRANCH   7  10
ENDBRANCH   5   6
BRANCH   5  36
ATOM     36  C   UNL A   1      30.740  25.294  23.685  1.00  0.00     0.074 C 
BRANCH  36  37
ATOM     37  C   UNL A   1      30.672  26.701  23.088  1.00  0.00    -0.020 A 
ATOM     38  C   UNL A   1      31.711  27.419  22.519  1.00  0.00     0.087 A 
ATOM     39  C   UNL A   1      29.518  27.587  23.041  1.00  0.00     0.003 A 
ATOM     40  N   UNL A   1      31.294  28.707  22.309  1.00  0.00    -0.361 N 
ATOM     41  C   UNL A   1      29.961  28.840  22.602  1.00  0.00     0.046 A 
ATOM     42  C   UNL A   1      28.156  27.481  23.410  1.00  0.00     0.010 A 
ATOM     43  H   UNL A   1      31.871  29.437  21.989  1.00  0.00     0.166 HD
ATOM     44  C   UNL A   1      29.143  29.979  22.544  1.00  0.00     0.026 A 
ATOM     45  C   UNL A   1      27.313  28.603  23.321  1.00  0.00     0.001 A 
ATOM     46  C   UNL A   1      27.803  29.835  22.903  1.00  0.00     0.002 A 
ENDBRANCH  36  37
ENDBRANCH   5  36
ENDBRANCH   3   5
ENDBRANCH   2   3
ENDBRANCH   1   2
BRANCH   1  47
ATOM     47  C   UNL A   1      32.196  28.680  27.212  1.00  0.00     0.202 C 
BRANCH  47  48
ATOM     48  O   UNL A   1      33.356  27.954  26.852  1.00  0.00    -0.374 OA
BRANCH  48  49
ATOM     49  C   UNL A   1      34.517  28.763  26.836  1.00  0.00     0.202 C 
BRANCH  49  50
ATOM     50  C   UNL A   1      34.165  30.222  27.144  1.00  0.00     0.261 C 
BRANCH  50  51
ATOM     51  O   UNL A   1      35.340  30.880  27.684  1.00  0.00    -0.460 OA
BRANCH  51  52
ATOM     52  C   UNL A   1      35.110  31.928  28.527  1.00  0.00     0.338 C 
ATOM     53  O   UNL A   1      34.234  32.767  28.382  1.00  0.00    -0.246 OA
BRANCH  52  54
ATOM     54  C   UNL A   1      36.266  32.114  29.467  1.00  0.00     0.060 A 
ATOM     55  C   UNL A   1      37.354  32.927  29.085  1.00  0.00     0.016 A 
ATOM     56  C   UNL A   1      36.433  31.212  30.510  1.00  0.00     0.016 A 
ATOM     57  C   UNL A   1      38.643  32.698  29.608  1.00  0.00     0.010 A 
ATOM     58  C   UNL A   1      37.719  30.928  30.942  1.00  0.00     0.010 A 
ATOM     59  C   UNL A   1      38.852  31.623  30.463  1.00  0.00    -0.014 A 
BRANCH  59  60
ATOM     60  C   UNL A   1      40.169  31.046  30.844  1.00  0.00     0.031 A 
ATOM     61  C   UNL A   1      40.686  29.934  29.987  1.00  0.00     0.074 A 
ATOM     62  C   UNL A   1      41.014  31.624  31.750  1.00  0.00     0.049 A 
ATOM     63  N   UNL A   1      41.760  29.264  30.219  1.00  0.00    -0.248 NA
ATOM     64  C   UNL A   1      40.006  29.466  28.782  1.00  0.00     0.031 C 
ATOM     65  C   UNL A   1      42.460  31.399  31.884  1.00  0.00     0.029 A 
ATOM     66  N   UNL A   1      40.783  32.576  32.770  1.00  0.00    -0.354 N 
ATOM     67  C   UNL A   1      42.073  28.527  29.097  1.00  0.00     0.074 A 
ATOM     68  C   UNL A   1      40.912  28.640  28.260  1.00  0.00     0.031 C 
ATOM     69  C   UNL A   1      42.926  31.973  33.007  1.00  0.00     0.029 A 
ATOM     70  C   UNL A   1      41.764  32.381  33.767  1.00  0.00     0.049 A 
ATOM     71  H   UNL A   1      40.068  33.252  32.783  1.00  0.00     0.167 HD
ATOM     72  C   UNL A   1      43.325  27.991  29.005  1.00  0.00     0.037 A 
ATOM     73  C   UNL A   1      41.441  31.946  35.016  1.00  0.00     0.037 A 
ATOM     74  C   UNL A   1      44.023  28.134  30.298  1.00  0.00     0.049 A 
ATOM     75  C   UNL A   1      42.046  30.590  35.255  1.00  0.00     0.074 A 
ATOM     76  C   UNL A   1      45.037  28.959  30.756  1.00  0.00     0.029 A 
ATOM     77  N   UNL A   1      43.446  27.568  31.442  1.00  0.00    -0.354 N 
ATOM     78  N   UNL A   1      42.452  29.834  34.272  1.00  0.00    -0.248 NA
ATOM     79  C   UNL A   1      42.292  29.987  36.558  1.00  0.00     0.031 C 
ATOM     80  C   UNL A   1      44.978  28.973  32.184  1.00  0.00     0.029 A 
ATOM     81  C   UNL A   1      43.958  28.127  32.601  1.00  0.00     0.049 A 
ATOM     82  H   UNL A   1      42.760  26.862  31.425  1.00  0.00     0.167 HD
ATOM     83  C   UNL A   1      43.007  28.699  34.755  1.00  0.00     0.074 A 
ATOM     84  C   UNL A   1      42.872  28.827  36.196  1.00  0.00     0.031 C 
ATOM     85  C   UNL A   1      43.466  27.725  33.921  1.00  0.00     0.037 A 
BRANCH  72  86
ATOM     86  C   UNL A   1      43.996  27.491  27.725  1.00  0.00     0.057 A 
ATOM     87  C   UNL A   1      45.065  26.572  27.793  1.00  0.00     0.134 A 
ATOM     88  C   UNL A   1      43.707  27.898  26.404  1.00  0.00     0.134 A 
ATOM     89  F   UNL A   1      45.468  26.050  28.959  1.00  0.00    -0.206 F 
ATOM     90  C   UNL A   1      45.789  26.135  26.667  1.00  0.00     0.040 A 
ATOM     91  C   UNL A   1      44.424  27.476  25.272  1.00  0.00     0.040 A 
ATOM     92  F   UNL A   1      42.702  28.717  26.099  1.00  0.00    -0.206 F 
ATOM     93  C   UNL A   1      45.477  26.594  25.399  1.00  0.00     0.006 A 
ENDBRANCH  72  86
BRANCH  73  94
ATOM     94  C   UNL A   1      40.128  32.470  35.477  1.00  0.00     0.057 A 
ATOM     95  C   UNL A   1      40.055  33.825  35.850  1.00  0.00     0.134 A 
ATOM     96  C   UNL A   1      38.931  31.862  35.085  1.00  0.00     0.134 A 
ATOM     97  F   UNL A   1      41.162  34.482  36.229  1.00  0.00    -0.206 F 
ATOM     98  C   UNL A   1      38.876  34.569  35.722  1.00  0.00     0.040 A 
ATOM     99  C   UNL A   1      37.755  32.609  34.917  1.00  0.00     0.040 A 
ATOM    100  F   UNL A   1      38.914  30.577  34.704  1.00  0.00    -0.206 F 
ATOM    101  C   UNL A   1      37.736  33.975  35.192  1.00  0.00     0.006 A 
ENDBRANCH  73  94
BRANCH  85 102
ATOM    102  C   UNL A   1      43.498  26.298  34.366  1.00  0.00     0.057 A 
ATOM    103  C   UNL A   1      44.698  25.585  34.534  1.00  0.00     0.134 A 
ATOM    104  C   UNL A   1      42.332  25.643  34.796  1.00  0.00     0.134 A 
ATOM    105  F   UNL A   1      45.893  26.154  34.315  1.00  0.00    -0.206 F 
ATOM    106  C   UNL A   1      44.729  24.268  34.985  1.00  0.00     0.040 A 
ATOM    107  C   UNL A   1      42.358  24.348  35.311  1.00  0.00     0.040 A 
ATOM    108  F   UNL A   1      41.135  26.245  34.763  1.00  0.00    -0.206 F 
ATOM    109  C   UNL A   1      43.554  23.644  35.380  1.00  0.00     0.006 A 
ENDBRANCH  85 102
ENDBRANCH  59  60
ENDBRANCH  52  54
ENDBRANCH  51  52
ENDBRANCH  50  51
ENDBRANCH  49  50
ENDBRANCH  48  49
ENDBRANCH  47  48
ENDBRANCH   1  47
TORSDOF 23
ENDMDL
MODEL 3
REMARK VINA RESULT:     -12.3      3.768     10.083
REMARK SMILES Cc1ccc(S(=O)(=O)n2cc(C(=O)C(=O)NCC(=O)N[C@H](Cc3c[nH]c4ccccc34)C(=O)OCCOCCOC(=O)c3ccc(-c4c5nc(c(-c6c(F)cccc6F)c6ccc([nH]6)c(-c6c(F)cccc6F)c6nc(c(-c7c(F)cccc7F)c7ccc4[nH]7)C=C6)C=C5)cc3)c3ccccc32)cc1
REMARK SMILES IDX 35 1 34 2 32 3 33 4 21 5 20 6 18 7 19 8 17 10 16 11 14 12
REMARK SMILES IDX 15 13 12 15 13 16 11 17 9 18 10 19 102 20 97 21 101 22 98 23
REMARK SMILES IDX 100 24 99 25 6 26 7 27 8 28 5 29 1 30 2 31 3 32 104 33 4 34
REMARK SMILES IDX 103 35 22 36 23 37 24 38 31 39 25 40 26 41 30 42 27 44 29 45
REMARK SMILES IDX 28 46 36 47 37 48 38 49 39 50 40 51 41 52 42 53 43 54 44 55
REMARK SMILES IDX 96 56 45 57 95 58 46 59 47 60 48 61 89 62 49 63 94 64 88 65
REMARK SMILES IDX 90 66 50 67 93 68 87 69 86 70 51 72 77 73 60 74 76 75 61 76
REMARK SMILES IDX 64 77 75 78 91 79 62 80 63 81 74 83 92 84 65 85 52 86 53 87
REMARK SMILES IDX 58 88 54 89 55 90 57 91 59 92 56 93 78 94 79 95 84 96 80 97
REMARK SMILES IDX 81 98 83 99 85 100 82 101 66 102 67 103 72 104 68 105 69 106
REMARK SMILES IDX 71 107 73 108 70 109
REMARK H PARENT 20 9 16 14 25 43 90 71 64 82
REMARK Flexibility Score: inf
ROOT
ATOM      1  C   UNL A   1      45.900  22.556  25.670  1.00  0.00     0.261 C 
ENDROOT
BRANCH   1   2
ATOM      2  O   UNL A   1      44.728  21.761  25.771  1.00  0.00    -0.462 OA
BRANCH   2   3
ATOM      3  C   UNL A   1      43.555  22.409  25.509  1.00  0.00     0.329 C 
ATOM      4  O   UNL A   1      43.024  22.566  24.437  1.00  0.00    -0.250 OA
BRANCH   3   5
ATOM      5  C   UNL A   1      42.939  22.864  26.811  1.00  0.00     0.196 C 
BRANCH   5   6
ATOM      6  N   UNL A   1      42.453  21.678  27.520  1.00  0.00    -0.341 N 
ATOM      7  C   UNL A   1      41.286  20.987  27.285  1.00  0.00     0.240 C 
ATOM      8  O   UNL A   1      41.060  20.004  27.995  1.00  0.00    -0.273 OA
ATOM      9  H   UNL A   1      43.025  21.338  28.245  1.00  0.00     0.164 HD
BRANCH   7  10
ATOM     10  C   UNL A   1      40.268  21.439  26.185  1.00  0.00     0.216 C 
BRANCH  10  11
ATOM     11  N   UNL A   1      39.574  22.709  26.426  1.00  0.00    -0.340 N 
ATOM     12  C   UNL A   1      38.272  23.093  26.128  1.00  0.00     0.292 C 
ATOM     13  O   UNL A   1      37.833  24.196  26.440  1.00  0.00    -0.265 OA
ATOM     14  H   UNL A   1      40.118  23.401  26.868  1.00  0.00     0.164 HD
BRANCH  12  15
ATOM     15  C   UNL A   1      37.342  22.104  25.436  1.00  0.00     0.252 C 
ATOM     16  O   UNL A   1      37.821  20.987  25.222  1.00  0.00    -0.283 OA
BRANCH  15  17
ATOM     17  C   UNL A   1      36.032  22.498  24.890  1.00  0.00     0.054 A 
ATOM     18  N   UNL A   1      34.227  23.021  23.628  1.00  0.00    -0.240 N 
ATOM     19  C   UNL A   1      35.622  22.966  23.629  1.00  0.00     0.117 A 
ATOM     20  C   UNL A   1      33.789  22.411  24.825  1.00  0.00     0.065 A 
ATOM     21  C   UNL A   1      34.864  22.516  25.700  1.00  0.00     0.012 A 
ATOM     22  C   UNL A   1      32.488  22.139  25.294  1.00  0.00     0.028 A 
ATOM     23  C   UNL A   1      34.611  22.546  27.086  1.00  0.00     0.011 A 
ATOM     24  C   UNL A   1      32.248  22.290  26.658  1.00  0.00     0.002 A 
ATOM     25  C   UNL A   1      33.291  22.532  27.541  1.00  0.00     0.001 A 
BRANCH  18  26
ATOM     26  S   UNL A   1      33.177  24.361  23.255  1.00  0.00     0.268 S 
ATOM     27  O   UNL A   1      32.057  23.690  22.609  1.00  0.00    -0.201 OA
ATOM     28  O   UNL A   1      34.088  25.209  22.492  1.00  0.00    -0.201 OA
BRANCH  26  29
ATOM     29  C   UNL A   1      32.393  25.596  24.223  1.00  0.00     0.088 A 
ATOM     30  C   UNL A   1      31.464  28.257  27.510  1.00  0.00     0.044 C 
ATOM     31  C   UNL A   1      31.749  27.389  26.317  1.00  0.00    -0.051 A 
ATOM     32  C   UNL A   1      33.074  27.058  26.092  1.00  0.00     0.005 A 
ATOM     33  C   UNL A   1      30.757  26.849  25.463  1.00  0.00     0.005 A 
ATOM     34  C   UNL A   1      33.379  26.195  25.058  1.00  0.00     0.022 A 
ATOM     35  C   UNL A   1      31.068  25.939  24.410  1.00  0.00     0.022 A 
ENDBRANCH  26  29
ENDBRANCH  18  26
ENDBRANCH  15  17
ENDBRANCH  12  15
ENDBRANCH  10  11
ENDBRANCH   7  10
ENDBRANCH   5   6
BRANCH   5  36
ATOM     36  C   UNL A   1      41.902  24.002  26.526  1.00  0.00     0.074 C 
BRANCH  36  37
ATOM     37  C   UNL A   1      42.252  25.455  26.850  1.00  0.00    -0.020 A 
ATOM     38  C   UNL A   1      43.272  26.213  26.300  1.00  0.00     0.087 A 
ATOM     39  C   UNL A   1      41.616  26.320  27.835  1.00  0.00     0.003 A 
ATOM     40  N   UNL A   1      43.388  27.380  27.009  1.00  0.00    -0.361 N 
ATOM     41  C   UNL A   1      42.388  27.483  27.941  1.00  0.00     0.046 A 
ATOM     42  C   UNL A   1      40.515  26.198  28.714  1.00  0.00     0.010 A 
ATOM     43  H   UNL A   1      44.093  28.053  26.869  1.00  0.00     0.166 HD
ATOM     44  C   UNL A   1      42.144  28.496  28.881  1.00  0.00     0.026 A 
ATOM     45  C   UNL A   1      40.231  27.222  29.635  1.00  0.00     0.001 A 
ATOM     46  C   UNL A   1      41.041  28.350  29.722  1.00  0.00     0.002 A 
ENDBRANCH  36  37
ENDBRANCH   5  36
ENDBRANCH   3   5
ENDBRANCH   2   3
ENDBRANCH   1   2
BRANCH   1  47
ATOM     47  C   UNL A   1      46.336  22.865  24.276  1.00  0.00     0.202 C 
BRANCH  47  48
ATOM     48  O   UNL A   1      46.719  24.226  24.241  1.00  0.00    -0.374 OA
BRANCH  48  49
ATOM     49  C   UNL A   1      46.938  24.758  25.534  1.00  0.00     0.202 C 
BRANCH  49  50
ATOM     50  C   UNL A   1      46.823  26.287  25.519  1.00  0.00     0.261 C 
BRANCH  50  51
ATOM     51  O   UNL A   1      46.354  26.730  26.818  1.00  0.00    -0.460 OA
BRANCH  51  52
ATOM     52  C   UNL A   1      47.271  26.710  27.828  1.00  0.00     0.338 C 
ATOM     53  O   UNL A   1      48.432  27.077  27.731  1.00  0.00    -0.246 OA
BRANCH  52  54
ATOM     54  C   UNL A   1      46.775  25.876  28.976  1.00  0.00     0.060 A 
ATOM     55  C   UNL A   1      45.465  25.356  28.947  1.00  0.00     0.016 A 
ATOM     56  C   UNL A   1      47.448  25.942  30.190  1.00  0.00     0.016 A 
ATOM     57  C   UNL A   1      44.768  25.090  30.143  1.00  0.00     0.010 A 
ATOM     58  C   UNL A   1      46.723  25.774  31.359  1.00  0.00     0.010 A 
ATOM     59  C   UNL A   1      45.360  25.400  31.362  1.00  0.00    -0.014 A 
BRANCH  59  60
ATOM     60  C   UNL A   1      44.671  25.492  32.675  1.00  0.00     0.031 A 
ATOM     61  C   UNL A   1      44.097  26.824  33.040  1.00  0.00     0.074 A 
ATOM     62  C   UNL A   1      44.328  24.402  33.427  1.00  0.00     0.049 A 
ATOM     63  N   UNL A   1      43.546  27.106  34.168  1.00  0.00    -0.248 NA
ATOM     64  C   UNL A   1      44.117  27.979  32.144  1.00  0.00     0.031 C 
ATOM     65  C   UNL A   1      43.307  24.337  34.483  1.00  0.00     0.029 A 
ATOM     66  N   UNL A   1      44.806  23.071  33.417  1.00  0.00    -0.354 N 
ATOM     67  C   UNL A   1      42.891  28.313  34.052  1.00  0.00     0.074 A 
ATOM     68  C   UNL A   1      43.336  28.841  32.793  1.00  0.00     0.031 C 
ATOM     69  C   UNL A   1      43.385  23.170  35.145  1.00  0.00     0.029 A 
ATOM     70  C   UNL A   1      44.612  22.537  34.710  1.00  0.00     0.049 A 
ATOM     71  H   UNL A   1      45.201  22.601  32.648  1.00  0.00     0.167 HD
ATOM     72  C   UNL A   1      41.986  28.653  35.016  1.00  0.00     0.037 A 
ATOM     73  C   UNL A   1      45.660  22.204  35.512  1.00  0.00     0.037 A 
ATOM     74  C   UNL A   1      42.088  27.708  36.147  1.00  0.00     0.049 A 
ATOM     75  C   UNL A   1      45.673  23.090  36.728  1.00  0.00     0.074 A 
ATOM     76  C   UNL A   1      41.303  26.659  36.594  1.00  0.00     0.029 A 
ATOM     77  N   UNL A   1      43.318  27.571  36.803  1.00  0.00    -0.354 N 
ATOM     78  N   UNL A   1      45.023  24.222  36.762  1.00  0.00    -0.248 NA
ATOM     79  C   UNL A   1      46.341  22.795  37.987  1.00  0.00     0.031 C 
ATOM     80  C   UNL A   1      42.115  25.828  37.427  1.00  0.00     0.029 A 
ATOM     81  C   UNL A   1      43.382  26.390  37.524  1.00  0.00     0.049 A 
ATOM     82  H   UNL A   1      44.046  28.232  36.758  1.00  0.00     0.167 HD
ATOM     83  C   UNL A   1      45.147  24.794  37.981  1.00  0.00     0.074 A 
ATOM     84  C   UNL A   1      45.996  23.872  38.717  1.00  0.00     0.031 C 
ATOM     85  C   UNL A   1      44.595  26.008  38.252  1.00  0.00     0.037 A 
BRANCH  72  86
ATOM     86  C   UNL A   1      40.897  29.718  34.891  1.00  0.00     0.057 A 
ATOM     87  C   UNL A   1      40.815  30.768  35.830  1.00  0.00     0.134 A 
ATOM     88  C   UNL A   1      39.860  29.758  33.933  1.00  0.00     0.134 A 
ATOM     89  F   UNL A   1      41.727  30.913  36.802  1.00  0.00    -0.206 F 
ATOM     90  C   UNL A   1      39.789  31.732  35.833  1.00  0.00     0.040 A 
ATOM     91  C   UNL A   1      38.827  30.710  33.926  1.00  0.00     0.040 A 
ATOM     92  F   UNL A   1      39.772  28.899  32.920  1.00  0.00    -0.206 F 
ATOM     93  C   UNL A   1      38.783  31.702  34.884  1.00  0.00     0.006 A 
ENDBRANCH  72  86
BRANCH  73  94
ATOM     94  C   UNL A   1      46.815  21.668  34.744  1.00  0.00     0.057 A 
ATOM     95  C   UNL A   1      47.932  22.505  34.567  1.00  0.00     0.134 A 
ATOM     96  C   UNL A   1      47.043  20.290  34.651  1.00  0.00     0.134 A 
ATOM     97  F   UNL A   1      47.798  23.837  34.653  1.00  0.00    -0.206 F 
ATOM     98  C   UNL A   1      49.229  21.995  34.427  1.00  0.00     0.040 A 
ATOM     99  C   UNL A   1      48.342  19.771  34.549  1.00  0.00     0.040 A 
ATOM    100  F   UNL A   1      46.035  19.422  34.818  1.00  0.00    -0.206 F 
ATOM    101  C   UNL A   1      49.443  20.623  34.482  1.00  0.00     0.006 A 
ENDBRANCH  73  94
BRANCH  85 102
ATOM    102  C   UNL A   1      45.194  26.900  39.291  1.00  0.00     0.057 A 
ATOM    103  C   UNL A   1      46.024  27.988  38.967  1.00  0.00     0.134 A 
ATOM    104  C   UNL A   1      44.827  26.793  40.642  1.00  0.00     0.134 A 
ATOM    105  F   UNL A   1      46.318  28.297  37.695  1.00  0.00    -0.206 F 
ATOM    106  C   UNL A   1      46.551  28.841  39.934  1.00  0.00     0.040 A 
ATOM    107  C   UNL A   1      45.295  27.681  41.610  1.00  0.00     0.040 A 
ATOM    108  F   UNL A   1      43.976  25.847  41.066  1.00  0.00    -0.206 F 
ATOM    109  C   UNL A   1      46.183  28.691  41.264  1.00  0.00     0.006 A 
ENDBRANCH  85 102
ENDBRANCH  59  60
ENDBRANCH  52  54
ENDBRANCH  51  52
ENDBRANCH  50  51
ENDBRANCH  49  50
ENDBRANCH  48  49
ENDBRANCH  47  48
ENDBRANCH   1  47
TORSDOF 23
ENDMDL
