MODEL 1
REMARK VINA RESULT:     -11.0      0.000      0.000
REMARK SMILES O=C(CCS(=O)(=O)c1ccc2[nH]c(=O)oc2c1)OCCOCCOC(=O)c1ccc(-c2c3nc(c(-c4c(F)cccc4F)c4ccc([nH]4)c(-c4c(F)cccc4F)c4nc(c(-c5c(F)cccc5F)c5ccc2[nH]5)C=C4)C=C3)cc1
REMARK SMILES IDX 20 1 19 2 18 3 2 4 1 5 3 6 4 7 5 8 6 9 7 10 8 11 9 12 17 13
REMARK SMILES IDX 10 14 16 15 11 16 15 17 12 18 13 19 14 21 21 22 22 23 23 24
REMARK SMILES IDX 24 25 25 26 26 27 27 28 28 29 80 30 29 31 79 32 30 33 31 34
REMARK SMILES IDX 32 35 73 36 33 37 78 38 72 39 74 40 34 41 77 42 71 43 70 44
REMARK SMILES IDX 35 46 61 47 44 48 60 49 45 50 48 51 59 52 75 53 46 54 47 55
REMARK SMILES IDX 58 57 76 58 49 59 36 60 37 61 42 62 38 63 39 64 41 65 43 66
REMARK SMILES IDX 40 67 62 68 63 69 68 70 64 71 65 72 67 73 69 74 66 75 50 76
REMARK SMILES IDX 51 77 56 78 52 79 53 80 55 81 57 82 54 83
REMARK H PARENT 12 20 74 45 48 56
REMARK Flexibility Score: inf
ROOT
ATOM      1  C   UNL A   1      34.360  33.944  28.030  1.00  0.00     0.202 C 
ENDROOT
BRANCH   1   2
ATOM      2  C   UNL A   1      34.700  32.477  27.778  1.00  0.00     0.261 C 
BRANCH   2   3
ATOM      3  O   UNL A   1      33.646  31.558  28.080  1.00  0.00    -0.463 OA
BRANCH   3   4
ATOM      4  C   UNL A   1      33.118  30.651  27.244  1.00  0.00     0.306 C 
ATOM      5  O   UNL A   1      32.017  30.852  26.737  1.00  0.00    -0.252 OA
BRANCH   4   6
ATOM      6  C   UNL A   1      33.940  29.480  26.830  1.00  0.00     0.139 C 
BRANCH   6   7
ATOM      7  C   UNL A   1      33.323  28.203  27.378  1.00  0.00     0.154 C 
BRANCH   7   8
ATOM      8  S   UNL A   1      32.621  27.077  26.211  1.00  0.00     0.179 S 
ATOM      9  O   UNL A   1      33.664  26.176  25.760  1.00  0.00    -0.224 OA
ATOM     10  O   UNL A   1      31.449  26.529  26.875  1.00  0.00    -0.224 OA
BRANCH   8  11
ATOM     11  C   UNL A   1      31.982  27.859  24.732  1.00  0.00     0.071 A 
ATOM     12  C   UNL A   1      32.943  28.186  23.739  1.00  0.00     0.023 A 
ATOM     13  C   UNL A   1      30.650  28.233  24.547  1.00  0.00     0.069 A 
ATOM     14  C   UNL A   1      32.597  28.912  22.591  1.00  0.00     0.031 A 
ATOM     15  C   UNL A   1      30.344  28.995  23.435  1.00  0.00     0.157 A 
ATOM     16  C   UNL A   1      31.292  29.319  22.492  1.00  0.00     0.087 A 
ATOM     17  O   UNL A   1      29.099  29.535  23.142  1.00  0.00    -0.408 OA
ATOM     18  N   UNL A   1      30.656  30.078  21.553  1.00  0.00    -0.287 N 
ATOM     19  C   UNL A   1      29.346  30.222  21.946  1.00  0.00     0.417 A 
ATOM     20  H   UNL A   1      31.062  30.454  20.739  1.00  0.00     0.173 HD
ATOM     21  O   UNL A   1      28.501  30.868  21.342  1.00  0.00    -0.224 OA
ENDBRANCH   8  11
ENDBRANCH   7   8
ENDBRANCH   6   7
ENDBRANCH   4   6
ENDBRANCH   3   4
ENDBRANCH   2   3
ENDBRANCH   1   2
BRANCH   1  22
ATOM     22  O   UNL A   1      34.820  34.571  29.216  1.00  0.00    -0.374 OA
BRANCH  22  23
ATOM     23  C   UNL A   1      34.015  34.604  30.390  1.00  0.00     0.202 C 
BRANCH  23  24
ATOM     24  C   UNL A   1      34.593  34.137  31.730  1.00  0.00     0.261 C 
BRANCH  24  25
ATOM     25  O   UNL A   1      34.643  32.710  31.914  1.00  0.00    -0.460 OA
BRANCH  25  26
ATOM     26  C   UNL A   1      35.668  32.278  32.685  1.00  0.00     0.338 C 
ATOM     27  O   UNL A   1      35.903  32.594  33.840  1.00  0.00    -0.246 OA
BRANCH  26  28
ATOM     28  C   UNL A   1      36.479  31.260  31.995  1.00  0.00     0.060 A 
ATOM     29  C   UNL A   1      37.490  30.623  32.725  1.00  0.00     0.016 A 
ATOM     30  C   UNL A   1      36.402  31.111  30.609  1.00  0.00     0.016 A 
ATOM     31  C   UNL A   1      38.488  29.913  32.060  1.00  0.00     0.010 A 
ATOM     32  C   UNL A   1      37.407  30.403  29.943  1.00  0.00     0.010 A 
ATOM     33  C   UNL A   1      38.491  29.862  30.660  1.00  0.00    -0.014 A 
BRANCH  33  34
ATOM     34  C   UNL A   1      39.728  29.445  29.951  1.00  0.00     0.031 A 
ATOM     35  C   UNL A   1      40.841  30.449  29.782  1.00  0.00     0.074 A 
ATOM     36  C   UNL A   1      39.882  28.186  29.504  1.00  0.00     0.049 A 
ATOM     37  N   UNL A   1      42.003  30.314  29.192  1.00  0.00    -0.248 NA
ATOM     38  C   UNL A   1      40.611  31.785  30.352  1.00  0.00     0.031 C 
ATOM     39  C   UNL A   1      38.903  27.113  29.648  1.00  0.00     0.029 A 
ATOM     40  N   UNL A   1      40.930  27.604  28.838  1.00  0.00    -0.354 N 
ATOM     41  C   UNL A   1      42.631  31.551  29.306  1.00  0.00     0.074 A 
ATOM     42  C   UNL A   1      41.711  32.429  29.995  1.00  0.00     0.031 C 
ATOM     43  C   UNL A   1      39.396  25.997  29.082  1.00  0.00     0.029 A 
ATOM     44  C   UNL A   1      40.710  26.289  28.511  1.00  0.00     0.049 A 
ATOM     45  H   UNL A   1      41.761  28.083  28.615  1.00  0.00     0.167 HD
ATOM     46  C   UNL A   1      43.864  31.920  28.882  1.00  0.00     0.037 A 
ATOM     47  C   UNL A   1      41.477  25.426  27.817  1.00  0.00     0.037 A 
ATOM     48  C   UNL A   1      44.781  31.042  28.204  1.00  0.00     0.049 A 
ATOM     49  C   UNL A   1      42.820  25.878  27.301  1.00  0.00     0.074 A 
ATOM     50  C   UNL A   1      46.065  31.309  27.760  1.00  0.00     0.029 A 
ATOM     51  N   UNL A   1      44.506  29.727  27.860  1.00  0.00    -0.354 N 
ATOM     52  N   UNL A   1      43.417  27.038  27.444  1.00  0.00    -0.248 NA
ATOM     53  C   UNL A   1      43.598  24.895  26.536  1.00  0.00     0.031 C 
ATOM     54  C   UNL A   1      46.544  30.174  27.096  1.00  0.00     0.029 A 
ATOM     55  C   UNL A   1      45.585  29.178  27.184  1.00  0.00     0.049 A 
ATOM     56  H   UNL A   1      43.668  29.252  28.066  1.00  0.00     0.167 HD
ATOM     57  C   UNL A   1      44.654  26.909  26.821  1.00  0.00     0.074 A 
ATOM     58  C   UNL A   1      44.725  25.556  26.311  1.00  0.00     0.031 C 
ATOM     59  C   UNL A   1      45.646  27.826  26.691  1.00  0.00     0.037 A 
BRANCH  46  60
ATOM     60  C   UNL A   1      44.279  33.347  29.110  1.00  0.00     0.057 A 
ATOM     61  C   UNL A   1      44.913  33.764  30.287  1.00  0.00     0.134 A 
ATOM     62  C   UNL A   1      44.062  34.315  28.119  1.00  0.00     0.134 A 
ATOM     63  F   UNL A   1      45.143  32.893  31.281  1.00  0.00    -0.206 F 
ATOM     64  C   UNL A   1      45.287  35.096  30.484  1.00  0.00     0.040 A 
ATOM     65  C   UNL A   1      44.458  35.642  28.292  1.00  0.00     0.040 A 
ATOM     66  F   UNL A   1      43.466  33.985  26.963  1.00  0.00    -0.206 F 
ATOM     67  C   UNL A   1      45.065  36.038  29.481  1.00  0.00     0.006 A 
ENDBRANCH  46  60
BRANCH  47  68
ATOM     68  C   UNL A   1      41.004  24.040  27.571  1.00  0.00     0.057 A 
ATOM     69  C   UNL A   1      41.556  22.954  28.260  1.00  0.00     0.134 A 
ATOM     70  C   UNL A   1      40.010  23.763  26.624  1.00  0.00     0.134 A 
ATOM     71  F   UNL A   1      42.528  23.152  29.163  1.00  0.00    -0.206 F 
ATOM     72  C   UNL A   1      41.154  21.642  28.003  1.00  0.00     0.040 A 
ATOM     73  C   UNL A   1      39.579  22.460  26.376  1.00  0.00     0.040 A 
ATOM     74  F   UNL A   1      39.435  24.759  25.934  1.00  0.00    -0.206 F 
ATOM     75  C   UNL A   1      40.158  21.393  27.060  1.00  0.00     0.006 A 
ENDBRANCH  47  68
BRANCH  59  76
ATOM     76  C   UNL A   1      46.915  27.378  26.018  1.00  0.00     0.057 A 
ATOM     77  C   UNL A   1      47.986  26.824  26.732  1.00  0.00     0.134 A 
ATOM     78  C   UNL A   1      47.053  27.482  24.628  1.00  0.00     0.134 A 
ATOM     79  F   UNL A   1      47.924  26.705  28.067  1.00  0.00    -0.206 F 
ATOM     80  C   UNL A   1      49.161  26.426  26.092  1.00  0.00     0.040 A 
ATOM     81  C   UNL A   1      48.210  27.057  23.972  1.00  0.00     0.040 A 
ATOM     82  F   UNL A   1      46.062  27.990  23.879  1.00  0.00    -0.206 F 
ATOM     83  C   UNL A   1      49.273  26.536  24.707  1.00  0.00     0.006 A 
ENDBRANCH  59  76
ENDBRANCH  33  34
ENDBRANCH  26  28
ENDBRANCH  25  26
ENDBRANCH  24  25
ENDBRANCH  23  24
ENDBRANCH  22  23
ENDBRANCH   1  22
TORSDOF 17
ENDMDL
MODEL 2
REMARK VINA RESULT:     -10.6      5.204     10.253
REMARK SMILES O=C(CCS(=O)(=O)c1ccc2[nH]c(=O)oc2c1)OCCOCCOC(=O)c1ccc(-c2c3nc(c(-c4c(F)cccc4F)c4ccc([nH]4)c(-c4c(F)cccc4F)c4nc(c(-c5c(F)cccc5F)c5ccc2[nH]5)C=C4)C=C3)cc1
REMARK SMILES IDX 20 1 19 2 18 3 2 4 1 5 3 6 4 7 5 8 6 9 7 10 8 11 9 12 17 13
REMARK SMILES IDX 10 14 16 15 11 16 15 17 12 18 13 19 14 21 21 22 22 23 23 24
REMARK SMILES IDX 24 25 25 26 26 27 27 28 28 29 80 30 29 31 79 32 30 33 31 34
REMARK SMILES IDX 32 35 73 36 33 37 78 38 72 39 74 40 34 41 77 42 71 43 70 44
REMARK SMILES IDX 35 46 61 47 44 48 60 49 45 50 48 51 59 52 75 53 46 54 47 55
REMARK SMILES IDX 58 57 76 58 49 59 36 60 37 61 42 62 38 63 39 64 41 65 43 66
REMARK SMILES IDX 40 67 62 68 63 69 68 70 64 71 65 72 67 73 69 74 66 75 50 76
REMARK SMILES IDX 51 77 56 78 52 79 53 80 55 81 57 82 54 83
REMARK H PARENT 12 20 74 45 48 56
REMARK Flexibility Score: inf
ROOT
ATOM      1  C   UNL A   1      39.694  21.904  26.128  1.00  0.00     0.202 C 
ENDROOT
BRANCH   1   2
ATOM      2  C   UNL A   1      38.516  21.196  25.462  1.00  0.00     0.261 C 
BRANCH   2   3
ATOM      3  O   UNL A   1      37.237  21.777  25.736  1.00  0.00    -0.463 OA
BRANCH   3   4
ATOM      4  C   UNL A   1      36.704  22.849  25.130  1.00  0.00     0.306 C 
ATOM      5  O   UNL A   1      36.708  23.939  25.697  1.00  0.00    -0.252 OA
BRANCH   4   6
ATOM      6  C   UNL A   1      36.249  22.733  23.717  1.00  0.00     0.139 C 
BRANCH   6   7
ATOM      7  C   UNL A   1      35.223  23.815  23.420  1.00  0.00     0.154 C 
BRANCH   7   8
ATOM      8  S   UNL A   1      33.525  23.328  23.363  1.00  0.00     0.179 S 
ATOM      9  O   UNL A   1      32.728  24.371  23.979  1.00  0.00    -0.224 OA
ATOM     10  O   UNL A   1      33.281  22.976  21.973  1.00  0.00    -0.224 OA
BRANCH   8  11
ATOM     11  C   UNL A   1      33.161  21.833  24.280  1.00  0.00     0.071 A 
ATOM     12  C   UNL A   1      33.399  21.891  25.678  1.00  0.00     0.023 A 
ATOM     13  C   UNL A   1      32.756  20.629  23.702  1.00  0.00     0.069 A 
ATOM     14  C   UNL A   1      33.276  20.757  26.493  1.00  0.00     0.031 A 
ATOM     15  C   UNL A   1      32.695  19.513  24.516  1.00  0.00     0.157 A 
ATOM     16  C   UNL A   1      32.947  19.584  25.867  1.00  0.00     0.087 A 
ATOM     17  O   UNL A   1      32.408  18.221  24.098  1.00  0.00    -0.408 OA
ATOM     18  N   UNL A   1      32.811  18.314  26.349  1.00  0.00    -0.287 N 
ATOM     19  C   UNL A   1      32.503  17.493  25.291  1.00  0.00     0.417 A 
ATOM     20  H   UNL A   1      32.915  18.037  27.288  1.00  0.00     0.173 HD
ATOM     21  O   UNL A   1      32.338  16.283  25.368  1.00  0.00    -0.224 OA
ENDBRANCH   8  11
ENDBRANCH   7   8
ENDBRANCH   6   7
ENDBRANCH   4   6
ENDBRANCH   3   4
ENDBRANCH   2   3
ENDBRANCH   1   2
BRANCH   1  22
ATOM     22  O   UNL A   1      40.724  21.133  26.724  1.00  0.00    -0.374 OA
BRANCH  22  23
ATOM     23  C   UNL A   1      41.819  20.650  25.954  1.00  0.00     0.202 C 
BRANCH  23  24
ATOM     24  C   UNL A   1      43.030  21.553  25.692  1.00  0.00     0.261 C 
BRANCH  24  25
ATOM     25  O   UNL A   1      42.766  22.716  24.886  1.00  0.00    -0.460 OA
BRANCH  25  26
ATOM     26  C   UNL A   1      43.545  23.786  25.172  1.00  0.00     0.338 C 
ATOM     27  O   UNL A   1      44.729  23.923  24.913  1.00  0.00    -0.246 OA
BRANCH  26  28
ATOM     28  C   UNL A   1      42.768  24.878  25.785  1.00  0.00     0.060 A 
ATOM     29  C   UNL A   1      43.393  26.124  25.930  1.00  0.00     0.016 A 
ATOM     30  C   UNL A   1      41.549  24.617  26.412  1.00  0.00     0.016 A 
ATOM     31  C   UNL A   1      42.847  27.080  26.785  1.00  0.00     0.010 A 
ATOM     32  C   UNL A   1      41.007  25.576  27.274  1.00  0.00     0.010 A 
ATOM     33  C   UNL A   1      41.691  26.782  27.516  1.00  0.00    -0.014 A 
BRANCH  33  34
ATOM     34  C   UNL A   1      41.332  27.627  28.684  1.00  0.00     0.031 A 
ATOM     35  C   UNL A   1      42.150  27.507  29.946  1.00  0.00     0.074 A 
ATOM     36  C   UNL A   1      40.328  28.518  28.614  1.00  0.00     0.049 A 
ATOM     37  N   UNL A   1      42.017  28.134  31.089  1.00  0.00    -0.248 NA
ATOM     38  C   UNL A   1      43.265  26.549  29.915  1.00  0.00     0.031 C 
ATOM     39  C   UNL A   1      39.496  28.764  27.439  1.00  0.00     0.029 A 
ATOM     40  N   UNL A   1      39.843  29.385  29.561  1.00  0.00    -0.354 N 
ATOM     41  C   UNL A   1      43.019  27.633  31.914  1.00  0.00     0.074 A 
ATOM     42  C   UNL A   1      43.732  26.631  31.152  1.00  0.00     0.031 C 
ATOM     43  C   UNL A   1      38.597  29.719  27.736  1.00  0.00     0.029 A 
ATOM     44  C   UNL A   1      38.773  30.127  29.130  1.00  0.00     0.049 A 
ATOM     45  H   UNL A   1      40.226  29.466  30.465  1.00  0.00     0.167 HD
ATOM     46  C   UNL A   1      43.323  27.979  33.189  1.00  0.00     0.037 A 
ATOM     47  C   UNL A   1      38.014  31.023  29.790  1.00  0.00     0.037 A 
ATOM     48  C   UNL A   1      42.616  28.981  33.943  1.00  0.00     0.049 A 
ATOM     49  C   UNL A   1      38.332  31.347  31.228  1.00  0.00     0.074 A 
ATOM     50  C   UNL A   1      42.864  29.427  35.230  1.00  0.00     0.029 A 
ATOM     51  N   UNL A   1      41.514  29.685  33.482  1.00  0.00    -0.354 N 
ATOM     52  N   UNL A   1      39.301  30.892  31.986  1.00  0.00    -0.248 NA
ATOM     53  C   UNL A   1      37.454  32.317  31.896  1.00  0.00     0.031 C 
ATOM     54  C   UNL A   1      41.875  30.359  35.568  1.00  0.00     0.029 A 
ATOM     55  C   UNL A   1      41.052  30.543  34.468  1.00  0.00     0.049 A 
ATOM     56  H   UNL A   1      41.118  29.591  32.585  1.00  0.00     0.167 HD
ATOM     57  C   UNL A   1      39.172  31.550  33.205  1.00  0.00     0.074 A 
ATOM     58  C   UNL A   1      38.038  32.442  33.079  1.00  0.00     0.031 C 
ATOM     59  C   UNL A   1      39.929  31.433  34.325  1.00  0.00     0.037 A 
BRANCH  46  60
ATOM     60  C   UNL A   1      44.448  27.241  33.860  1.00  0.00     0.057 A 
ATOM     61  C   UNL A   1      44.250  26.033  34.541  1.00  0.00     0.134 A 
ATOM     62  C   UNL A   1      45.757  27.739  33.801  1.00  0.00     0.134 A 
ATOM     63  F   UNL A   1      43.021  25.504  34.645  1.00  0.00    -0.206 F 
ATOM     64  C   UNL A   1      45.306  25.363  35.165  1.00  0.00     0.040 A 
ATOM     65  C   UNL A   1      46.825  27.063  34.394  1.00  0.00     0.040 A 
ATOM     66  F   UNL A   1      46.021  28.887  33.160  1.00  0.00    -0.206 F 
ATOM     67  C   UNL A   1      46.599  25.876  35.086  1.00  0.00     0.006 A 
ENDBRANCH  46  60
BRANCH  47  68
ATOM     68  C   UNL A   1      36.878  31.689  29.102  1.00  0.00     0.057 A 
ATOM     69  C   UNL A   1      36.988  33.003  28.631  1.00  0.00     0.134 A 
ATOM     70  C   UNL A   1      35.650  31.041  28.923  1.00  0.00     0.134 A 
ATOM     71  F   UNL A   1      38.132  33.684  28.792  1.00  0.00    -0.206 F 
ATOM     72  C   UNL A   1      35.913  33.656  28.025  1.00  0.00     0.040 A 
ATOM     73  C   UNL A   1      34.575  31.673  28.296  1.00  0.00     0.040 A 
ATOM     74  F   UNL A   1      35.480  29.780  29.345  1.00  0.00    -0.206 F 
ATOM     75  C   UNL A   1      34.703  32.988  27.853  1.00  0.00     0.006 A 
ENDBRANCH  47  68
BRANCH  59  76
ATOM     76  C   UNL A   1      39.590  32.331  35.483  1.00  0.00     0.057 A 
ATOM     77  C   UNL A   1      40.139  33.613  35.622  1.00  0.00     0.134 A 
ATOM     78  C   UNL A   1      38.680  31.911  36.462  1.00  0.00     0.134 A 
ATOM     79  F   UNL A   1      41.024  34.074  34.727  1.00  0.00    -0.206 F 
ATOM     80  C   UNL A   1      39.823  34.428  36.712  1.00  0.00     0.040 A 
ATOM     81  C   UNL A   1      38.330  32.729  37.538  1.00  0.00     0.040 A 
ATOM     82  F   UNL A   1      38.105  30.700  36.385  1.00  0.00    -0.206 F 
ATOM     83  C   UNL A   1      38.911  33.988  37.670  1.00  0.00     0.006 A 
ENDBRANCH  59  76
ENDBRANCH  33  34
ENDBRANCH  26  28
ENDBRANCH  25  26
ENDBRANCH  24  25
ENDBRANCH  23  24
ENDBRANCH  22  23
ENDBRANCH   1  22
TORSDOF 17
ENDMDL
MODEL 3
REMARK VINA RESULT:     -10.5      4.551      9.208
REMARK SMILES O=C(CCS(=O)(=O)c1ccc2[nH]c(=O)oc2c1)OCCOCCOC(=O)c1ccc(-c2c3nc(c(-c4c(F)cccc4F)c4ccc([nH]4)c(-c4c(F)cccc4F)c4nc(c(-c5c(F)cccc5F)c5ccc2[nH]5)C=C4)C=C3)cc1
REMARK SMILES IDX 20 1 19 2 18 3 2 4 1 5 3 6 4 7 5 8 6 9 7 10 8 11 9 12 17 13
REMARK SMILES IDX 10 14 16 15 11 16 15 17 12 18 13 19 14 21 21 22 22 23 23 24
REMARK SMILES IDX 24 25 25 26 26 27 27 28 28 29 80 30 29 31 79 32 30 33 31 34
REMARK SMILES IDX 32 35 73 36 33 37 78 38 72 39 74 40 34 41 77 42 71 43 70 44
REMARK SMILES IDX 35 46 61 47 44 48 60 49 45 50 48 51 59 52 75 53 46 54 47 55
REMARK SMILES IDX 58 57 76 58 49 59 36 60 37 61 42 62 38 63 39 64 41 65 43 66
REMARK SMILES IDX 40 67 62 68 63 69 68 70 64 71 65 72 67 73 69 74 66 75 50 76
REMARK SMILES IDX 51 77 56 78 52 79 53 80 55 81 57 82 54 83
REMARK H PARENT 12 20 74 45 48 56
REMARK Flexibility Score: inf
ROOT
ATOM      1  C   UNL A   1      36.883  23.196  24.332  1.00  0.00     0.202 C 
ENDROOT
BRANCH   1   2
ATOM      2  C   UNL A   1      36.052  24.063  25.276  1.00  0.00     0.261 C 
BRANCH   2   3
ATOM      3  O   UNL A   1      34.701  24.277  24.858  1.00  0.00    -0.463 OA
BRANCH   3   4
ATOM      4  C   UNL A   1      34.228  24.169  23.607  1.00  0.00     0.306 C 
ATOM      5  O   UNL A   1      34.516  25.020  22.768  1.00  0.00    -0.252 OA
BRANCH   4   6
ATOM      6  C   UNL A   1      33.483  22.942  23.214  1.00  0.00     0.139 C 
BRANCH   6   7
ATOM      7  C   UNL A   1      32.173  22.871  23.984  1.00  0.00     0.154 C 
BRANCH   7   8
ATOM      8  S   UNL A   1      32.078  21.713  25.316  1.00  0.00     0.179 S 
ATOM      9  O   UNL A   1      33.047  22.096  26.325  1.00  0.00    -0.224 OA
ATOM     10  O   UNL A   1      30.669  21.662  25.670  1.00  0.00    -0.224 OA
BRANCH   8  11
ATOM     11  C   UNL A   1      32.493  20.033  24.856  1.00  0.00     0.071 A 
ATOM     12  C   UNL A   1      32.303  19.700  23.489  1.00  0.00     0.023 A 
ATOM     13  C   UNL A   1      32.893  19.043  25.754  1.00  0.00     0.069 A 
ATOM     14  C   UNL A   1      32.469  18.389  23.021  1.00  0.00     0.031 A 
ATOM     15  C   UNL A   1      32.997  17.748  25.281  1.00  0.00     0.157 A 
ATOM     16  C   UNL A   1      32.792  17.439  23.955  1.00  0.00     0.087 A 
ATOM     17  O   UNL A   1      33.287  16.627  26.046  1.00  0.00    -0.408 OA
ATOM     18  N   UNL A   1      32.960  16.090  23.845  1.00  0.00    -0.287 N 
ATOM     19  C   UNL A   1      33.242  15.597  25.097  1.00  0.00     0.417 A 
ATOM     20  H   UNL A   1      32.893  15.563  23.016  1.00  0.00     0.173 HD
ATOM     21  O   UNL A   1      33.425  14.416  25.360  1.00  0.00    -0.224 OA
ENDBRANCH   8  11
ENDBRANCH   7   8
ENDBRANCH   6   7
ENDBRANCH   4   6
ENDBRANCH   3   4
ENDBRANCH   2   3
ENDBRANCH   1   2
BRANCH   1  22
ATOM     22  O   UNL A   1      36.595  21.812  24.224  1.00  0.00    -0.374 OA
BRANCH  22  23
ATOM     23  C   UNL A   1      37.396  20.841  24.888  1.00  0.00     0.202 C 
BRANCH  23  24
ATOM     24  C   UNL A   1      38.714  21.256  25.551  1.00  0.00     0.261 C 
BRANCH  24  25
ATOM     25  O   UNL A   1      39.300  20.274  26.425  1.00  0.00    -0.460 OA
BRANCH  25  26
ATOM     26  C   UNL A   1      40.599  19.996  26.167  1.00  0.00     0.338 C 
ATOM     27  O   UNL A   1      41.037  19.042  25.545  1.00  0.00    -0.246 OA
BRANCH  26  28
ATOM     28  C   UNL A   1      41.493  21.059  26.658  1.00  0.00     0.060 A 
ATOM     29  C   UNL A   1      41.563  21.269  28.041  1.00  0.00     0.016 A 
ATOM     30  C   UNL A   1      42.061  21.976  25.771  1.00  0.00     0.016 A 
ATOM     31  C   UNL A   1      42.115  22.448  28.539  1.00  0.00     0.010 A 
ATOM     32  C   UNL A   1      42.609  23.161  26.273  1.00  0.00     0.010 A 
ATOM     33  C   UNL A   1      42.575  23.431  27.654  1.00  0.00    -0.014 A 
BRANCH  33  34
ATOM     34  C   UNL A   1      42.803  24.811  28.155  1.00  0.00     0.031 A 
ATOM     35  C   UNL A   1      44.211  25.239  28.487  1.00  0.00     0.074 A 
ATOM     36  C   UNL A   1      41.788  25.684  28.271  1.00  0.00     0.049 A 
ATOM     37  N   UNL A   1      44.648  26.386  28.946  1.00  0.00    -0.248 NA
ATOM     38  C   UNL A   1      45.268  24.237  28.275  1.00  0.00     0.031 C 
ATOM     39  C   UNL A   1      40.393  25.409  27.937  1.00  0.00     0.029 A 
ATOM     40  N   UNL A   1      41.783  26.987  28.703  1.00  0.00    -0.354 N 
ATOM     41  C   UNL A   1      46.023  26.235  29.093  1.00  0.00     0.074 A 
ATOM     42  C   UNL A   1      46.343  24.880  28.703  1.00  0.00     0.031 C 
ATOM     43  C   UNL A   1      39.663  26.512  28.180  1.00  0.00     0.029 A 
ATOM     44  C   UNL A   1      40.535  27.557  28.715  1.00  0.00     0.049 A 
ATOM     45  H   UNL A   1      42.598  27.466  28.979  1.00  0.00     0.167 HD
ATOM     46  C   UNL A   1      46.938  27.144  29.509  1.00  0.00     0.037 A 
ATOM     47  C   UNL A   1      40.142  28.778  29.124  1.00  0.00     0.037 A 
ATOM     48  C   UNL A   1      46.617  28.495  29.890  1.00  0.00     0.049 A 
ATOM     49  C   UNL A   1      41.169  29.752  29.642  1.00  0.00     0.074 A 
ATOM     50  C   UNL A   1      47.474  29.504  30.297  1.00  0.00     0.029 A 
ATOM     51  N   UNL A   1      45.335  29.023  29.922  1.00  0.00    -0.354 N 
ATOM     52  N   UNL A   1      42.469  29.611  29.746  1.00  0.00    -0.248 NA
ATOM     53  C   UNL A   1      40.672  31.060  30.091  1.00  0.00     0.031 C 
ATOM     54  C   UNL A   1      46.703  30.624  30.632  1.00  0.00     0.029 A 
ATOM     55  C   UNL A   1      45.374  30.335  30.369  1.00  0.00     0.049 A 
ATOM     56  H   UNL A   1      44.518  28.538  29.665  1.00  0.00     0.167 HD
ATOM     57  C   UNL A   1      42.947  30.824  30.232  1.00  0.00     0.074 A 
ATOM     58  C   UNL A   1      41.798  31.690  30.393  1.00  0.00     0.031 C 
ATOM     59  C   UNL A   1      44.223  31.190  30.514  1.00  0.00     0.037 A 
BRANCH  46  60
ATOM     60  C   UNL A   1      48.369  26.696  29.608  1.00  0.00     0.057 A 
ATOM     61  C   UNL A   1      49.292  26.906  28.576  1.00  0.00     0.134 A 
ATOM     62  C   UNL A   1      48.836  26.064  30.769  1.00  0.00     0.134 A 
ATOM     63  F   UNL A   1      48.912  27.496  27.433  1.00  0.00    -0.206 F 
ATOM     64  C   UNL A   1      50.619  26.478  28.682  1.00  0.00     0.040 A 
ATOM     65  C   UNL A   1      50.165  25.659  30.899  1.00  0.00     0.040 A 
ATOM     66  F   UNL A   1      48.008  25.836  31.801  1.00  0.00    -0.206 F 
ATOM     67  C   UNL A   1      51.059  25.858  29.850  1.00  0.00     0.006 A 
ENDBRANCH  46  60
BRANCH  47  68
ATOM     68  C   UNL A   1      38.708  29.161  29.058  1.00  0.00     0.057 A 
ATOM     69  C   UNL A   1      38.135  29.617  27.865  1.00  0.00     0.134 A 
ATOM     70  C   UNL A   1      37.883  29.106  30.188  1.00  0.00     0.134 A 
ATOM     71  F   UNL A   1      38.879  29.713  26.753  1.00  0.00    -0.206 F 
ATOM     72  C   UNL A   1      36.801  30.024  27.801  1.00  0.00     0.040 A 
ATOM     73  C   UNL A   1      36.541  29.485  30.133  1.00  0.00     0.040 A 
ATOM     74  F   UNL A   1      38.367  28.673  31.361  1.00  0.00    -0.206 F 
ATOM     75  C   UNL A   1      35.999  29.955  28.938  1.00  0.00     0.006 A 
ENDBRANCH  47  68
BRANCH  59  76
ATOM     76  C   UNL A   1      44.450  32.605  30.970  1.00  0.00     0.057 A 
ATOM     77  C   UNL A   1      44.453  32.963  32.325  1.00  0.00     0.134 A 
ATOM     78  C   UNL A   1      44.692  33.620  30.035  1.00  0.00     0.134 A 
ATOM     79  F   UNL A   1      44.219  32.043  33.272  1.00  0.00    -0.206 F 
ATOM     80  C   UNL A   1      44.652  34.285  32.730  1.00  0.00     0.040 A 
ATOM     81  C   UNL A   1      44.925  34.939  30.429  1.00  0.00     0.040 A 
ATOM     82  F   UNL A   1      44.716  33.346  28.722  1.00  0.00    -0.206 F 
ATOM     83  C   UNL A   1      44.895  35.276  31.780  1.00  0.00     0.006 A 
ENDBRANCH  59  76
ENDBRANCH  33  34
ENDBRANCH  26  28
ENDBRANCH  25  26
ENDBRANCH  24  25
ENDBRANCH  23  24
ENDBRANCH  22  23
ENDBRANCH   1  22
TORSDOF 17
ENDMDL
