MODEL 1
REMARK VINA RESULT:     -12.6      0.000      0.000
REMARK SMILES C[C@H]1CCCC[C@H]1[N@H+]1[C@@H](C(=O)OCCOCCOC(=O)c2ccc(-c3c4nc(c(-c5c(F)cccc5F)c5ccc([nH]5)c(-c5c(F)cccc5F)c5nc(c(-c6c(F)cccc6F)c6ccc3[nH]6)C=C5)C=C4)cc2)CC[C@H]2CCCC[C@H]21
REMARK SMILES IDX 16 1 15 2 14 3 13 4 12 5 10 6 11 7 9 8 8 9 82 10 75 12 77 13
REMARK SMILES IDX 81 14 76 15 78 16 80 17 79 18 7 19 1 20 2 21 3 22 4 23 6 24
REMARK SMILES IDX 5 25 17 26 18 27 19 28 20 29 21 30 22 31 74 32 23 33 73 34
REMARK SMILES IDX 24 35 25 36 26 37 67 38 27 39 72 40 66 41 68 42 28 43 71 44
REMARK SMILES IDX 65 45 64 46 29 48 55 49 38 50 54 51 39 52 42 53 53 54 69 55
REMARK SMILES IDX 40 56 41 57 52 59 70 60 43 61 30 62 31 63 36 64 32 65 33 66
REMARK SMILES IDX 35 67 37 68 34 69 56 70 57 71 62 72 58 73 59 74 61 75 63 76
REMARK SMILES IDX 60 77 44 78 45 79 50 80 46 81 47 82 49 83 51 84 48 85
REMARK H PARENT 8 11 68 47 42 58
REMARK Flexibility Score: inf
ROOT
ATOM      1  C   UNL A   1      42.516  21.327  26.069  1.00  0.00     0.202 C 
ENDROOT
BRANCH   1   2
ATOM      2  O   UNL A   1      41.169  21.483  25.594  1.00  0.00    -0.374 OA
BRANCH   2   3
ATOM      3  C   UNL A   1      40.013  21.457  26.448  1.00  0.00     0.202 C 
BRANCH   3   4
ATOM      4  C   UNL A   1      39.002  22.637  26.335  1.00  0.00     0.261 C 
BRANCH   4   5
ATOM      5  O   UNL A   1      37.959  22.372  25.329  1.00  0.00    -0.459 OA
BRANCH   5   6
ATOM      6  C   UNL A   1      36.669  22.672  25.670  1.00  0.00     0.365 C 
ATOM      7  O   UNL A   1      36.331  23.822  25.956  1.00  0.00    -0.245 OA
BRANCH   6   8
ATOM      8  C   UNL A   1      35.618  21.508  25.677  1.00  0.00     0.295 C 
ATOM      9  N   UNL A   1      34.713  21.223  24.524  1.00  0.00    -0.318 N 
ATOM     10  C   UNL A   1      34.208  19.680  24.919  1.00  0.00     0.188 C 
ATOM     11  H   UNL A   1      35.103  21.238  23.582  1.00  0.00     0.349 HD
ATOM     12  C   UNL A   1      34.655  21.463  26.878  1.00  0.00     0.078 C 
ATOM     13  C   UNL A   1      32.799  20.022  25.174  1.00  0.00     0.048 C 
ATOM     14  C   UNL A   1      34.078  18.190  24.398  1.00  0.00     0.065 C 
ATOM     15  C   UNL A   1      33.216  20.757  26.610  1.00  0.00     0.016 C 
ATOM     16  C   UNL A   1      32.498  20.183  23.522  1.00  0.00     0.010 C 
ATOM     17  C   UNL A   1      33.069  17.767  23.321  1.00  0.00     0.006 C 
ATOM     18  C   UNL A   1      32.193  18.879  22.802  1.00  0.00     0.001 C 
BRANCH   9  19
ATOM     19  C   UNL A   1      33.533  22.453  24.394  1.00  0.00     0.187 C 
ATOM     20  C   UNL A   1      32.203  23.620  26.704  1.00  0.00     0.014 C 
ATOM     21  C   UNL A   1      32.889  23.737  25.320  1.00  0.00     0.044 C 
ATOM     22  C   UNL A   1      33.629  25.103  25.220  1.00  0.00     0.009 C 
ATOM     23  C   UNL A   1      33.805  25.513  23.772  1.00  0.00     0.001 C 
ATOM     24  C   UNL A   1      33.556  23.096  23.010  1.00  0.00     0.065 C 
ATOM     25  C   UNL A   1      34.395  24.359  23.005  1.00  0.00     0.006 C 
ENDBRANCH   9  19
ENDBRANCH   6   8
ENDBRANCH   5   6
ENDBRANCH   4   5
ENDBRANCH   3   4
ENDBRANCH   2   3
ENDBRANCH   1   2
BRANCH   1  26
ATOM     26  C   UNL A   1      43.721  22.079  25.444  1.00  0.00     0.261 C 
BRANCH  26  27
ATOM     27  O   UNL A   1      43.365  23.215  24.661  1.00  0.00    -0.460 OA
BRANCH  27  28
ATOM     28  C   UNL A   1      44.034  24.321  25.007  1.00  0.00     0.338 C 
ATOM     29  O   UNL A   1      45.171  24.641  24.643  1.00  0.00    -0.246 OA
BRANCH  28  30
ATOM     30  C   UNL A   1      43.146  25.246  25.714  1.00  0.00     0.060 A 
ATOM     31  C   UNL A   1      43.677  26.511  25.978  1.00  0.00     0.016 A 
ATOM     32  C   UNL A   1      41.886  24.878  26.196  1.00  0.00     0.016 A 
ATOM     33  C   UNL A   1      43.016  27.369  26.842  1.00  0.00     0.010 A 
ATOM     34  C   UNL A   1      41.218  25.749  27.065  1.00  0.00     0.010 A 
ATOM     35  C   UNL A   1      41.820  26.963  27.448  1.00  0.00    -0.014 A 
BRANCH  35  36
ATOM     36  C   UNL A   1      41.362  27.707  28.647  1.00  0.00     0.031 A 
ATOM     37  C   UNL A   1      42.158  27.581  29.921  1.00  0.00     0.074 A 
ATOM     38  C   UNL A   1      40.335  28.573  28.579  1.00  0.00     0.049 A 
ATOM     39  N   UNL A   1      41.965  28.149  31.083  1.00  0.00    -0.248 NA
ATOM     40  C   UNL A   1      43.339  26.701  29.873  1.00  0.00     0.031 C 
ATOM     41  C   UNL A   1      39.542  28.851  27.383  1.00  0.00     0.029 A 
ATOM     42  N   UNL A   1      39.798  29.391  29.540  1.00  0.00    -0.354 N 
ATOM     43  C   UNL A   1      42.986  27.685  31.905  1.00  0.00     0.074 A 
ATOM     44  C   UNL A   1      43.779  26.766  31.120  1.00  0.00     0.031 C 
ATOM     45  C   UNL A   1      38.617  29.779  27.683  1.00  0.00     0.029 A 
ATOM     46  C   UNL A   1      38.727  30.128  29.098  1.00  0.00     0.049 A 
ATOM     47  H   UNL A   1      40.145  29.444  30.460  1.00  0.00     0.167 HD
ATOM     48  C   UNL A   1      43.246  28.003  33.195  1.00  0.00     0.037 A 
ATOM     49  C   UNL A   1      37.916  30.970  29.767  1.00  0.00     0.037 A 
ATOM     50  C   UNL A   1      42.465  28.929  33.971  1.00  0.00     0.049 A 
ATOM     51  C   UNL A   1      38.168  31.234  31.230  1.00  0.00     0.074 A 
ATOM     52  C   UNL A   1      42.650  29.322  35.284  1.00  0.00     0.029 A 
ATOM     53  N   UNL A   1      41.348  29.604  33.504  1.00  0.00    -0.354 N 
ATOM     54  N   UNL A   1      39.130  30.786  31.999  1.00  0.00    -0.248 NA
ATOM     55  C   UNL A   1      37.217  32.120  31.917  1.00  0.00     0.031 C 
ATOM     56  C   UNL A   1      41.609  30.186  35.633  1.00  0.00     0.029 A 
ATOM     57  C   UNL A   1      40.816  30.389  34.514  1.00  0.00     0.049 A 
ATOM     58  H   UNL A   1      40.986  29.537  32.591  1.00  0.00     0.167 HD
ATOM     59  C   UNL A   1      38.927  31.370  33.245  1.00  0.00     0.074 A 
ATOM     60  C   UNL A   1      37.749  32.203  33.128  1.00  0.00     0.031 C 
ATOM     61  C   UNL A   1      39.656  31.233  34.379  1.00  0.00     0.037 A 
BRANCH  48  62
ATOM     62  C   UNL A   1      44.397  27.309  33.864  1.00  0.00     0.057 A 
ATOM     63  C   UNL A   1      45.688  27.853  33.887  1.00  0.00     0.134 A 
ATOM     64  C   UNL A   1      44.200  26.090  34.524  1.00  0.00     0.134 A 
ATOM     65  F   UNL A   1      45.949  29.012  33.262  1.00  0.00    -0.206 F 
ATOM     66  C   UNL A   1      46.745  27.198  34.521  1.00  0.00     0.040 A 
ATOM     67  C   UNL A   1      45.242  25.439  35.187  1.00  0.00     0.040 A 
ATOM     68  F   UNL A   1      42.988  25.514  34.547  1.00  0.00    -0.206 F 
ATOM     69  C   UNL A   1      46.522  25.990  35.180  1.00  0.00     0.006 A 
ENDBRANCH  48  62
BRANCH  49  70
ATOM     70  C   UNL A   1      36.774  31.612  29.069  1.00  0.00     0.057 A 
ATOM     71  C   UNL A   1      36.819  32.956  28.680  1.00  0.00     0.134 A 
ATOM     72  C   UNL A   1      35.596  30.903  28.801  1.00  0.00     0.134 A 
ATOM     73  F   UNL A   1      37.908  33.696  28.931  1.00  0.00    -0.206 F 
ATOM     74  C   UNL A   1      35.728  33.577  28.068  1.00  0.00     0.040 A 
ATOM     75  C   UNL A   1      34.509  31.502  28.163  1.00  0.00     0.040 A 
ATOM     76  F   UNL A   1      35.488  29.613  29.149  1.00  0.00    -0.206 F 
ATOM     77  C   UNL A   1      34.570  32.847  27.804  1.00  0.00     0.006 A 
ENDBRANCH  49  70
BRANCH  61  78
ATOM     78  C   UNL A   1      39.251  32.049  35.574  1.00  0.00     0.057 A 
ATOM     79  C   UNL A   1      39.671  33.372  35.754  1.00  0.00     0.134 A 
ATOM     80  C   UNL A   1      38.368  31.517  36.524  1.00  0.00     0.134 A 
ATOM     81  F   UNL A   1      40.525  33.939  34.888  1.00  0.00    -0.206 F 
ATOM     82  C   UNL A   1      39.240  34.132  36.844  1.00  0.00     0.040 A 
ATOM     83  C   UNL A   1      37.906  32.275  37.601  1.00  0.00     0.040 A 
ATOM     84  F   UNL A   1      37.917  30.259  36.406  1.00  0.00    -0.206 F 
ATOM     85  C   UNL A   1      38.347  33.586  37.765  1.00  0.00     0.006 A 
ENDBRANCH  61  78
ENDBRANCH  35  36
ENDBRANCH  28  30
ENDBRANCH  27  28
ENDBRANCH  26  27
ENDBRANCH   1  26
TORSDOF 15
ENDMDL
MODEL 2
REMARK VINA RESULT:     -12.3      4.683      9.877
REMARK SMILES C[C@H]1CCCC[C@H]1[N@H+]1[C@@H](C(=O)OCCOCCOC(=O)c2ccc(-c3c4nc(c(-c5c(F)cccc5F)c5ccc([nH]5)c(-c5c(F)cccc5F)c5nc(c(-c6c(F)cccc6F)c6ccc3[nH]6)C=C5)C=C4)cc2)CC[C@H]2CCCC[C@H]21
REMARK SMILES IDX 16 1 15 2 14 3 13 4 12 5 10 6 11 7 9 8 8 9 82 10 75 12 77 13
REMARK SMILES IDX 81 14 76 15 78 16 80 17 79 18 7 19 1 20 2 21 3 22 4 23 6 24
REMARK SMILES IDX 5 25 17 26 18 27 19 28 20 29 21 30 22 31 74 32 23 33 73 34
REMARK SMILES IDX 24 35 25 36 26 37 67 38 27 39 72 40 66 41 68 42 28 43 71 44
REMARK SMILES IDX 65 45 64 46 29 48 55 49 38 50 54 51 39 52 42 53 53 54 69 55
REMARK SMILES IDX 40 56 41 57 52 59 70 60 43 61 30 62 31 63 36 64 32 65 33 66
REMARK SMILES IDX 35 67 37 68 34 69 56 70 57 71 62 72 58 73 59 74 61 75 63 76
REMARK SMILES IDX 60 77 44 78 45 79 50 80 46 81 47 82 49 83 51 84 48 85
REMARK H PARENT 8 11 68 47 42 58
REMARK Flexibility Score: inf
ROOT
ATOM      1  C   UNL A   1      34.579  33.902  29.768  1.00  0.00     0.202 C 
ENDROOT
BRANCH   1   2
ATOM      2  O   UNL A   1      33.717  33.177  28.875  1.00  0.00    -0.374 OA
BRANCH   2   3
ATOM      3  C   UNL A   1      34.147  32.057  28.084  1.00  0.00     0.202 C 
BRANCH   3   4
ATOM      4  C   UNL A   1      33.061  31.270  27.292  1.00  0.00     0.261 C 
BRANCH   4   5
ATOM      5  O   UNL A   1      33.215  29.813  27.452  1.00  0.00    -0.459 OA
BRANCH   5   6
ATOM      6  C   UNL A   1      33.407  29.075  26.317  1.00  0.00     0.365 C 
ATOM      7  O   UNL A   1      34.285  28.212  26.251  1.00  0.00    -0.245 OA
BRANCH   6   8
ATOM      8  C   UNL A   1      32.467  29.349  25.091  1.00  0.00     0.295 C 
ATOM      9  N   UNL A   1      31.154  28.662  24.905  1.00  0.00    -0.318 N 
ATOM     10  C   UNL A   1      30.458  29.661  23.761  1.00  0.00     0.188 C 
ATOM     11  H   UNL A   1      30.537  28.562  25.711  1.00  0.00     0.349 HD
ATOM     12  C   UNL A   1      33.109  29.229  23.696  1.00  0.00     0.078 C 
ATOM     13  C   UNL A   1      30.453  28.683  22.661  1.00  0.00     0.048 C 
ATOM     14  C   UNL A   1      29.182  30.531  23.410  1.00  0.00     0.065 C 
ATOM     15  C   UNL A   1      32.101  28.847  22.480  1.00  0.00     0.016 C 
ATOM     16  C   UNL A   1      29.169  27.842  23.362  1.00  0.00     0.010 C 
ATOM     17  C   UNL A   1      27.822  29.914  23.055  1.00  0.00     0.006 C 
ATOM     18  C   UNL A   1      27.792  28.407  23.049  1.00  0.00     0.001 C 
BRANCH   9  19
ATOM     19  C   UNL A   1      31.408  27.021  24.499  1.00  0.00     0.187 C 
ATOM     20  C   UNL A   1      33.482  26.151  22.652  1.00  0.00     0.014 C 
ATOM     21  C   UNL A   1      32.667  25.998  23.961  1.00  0.00     0.044 C 
ATOM     22  C   UNL A   1      33.567  25.366  25.063  1.00  0.00     0.009 C 
ATOM     23  C   UNL A   1      32.722  24.678  26.116  1.00  0.00     0.001 C 
ATOM     24  C   UNL A   1      30.701  26.093  25.484  1.00  0.00     0.065 C 
ATOM     25  C   UNL A   1      31.645  25.626  26.575  1.00  0.00     0.006 C 
ENDBRANCH   9  19
ENDBRANCH   6   8
ENDBRANCH   5   6
ENDBRANCH   4   5
ENDBRANCH   3   4
ENDBRANCH   2   3
ENDBRANCH   1   2
BRANCH   1  26
ATOM     26  C   UNL A   1      34.503  33.760  31.311  1.00  0.00     0.261 C 
BRANCH  26  27
ATOM     27  O   UNL A   1      34.548  32.416  31.782  1.00  0.00    -0.460 OA
BRANCH  27  28
ATOM     28  C   UNL A   1      35.619  32.164  32.545  1.00  0.00     0.338 C 
ATOM     29  O   UNL A   1      35.789  32.511  33.719  1.00  0.00    -0.246 OA
BRANCH  28  30
ATOM     30  C   UNL A   1      36.499  31.206  31.874  1.00  0.00     0.060 A 
ATOM     31  C   UNL A   1      37.610  30.786  32.612  1.00  0.00     0.016 A 
ATOM     32  C   UNL A   1      36.322  30.802  30.548  1.00  0.00     0.016 A 
ATOM     33  C   UNL A   1      38.623  30.076  31.988  1.00  0.00     0.010 A 
ATOM     34  C   UNL A   1      37.344  30.080  29.922  1.00  0.00     0.010 A 
ATOM     35  C   UNL A   1      38.530  29.783  30.621  1.00  0.00    -0.014 A 
BRANCH  35  36
ATOM     36  C   UNL A   1      39.771  29.397  29.908  1.00  0.00     0.031 A 
ATOM     37  C   UNL A   1      40.883  30.408  29.799  1.00  0.00     0.074 A 
ATOM     38  C   UNL A   1      39.961  28.139  29.471  1.00  0.00     0.049 A 
ATOM     39  N   UNL A   1      42.062  30.293  29.244  1.00  0.00    -0.248 NA
ATOM     40  C   UNL A   1      40.635  31.726  30.410  1.00  0.00     0.031 C 
ATOM     41  C   UNL A   1      38.998  27.047  29.595  1.00  0.00     0.029 A 
ATOM     42  N   UNL A   1      41.042  27.569  28.849  1.00  0.00    -0.354 N 
ATOM     43  C   UNL A   1      42.687  31.522  29.425  1.00  0.00     0.074 A 
ATOM     44  C   UNL A   1      41.748  32.379  30.113  1.00  0.00     0.031 C 
ATOM     45  C   UNL A   1      39.534  25.934  29.065  1.00  0.00     0.029 A 
ATOM     46  C   UNL A   1      40.857  26.247  28.529  1.00  0.00     0.049 A 
ATOM     47  H   UNL A   1      41.872  28.061  28.649  1.00  0.00     0.167 HD
ATOM     48  C   UNL A   1      43.934  31.901  29.058  1.00  0.00     0.037 A 
ATOM     49  C   UNL A   1      41.658  25.394  27.860  1.00  0.00     0.037 A 
ATOM     50  C   UNL A   1      44.873  31.043  28.386  1.00  0.00     0.049 A 
ATOM     51  C   UNL A   1      43.004  25.868  27.376  1.00  0.00     0.074 A 
ATOM     52  C   UNL A   1      46.162  31.332  27.978  1.00  0.00     0.029 A 
ATOM     53  N   UNL A   1      44.621  29.729  28.022  1.00  0.00    -0.354 N 
ATOM     54  N   UNL A   1      43.583  27.032  27.545  1.00  0.00    -0.248 NA
ATOM     55  C   UNL A   1      43.808  24.907  26.607  1.00  0.00     0.031 C 
ATOM     56  C   UNL A   1      46.669  30.214  27.309  1.00  0.00     0.029 A 
ATOM     57  C   UNL A   1      45.722  29.203  27.366  1.00  0.00     0.049 A 
ATOM     58  H   UNL A   1      43.785  29.242  28.202  1.00  0.00     0.167 HD
ATOM     59  C   UNL A   1      44.832  26.929  26.945  1.00  0.00     0.074 A 
ATOM     60  C   UNL A   1      44.927  25.589  26.406  1.00  0.00     0.031 C 
ATOM     61  C   UNL A   1      45.814  27.860  26.855  1.00  0.00     0.037 A 
BRANCH  48  62
ATOM     62  C   UNL A   1      44.339  33.320  29.335  1.00  0.00     0.057 A 
ATOM     63  C   UNL A   1      44.957  33.701  30.533  1.00  0.00     0.134 A 
ATOM     64  C   UNL A   1      44.136  34.314  28.370  1.00  0.00     0.134 A 
ATOM     65  F   UNL A   1      45.169  32.801  31.506  1.00  0.00    -0.206 F 
ATOM     66  C   UNL A   1      45.335  35.024  30.771  1.00  0.00     0.040 A 
ATOM     67  C   UNL A   1      44.536  35.634  28.583  1.00  0.00     0.040 A 
ATOM     68  F   UNL A   1      43.555  34.018  27.197  1.00  0.00    -0.206 F 
ATOM     69  C   UNL A   1      45.131  35.994  29.791  1.00  0.00     0.006 A 
ENDBRANCH  48  62
BRANCH  49  70
ATOM     70  C   UNL A   1      41.202  24.007  27.586  1.00  0.00     0.057 A 
ATOM     71  C   UNL A   1      40.219  23.739  26.626  1.00  0.00     0.134 A 
ATOM     72  C   UNL A   1      41.718  22.919  28.301  1.00  0.00     0.134 A 
ATOM     73  F   UNL A   1      39.668  24.740  25.926  1.00  0.00    -0.206 F 
ATOM     74  C   UNL A   1      39.752  22.442  26.401  1.00  0.00     0.040 A 
ATOM     75  C   UNL A   1      41.283  21.614  28.065  1.00  0.00     0.040 A 
ATOM     76  F   UNL A   1      42.661  23.109  29.236  1.00  0.00    -0.206 F 
ATOM     77  C   UNL A   1      40.289  21.375  27.119  1.00  0.00     0.006 A 
ENDBRANCH  49  70
BRANCH  61  78
ATOM     78  C   UNL A   1      47.109  27.452  26.210  1.00  0.00     0.057 A 
ATOM     79  C   UNL A   1      48.162  26.890  26.939  1.00  0.00     0.134 A 
ATOM     80  C   UNL A   1      47.269  27.562  24.822  1.00  0.00     0.134 A 
ATOM     81  F   UNL A   1      48.078  26.765  28.272  1.00  0.00    -0.206 F 
ATOM     82  C   UNL A   1      49.338  26.467  26.313  1.00  0.00     0.040 A 
ATOM     83  C   UNL A   1      48.425  27.115  24.180  1.00  0.00     0.040 A 
ATOM     84  F   UNL A   1      46.293  28.080  24.061  1.00  0.00    -0.206 F 
ATOM     85  C   UNL A   1      49.466  26.570  24.928  1.00  0.00     0.006 A 
ENDBRANCH  61  78
ENDBRANCH  35  36
ENDBRANCH  28  30
ENDBRANCH  27  28
ENDBRANCH  26  27
ENDBRANCH   1  26
TORSDOF 15
ENDMDL
MODEL 3
REMARK VINA RESULT:     -12.3      0.341      6.195
REMARK SMILES C[C@H]1CCCC[C@H]1[N@H+]1[C@@H](C(=O)OCCOCCOC(=O)c2ccc(-c3c4nc(c(-c5c(F)cccc5F)c5ccc([nH]5)c(-c5c(F)cccc5F)c5nc(c(-c6c(F)cccc6F)c6ccc3[nH]6)C=C5)C=C4)cc2)CC[C@H]2CCCC[C@H]21
REMARK SMILES IDX 16 1 15 2 14 3 13 4 12 5 10 6 11 7 9 8 8 9 82 10 75 12 77 13
REMARK SMILES IDX 81 14 76 15 78 16 80 17 79 18 7 19 1 20 2 21 3 22 4 23 6 24
REMARK SMILES IDX 5 25 17 26 18 27 19 28 20 29 21 30 22 31 74 32 23 33 73 34
REMARK SMILES IDX 24 35 25 36 26 37 67 38 27 39 72 40 66 41 68 42 28 43 71 44
REMARK SMILES IDX 65 45 64 46 29 48 55 49 38 50 54 51 39 52 42 53 53 54 69 55
REMARK SMILES IDX 40 56 41 57 52 59 70 60 43 61 30 62 31 63 36 64 32 65 33 66
REMARK SMILES IDX 35 67 37 68 34 69 56 70 57 71 62 72 58 73 59 74 61 75 63 76
REMARK SMILES IDX 60 77 44 78 45 79 50 80 46 81 47 82 49 83 51 84 48 85
REMARK H PARENT 8 11 68 47 42 58
REMARK Flexibility Score: inf
ROOT
ATOM      1  C   UNL A   1      42.407  21.302  26.074  1.00  0.00     0.202 C 
ENDROOT
BRANCH   1   2
ATOM      2  O   UNL A   1      41.018  21.388  25.719  1.00  0.00    -0.374 OA
BRANCH   2   3
ATOM      3  C   UNL A   1      39.959  21.579  26.672  1.00  0.00     0.202 C 
BRANCH   3   4
ATOM      4  C   UNL A   1      38.946  22.732  26.408  1.00  0.00     0.261 C 
BRANCH   4   5
ATOM      5  O   UNL A   1      37.921  22.346  25.422  1.00  0.00    -0.459 OA
BRANCH   5   6
ATOM      6  C   UNL A   1      36.620  22.645  25.721  1.00  0.00     0.365 C 
ATOM      7  O   UNL A   1      36.267  23.797  25.976  1.00  0.00    -0.245 OA
BRANCH   6   8
ATOM      8  C   UNL A   1      35.577  21.474  25.720  1.00  0.00     0.295 C 
ATOM      9  N   UNL A   1      34.705  21.162  24.549  1.00  0.00    -0.318 N 
ATOM     10  C   UNL A   1      34.199  19.623  24.958  1.00  0.00     0.188 C 
ATOM     11  H   UNL A   1      35.120  21.162  23.617  1.00  0.00     0.349 HD
ATOM     12  C   UNL A   1      34.581  21.444  26.896  1.00  0.00     0.078 C 
ATOM     13  C   UNL A   1      32.782  19.960  25.168  1.00  0.00     0.048 C 
ATOM     14  C   UNL A   1      34.092  18.123  24.460  1.00  0.00     0.065 C 
ATOM     15  C   UNL A   1      33.155  20.723  26.602  1.00  0.00     0.016 C 
ATOM     16  C   UNL A   1      32.524  20.089  23.506  1.00  0.00     0.010 C 
ATOM     17  C   UNL A   1      33.115  17.675  23.364  1.00  0.00     0.006 C 
ATOM     18  C   UNL A   1      32.247  18.771  22.801  1.00  0.00     0.001 C 
BRANCH   9  19
ATOM     19  C   UNL A   1      33.521  22.381  24.365  1.00  0.00     0.187 C 
ATOM     20  C   UNL A   1      32.081  23.541  26.612  1.00  0.00     0.014 C 
ATOM     21  C   UNL A   1      32.826  23.661  25.259  1.00  0.00     0.044 C 
ATOM     22  C   UNL A   1      33.558  25.034  25.189  1.00  0.00     0.009 C 
ATOM     23  C   UNL A   1      33.794  25.443  23.749  1.00  0.00     0.001 C 
ATOM     24  C   UNL A   1      33.600  23.023  22.982  1.00  0.00     0.065 C 
ATOM     25  C   UNL A   1      34.427  24.293  23.012  1.00  0.00     0.006 C 
ENDBRANCH   9  19
ENDBRANCH   6   8
ENDBRANCH   5   6
ENDBRANCH   4   5
ENDBRANCH   3   4
ENDBRANCH   2   3
ENDBRANCH   1   2
BRANCH   1  26
ATOM     26  C   UNL A   1      43.510  22.134  25.368  1.00  0.00     0.261 C 
BRANCH  26  27
ATOM     27  O   UNL A   1      43.042  23.333  24.756  1.00  0.00    -0.460 OA
BRANCH  27  28
ATOM     28  C   UNL A   1      43.762  24.410  25.094  1.00  0.00     0.338 C 
ATOM     29  O   UNL A   1      44.879  24.718  24.662  1.00  0.00    -0.246 OA
BRANCH  28  30
ATOM     30  C   UNL A   1      42.950  25.326  25.896  1.00  0.00     0.060 A 
ATOM     31  C   UNL A   1      43.457  26.622  26.033  1.00  0.00     0.016 A 
ATOM     32  C   UNL A   1      41.795  24.929  26.577  1.00  0.00     0.016 A 
ATOM     33  C   UNL A   1      42.896  27.487  26.959  1.00  0.00     0.010 A 
ATOM     34  C   UNL A   1      41.227  25.808  27.507  1.00  0.00     0.010 A 
ATOM     35  C   UNL A   1      41.825  27.059  27.753  1.00  0.00    -0.014 A 
BRANCH  35  36
ATOM     36  C   UNL A   1      41.519  27.832  28.982  1.00  0.00     0.031 A 
ATOM     37  C   UNL A   1      40.320  28.745  28.977  1.00  0.00     0.074 A 
ATOM     38  C   UNL A   1      42.214  27.639  30.116  1.00  0.00     0.049 A 
ATOM     39  N   UNL A   1      39.845  29.500  29.934  1.00  0.00    -0.248 NA
ATOM     40  C   UNL A   1      39.544  28.806  27.726  1.00  0.00     0.031 C 
ATOM     41  C   UNL A   1      43.338  26.719  30.273  1.00  0.00     0.029 A 
ATOM     42  N   UNL A   1      42.059  28.200  31.359  1.00  0.00    -0.354 N 
ATOM     43  C   UNL A   1      38.730  30.135  29.398  1.00  0.00     0.074 A 
ATOM     44  C   UNL A   1      38.615  29.701  28.024  1.00  0.00     0.031 C 
ATOM     45  C   UNL A   1      43.772  26.777  31.544  1.00  0.00     0.029 A 
ATOM     46  C   UNL A   1      42.984  27.767  32.276  1.00  0.00     0.049 A 
ATOM     47  H   UNL A   1      41.352  28.852  31.573  1.00  0.00     0.167 HD
ATOM     48  C   UNL A   1      37.874  30.994  29.998  1.00  0.00     0.037 A 
ATOM     49  C   UNL A   1      43.184  28.145  33.554  1.00  0.00     0.037 A 
ATOM     50  C   UNL A   1      37.980  31.414  31.370  1.00  0.00     0.049 A 
ATOM     51  C   UNL A   1      42.275  29.177  34.171  1.00  0.00     0.074 A 
ATOM     52  C   UNL A   1      37.159  32.277  32.072  1.00  0.00     0.029 A 
ATOM     53  N   UNL A   1      38.972  31.002  32.246  1.00  0.00    -0.354 N 
ATOM     54  N   UNL A   1      41.229  29.776  33.655  1.00  0.00    -0.248 NA
ATOM     55  C   UNL A   1      42.577  29.587  35.551  1.00  0.00     0.031 C 
ATOM     56  C   UNL A   1      37.690  32.438  33.355  1.00  0.00     0.029 A 
ATOM     57  C   UNL A   1      38.801  31.617  33.475  1.00  0.00     0.049 A 
ATOM     58  H   UNL A   1      39.692  30.366  32.028  1.00  0.00     0.167 HD
ATOM     59  C   UNL A   1      40.724  30.596  34.657  1.00  0.00     0.074 A 
ATOM     60  C   UNL A   1      41.579  30.419  35.811  1.00  0.00     0.031 C 
ATOM     61  C   UNL A   1      39.644  31.415  34.625  1.00  0.00     0.037 A 
BRANCH  48  62
ATOM     62  C   UNL A   1      36.771  31.575  29.160  1.00  0.00     0.057 A 
ATOM     63  C   UNL A   1      35.641  30.833  28.791  1.00  0.00     0.134 A 
ATOM     64  C   UNL A   1      36.828  32.911  28.745  1.00  0.00     0.134 A 
ATOM     65  F   UNL A   1      35.529  29.543  29.145  1.00  0.00    -0.206 F 
ATOM     66  C   UNL A   1      34.621  31.392  28.019  1.00  0.00     0.040 A 
ATOM     67  C   UNL A   1      35.801  33.491  27.998  1.00  0.00     0.040 A 
ATOM     68  F   UNL A   1      37.878  33.682  29.068  1.00  0.00    -0.206 F 
ATOM     69  C   UNL A   1      34.696  32.727  27.627  1.00  0.00     0.006 A 
ENDBRANCH  48  62
BRANCH  49  70
ATOM     70  C   UNL A   1      44.305  27.562  34.334  1.00  0.00     0.057 A 
ATOM     71  C   UNL A   1      44.111  26.464  35.181  1.00  0.00     0.134 A 
ATOM     72  C   UNL A   1      45.593  28.109  34.273  1.00  0.00     0.134 A 
ATOM     73  F   UNL A   1      42.896  25.911  35.302  1.00  0.00    -0.206 F 
ATOM     74  C   UNL A   1      45.152  25.945  35.954  1.00  0.00     0.040 A 
ATOM     75  C   UNL A   1      46.649  27.581  35.016  1.00  0.00     0.040 A 
ATOM     76  F   UNL A   1      45.845  29.162  33.481  1.00  0.00    -0.206 F 
ATOM     77  C   UNL A   1      46.427  26.501  35.868  1.00  0.00     0.006 A 
ENDBRANCH  49  70
BRANCH  61  78
ATOM     78  C   UNL A   1      39.275  32.137  35.890  1.00  0.00     0.057 A 
ATOM     79  C   UNL A   1      39.794  33.396  36.210  1.00  0.00     0.134 A 
ATOM     80  C   UNL A   1      38.329  31.586  36.765  1.00  0.00     0.134 A 
ATOM     81  F   UNL A   1      40.711  33.976  35.421  1.00  0.00    -0.206 F 
ATOM     82  C   UNL A   1      39.397  34.076  37.365  1.00  0.00     0.040 A 
ATOM     83  C   UNL A   1      37.901  32.267  37.905  1.00  0.00     0.040 A 
ATOM     84  F   UNL A   1      37.783  30.387  36.511  1.00  0.00    -0.206 F 
ATOM     85  C   UNL A   1      38.440  33.515  38.210  1.00  0.00     0.006 A 
ENDBRANCH  61  78
ENDBRANCH  35  36
ENDBRANCH  28  30
ENDBRANCH  27  28
ENDBRANCH  26  27
ENDBRANCH   1  26
TORSDOF 15
ENDMDL
