MODEL 1
REMARK VINA RESULT:     -11.4      0.000      0.000
REMARK SMILES CCc1ccc(C(=O)NCc2ccc(C(=O)OCCOCCOC(=O)c3ccc(-c4c5nc(c(-c6c(F)cccc6F)c6ccc([nH]6)c(-c6c(F)cccc6F)c6nc(c(-c7c(F)cccc7F)c7ccc4[nH]7)C=C6)C=C5)cc3)cc2)cc1
REMARK SMILES IDX 19 1 18 2 17 3 15 4 16 5 14 6 11 7 12 8 81 9 13 10 80 11
REMARK SMILES IDX 10 12 9 13 7 14 8 15 6 17 3 18 4 19 83 20 5 21 82 22 2 23
REMARK SMILES IDX 1 24 20 25 21 26 22 27 23 28 24 29 25 30 26 31 27 32 79 33
REMARK SMILES IDX 28 34 78 35 29 36 30 37 31 38 72 39 32 40 77 41 71 42 73 43
REMARK SMILES IDX 33 44 76 45 70 46 69 47 34 49 60 50 43 51 59 52 44 53 47 54
REMARK SMILES IDX 58 55 74 56 45 57 46 58 57 60 75 61 48 62 35 63 36 64 41 65
REMARK SMILES IDX 37 66 38 67 40 68 42 69 39 70 61 71 62 72 67 73 63 74 64 75
REMARK SMILES IDX 66 76 68 77 65 78 49 79 50 80 55 81 51 82 52 83 54 84 56 85
REMARK SMILES IDX 53 86
REMARK H PARENT 9 16 73 48 47 59
REMARK Flexibility Score: inf
ROOT
ATOM      1  C   UNL A   1      34.010  33.124  28.453  1.00  0.00     0.202 C 
ENDROOT
BRANCH   1   2
ATOM      2  C   UNL A   1      34.734  31.830  28.073  1.00  0.00     0.261 C 
BRANCH   2   3
ATOM      3  O   UNL A   1      33.952  31.065  27.140  1.00  0.00    -0.460 OA
BRANCH   3   4
ATOM      4  C   UNL A   1      34.304  29.763  27.040  1.00  0.00     0.338 C 
ATOM      5  O   UNL A   1      35.346  29.253  27.423  1.00  0.00    -0.246 OA
BRANCH   4   6
ATOM      6  C   UNL A   1      33.161  28.964  26.546  1.00  0.00     0.060 A 
ATOM      7  C   UNL A   1      31.030  27.309  25.757  1.00  0.00    -0.029 A 
ATOM      8  C   UNL A   1      31.380  27.429  27.108  1.00  0.00     0.006 A 
ATOM      9  C   UNL A   1      31.725  28.084  24.812  1.00  0.00     0.006 A 
ATOM     10  C   UNL A   1      32.446  28.236  27.498  1.00  0.00     0.016 A 
ATOM     11  C   UNL A   1      32.780  28.920  25.202  1.00  0.00     0.016 A 
BRANCH   7  12
ATOM     12  C   UNL A   1      30.020  26.278  25.305  1.00  0.00     0.152 C 
BRANCH  12  13
ATOM     13  N   UNL A   1      30.073  25.129  26.189  1.00  0.00    -0.348 N 
ATOM     14  C   UNL A   1      30.952  24.108  26.426  1.00  0.00     0.251 C 
ATOM     15  O   UNL A   1      30.628  23.308  27.308  1.00  0.00    -0.269 OA
ATOM     16  H   UNL A   1      29.277  25.070  26.765  1.00  0.00     0.164 HD
BRANCH  14  17
ATOM     17  C   UNL A   1      32.255  23.900  25.728  1.00  0.00     0.039 A 
ATOM     18  C   UNL A   1      34.627  23.413  24.228  1.00  0.00    -0.048 A 
ATOM     19  C   UNL A   1      33.425  22.788  23.886  1.00  0.00     0.004 A 
ATOM     20  C   UNL A   1      34.618  24.304  25.307  1.00  0.00     0.004 A 
ATOM     21  C   UNL A   1      32.259  23.029  24.626  1.00  0.00     0.014 A 
ATOM     22  C   UNL A   1      33.449  24.545  26.039  1.00  0.00     0.014 A 
BRANCH  18  23
ATOM     23  C   UNL A   1      35.928  23.208  23.489  1.00  0.00     0.032 C 
ATOM     24  C   UNL A   1      36.898  22.192  24.076  1.00  0.00     0.009 C 
ENDBRANCH  18  23
ENDBRANCH  14  17
ENDBRANCH  12  13
ENDBRANCH   7  12
ENDBRANCH   4   6
ENDBRANCH   3   4
ENDBRANCH   2   3
ENDBRANCH   1   2
BRANCH   1  25
ATOM     25  O   UNL A   1      34.724  34.001  29.323  1.00  0.00    -0.374 OA
BRANCH  25  26
ATOM     26  C   UNL A   1      33.997  34.561  30.420  1.00  0.00     0.202 C 
BRANCH  26  27
ATOM     27  C   UNL A   1      34.332  33.989  31.802  1.00  0.00     0.261 C 
BRANCH  27  28
ATOM     28  O   UNL A   1      34.886  32.664  31.707  1.00  0.00    -0.460 OA
BRANCH  28  29
ATOM     29  C   UNL A   1      35.936  32.420  32.525  1.00  0.00     0.338 C 
ATOM     30  O   UNL A   1      36.018  32.659  33.720  1.00  0.00    -0.246 OA
BRANCH  29  31
ATOM     31  C   UNL A   1      36.956  31.639  31.801  1.00  0.00     0.060 A 
ATOM     32  C   UNL A   1      37.824  30.841  32.556  1.00  0.00     0.016 A 
ATOM     33  C   UNL A   1      37.101  31.733  30.415  1.00  0.00     0.016 A 
ATOM     34  C   UNL A   1      38.873  30.166  31.935  1.00  0.00     0.010 A 
ATOM     35  C   UNL A   1      38.161  31.064  29.794  1.00  0.00     0.010 A 
ATOM     36  C   UNL A   1      39.069  30.307  30.555  1.00  0.00    -0.014 A 
BRANCH  36  37
ATOM     37  C   UNL A   1      40.304  29.788  29.923  1.00  0.00     0.031 A 
ATOM     38  C   UNL A   1      41.458  30.728  29.711  1.00  0.00     0.074 A 
ATOM     39  C   UNL A   1      40.396  28.505  29.534  1.00  0.00     0.049 A 
ATOM     40  N   UNL A   1      42.587  30.529  29.082  1.00  0.00    -0.248 NA
ATOM     41  C   UNL A   1      41.315  32.077  30.282  1.00  0.00     0.031 C 
ATOM     42  C   UNL A   1      39.365  27.487  29.727  1.00  0.00     0.029 A 
ATOM     43  N   UNL A   1      41.404  27.846  28.878  1.00  0.00    -0.354 N 
ATOM     44  C   UNL A   1      43.284  31.728  29.170  1.00  0.00     0.074 A 
ATOM     45  C   UNL A   1      42.441  32.656  29.892  1.00  0.00     0.031 C 
ATOM     46  C   UNL A   1      39.786  26.334  29.181  1.00  0.00     0.029 A 
ATOM     47  C   UNL A   1      41.097  26.543  28.569  1.00  0.00     0.049 A 
ATOM     48  H   UNL A   1      42.266  28.265  28.650  1.00  0.00     0.167 HD
ATOM     49  C   UNL A   1      44.515  32.026  28.692  1.00  0.00     0.037 A 
ATOM     50  C   UNL A   1      41.784  25.637  27.847  1.00  0.00     0.037 A 
ATOM     51  C   UNL A   1      45.351  31.101  27.976  1.00  0.00     0.049 A 
ATOM     52  C   UNL A   1      43.120  26.014  27.264  1.00  0.00     0.074 A 
ATOM     53  C   UNL A   1      46.620  31.302  27.462  1.00  0.00     0.029 A 
ATOM     54  N   UNL A   1      44.998  29.795  27.670  1.00  0.00    -0.354 N 
ATOM     55  N   UNL A   1      43.774  27.147  27.358  1.00  0.00    -0.248 NA
ATOM     56  C   UNL A   1      43.814  24.986  26.474  1.00  0.00     0.031 C 
ATOM     57  C   UNL A   1      47.017  30.133  26.806  1.00  0.00     0.029 A 
ATOM     58  C   UNL A   1      46.016  29.186  26.955  1.00  0.00     0.049 A 
ATOM     59  H   UNL A   1      44.149  29.365  27.922  1.00  0.00     0.167 HD
ATOM     60  C   UNL A   1      44.967  26.957  26.670  1.00  0.00     0.074 A 
ATOM     61  C   UNL A   1      44.948  25.600  26.167  1.00  0.00     0.031 C 
ATOM     62  C   UNL A   1      45.988  27.828  26.476  1.00  0.00     0.037 A 
BRANCH  49  63
ATOM     63  C   UNL A   1      45.019  33.422  28.908  1.00  0.00     0.057 A 
ATOM     64  C   UNL A   1      45.859  33.750  29.980  1.00  0.00     0.134 A 
ATOM     65  C   UNL A   1      44.680  34.448  28.016  1.00  0.00     0.134 A 
ATOM     66  F   UNL A   1      46.209  32.817  30.879  1.00  0.00    -0.206 F 
ATOM     67  C   UNL A   1      46.327  35.051  30.168  1.00  0.00     0.040 A 
ATOM     68  C   UNL A   1      45.161  35.747  28.180  1.00  0.00     0.040 A 
ATOM     69  F   UNL A   1      43.881  34.200  26.967  1.00  0.00    -0.206 F 
ATOM     70  C   UNL A   1      45.983  36.053  29.262  1.00  0.00     0.006 A 
ENDBRANCH  49  63
BRANCH  50  71
ATOM     71  C   UNL A   1      41.214  24.286  27.616  1.00  0.00     0.057 A 
ATOM     72  C   UNL A   1      41.694  23.170  28.311  1.00  0.00     0.134 A 
ATOM     73  C   UNL A   1      40.190  24.077  26.685  1.00  0.00     0.134 A 
ATOM     74  F   UNL A   1      42.689  23.304  29.198  1.00  0.00    -0.206 F 
ATOM     75  C   UNL A   1      41.186  21.891  28.076  1.00  0.00     0.040 A 
ATOM     76  C   UNL A   1      39.657  22.807  26.458  1.00  0.00     0.040 A 
ATOM     77  F   UNL A   1      39.687  25.107  25.987  1.00  0.00    -0.206 F 
ATOM     78  C   UNL A   1      40.160  21.708  27.150  1.00  0.00     0.006 A 
ENDBRANCH  50  71
BRANCH  62  79
ATOM     79  C   UNL A   1      47.191  27.327  25.733  1.00  0.00     0.057 A 
ATOM     80  C   UNL A   1      47.346  27.518  24.356  1.00  0.00     0.134 A 
ATOM     81  C   UNL A   1      48.233  26.689  26.420  1.00  0.00     0.134 A 
ATOM     82  F   UNL A   1      46.380  28.112  23.638  1.00  0.00    -0.206 F 
ATOM     83  C   UNL A   1      48.488  27.078  23.684  1.00  0.00     0.040 A 
ATOM     84  C   UNL A   1      49.389  26.266  25.764  1.00  0.00     0.040 A 
ATOM     85  F   UNL A   1      48.150  26.482  27.743  1.00  0.00    -0.206 F 
ATOM     86  C   UNL A   1      49.517  26.457  24.390  1.00  0.00     0.006 A 
ENDBRANCH  62  79
ENDBRANCH  36  37
ENDBRANCH  29  31
ENDBRANCH  28  29
ENDBRANCH  27  28
ENDBRANCH  26  27
ENDBRANCH  25  26
ENDBRANCH   1  25
TORSDOF 18
ENDMDL
MODEL 2
REMARK VINA RESULT:     -11.3      1.408      3.079
REMARK SMILES CCc1ccc(C(=O)NCc2ccc(C(=O)OCCOCCOC(=O)c3ccc(-c4c5nc(c(-c6c(F)cccc6F)c6ccc([nH]6)c(-c6c(F)cccc6F)c6nc(c(-c7c(F)cccc7F)c7ccc4[nH]7)C=C6)C=C5)cc3)cc2)cc1
REMARK SMILES IDX 19 1 18 2 17 3 15 4 16 5 14 6 11 7 12 8 81 9 13 10 80 11
REMARK SMILES IDX 10 12 9 13 7 14 8 15 6 17 3 18 4 19 83 20 5 21 82 22 2 23
REMARK SMILES IDX 1 24 20 25 21 26 22 27 23 28 24 29 25 30 26 31 27 32 79 33
REMARK SMILES IDX 28 34 78 35 29 36 30 37 31 38 72 39 32 40 77 41 71 42 73 43
REMARK SMILES IDX 33 44 76 45 70 46 69 47 34 49 60 50 43 51 59 52 44 53 47 54
REMARK SMILES IDX 58 55 74 56 45 57 46 58 57 60 75 61 48 62 35 63 36 64 41 65
REMARK SMILES IDX 37 66 38 67 40 68 42 69 39 70 61 71 62 72 67 73 63 74 64 75
REMARK SMILES IDX 66 76 68 77 65 78 49 79 50 80 55 81 51 82 52 83 54 84 56 85
REMARK SMILES IDX 53 86
REMARK H PARENT 9 16 73 48 47 59
REMARK Flexibility Score: inf
ROOT
ATOM      1  C   UNL A   1      34.133  33.327  28.050  1.00  0.00     0.202 C 
ENDROOT
BRANCH   1   2
ATOM      2  C   UNL A   1      33.752  31.877  28.355  1.00  0.00     0.261 C 
BRANCH   2   3
ATOM      3  O   UNL A   1      33.662  31.110  27.142  1.00  0.00    -0.460 OA
BRANCH   3   4
ATOM      4  C   UNL A   1      34.364  29.953  27.150  1.00  0.00     0.338 C 
ATOM      5  O   UNL A   1      35.544  29.813  27.432  1.00  0.00    -0.246 OA
BRANCH   4   6
ATOM      6  C   UNL A   1      33.455  28.807  26.934  1.00  0.00     0.060 A 
ATOM      7  C   UNL A   1      31.831  26.587  26.350  1.00  0.00    -0.029 A 
ATOM      8  C   UNL A   1      33.194  26.582  26.025  1.00  0.00     0.006 A 
ATOM      9  C   UNL A   1      31.307  27.700  27.031  1.00  0.00     0.006 A 
ATOM     10  C   UNL A   1      33.995  27.687  26.300  1.00  0.00     0.016 A 
ATOM     11  C   UNL A   1      32.116  28.804  27.335  1.00  0.00     0.016 A 
BRANCH   7  12
ATOM     12  C   UNL A   1      30.914  25.487  25.867  1.00  0.00     0.152 C 
BRANCH  12  13
ATOM     13  N   UNL A   1      31.143  25.251  24.454  1.00  0.00    -0.348 N 
ATOM     14  C   UNL A   1      30.837  25.893  23.285  1.00  0.00     0.251 C 
ATOM     15  O   UNL A   1      31.244  25.357  22.251  1.00  0.00    -0.269 OA
ATOM     16  H   UNL A   1      31.647  24.420  24.295  1.00  0.00     0.164 HD
BRANCH  14  17
ATOM     17  C   UNL A   1      30.083  27.176  23.167  1.00  0.00     0.039 A 
ATOM     18  C   UNL A   1      28.477  29.525  23.054  1.00  0.00    -0.048 A 
ATOM     19  C   UNL A   1      27.914  28.291  23.390  1.00  0.00     0.004 A 
ATOM     20  C   UNL A   1      29.853  29.572  22.808  1.00  0.00     0.004 A 
ATOM     21  C   UNL A   1      28.707  27.135  23.444  1.00  0.00     0.014 A 
ATOM     22  C   UNL A   1      30.640  28.416  22.869  1.00  0.00     0.014 A 
BRANCH  18  23
ATOM     23  C   UNL A   1      27.697  30.816  22.969  1.00  0.00     0.032 C 
ATOM     24  C   UNL A   1      28.494  32.107  23.078  1.00  0.00     0.009 C 
ENDBRANCH  18  23
ENDBRANCH  14  17
ENDBRANCH  12  13
ENDBRANCH   7  12
ENDBRANCH   4   6
ENDBRANCH   3   4
ENDBRANCH   2   3
ENDBRANCH   1   2
BRANCH   1  25
ATOM     25  O   UNL A   1      34.883  33.996  29.064  1.00  0.00    -0.374 OA
BRANCH  25  26
ATOM     26  C   UNL A   1      34.142  34.600  30.128  1.00  0.00     0.202 C 
BRANCH  26  27
ATOM     27  C   UNL A   1      34.450  34.076  31.535  1.00  0.00     0.261 C 
BRANCH  27  28
ATOM     28  O   UNL A   1      34.760  32.671  31.520  1.00  0.00    -0.460 OA
BRANCH  28  29
ATOM     29  C   UNL A   1      35.696  32.279  32.416  1.00  0.00     0.338 C 
ATOM     30  O   UNL A   1      35.655  32.395  33.632  1.00  0.00    -0.246 OA
BRANCH  29  31
ATOM     31  C   UNL A   1      36.746  31.505  31.729  1.00  0.00     0.060 A 
ATOM     32  C   UNL A   1      37.664  30.805  32.521  1.00  0.00     0.016 A 
ATOM     33  C   UNL A   1      36.868  31.514  30.338  1.00  0.00     0.016 A 
ATOM     34  C   UNL A   1      38.739  30.145  31.929  1.00  0.00     0.010 A 
ATOM     35  C   UNL A   1      37.954  30.860  29.745  1.00  0.00     0.010 A 
ATOM     36  C   UNL A   1      38.910  30.203  30.540  1.00  0.00    -0.014 A 
BRANCH  36  37
ATOM     37  C   UNL A   1      40.162  29.707  29.923  1.00  0.00     0.031 A 
ATOM     38  C   UNL A   1      41.307  30.664  29.739  1.00  0.00     0.074 A 
ATOM     39  C   UNL A   1      40.278  28.430  29.523  1.00  0.00     0.049 A 
ATOM     40  N   UNL A   1      42.449  30.487  29.128  1.00  0.00    -0.248 NA
ATOM     41  C   UNL A   1      41.135  32.006  30.321  1.00  0.00     0.031 C 
ATOM     42  C   UNL A   1      39.258  27.396  29.690  1.00  0.00     0.029 A 
ATOM     43  N   UNL A   1      41.306  27.790  28.878  1.00  0.00    -0.354 N 
ATOM     44  C   UNL A   1      43.127  31.695  29.238  1.00  0.00     0.074 A 
ATOM     45  C   UNL A   1      42.259  32.605  29.955  1.00  0.00     0.031 C 
ATOM     46  C   UNL A   1      39.704  26.253  29.139  1.00  0.00     0.029 A 
ATOM     47  C   UNL A   1      41.022  26.487  28.551  1.00  0.00     0.049 A 
ATOM     48  H   UNL A   1      42.165  28.224  28.669  1.00  0.00     0.167 HD
ATOM     49  C   UNL A   1      44.362  32.014  28.784  1.00  0.00     0.037 A 
ATOM     50  C   UNL A   1      41.733  25.597  27.833  1.00  0.00     0.037 A 
ATOM     51  C   UNL A   1      45.222  31.107  28.073  1.00  0.00     0.049 A 
ATOM     52  C   UNL A   1      43.073  25.998  27.276  1.00  0.00     0.074 A 
ATOM     53  C   UNL A   1      46.496  31.331  27.582  1.00  0.00     0.029 A 
ATOM     54  N   UNL A   1      44.892  29.800  27.749  1.00  0.00    -0.354 N 
ATOM     55  N   UNL A   1      43.710  27.139  27.391  1.00  0.00    -0.248 NA
ATOM     56  C   UNL A   1      43.794  24.987  26.487  1.00  0.00     0.031 C 
ATOM     57  C   UNL A   1      46.920  30.174  26.922  1.00  0.00     0.029 A 
ATOM     58  C   UNL A   1      45.930  29.212  27.045  1.00  0.00     0.049 A 
ATOM     59  H   UNL A   1      44.045  29.356  27.983  1.00  0.00     0.167 HD
ATOM     60  C   UNL A   1      44.916  26.972  26.721  1.00  0.00     0.074 A 
ATOM     61  C   UNL A   1      44.925  25.619  26.205  1.00  0.00     0.031 C 
ATOM     62  C   UNL A   1      45.928  27.859  26.553  1.00  0.00     0.037 A 
BRANCH  49  63
ATOM     63  C   UNL A   1      44.843  33.415  29.022  1.00  0.00     0.057 A 
ATOM     64  C   UNL A   1      44.552  34.459  28.135  1.00  0.00     0.134 A 
ATOM     65  C   UNL A   1      45.584  33.728  30.169  1.00  0.00     0.134 A 
ATOM     66  F   UNL A   1      43.859  34.223  27.011  1.00  0.00    -0.206 F 
ATOM     67  C   UNL A   1      44.999  35.761  28.370  1.00  0.00     0.040 A 
ATOM     68  C   UNL A   1      46.017  35.030  30.426  1.00  0.00     0.040 A 
ATOM     69  F   UNL A   1      45.895  32.774  31.060  1.00  0.00    -0.206 F 
ATOM     70  C   UNL A   1      45.729  36.050  29.522  1.00  0.00     0.006 A 
ENDBRANCH  49  63
BRANCH  50  71
ATOM     71  C   UNL A   1      41.186  24.241  27.580  1.00  0.00     0.057 A 
ATOM     72  C   UNL A   1      40.158  24.037  26.652  1.00  0.00     0.134 A 
ATOM     73  C   UNL A   1      41.664  23.121  28.271  1.00  0.00     0.134 A 
ATOM     74  F   UNL A   1      39.643  25.075  25.978  1.00  0.00    -0.206 F 
ATOM     75  C   UNL A   1      39.614  22.771  26.431  1.00  0.00     0.040 A 
ATOM     76  C   UNL A   1      41.146  21.845  28.041  1.00  0.00     0.040 A 
ATOM     77  F   UNL A   1      42.649  23.251  29.172  1.00  0.00    -0.206 F 
ATOM     78  C   UNL A   1      40.113  21.669  27.124  1.00  0.00     0.006 A 
ENDBRANCH  50  71
BRANCH  62  79
ATOM     79  C   UNL A   1      47.151  27.381  25.825  1.00  0.00     0.057 A 
ATOM     80  C   UNL A   1      47.315  27.567  24.448  1.00  0.00     0.134 A 
ATOM     81  C   UNL A   1      48.201  26.772  26.527  1.00  0.00     0.134 A 
ATOM     82  F   UNL A   1      46.342  28.133  23.717  1.00  0.00    -0.206 F 
ATOM     83  C   UNL A   1      48.473  27.149  23.790  1.00  0.00     0.040 A 
ATOM     84  C   UNL A   1      49.372  26.373  25.885  1.00  0.00     0.040 A 
ATOM     85  F   UNL A   1      48.109  26.573  27.851  1.00  0.00    -0.206 F 
ATOM     86  C   UNL A   1      49.509  26.557  24.511  1.00  0.00     0.006 A 
ENDBRANCH  62  79
ENDBRANCH  36  37
ENDBRANCH  29  31
ENDBRANCH  28  29
ENDBRANCH  27  28
ENDBRANCH  26  27
ENDBRANCH  25  26
ENDBRANCH   1  25
TORSDOF 18
ENDMDL
MODEL 3
REMARK VINA RESULT:     -11.3      4.727      9.846
REMARK SMILES CCc1ccc(C(=O)NCc2ccc(C(=O)OCCOCCOC(=O)c3ccc(-c4c5nc(c(-c6c(F)cccc6F)c6ccc([nH]6)c(-c6c(F)cccc6F)c6nc(c(-c7c(F)cccc7F)c7ccc4[nH]7)C=C6)C=C5)cc3)cc2)cc1
REMARK SMILES IDX 19 1 18 2 17 3 15 4 16 5 14 6 11 7 12 8 81 9 13 10 80 11
REMARK SMILES IDX 10 12 9 13 7 14 8 15 6 17 3 18 4 19 83 20 5 21 82 22 2 23
REMARK SMILES IDX 1 24 20 25 21 26 22 27 23 28 24 29 25 30 26 31 27 32 79 33
REMARK SMILES IDX 28 34 78 35 29 36 30 37 31 38 72 39 32 40 77 41 71 42 73 43
REMARK SMILES IDX 33 44 76 45 70 46 69 47 34 49 60 50 43 51 59 52 44 53 47 54
REMARK SMILES IDX 58 55 74 56 45 57 46 58 57 60 75 61 48 62 35 63 36 64 41 65
REMARK SMILES IDX 37 66 38 67 40 68 42 69 39 70 61 71 62 72 67 73 63 74 64 75
REMARK SMILES IDX 66 76 68 77 65 78 49 79 50 80 55 81 51 82 52 83 54 84 56 85
REMARK SMILES IDX 53 86
REMARK H PARENT 9 16 73 48 47 59
REMARK Flexibility Score: inf
ROOT
ATOM      1  C   UNL A   1      41.167  20.372  26.156  1.00  0.00     0.202 C 
ENDROOT
BRANCH   1   2
ATOM      2  C   UNL A   1      40.443  21.620  26.667  1.00  0.00     0.261 C 
BRANCH   2   3
ATOM      3  O   UNL A   1      39.157  21.753  26.038  1.00  0.00    -0.460 OA
BRANCH   3   4
ATOM      4  C   UNL A   1      38.537  22.935  26.260  1.00  0.00     0.338 C 
ATOM      5  O   UNL A   1      38.909  23.830  27.005  1.00  0.00    -0.246 OA
BRANCH   4   6
ATOM      6  C   UNL A   1      37.400  23.096  25.327  1.00  0.00     0.060 A 
ATOM      7  C   UNL A   1      35.116  23.413  23.719  1.00  0.00    -0.029 A 
ATOM      8  C   UNL A   1      35.221  24.072  24.951  1.00  0.00     0.006 A 
ATOM      9  C   UNL A   1      36.204  22.641  23.276  1.00  0.00     0.006 A 
ATOM     10  C   UNL A   1      36.345  23.902  25.755  1.00  0.00     0.016 A 
ATOM     11  C   UNL A   1      37.350  22.490  24.069  1.00  0.00     0.016 A 
BRANCH   7  12
ATOM     12  C   UNL A   1      33.819  23.421  22.943  1.00  0.00     0.152 C 
BRANCH  12  13
ATOM     13  N   UNL A   1      32.719  23.105  23.836  1.00  0.00    -0.348 N 
ATOM     14  C   UNL A   1      32.238  21.979  24.446  1.00  0.00     0.251 C 
ATOM     15  O   UNL A   1      31.253  22.137  25.172  1.00  0.00    -0.269 OA
ATOM     16  H   UNL A   1      32.185  23.901  24.059  1.00  0.00     0.164 HD
BRANCH  14  17
ATOM     17  C   UNL A   1      32.812  20.607  24.321  1.00  0.00     0.039 A 
ATOM     18  C   UNL A   1      33.778  17.961  23.900  1.00  0.00    -0.048 A 
ATOM     19  C   UNL A   1      32.627  18.412  23.249  1.00  0.00     0.004 A 
ATOM     20  C   UNL A   1      34.452  18.858  24.735  1.00  0.00     0.004 A 
ATOM     21  C   UNL A   1      32.152  19.715  23.459  1.00  0.00     0.014 A 
ATOM     22  C   UNL A   1      33.977  20.159  24.936  1.00  0.00     0.014 A 
BRANCH  18  23
ATOM     23  C   UNL A   1      34.355  16.575  23.736  1.00  0.00     0.032 C 
ATOM     24  C   UNL A   1      34.822  15.872  25.002  1.00  0.00     0.009 C 
ENDBRANCH  18  23
ENDBRANCH  14  17
ENDBRANCH  12  13
ENDBRANCH   7  12
ENDBRANCH   4   6
ENDBRANCH   3   4
ENDBRANCH   2   3
ENDBRANCH   1   2
BRANCH   1  25
ATOM     25  O   UNL A   1      42.430  20.601  25.532  1.00  0.00    -0.374 OA
BRANCH  25  26
ATOM     26  C   UNL A   1      43.145  21.775  25.926  1.00  0.00     0.202 C 
BRANCH  26  27
ATOM     27  C   UNL A   1      43.795  22.573  24.789  1.00  0.00     0.261 C 
BRANCH  27  28
ATOM     28  O   UNL A   1      43.232  23.893  24.680  1.00  0.00    -0.460 OA
BRANCH  28  29
ATOM     29  C   UNL A   1      44.019  24.892  25.141  1.00  0.00     0.338 C 
ATOM     30  O   UNL A   1      45.112  25.235  24.717  1.00  0.00    -0.246 OA
BRANCH  29  31
ATOM     31  C   UNL A   1      43.288  25.667  26.161  1.00  0.00     0.060 A 
ATOM     32  C   UNL A   1      43.729  26.969  26.432  1.00  0.00     0.016 A 
ATOM     33  C   UNL A   1      42.231  25.110  26.884  1.00  0.00     0.016 A 
ATOM     34  C   UNL A   1      43.143  27.706  27.459  1.00  0.00     0.010 A 
ATOM     35  C   UNL A   1      41.652  25.847  27.922  1.00  0.00     0.010 A 
ATOM     36  C   UNL A   1      42.128  27.133  28.235  1.00  0.00    -0.014 A 
BRANCH  36  37
ATOM     37  C   UNL A   1      41.660  27.810  29.466  1.00  0.00     0.031 A 
ATOM     38  C   UNL A   1      40.450  28.699  29.389  1.00  0.00     0.074 A 
ATOM     39  C   UNL A   1      42.304  27.645  30.634  1.00  0.00     0.049 A 
ATOM     40  N   UNL A   1      39.929  29.475  30.303  1.00  0.00    -0.248 NA
ATOM     41  C   UNL A   1      39.736  28.719  28.101  1.00  0.00     0.031 C 
ATOM     42  C   UNL A   1      43.458  26.773  30.847  1.00  0.00     0.029 A 
ATOM     43  N   UNL A   1      42.084  28.221  31.859  1.00  0.00    -0.354 N 
ATOM     44  C   UNL A   1      38.835  30.084  29.700  1.00  0.00     0.074 A 
ATOM     45  C   UNL A   1      38.781  29.606  28.335  1.00  0.00     0.031 C 
ATOM     46  C   UNL A   1      43.860  26.890  32.125  1.00  0.00     0.029 A 
ATOM     47  C   UNL A   1      43.015  27.869  32.806  1.00  0.00     0.049 A 
ATOM     48  H   UNL A   1      41.332  28.830  32.043  1.00  0.00     0.167 HD
ATOM     49  C   UNL A   1      37.955  30.962  30.238  1.00  0.00     0.037 A 
ATOM     50  C   UNL A   1      43.182  28.313  34.066  1.00  0.00     0.037 A 
ATOM     51  C   UNL A   1      38.011  31.434  31.595  1.00  0.00     0.049 A 
ATOM     52  C   UNL A   1      42.234  29.344  34.620  1.00  0.00     0.074 A 
ATOM     53  C   UNL A   1      37.158  32.314  32.239  1.00  0.00     0.029 A 
ATOM     54  N   UNL A   1      38.978  31.065  32.518  1.00  0.00    -0.354 N 
ATOM     55  N   UNL A   1      41.199  29.909  34.046  1.00  0.00    -0.248 NA
ATOM     56  C   UNL A   1      42.478  29.798  35.997  1.00  0.00     0.031 C 
ATOM     57  C   UNL A   1      37.635  32.513  33.538  1.00  0.00     0.029 A 
ATOM     58  C   UNL A   1      38.755  31.717  33.720  1.00  0.00     0.049 A 
ATOM     59  H   UNL A   1      39.713  30.435  32.345  1.00  0.00     0.167 HD
ATOM     60  C   UNL A   1      40.650  30.758  35.000  1.00  0.00     0.074 A 
ATOM     61  C   UNL A   1      41.464  30.631  36.191  1.00  0.00     0.031 C 
ATOM     62  C   UNL A   1      39.566  31.566  34.900  1.00  0.00     0.037 A 
BRANCH  49  63
ATOM     63  C   UNL A   1      36.872  31.488  29.343  1.00  0.00     0.057 A 
ATOM     64  C   UNL A   1      36.905  32.789  28.825  1.00  0.00     0.134 A 
ATOM     65  C   UNL A   1      35.795  30.671  28.974  1.00  0.00     0.134 A 
ATOM     66  F   UNL A   1      37.900  33.626  29.153  1.00  0.00    -0.206 F 
ATOM     67  C   UNL A   1      35.894  33.265  27.988  1.00  0.00     0.040 A 
ATOM     68  C   UNL A   1      34.792  31.129  28.118  1.00  0.00     0.040 A 
ATOM     69  F   UNL A   1      35.705  29.414  29.433  1.00  0.00    -0.206 F 
ATOM     70  C   UNL A   1      34.837  32.432  27.628  1.00  0.00     0.006 A 
ENDBRANCH  49  63
BRANCH  50  71
ATOM     71  C   UNL A   1      44.305  27.800  34.891  1.00  0.00     0.057 A 
ATOM     72  C   UNL A   1      44.148  26.674  35.707  1.00  0.00     0.134 A 
ATOM     73  C   UNL A   1      45.553  28.433  34.895  1.00  0.00     0.134 A 
ATOM     74  F   UNL A   1      42.968  26.041  35.762  1.00  0.00    -0.206 F 
ATOM     75  C   UNL A   1      45.188  26.205  36.511  1.00  0.00     0.040 A 
ATOM     76  C   UNL A   1      46.610  27.960  35.676  1.00  0.00     0.040 A 
ATOM     77  F   UNL A   1      45.767  29.517  34.134  1.00  0.00    -0.206 F 
ATOM     78  C   UNL A   1      46.426  26.846  36.492  1.00  0.00     0.006 A 
ENDBRANCH  50  71
BRANCH  62  79
ATOM     79  C   UNL A   1      39.165  32.338  36.124  1.00  0.00     0.057 A 
ATOM     80  C   UNL A   1      39.626  33.637  36.366  1.00  0.00     0.134 A 
ATOM     81  C   UNL A   1      38.263  31.787  37.044  1.00  0.00     0.134 A 
ATOM     82  F   UNL A   1      40.500  34.216  35.529  1.00  0.00    -0.206 F 
ATOM     83  C   UNL A   1      39.217  34.356  37.490  1.00  0.00     0.040 A 
ATOM     84  C   UNL A   1      37.828  32.505  38.158  1.00  0.00     0.040 A 
ATOM     85  F   UNL A   1      37.778  30.549  36.865  1.00  0.00    -0.206 F 
ATOM     86  C   UNL A   1      38.309  33.793  38.386  1.00  0.00     0.006 A 
ENDBRANCH  62  79
ENDBRANCH  36  37
ENDBRANCH  29  31
ENDBRANCH  28  29
ENDBRANCH  27  28
ENDBRANCH  26  27
ENDBRANCH  25  26
ENDBRANCH   1  25
TORSDOF 18
ENDMDL
