MODEL 1
REMARK VINA RESULT:      -9.6      0.000      0.000
REMARK SMILES C=CCN(CC(=O)OCCOCCOC(=O)c1ccc(-c2c3nc(c(-c4c(F)cccc4F)c4ccc([nH]4)c(-c4c(F)cccc4F)c4nc(c(-c5c(F)cccc5F)c5ccc2[nH]5)C=C4)C=C3)cc1)C(=O)NC1CCCC1
REMARK SMILES IDX 10 1 9 2 8 3 6 4 7 5 5 6 4 7 3 8 2 9 1 10 71 11 72 12 73 13
REMARK SMILES IDX 74 15 75 16 78 17 76 18 77 19 11 20 12 21 13 22 14 23 15 24
REMARK SMILES IDX 16 25 17 26 18 27 70 28 19 29 69 30 20 31 21 32 22 33 63 34
REMARK SMILES IDX 23 35 68 36 62 37 64 38 24 39 67 40 61 41 60 42 25 44 51 45
REMARK SMILES IDX 34 46 50 47 35 48 38 49 49 50 65 51 36 52 37 53 48 55 66 56
REMARK SMILES IDX 39 57 26 58 27 59 32 60 28 61 29 62 31 63 33 64 30 65 52 66
REMARK SMILES IDX 53 67 58 68 54 69 55 70 57 71 59 72 56 73 40 74 41 75 46 76
REMARK SMILES IDX 42 77 43 78 45 79 47 80 44 81
REMARK H PARENT 73 14 64 43 38 54
REMARK Flexibility Score: inf
ROOT
ATOM      1  C   UNL A   1      32.763  30.058  27.034  1.00  0.00     0.202 C 
ENDROOT
BRANCH   1   2
ATOM      2  C   UNL A   1      32.944  28.547  26.846  1.00  0.00     0.261 C 
BRANCH   2   3
ATOM      3  O   UNL A   1      31.679  27.841  26.738  1.00  0.00    -0.462 OA
BRANCH   3   4
ATOM      4  C   UNL A   1      31.757  26.668  26.051  1.00  0.00     0.325 C 
ATOM      5  O   UNL A   1      32.285  25.653  26.503  1.00  0.00    -0.250 OA
BRANCH   4   6
ATOM      6  C   UNL A   1      31.198  26.696  24.621  1.00  0.00     0.244 C 
BRANCH   6   7
ATOM      7  N   UNL A   1      31.864  27.416  23.535  1.00  0.00    -0.310 N 
BRANCH   7   8
ATOM      8  C   UNL A   1      32.163  26.592  22.356  1.00  0.00     0.149 C 
BRANCH   8   9
ATOM      9  C   UNL A   1      32.384  25.165  22.807  1.00  0.00    -0.013 C 
ATOM     10  C   UNL A   1      33.327  24.357  22.299  1.00  0.00     0.006 C 
ENDBRANCH   8   9
ENDBRANCH   7   8
BRANCH   7  11
ATOM     11  C   UNL A   1      32.016  28.758  23.346  1.00  0.00     0.318 C 
ATOM     12  O   UNL A   1      33.140  29.273  23.276  1.00  0.00    -0.249 OA
ATOM     13  N   UNL A   1      31.027  29.637  23.115  1.00  0.00    -0.335 N 
ATOM     14  H   UNL A   1      31.305  30.297  22.440  1.00  0.00     0.165 HD
BRANCH  13  15
ATOM     15  C   UNL A   1      29.673  29.907  23.564  1.00  0.00     0.083 C 
ATOM     16  C   UNL A   1      29.201  31.302  23.135  1.00  0.00     0.025 C 
ATOM     17  C   UNL A   1      28.539  29.015  23.087  1.00  0.00     0.025 C 
ATOM     18  C   UNL A   1      27.725  31.274  23.492  1.00  0.00     0.002 C 
ATOM     19  C   UNL A   1      27.277  29.874  23.101  1.00  0.00     0.002 C 
ENDBRANCH  13  15
ENDBRANCH   7  11
ENDBRANCH   6   7
ENDBRANCH   4   6
ENDBRANCH   3   4
ENDBRANCH   2   3
ENDBRANCH   1   2
BRANCH   1  20
ATOM     20  O   UNL A   1      31.862  30.740  26.158  1.00  0.00    -0.374 OA
BRANCH  20  21
ATOM     21  C   UNL A   1      31.402  32.013  26.588  1.00  0.00     0.202 C 
BRANCH  21  22
ATOM     22  C   UNL A   1      32.449  33.097  26.880  1.00  0.00     0.261 C 
BRANCH  22  23
ATOM     23  O   UNL A   1      32.172  33.829  28.074  1.00  0.00    -0.460 OA
BRANCH  23  24
ATOM     24  C   UNL A   1      33.184  34.636  28.459  1.00  0.00     0.338 C 
ATOM     25  O   UNL A   1      33.153  35.843  28.660  1.00  0.00    -0.246 OA
BRANCH  24  26
ATOM     26  C   UNL A   1      34.338  33.809  28.825  1.00  0.00     0.060 A 
ATOM     27  C   UNL A   1      34.066  32.615  29.504  1.00  0.00     0.016 A 
ATOM     28  C   UNL A   1      35.647  34.196  28.532  1.00  0.00     0.016 A 
ATOM     29  C   UNL A   1      35.113  31.823  29.947  1.00  0.00     0.010 A 
ATOM     30  C   UNL A   1      36.701  33.408  28.994  1.00  0.00     0.010 A 
ATOM     31  C   UNL A   1      36.432  32.246  29.741  1.00  0.00    -0.014 A 
BRANCH  31  32
ATOM     32  C   UNL A   1      37.500  31.575  30.506  1.00  0.00     0.031 A 
ATOM     33  C   UNL A   1      38.360  30.575  29.790  1.00  0.00     0.074 A 
ATOM     34  C   UNL A   1      37.750  31.924  31.778  1.00  0.00     0.049 A 
ATOM     35  N   UNL A   1      39.384  29.893  30.231  1.00  0.00    -0.248 NA
ATOM     36  C   UNL A   1      38.019  30.308  28.382  1.00  0.00     0.031 C 
ATOM     37  C   UNL A   1      37.004  32.924  32.541  1.00  0.00     0.029 A 
ATOM     38  N   UNL A   1      38.711  31.482  32.647  1.00  0.00    -0.354 N 
ATOM     39  C   UNL A   1      39.806  29.116  29.157  1.00  0.00     0.074 A 
ATOM     40  C   UNL A   1      38.905  29.380  28.059  1.00  0.00     0.031 C 
ATOM     41  C   UNL A   1      37.538  33.018  33.771  1.00  0.00     0.029 A 
ATOM     42  C   UNL A   1      38.641  32.068  33.886  1.00  0.00     0.049 A 
ATOM     43  H   UNL A   1      39.387  30.807  32.407  1.00  0.00     0.167 HD
ATOM     44  C   UNL A   1      40.858  28.269  29.096  1.00  0.00     0.037 A 
ATOM     45  C   UNL A   1      39.383  31.846  34.987  1.00  0.00     0.037 A 
ATOM     46  C   UNL A   1      41.741  28.015  30.202  1.00  0.00     0.049 A 
ATOM     47  C   UNL A   1      40.508  30.849  34.913  1.00  0.00     0.074 A 
ATOM     48  C   UNL A   1      42.840  27.177  30.257  1.00  0.00     0.029 A 
ATOM     49  N   UNL A   1      41.615  28.596  31.456  1.00  0.00    -0.354 N 
ATOM     50  N   UNL A   1      40.911  30.128  33.894  1.00  0.00    -0.248 NA
ATOM     51  C   UNL A   1      41.289  30.642  36.140  1.00  0.00     0.031 C 
ATOM     52  C   UNL A   1      43.344  27.209  31.561  1.00  0.00     0.029 A 
ATOM     53  C   UNL A   1      42.601  28.117  32.301  1.00  0.00     0.049 A 
ATOM     54  H   UNL A   1      40.925  29.252  31.709  1.00  0.00     0.167 HD
ATOM     55  C   UNL A   1      42.011  29.409  34.342  1.00  0.00     0.074 A 
ATOM     56  C   UNL A   1      42.216  29.789  35.727  1.00  0.00     0.031 C 
ATOM     57  C   UNL A   1      42.787  28.519  33.673  1.00  0.00     0.037 A 
BRANCH  44  58
ATOM     58  C   UNL A   1      41.074  27.533  27.804  1.00  0.00     0.057 A 
ATOM     59  C   UNL A   1      40.508  26.274  27.557  1.00  0.00     0.134 A 
ATOM     60  C   UNL A   1      41.869  28.090  26.794  1.00  0.00     0.134 A 
ATOM     61  F   UNL A   1      39.753  25.673  28.489  1.00  0.00    -0.206 F 
ATOM     62  C   UNL A   1      40.750  25.584  26.368  1.00  0.00     0.040 A 
ATOM     63  C   UNL A   1      42.093  27.423  25.588  1.00  0.00     0.040 A 
ATOM     64  F   UNL A   1      42.444  29.290  26.963  1.00  0.00    -0.206 F 
ATOM     65  C   UNL A   1      41.541  26.161  25.376  1.00  0.00     0.006 A 
ENDBRANCH  44  58
BRANCH  45  66
ATOM     66  C   UNL A   1      39.083  32.579  36.243  1.00  0.00     0.057 A 
ATOM     67  C   UNL A   1      39.628  33.843  36.499  1.00  0.00     0.134 A 
ATOM     68  C   UNL A   1      38.242  32.032  37.220  1.00  0.00     0.134 A 
ATOM     69  F   UNL A   1      40.454  34.414  35.611  1.00  0.00    -0.206 F 
ATOM     70  C   UNL A   1      39.360  34.528  37.686  1.00  0.00     0.040 A 
ATOM     71  C   UNL A   1      37.944  32.716  38.398  1.00  0.00     0.040 A 
ATOM     72  F   UNL A   1      37.683  30.827  37.033  1.00  0.00    -0.206 F 
ATOM     73  C   UNL A   1      38.511  33.966  38.637  1.00  0.00     0.006 A 
ENDBRANCH  45  66
BRANCH  57  74
ATOM     74  C   UNL A   1      43.957  27.939  34.414  1.00  0.00     0.057 A 
ATOM     75  C   UNL A   1      45.203  28.576  34.458  1.00  0.00     0.134 A 
ATOM     76  C   UNL A   1      43.819  26.739  35.124  1.00  0.00     0.134 A 
ATOM     77  F   UNL A   1      45.405  29.724  33.792  1.00  0.00    -0.206 F 
ATOM     78  C   UNL A   1      46.279  28.026  35.157  1.00  0.00     0.040 A 
ATOM     79  C   UNL A   1      44.877  26.195  35.853  1.00  0.00     0.040 A 
ATOM     80  F   UNL A   1      42.649  26.083  35.135  1.00  0.00    -0.206 F 
ATOM     81  C   UNL A   1      46.114  26.835  35.863  1.00  0.00     0.006 A 
ENDBRANCH  57  74
ENDBRANCH  31  32
ENDBRANCH  24  26
ENDBRANCH  23  24
ENDBRANCH  22  23
ENDBRANCH  21  22
ENDBRANCH  20  21
ENDBRANCH   1  20
TORSDOF 19
ENDMDL
MODEL 2
REMARK VINA RESULT:      -9.6      5.389      9.468
REMARK SMILES C=CCN(CC(=O)OCCOCCOC(=O)c1ccc(-c2c3nc(c(-c4c(F)cccc4F)c4ccc([nH]4)c(-c4c(F)cccc4F)c4nc(c(-c5c(F)cccc5F)c5ccc2[nH]5)C=C4)C=C3)cc1)C(=O)NC1CCCC1
REMARK SMILES IDX 10 1 9 2 8 3 6 4 7 5 5 6 4 7 3 8 2 9 1 10 71 11 72 12 73 13
REMARK SMILES IDX 74 15 75 16 78 17 76 18 77 19 11 20 12 21 13 22 14 23 15 24
REMARK SMILES IDX 16 25 17 26 18 27 70 28 19 29 69 30 20 31 21 32 22 33 63 34
REMARK SMILES IDX 23 35 68 36 62 37 64 38 24 39 67 40 61 41 60 42 25 44 51 45
REMARK SMILES IDX 34 46 50 47 35 48 38 49 49 50 65 51 36 52 37 53 48 55 66 56
REMARK SMILES IDX 39 57 26 58 27 59 32 60 28 61 29 62 31 63 33 64 30 65 52 66
REMARK SMILES IDX 53 67 58 68 54 69 55 70 57 71 59 72 56 73 40 74 41 75 46 76
REMARK SMILES IDX 42 77 43 78 45 79 47 80 44 81
REMARK H PARENT 73 14 64 43 38 54
REMARK Flexibility Score: inf
ROOT
ATOM      1  C   UNL A   1      38.019  21.764  25.448  1.00  0.00     0.202 C 
ENDROOT
BRANCH   1   2
ATOM      2  C   UNL A   1      37.279  23.034  25.009  1.00  0.00     0.261 C 
BRANCH   2   3
ATOM      3  O   UNL A   1      36.208  23.401  25.919  1.00  0.00    -0.462 OA
BRANCH   3   4
ATOM      4  C   UNL A   1      35.013  23.624  25.305  1.00  0.00     0.325 C 
ATOM      5  O   UNL A   1      34.364  24.660  25.442  1.00  0.00    -0.250 OA
BRANCH   4   6
ATOM      6  C   UNL A   1      34.471  22.460  24.463  1.00  0.00     0.244 C 
BRANCH   6   7
ATOM      7  N   UNL A   1      33.413  21.571  24.946  1.00  0.00    -0.310 N 
BRANCH   7   8
ATOM      8  C   UNL A   1      32.288  21.407  24.016  1.00  0.00     0.149 C 
BRANCH   8   9
ATOM      9  C   UNL A   1      32.036  22.729  23.325  1.00  0.00    -0.013 C 
ATOM     10  C   UNL A   1      30.992  23.527  23.595  1.00  0.00     0.006 C 
ENDBRANCH   8   9
ENDBRANCH   7   8
BRANCH   7  11
ATOM     11  C   UNL A   1      33.426  20.689  25.987  1.00  0.00     0.318 C 
ATOM     12  O   UNL A   1      33.797  21.036  27.116  1.00  0.00    -0.249 OA
ATOM     13  N   UNL A   1      32.963  19.430  25.956  1.00  0.00    -0.335 N 
ATOM     14  H   UNL A   1      32.493  19.215  26.795  1.00  0.00     0.165 HD
BRANCH  13  15
ATOM     15  C   UNL A   1      32.946  18.288  25.059  1.00  0.00     0.083 C 
ATOM     16  C   UNL A   1      34.295  18.103  24.353  1.00  0.00     0.025 C 
ATOM     17  C   UNL A   1      32.674  16.904  25.619  1.00  0.00     0.025 C 
ATOM     18  C   UNL A   1      34.126  16.756  23.670  1.00  0.00     0.002 C 
ATOM     19  C   UNL A   1      33.379  15.915  24.693  1.00  0.00     0.002 C 
ENDBRANCH  13  15
ENDBRANCH   7  11
ENDBRANCH   6   7
ENDBRANCH   4   6
ENDBRANCH   3   4
ENDBRANCH   2   3
ENDBRANCH   1   2
BRANCH   1  20
ATOM     20  O   UNL A   1      37.776  20.560  24.716  1.00  0.00    -0.374 OA
BRANCH  20  21
ATOM     21  C   UNL A   1      38.507  19.413  25.124  1.00  0.00     0.202 C 
BRANCH  21  22
ATOM     22  C   UNL A   1      39.726  19.620  26.033  1.00  0.00     0.261 C 
BRANCH  22  23
ATOM     23  O   UNL A   1      40.966  19.442  25.348  1.00  0.00    -0.460 OA
BRANCH  23  24
ATOM     24  C   UNL A   1      42.049  19.640  26.131  1.00  0.00     0.338 C 
ATOM     25  O   UNL A   1      43.011  18.901  26.290  1.00  0.00    -0.246 OA
BRANCH  24  26
ATOM     26  C   UNL A   1      42.023  21.016  26.636  1.00  0.00     0.060 A 
ATOM     27  C   UNL A   1      41.795  22.028  25.696  1.00  0.00     0.016 A 
ATOM     28  C   UNL A   1      42.236  21.312  27.984  1.00  0.00     0.016 A 
ATOM     29  C   UNL A   1      41.834  23.355  26.091  1.00  0.00     0.010 A 
ATOM     30  C   UNL A   1      42.293  22.649  28.379  1.00  0.00     0.010 A 
ATOM     31  C   UNL A   1      42.138  23.669  27.421  1.00  0.00    -0.014 A 
BRANCH  31  32
ATOM     32  C   UNL A   1      42.506  25.063  27.736  1.00  0.00     0.031 A 
ATOM     33  C   UNL A   1      43.871  25.540  27.332  1.00  0.00     0.074 A 
ATOM     34  C   UNL A   1      41.609  25.899  28.282  1.00  0.00     0.049 A 
ATOM     35  N   UNL A   1      44.407  26.726  27.457  1.00  0.00    -0.248 NA
ATOM     36  C   UNL A   1      44.752  24.544  26.699  1.00  0.00     0.031 C 
ATOM     37  C   UNL A   1      40.242  25.541  28.659  1.00  0.00     0.029 A 
ATOM     38  N   UNL A   1      41.713  27.225  28.602  1.00  0.00    -0.354 N 
ATOM     39  C   UNL A   1      45.685  26.616  26.921  1.00  0.00     0.074 A 
ATOM     40  C   UNL A   1      45.860  25.243  26.508  1.00  0.00     0.031 C 
ATOM     41  C   UNL A   1      39.633  26.628  29.162  1.00  0.00     0.029 A 
ATOM     42  C   UNL A   1      40.575  27.744  29.167  1.00  0.00     0.049 A 
ATOM     43  H   UNL A   1      42.527  27.757  28.444  1.00  0.00     0.167 HD
ATOM     44  C   UNL A   1      46.622  27.582  26.778  1.00  0.00     0.037 A 
ATOM     45  C   UNL A   1      40.335  28.980  29.642  1.00  0.00     0.037 A 
ATOM     46  C   UNL A   1      46.432  28.943  27.201  1.00  0.00     0.049 A 
ATOM     47  C   UNL A   1      41.417  30.021  29.533  1.00  0.00     0.074 A 
ATOM     48  C   UNL A   1      47.310  30.007  27.109  1.00  0.00     0.029 A 
ATOM     49  N   UNL A   1      45.280  29.423  27.808  1.00  0.00    -0.354 N 
ATOM     50  N   UNL A   1      42.618  29.916  29.014  1.00  0.00    -0.248 NA
ATOM     51  C   UNL A   1      41.108  31.354  30.065  1.00  0.00     0.031 C 
ATOM     52  C   UNL A   1      46.709  31.118  27.710  1.00  0.00     0.029 A 
ATOM     53  C   UNL A   1      45.432  30.763  28.118  1.00  0.00     0.049 A 
ATOM     54  H   UNL A   1      44.473  28.889  27.991  1.00  0.00     0.167 HD
ATOM     55  C   UNL A   1      43.195  31.174  29.124  1.00  0.00     0.074 A 
ATOM     56  C   UNL A   1      42.205  32.028  29.752  1.00  0.00     0.031 C 
ATOM     57  C   UNL A   1      44.426  31.591  28.737  1.00  0.00     0.037 A 
BRANCH  44  58
ATOM     58  C   UNL A   1      47.940  27.179  26.181  1.00  0.00     0.057 A 
ATOM     59  C   UNL A   1      48.183  27.229  24.801  1.00  0.00     0.134 A 
ATOM     60  C   UNL A   1      48.981  26.724  27.001  1.00  0.00     0.134 A 
ATOM     61  F   UNL A   1      47.223  27.635  23.957  1.00  0.00    -0.206 F 
ATOM     62  C   UNL A   1      49.399  26.814  24.257  1.00  0.00     0.040 A 
ATOM     63  C   UNL A   1      50.212  26.335  26.471  1.00  0.00     0.040 A 
ATOM     64  F   UNL A   1      48.818  26.648  28.330  1.00  0.00    -0.206 F 
ATOM     65  C   UNL A   1      50.421  26.369  25.094  1.00  0.00     0.006 A 
ENDBRANCH  44  58
BRANCH  45  66
ATOM     66  C   UNL A   1      39.022  29.294  30.260  1.00  0.00     0.057 A 
ATOM     67  C   UNL A   1      37.972  29.835  29.510  1.00  0.00     0.134 A 
ATOM     68  C   UNL A   1      38.786  29.060  31.621  1.00  0.00     0.134 A 
ATOM     69  F   UNL A   1      38.140  30.098  28.206  1.00  0.00    -0.206 F 
ATOM     70  C   UNL A   1      36.742  30.146  30.092  1.00  0.00     0.040 A 
ATOM     71  C   UNL A   1      37.553  29.341  32.210  1.00  0.00     0.040 A 
ATOM     72  F   UNL A   1      39.750  28.538  32.395  1.00  0.00    -0.206 F 
ATOM     73  C   UNL A   1      36.528  29.894  31.446  1.00  0.00     0.006 A 
ENDBRANCH  45  66
BRANCH  57  74
ATOM     74  C   UNL A   1      44.751  33.045  28.935  1.00  0.00     0.057 A 
ATOM     75  C   UNL A   1      44.431  34.018  27.980  1.00  0.00     0.134 A 
ATOM     76  C   UNL A   1      45.360  33.478  30.120  1.00  0.00     0.134 A 
ATOM     77  F   UNL A   1      43.855  33.668  26.819  1.00  0.00    -0.206 F 
ATOM     78  C   UNL A   1      44.734  35.365  28.183  1.00  0.00     0.040 A 
ATOM     79  C   UNL A   1      45.638  34.825  30.349  1.00  0.00     0.040 A 
ATOM     80  F   UNL A   1      45.681  32.600  31.083  1.00  0.00    -0.206 F 
ATOM     81  C   UNL A   1      45.334  35.772  29.374  1.00  0.00     0.006 A 
ENDBRANCH  57  74
ENDBRANCH  31  32
ENDBRANCH  24  26
ENDBRANCH  23  24
ENDBRANCH  22  23
ENDBRANCH  21  22
ENDBRANCH  20  21
ENDBRANCH   1  20
TORSDOF 19
ENDMDL
MODEL 3
REMARK VINA RESULT:      -9.5      1.008      6.529
REMARK SMILES C=CCN(CC(=O)OCCOCCOC(=O)c1ccc(-c2c3nc(c(-c4c(F)cccc4F)c4ccc([nH]4)c(-c4c(F)cccc4F)c4nc(c(-c5c(F)cccc5F)c5ccc2[nH]5)C=C4)C=C3)cc1)C(=O)NC1CCCC1
REMARK SMILES IDX 10 1 9 2 8 3 6 4 7 5 5 6 4 7 3 8 2 9 1 10 71 11 72 12 73 13
REMARK SMILES IDX 74 15 75 16 78 17 76 18 77 19 11 20 12 21 13 22 14 23 15 24
REMARK SMILES IDX 16 25 17 26 18 27 70 28 19 29 69 30 20 31 21 32 22 33 63 34
REMARK SMILES IDX 23 35 68 36 62 37 64 38 24 39 67 40 61 41 60 42 25 44 51 45
REMARK SMILES IDX 34 46 50 47 35 48 38 49 49 50 65 51 36 52 37 53 48 55 66 56
REMARK SMILES IDX 39 57 26 58 27 59 32 60 28 61 29 62 31 63 33 64 30 65 52 66
REMARK SMILES IDX 53 67 58 68 54 69 55 70 57 71 59 72 56 73 40 74 41 75 46 76
REMARK SMILES IDX 42 77 43 78 45 79 47 80 44 81
REMARK H PARENT 73 14 64 43 38 54
REMARK Flexibility Score: inf
ROOT
ATOM      1  C   UNL A   1      33.307  29.518  26.667  1.00  0.00     0.202 C 
ENDROOT
BRANCH   1   2
ATOM      2  C   UNL A   1      32.988  28.700  25.409  1.00  0.00     0.261 C 
BRANCH   2   3
ATOM      3  O   UNL A   1      32.688  27.310  25.705  1.00  0.00    -0.462 OA
BRANCH   3   4
ATOM      4  C   UNL A   1      31.406  27.096  26.110  1.00  0.00     0.325 C 
ATOM      5  O   UNL A   1      31.035  27.218  27.277  1.00  0.00    -0.250 OA
BRANCH   4   6
ATOM      6  C   UNL A   1      30.436  26.618  25.020  1.00  0.00     0.244 C 
BRANCH   6   7
ATOM      7  N   UNL A   1      30.857  26.408  23.634  1.00  0.00    -0.310 N 
BRANCH   7   8
ATOM      8  C   UNL A   1      30.660  25.039  23.141  1.00  0.00     0.149 C 
BRANCH   8   9
ATOM      9  C   UNL A   1      31.776  24.167  23.674  1.00  0.00    -0.013 C 
ATOM     10  C   UNL A   1      31.759  22.826  23.641  1.00  0.00     0.006 C 
ENDBRANCH   8   9
ENDBRANCH   7   8
BRANCH   7  11
ATOM     11  C   UNL A   1      31.160  27.323  22.669  1.00  0.00     0.318 C 
ATOM     12  O   UNL A   1      32.261  27.318  22.102  1.00  0.00    -0.249 OA
ATOM     13  N   UNL A   1      30.317  28.233  22.157  1.00  0.00    -0.335 N 
ATOM     14  H   UNL A   1      30.452  28.318  21.185  1.00  0.00     0.165 HD
BRANCH  13  15
ATOM     15  C   UNL A   1      29.266  29.130  22.604  1.00  0.00     0.083 C 
ATOM     16  C   UNL A   1      29.798  30.182  23.585  1.00  0.00     0.025 C 
ATOM     17  C   UNL A   1      28.525  29.976  21.584  1.00  0.00     0.025 C 
ATOM     18  C   UNL A   1      28.616  31.125  23.729  1.00  0.00     0.002 C 
ATOM     19  C   UNL A   1      28.053  31.228  22.320  1.00  0.00     0.002 C 
ENDBRANCH  13  15
ENDBRANCH   7  11
ENDBRANCH   6   7
ENDBRANCH   4   6
ENDBRANCH   3   4
ENDBRANCH   2   3
ENDBRANCH   1   2
BRANCH   1  20
ATOM     20  O   UNL A   1      32.258  30.303  27.239  1.00  0.00    -0.374 OA
BRANCH  20  21
ATOM     21  C   UNL A   1      31.821  31.424  26.484  1.00  0.00     0.202 C 
BRANCH  21  22
ATOM     22  C   UNL A   1      31.689  32.772  27.205  1.00  0.00     0.261 C 
BRANCH  22  23
ATOM     23  O   UNL A   1      32.884  33.550  27.153  1.00  0.00    -0.460 OA
BRANCH  23  24
ATOM     24  C   UNL A   1      33.361  33.889  28.370  1.00  0.00     0.338 C 
ATOM     25  O   UNL A   1      32.805  34.542  29.243  1.00  0.00    -0.246 OA
BRANCH  24  26
ATOM     26  C   UNL A   1      34.614  33.165  28.607  1.00  0.00     0.060 A 
ATOM     27  C   UNL A   1      34.503  31.863  29.111  1.00  0.00     0.016 A 
ATOM     28  C   UNL A   1      35.860  33.746  28.364  1.00  0.00     0.016 A 
ATOM     29  C   UNL A   1      35.647  31.150  29.430  1.00  0.00     0.010 A 
ATOM     30  C   UNL A   1      37.011  33.035  28.703  1.00  0.00     0.010 A 
ATOM     31  C   UNL A   1      36.901  31.756  29.278  1.00  0.00    -0.014 A 
BRANCH  31  32
ATOM     32  C   UNL A   1      38.059  31.119  29.934  1.00  0.00     0.031 A 
ATOM     33  C   UNL A   1      38.311  31.430  31.381  1.00  0.00     0.074 A 
ATOM     34  C   UNL A   1      38.806  30.218  29.276  1.00  0.00     0.049 A 
ATOM     35  N   UNL A   1      39.231  30.963  32.184  1.00  0.00    -0.248 NA
ATOM     36  C   UNL A   1      37.397  32.399  32.010  1.00  0.00     0.031 C 
ATOM     37  C   UNL A   1      38.606  29.811  27.885  1.00  0.00     0.029 A 
ATOM     38  N   UNL A   1      39.875  29.475  29.697  1.00  0.00    -0.354 N 
ATOM     39  C   UNL A   1      39.007  31.584  33.407  1.00  0.00     0.074 A 
ATOM     40  C   UNL A   1      37.894  32.488  33.233  1.00  0.00     0.031 C 
ATOM     41  C   UNL A   1      39.528  28.887  27.568  1.00  0.00     0.029 A 
ATOM     42  C   UNL A   1      40.395  28.662  28.721  1.00  0.00     0.049 A 
ATOM     43  H   UNL A   1      40.237  29.519  30.611  1.00  0.00     0.167 HD
ATOM     44  C   UNL A   1      39.669  31.403  34.574  1.00  0.00     0.037 A 
ATOM     45  C   UNL A   1      41.461  27.840  28.762  1.00  0.00     0.037 A 
ATOM     46  C   UNL A   1      40.779  30.502  34.728  1.00  0.00     0.049 A 
ATOM     47  C   UNL A   1      42.222  27.705  30.054  1.00  0.00     0.074 A 
ATOM     48  C   UNL A   1      41.527  30.237  35.860  1.00  0.00     0.029 A 
ATOM     49  N   UNL A   1      41.306  29.724  33.706  1.00  0.00    -0.354 N 
ATOM     50  N   UNL A   1      42.000  28.283  31.210  1.00  0.00    -0.248 NA
ATOM     51  C   UNL A   1      43.376  26.797  30.049  1.00  0.00     0.031 C 
ATOM     52  C   UNL A   1      42.542  29.341  35.509  1.00  0.00     0.029 A 
ATOM     53  C   UNL A   1      42.385  28.996  34.174  1.00  0.00     0.049 A 
ATOM     54  H   UNL A   1      40.963  29.695  32.783  1.00  0.00     0.167 HD
ATOM     55  C   UNL A   1      42.961  27.784  32.080  1.00  0.00     0.074 A 
ATOM     56  C   UNL A   1      43.763  26.848  31.315  1.00  0.00     0.031 C 
ATOM     57  C   UNL A   1      43.161  28.066  33.392  1.00  0.00     0.037 A 
BRANCH  44  58
ATOM     58  C   UNL A   1      39.229  32.228  35.749  1.00  0.00     0.057 A 
ATOM     59  C   UNL A   1      39.705  33.529  35.970  1.00  0.00     0.134 A 
ATOM     60  C   UNL A   1      38.320  31.710  36.680  1.00  0.00     0.134 A 
ATOM     61  F   UNL A   1      40.593  34.080  35.129  1.00  0.00    -0.206 F 
ATOM     62  C   UNL A   1      39.318  34.269  37.088  1.00  0.00     0.040 A 
ATOM     63  C   UNL A   1      37.902  32.452  37.786  1.00  0.00     0.040 A 
ATOM     64  F   UNL A   1      37.825  30.472  36.533  1.00  0.00    -0.206 F 
ATOM     65  C   UNL A   1      38.409  33.733  37.998  1.00  0.00     0.006 A 
ENDBRANCH  44  58
BRANCH  45  66
ATOM     66  C   UNL A   1      41.864  27.088  27.547  1.00  0.00     0.057 A 
ATOM     67  C   UNL A   1      41.444  25.771  27.330  1.00  0.00     0.134 A 
ATOM     68  C   UNL A   1      42.682  27.672  26.571  1.00  0.00     0.134 A 
ATOM     69  F   UNL A   1      40.673  25.150  28.234  1.00  0.00    -0.206 F 
ATOM     70  C   UNL A   1      41.834  25.057  26.195  1.00  0.00     0.040 A 
ATOM     71  C   UNL A   1      43.058  26.979  25.420  1.00  0.00     0.040 A 
ATOM     72  F   UNL A   1      43.114  28.933  26.716  1.00  0.00    -0.206 F 
ATOM     73  C   UNL A   1      42.639  25.663  25.234  1.00  0.00     0.006 A 
ENDBRANCH  45  66
BRANCH  57  74
ATOM     74  C   UNL A   1      44.257  27.315  34.094  1.00  0.00     0.057 A 
ATOM     75  C   UNL A   1      44.047  26.059  34.676  1.00  0.00     0.134 A 
ATOM     76  C   UNL A   1      45.552  27.846  34.152  1.00  0.00     0.134 A 
ATOM     77  F   UNL A   1      42.828  25.498  34.663  1.00  0.00    -0.206 F 
ATOM     78  C   UNL A   1      45.079  25.373  35.319  1.00  0.00     0.040 A 
ATOM     79  C   UNL A   1      46.599  27.156  34.762  1.00  0.00     0.040 A 
ATOM     80  F   UNL A   1      45.826  29.040  33.602  1.00  0.00    -0.206 F 
ATOM     81  C   UNL A   1      46.361  25.919  35.357  1.00  0.00     0.006 A 
ENDBRANCH  57  74
ENDBRANCH  31  32
ENDBRANCH  24  26
ENDBRANCH  23  24
ENDBRANCH  22  23
ENDBRANCH  21  22
ENDBRANCH  20  21
ENDBRANCH   1  20
TORSDOF 19
ENDMDL
