MODEL 1
REMARK VINA RESULT:     -10.9      0.000      0.000
REMARK SMILES CN(C)c1oc(/C=N/c2ccc(O)c(C(=O)OCCOCCOC(=O)c3ccc(-c4c5nc(c(-c6c(F)cccc6F)c6ccc([nH]6)c(-c6c(F)cccc6F)c6nc(c(-c7c(F)cccc7F)c7ccc4[nH]7)C=C6)C=C5)cc3)c2)cc1Br
REMARK SMILES IDX 19 1 18 2 17 3 15 4 16 5 14 6 9 7 10 8 80 9 11 10 12 11 8 12
REMARK SMILES IDX 7 13 6 14 4 15 5 16 82 17 81 18 83 19 2 20 1 21 3 22 13 23
REMARK SMILES IDX 20 25 21 26 22 27 23 28 24 29 25 30 26 31 27 32 79 33 28 34
REMARK SMILES IDX 78 35 29 36 30 37 31 38 72 39 32 40 77 41 71 42 73 43 33 44
REMARK SMILES IDX 76 45 70 46 69 47 34 49 60 50 43 51 59 52 44 53 47 54 58 55
REMARK SMILES IDX 74 56 45 57 46 58 57 60 75 61 48 62 35 63 36 64 41 65 37 66
REMARK SMILES IDX 38 67 40 68 42 69 39 70 61 71 62 72 67 73 63 74 64 75 66 76
REMARK SMILES IDX 68 77 65 78 49 79 50 80 55 81 51 82 52 83 54 84 56 85 53 86
REMARK H PARENT 13 24 73 48 47 59
REMARK Flexibility Score: inf
ROOT
ATOM      1  C   UNL A   1      33.167  36.013  30.829  1.00  0.00     0.202 C 
ENDROOT
BRANCH   1   2
ATOM      2  C   UNL A   1      33.111  35.488  29.393  1.00  0.00     0.261 C 
BRANCH   2   3
ATOM      3  O   UNL A   1      33.368  34.074  29.378  1.00  0.00    -0.460 OA
BRANCH   3   4
ATOM      4  C   UNL A   1      33.071  33.431  28.224  1.00  0.00     0.342 C 
ATOM      5  O   UNL A   1      32.231  33.763  27.401  1.00  0.00    -0.246 OA
BRANCH   4   6
ATOM      6  C   UNL A   1      34.048  32.351  27.963  1.00  0.00     0.103 A 
ATOM      7  C   UNL A   1      34.341  30.002  27.403  1.00  0.00     0.064 A 
ATOM      8  C   UNL A   1      35.725  30.186  27.409  1.00  0.00     0.032 A 
ATOM      9  C   UNL A   1      33.510  31.087  27.680  1.00  0.00     0.048 A 
ATOM     10  C   UNL A   1      36.275  31.441  27.689  1.00  0.00     0.049 A 
ATOM     11  C   UNL A   1      35.435  32.526  27.958  1.00  0.00     0.130 A 
BRANCH   7  12
ATOM     12  N   UNL A   1      33.774  28.782  27.024  1.00  0.00    -0.253 NA
ATOM     13  C   UNL A   1      34.023  28.355  25.827  1.00  0.00     0.158 C 
BRANCH  13  14
ATOM     14  C   UNL A   1      33.482  27.098  25.394  1.00  0.00     0.149 A 
ATOM     15  C   UNL A   1      32.777  25.018  25.672  1.00  0.00     0.210 A 
ATOM     16  O   UNL A   1      33.234  26.133  26.328  1.00  0.00    -0.438 OA
ATOM     17  C   UNL A   1      32.698  25.312  24.323  1.00  0.00     0.082 A 
ATOM     18  C   UNL A   1      33.140  26.636  24.142  1.00  0.00     0.070 A 
ATOM     19  Br  UNL A   1      32.086  24.264  22.892  1.00  0.00    -0.045 Br
BRANCH  15  20
ATOM     20  N   UNL A   1      32.534  23.924  26.437  1.00  0.00    -0.348 N 
ATOM     21  C   UNL A   1      33.609  23.072  26.905  1.00  0.00     0.146 C 
ATOM     22  C   UNL A   1      31.165  23.554  26.754  1.00  0.00     0.146 C 
ENDBRANCH  15  20
ENDBRANCH  13  14
ENDBRANCH   7  12
BRANCH  11  23
ATOM     23  O   UNL A   1      35.989  33.744  28.230  1.00  0.00    -0.507 OA
ATOM     24  H   UNL A   1      36.412  33.894  29.053  1.00  0.00     0.293 HD
ENDBRANCH  11  23
ENDBRANCH   4   6
ENDBRANCH   3   4
ENDBRANCH   2   3
ENDBRANCH   1   2
BRANCH   1  25
ATOM     25  O   UNL A   1      33.031  35.017  31.845  1.00  0.00    -0.374 OA
BRANCH  25  26
ATOM     26  C   UNL A   1      34.184  34.765  32.652  1.00  0.00     0.202 C 
BRANCH  26  27
ATOM     27  C   UNL A   1      34.223  33.387  33.326  1.00  0.00     0.261 C 
BRANCH  27  28
ATOM     28  O   UNL A   1      35.137  32.490  32.669  1.00  0.00    -0.460 OA
BRANCH  28  29
ATOM     29  C   UNL A   1      36.291  32.261  33.337  1.00  0.00     0.338 C 
ATOM     30  O   UNL A   1      36.525  32.489  34.516  1.00  0.00    -0.246 OA
BRANCH  29  31
ATOM     31  C   UNL A   1      37.240  31.531  32.474  1.00  0.00     0.060 A 
ATOM     32  C   UNL A   1      38.200  30.729  33.103  1.00  0.00     0.016 A 
ATOM     33  C   UNL A   1      37.239  31.680  31.085  1.00  0.00     0.016 A 
ATOM     34  C   UNL A   1      39.195  30.110  32.349  1.00  0.00     0.010 A 
ATOM     35  C   UNL A   1      38.243  31.062  30.330  1.00  0.00     0.010 A 
ATOM     36  C   UNL A   1      39.244  30.303  30.962  1.00  0.00    -0.014 A 
BRANCH  36  37
ATOM     37  C   UNL A   1      40.419  29.821  30.196  1.00  0.00     0.031 A 
ATOM     38  C   UNL A   1      41.576  30.754  29.965  1.00  0.00     0.074 A 
ATOM     39  C   UNL A   1      40.468  28.560  29.730  1.00  0.00     0.049 A 
ATOM     40  N   UNL A   1      42.684  30.555  29.299  1.00  0.00    -0.248 NA
ATOM     41  C   UNL A   1      41.466  32.093  30.565  1.00  0.00     0.031 C 
ATOM     42  C   UNL A   1      39.430  27.550  29.917  1.00  0.00     0.029 A 
ATOM     43  N   UNL A   1      41.436  27.919  28.998  1.00  0.00    -0.354 N 
ATOM     44  C   UNL A   1      43.401  31.741  29.395  1.00  0.00     0.074 A 
ATOM     45  C   UNL A   1      42.590  32.665  30.157  1.00  0.00     0.031 C 
ATOM     46  C   UNL A   1      39.812  26.415  29.306  1.00  0.00     0.029 A 
ATOM     47  C   UNL A   1      41.106  26.630  28.661  1.00  0.00     0.049 A 
ATOM     48  H   UNL A   1      42.286  28.344  28.738  1.00  0.00     0.167 HD
ATOM     49  C   UNL A   1      44.628  32.031  28.901  1.00  0.00     0.037 A 
ATOM     50  C   UNL A   1      41.767  25.732  27.904  1.00  0.00     0.037 A 
ATOM     51  C   UNL A   1      45.438  31.111  28.146  1.00  0.00     0.049 A 
ATOM     52  C   UNL A   1      43.100  26.100  27.311  1.00  0.00     0.074 A 
ATOM     53  C   UNL A   1      46.704  31.306  27.622  1.00  0.00     0.029 A 
ATOM     54  N   UNL A   1      45.056  29.823  27.802  1.00  0.00    -0.354 N 
ATOM     55  N   UNL A   1      43.780  27.215  27.429  1.00  0.00    -0.248 NA
ATOM     56  C   UNL A   1      43.760  25.083  26.479  1.00  0.00     0.031 C 
ATOM     57  C   UNL A   1      47.070  30.152  26.921  1.00  0.00     0.029 A 
ATOM     58  C   UNL A   1      46.052  29.222  27.050  1.00  0.00     0.049 A 
ATOM     59  H   UNL A   1      44.204  29.401  28.054  1.00  0.00     0.167 HD
ATOM     60  C   UNL A   1      44.955  27.024  26.712  1.00  0.00     0.074 A 
ATOM     61  C   UNL A   1      44.902  25.682  26.171  1.00  0.00     0.031 C 
ATOM     62  C   UNL A   1      45.988  27.882  26.523  1.00  0.00     0.037 A 
BRANCH  49  63
ATOM     63  C   UNL A   1      45.163  33.411  29.147  1.00  0.00     0.057 A 
ATOM     64  C   UNL A   1      45.942  33.713  30.271  1.00  0.00     0.134 A 
ATOM     65  C   UNL A   1      44.920  34.443  28.231  1.00  0.00     0.134 A 
ATOM     66  F   UNL A   1      46.199  32.773  31.193  1.00  0.00    -0.206 F 
ATOM     67  C   UNL A   1      46.444  34.997  30.487  1.00  0.00     0.040 A 
ATOM     68  C   UNL A   1      45.437  35.725  28.423  1.00  0.00     0.040 A 
ATOM     69  F   UNL A   1      44.185  34.218  27.132  1.00  0.00    -0.206 F 
ATOM     70  C   UNL A   1      46.196  36.006  29.557  1.00  0.00     0.006 A 
ENDBRANCH  49  63
BRANCH  50  71
ATOM     71  C   UNL A   1      41.173  24.395  27.650  1.00  0.00     0.057 A 
ATOM     72  C   UNL A   1      41.627  23.260  28.330  1.00  0.00     0.134 A 
ATOM     73  C   UNL A   1      40.153  24.220  26.708  1.00  0.00     0.134 A 
ATOM     74  F   UNL A   1      42.619  23.361  29.226  1.00  0.00    -0.206 F 
ATOM     75  C   UNL A   1      41.100  21.994  28.070  1.00  0.00     0.040 A 
ATOM     76  C   UNL A   1      39.600  22.965  26.455  1.00  0.00     0.040 A 
ATOM     77  F   UNL A   1      39.675  25.270  26.023  1.00  0.00    -0.206 F 
ATOM     78  C   UNL A   1      40.079  21.845  27.133  1.00  0.00     0.006 A 
ENDBRANCH  50  71
BRANCH  62  79
ATOM     79  C   UNL A   1      47.159  27.385  25.726  1.00  0.00     0.057 A 
ATOM     80  C   UNL A   1      47.263  27.607  24.348  1.00  0.00     0.134 A 
ATOM     81  C   UNL A   1      48.215  26.713  26.355  1.00  0.00     0.134 A 
ATOM     82  F   UNL A   1      46.280  28.233  23.683  1.00  0.00    -0.206 F 
ATOM     83  C   UNL A   1      48.366  27.160  23.619  1.00  0.00     0.040 A 
ATOM     84  C   UNL A   1      49.335  26.284  25.641  1.00  0.00     0.040 A 
ATOM     85  F   UNL A   1      48.182  26.477  27.675  1.00  0.00    -0.206 F 
ATOM     86  C   UNL A   1      49.410  26.502  24.268  1.00  0.00     0.006 A 
ENDBRANCH  62  79
ENDBRANCH  36  37
ENDBRANCH  29  31
ENDBRANCH  28  29
ENDBRANCH  27  28
ENDBRANCH  26  27
ENDBRANCH  25  26
ENDBRANCH   1  25
TORSDOF 18
ENDMDL
MODEL 2
REMARK VINA RESULT:     -10.8      1.486      2.302
REMARK SMILES CN(C)c1oc(/C=N/c2ccc(O)c(C(=O)OCCOCCOC(=O)c3ccc(-c4c5nc(c(-c6c(F)cccc6F)c6ccc([nH]6)c(-c6c(F)cccc6F)c6nc(c(-c7c(F)cccc7F)c7ccc4[nH]7)C=C6)C=C5)cc3)c2)cc1Br
REMARK SMILES IDX 19 1 18 2 17 3 15 4 16 5 14 6 9 7 10 8 80 9 11 10 12 11 8 12
REMARK SMILES IDX 7 13 6 14 4 15 5 16 82 17 81 18 83 19 2 20 1 21 3 22 13 23
REMARK SMILES IDX 20 25 21 26 22 27 23 28 24 29 25 30 26 31 27 32 79 33 28 34
REMARK SMILES IDX 78 35 29 36 30 37 31 38 72 39 32 40 77 41 71 42 73 43 33 44
REMARK SMILES IDX 76 45 70 46 69 47 34 49 60 50 43 51 59 52 44 53 47 54 58 55
REMARK SMILES IDX 74 56 45 57 46 58 57 60 75 61 48 62 35 63 36 64 41 65 37 66
REMARK SMILES IDX 38 67 40 68 42 69 39 70 61 71 62 72 67 73 63 74 64 75 66 76
REMARK SMILES IDX 68 77 65 78 49 79 50 80 55 81 51 82 52 83 54 84 56 85 53 86
REMARK H PARENT 13 24 73 48 47 59
REMARK Flexibility Score: inf
ROOT
ATOM      1  C   UNL A   1      33.889  36.549  31.728  1.00  0.00     0.202 C 
ENDROOT
BRANCH   1   2
ATOM      2  C   UNL A   1      32.513  36.386  31.077  1.00  0.00     0.261 C 
BRANCH   2   3
ATOM      3  O   UNL A   1      32.530  35.275  30.167  1.00  0.00    -0.460 OA
BRANCH   3   4
ATOM      4  C   UNL A   1      33.226  35.459  29.021  1.00  0.00     0.342 C 
ATOM      5  O   UNL A   1      33.484  36.529  28.489  1.00  0.00    -0.246 OA
BRANCH   4   6
ATOM      6  C   UNL A   1      33.834  34.187  28.569  1.00  0.00     0.103 A 
ATOM      7  C   UNL A   1      33.428  32.032  27.516  1.00  0.00     0.064 A 
ATOM      8  C   UNL A   1      34.789  31.738  27.623  1.00  0.00     0.032 A 
ATOM      9  C   UNL A   1      32.958  33.256  27.990  1.00  0.00     0.048 A 
ATOM     10  C   UNL A   1      35.672  32.657  28.198  1.00  0.00     0.049 A 
ATOM     11  C   UNL A   1      35.196  33.885  28.664  1.00  0.00     0.130 A 
BRANCH   7  12
ATOM     12  N   UNL A   1      32.551  31.170  26.853  1.00  0.00    -0.253 NA
ATOM     13  C   UNL A   1      33.060  30.126  26.279  1.00  0.00     0.158 C 
BRANCH  13  14
ATOM     14  C   UNL A   1      32.201  29.198  25.601  1.00  0.00     0.149 A 
ATOM     15  C   UNL A   1      30.665  28.603  24.122  1.00  0.00     0.210 A 
ATOM     16  O   UNL A   1      31.431  29.651  24.567  1.00  0.00    -0.438 OA
ATOM     17  C   UNL A   1      30.998  27.480  24.857  1.00  0.00     0.082 A 
ATOM     18  C   UNL A   1      31.979  27.852  25.795  1.00  0.00     0.070 A 
ATOM     19  Br  UNL A   1      30.383  25.713  24.709  1.00  0.00    -0.045 Br
BRANCH  15  20
ATOM     20  N   UNL A   1      29.782  28.879  23.128  1.00  0.00    -0.348 N 
ATOM     21  C   UNL A   1      28.439  28.335  23.134  1.00  0.00     0.146 C 
ATOM     22  C   UNL A   1      30.199  29.692  21.998  1.00  0.00     0.146 C 
ENDBRANCH  15  20
ENDBRANCH  13  14
ENDBRANCH   7  12
BRANCH  11  23
ATOM     23  O   UNL A   1      36.072  34.771  29.222  1.00  0.00    -0.507 OA
ATOM     24  H   UNL A   1      36.927  34.879  28.855  1.00  0.00     0.293 HD
ENDBRANCH  11  23
ENDBRANCH   4   6
ENDBRANCH   3   4
ENDBRANCH   2   3
ENDBRANCH   1   2
BRANCH   1  25
ATOM     25  O   UNL A   1      34.566  35.327  32.027  1.00  0.00    -0.374 OA
BRANCH  25  26
ATOM     26  C   UNL A   1      34.208  34.679  33.249  1.00  0.00     0.202 C 
BRANCH  26  27
ATOM     27  C   UNL A   1      34.152  33.147  33.187  1.00  0.00     0.261 C 
BRANCH  27  28
ATOM     28  O   UNL A   1      35.245  32.597  32.429  1.00  0.00    -0.460 OA
BRANCH  28  29
ATOM     29  C   UNL A   1      36.310  32.204  33.166  1.00  0.00     0.338 C 
ATOM     30  O   UNL A   1      36.453  32.304  34.378  1.00  0.00    -0.246 OA
BRANCH  29  31
ATOM     31  C   UNL A   1      37.269  31.469  32.320  1.00  0.00     0.060 A 
ATOM     32  C   UNL A   1      38.268  30.731  32.966  1.00  0.00     0.016 A 
ATOM     33  C   UNL A   1      37.239  31.554  30.926  1.00  0.00     0.016 A 
ATOM     34  C   UNL A   1      39.272  30.113  32.222  1.00  0.00     0.010 A 
ATOM     35  C   UNL A   1      38.251  30.938  30.181  1.00  0.00     0.010 A 
ATOM     36  C   UNL A   1      39.290  30.244  30.827  1.00  0.00    -0.014 A 
BRANCH  36  37
ATOM     37  C   UNL A   1      40.467  29.769  30.061  1.00  0.00     0.031 A 
ATOM     38  C   UNL A   1      41.602  30.721  29.799  1.00  0.00     0.074 A 
ATOM     39  C   UNL A   1      40.539  28.499  29.623  1.00  0.00     0.049 A 
ATOM     40  N   UNL A   1      42.709  30.529  29.126  1.00  0.00    -0.248 NA
ATOM     41  C   UNL A   1      41.470  32.071  30.369  1.00  0.00     0.031 C 
ATOM     42  C   UNL A   1      39.524  27.472  29.844  1.00  0.00     0.029 A 
ATOM     43  N   UNL A   1      41.514  27.862  28.897  1.00  0.00    -0.354 N 
ATOM     44  C   UNL A   1      43.402  31.731  29.189  1.00  0.00     0.074 A 
ATOM     45  C   UNL A   1      42.578  32.656  29.938  1.00  0.00     0.031 C 
ATOM     46  C   UNL A   1      39.924  26.332  29.255  1.00  0.00     0.029 A 
ATOM     47  C   UNL A   1      41.208  26.559  28.593  1.00  0.00     0.049 A 
ATOM     48  H   UNL A   1      42.352  28.298  28.621  1.00  0.00     0.167 HD
ATOM     49  C   UNL A   1      44.618  32.035  28.678  1.00  0.00     0.037 A 
ATOM     50  C   UNL A   1      41.881  25.657  27.851  1.00  0.00     0.037 A 
ATOM     51  C   UNL A   1      45.441  31.115  27.936  1.00  0.00     0.049 A 
ATOM     52  C   UNL A   1      43.201  26.039  27.238  1.00  0.00     0.074 A 
ATOM     53  C   UNL A   1      46.697  31.324  27.396  1.00  0.00     0.029 A 
ATOM     54  N   UNL A   1      45.083  29.812  27.625  1.00  0.00    -0.354 N 
ATOM     55  N   UNL A   1      43.858  27.171  27.324  1.00  0.00    -0.248 NA
ATOM     56  C   UNL A   1      43.874  25.017  26.423  1.00  0.00     0.031 C 
ATOM     57  C   UNL A   1      47.082  30.162  26.719  1.00  0.00     0.029 A 
ATOM     58  C   UNL A   1      46.084  29.214  26.878  1.00  0.00     0.049 A 
ATOM     59  H   UNL A   1      44.242  29.378  27.894  1.00  0.00     0.167 HD
ATOM     60  C   UNL A   1      45.031  26.987  26.601  1.00  0.00     0.074 A 
ATOM     61  C   UNL A   1      45.001  25.632  26.091  1.00  0.00     0.031 C 
ATOM     62  C   UNL A   1      46.044  27.862  26.382  1.00  0.00     0.037 A 
BRANCH  49  63
ATOM     63  C   UNL A   1      45.126  33.431  28.886  1.00  0.00     0.057 A 
ATOM     64  C   UNL A   1      45.886  33.782  30.010  1.00  0.00     0.134 A 
ATOM     65  C   UNL A   1      44.877  34.430  27.937  1.00  0.00     0.134 A 
ATOM     66  F   UNL A   1      46.148  32.875  30.964  1.00  0.00    -0.206 F 
ATOM     67  C   UNL A   1      46.363  35.081  30.192  1.00  0.00     0.040 A 
ATOM     68  C   UNL A   1      45.370  35.727  28.095  1.00  0.00     0.040 A 
ATOM     69  F   UNL A   1      44.160  34.159  26.836  1.00  0.00    -0.206 F 
ATOM     70  C   UNL A   1      46.109  36.056  29.228  1.00  0.00     0.006 A 
ENDBRANCH  49  63
BRANCH  50  71
ATOM     71  C   UNL A   1      41.313  24.303  27.634  1.00  0.00     0.057 A 
ATOM     72  C   UNL A   1      40.289  24.086  26.706  1.00  0.00     0.134 A 
ATOM     73  C   UNL A   1      41.768  23.199  28.364  1.00  0.00     0.134 A 
ATOM     74  F   UNL A   1      39.795  25.110  25.994  1.00  0.00    -0.206 F 
ATOM     75  C   UNL A   1      39.725  22.822  26.523  1.00  0.00     0.040 A 
ATOM     76  C   UNL A   1      41.230  21.926  28.175  1.00  0.00     0.040 A 
ATOM     77  F   UNL A   1      42.747  23.342  29.270  1.00  0.00    -0.206 F 
ATOM     78  C   UNL A   1      40.200  21.736  27.255  1.00  0.00     0.006 A 
ENDBRANCH  50  71
BRANCH  62  79
ATOM     79  C   UNL A   1      47.217  27.371  25.586  1.00  0.00     0.057 A 
ATOM     80  C   UNL A   1      48.278  26.680  26.183  1.00  0.00     0.134 A 
ATOM     81  C   UNL A   1      47.265  27.557  24.199  1.00  0.00     0.134 A 
ATOM     82  F   UNL A   1      48.300  26.480  27.509  1.00  0.00    -0.206 F 
ATOM     83  C   UNL A   1      49.356  26.208  25.431  1.00  0.00     0.040 A 
ATOM     84  C   UNL A   1      48.324  27.068  23.432  1.00  0.00     0.040 A 
ATOM     85  F   UNL A   1      46.276  28.203  23.563  1.00  0.00    -0.206 F 
ATOM     86  C   UNL A   1      49.377  26.396  24.050  1.00  0.00     0.006 A 
ENDBRANCH  62  79
ENDBRANCH  36  37
ENDBRANCH  29  31
ENDBRANCH  28  29
ENDBRANCH  27  28
ENDBRANCH  26  27
ENDBRANCH  25  26
ENDBRANCH   1  25
TORSDOF 18
ENDMDL
MODEL 3
REMARK VINA RESULT:     -10.4      4.907     10.514
REMARK SMILES CN(C)c1oc(/C=N/c2ccc(O)c(C(=O)OCCOCCOC(=O)c3ccc(-c4c5nc(c(-c6c(F)cccc6F)c6ccc([nH]6)c(-c6c(F)cccc6F)c6nc(c(-c7c(F)cccc7F)c7ccc4[nH]7)C=C6)C=C5)cc3)c2)cc1Br
REMARK SMILES IDX 19 1 18 2 17 3 15 4 16 5 14 6 9 7 10 8 80 9 11 10 12 11 8 12
REMARK SMILES IDX 7 13 6 14 4 15 5 16 82 17 81 18 83 19 2 20 1 21 3 22 13 23
REMARK SMILES IDX 20 25 21 26 22 27 23 28 24 29 25 30 26 31 27 32 79 33 28 34
REMARK SMILES IDX 78 35 29 36 30 37 31 38 72 39 32 40 77 41 71 42 73 43 33 44
REMARK SMILES IDX 76 45 70 46 69 47 34 49 60 50 43 51 59 52 44 53 47 54 58 55
REMARK SMILES IDX 74 56 45 57 46 58 57 60 75 61 48 62 35 63 36 64 41 65 37 66
REMARK SMILES IDX 38 67 40 68 42 69 39 70 61 71 62 72 67 73 63 74 64 75 66 76
REMARK SMILES IDX 68 77 65 78 49 79 50 80 55 81 51 82 52 83 54 84 56 85 53 86
REMARK H PARENT 13 24 73 48 47 59
REMARK Flexibility Score: inf
ROOT
ATOM      1  C   UNL A   1      40.020  21.914  26.849  1.00  0.00     0.202 C 
ENDROOT
BRANCH   1   2
ATOM      2  C   UNL A   1      39.425  20.985  25.787  1.00  0.00     0.261 C 
BRANCH   2   3
ATOM      3  O   UNL A   1      38.035  21.292  25.592  1.00  0.00    -0.460 OA
BRANCH   3   4
ATOM      4  C   UNL A   1      37.302  20.341  24.967  1.00  0.00     0.342 C 
ATOM      5  O   UNL A   1      37.700  19.252  24.581  1.00  0.00    -0.246 OA
BRANCH   4   6
ATOM      6  C   UNL A   1      35.866  20.698  24.978  1.00  0.00     0.103 A 
ATOM      7  C   UNL A   1      34.251  22.516  25.059  1.00  0.00     0.064 A 
ATOM      8  C   UNL A   1      33.216  21.582  24.980  1.00  0.00     0.032 A 
ATOM      9  C   UNL A   1      35.572  22.068  25.057  1.00  0.00     0.048 A 
ATOM     10  C   UNL A   1      33.496  20.215  24.900  1.00  0.00     0.049 A 
ATOM     11  C   UNL A   1      34.822  19.773  24.891  1.00  0.00     0.130 A 
BRANCH   7  12
ATOM     12  N   UNL A   1      33.992  23.888  25.035  1.00  0.00    -0.253 NA
ATOM     13  C   UNL A   1      32.802  24.265  24.690  1.00  0.00     0.158 C 
BRANCH  13  14
ATOM     14  C   UNL A   1      32.477  25.663  24.668  1.00  0.00     0.149 A 
ATOM     15  C   UNL A   1      31.285  27.433  24.081  1.00  0.00     0.210 A 
ATOM     16  O   UNL A   1      31.350  26.065  24.008  1.00  0.00    -0.438 OA
ATOM     17  C   UNL A   1      32.357  27.879  24.831  1.00  0.00     0.082 A 
ATOM     18  C   UNL A   1      33.115  26.756  25.213  1.00  0.00     0.070 A 
ATOM     19  Br  UNL A   1      32.816  29.617  25.370  1.00  0.00    -0.045 Br
BRANCH  15  20
ATOM     20  N   UNL A   1      30.256  28.025  23.422  1.00  0.00    -0.348 N 
ATOM     21  C   UNL A   1      28.931  27.437  23.402  1.00  0.00     0.146 C 
ATOM     22  C   UNL A   1      30.487  29.246  22.669  1.00  0.00     0.146 C 
ENDBRANCH  15  20
ENDBRANCH  13  14
ENDBRANCH   7  12
BRANCH  11  23
ATOM     23  O   UNL A   1      35.077  18.434  24.813  1.00  0.00    -0.507 OA
ATOM     24  H   UNL A   1      35.380  17.970  25.569  1.00  0.00     0.293 HD
ENDBRANCH  11  23
ENDBRANCH   4   6
ENDBRANCH   3   4
ENDBRANCH   2   3
ENDBRANCH   1   2
BRANCH   1  25
ATOM     25  O   UNL A   1      41.373  21.631  27.212  1.00  0.00    -0.374 OA
BRANCH  25  26
ATOM     26  C   UNL A   1      42.206  21.075  26.192  1.00  0.00     0.202 C 
BRANCH  26  27
ATOM     27  C   UNL A   1      43.380  21.959  25.751  1.00  0.00     0.261 C 
BRANCH  27  28
ATOM     28  O   UNL A   1      42.947  23.065  24.937  1.00  0.00    -0.460 OA
BRANCH  28  29
ATOM     29  C   UNL A   1      43.692  24.188  25.057  1.00  0.00     0.338 C 
ATOM     30  O   UNL A   1      44.706  24.477  24.436  1.00  0.00    -0.246 OA
BRANCH  29  31
ATOM     31  C   UNL A   1      43.027  25.142  25.966  1.00  0.00     0.060 A 
ATOM     32  C   UNL A   1      43.721  26.314  26.293  1.00  0.00     0.016 A 
ATOM     33  C   UNL A   1      41.786  24.869  26.543  1.00  0.00     0.016 A 
ATOM     34  C   UNL A   1      43.198  27.195  27.237  1.00  0.00     0.010 A 
ATOM     35  C   UNL A   1      41.264  25.752  27.495  1.00  0.00     0.010 A 
ATOM     36  C   UNL A   1      41.983  26.901  27.871  1.00  0.00    -0.014 A 
BRANCH  36  37
ATOM     37  C   UNL A   1      41.537  27.726  29.019  1.00  0.00     0.031 A 
ATOM     38  C   UNL A   1      42.271  27.618  30.328  1.00  0.00     0.074 A 
ATOM     39  C   UNL A   1      40.506  28.581  28.896  1.00  0.00     0.049 A 
ATOM     40  N   UNL A   1      42.034  28.218  31.466  1.00  0.00    -0.248 NA
ATOM     41  C   UNL A   1      43.427  26.708  30.356  1.00  0.00     0.031 C 
ATOM     42  C   UNL A   1      39.737  28.805  27.673  1.00  0.00     0.029 A 
ATOM     43  N   UNL A   1      39.927  29.418  29.817  1.00  0.00    -0.354 N 
ATOM     44  C   UNL A   1      43.005  27.757  32.346  1.00  0.00     0.074 A 
ATOM     45  C   UNL A   1      43.816  26.804  31.619  1.00  0.00     0.031 C 
ATOM     46  C   UNL A   1      38.778  29.713  27.922  1.00  0.00     0.029 A 
ATOM     47  C   UNL A   1      38.849  30.112  29.328  1.00  0.00     0.049 A 
ATOM     48  H   UNL A   1      40.255  29.510  30.741  1.00  0.00     0.167 HD
ATOM     49  C   UNL A   1      43.209  28.103  33.639  1.00  0.00     0.037 A 
ATOM     50  C   UNL A   1      38.005  30.959  29.948  1.00  0.00     0.037 A 
ATOM     51  C   UNL A   1      42.405  29.054  34.362  1.00  0.00     0.049 A 
ATOM     52  C   UNL A   1      38.213  31.278  31.405  1.00  0.00     0.074 A 
ATOM     53  C   UNL A   1      42.547  29.486  35.669  1.00  0.00     0.029 A 
ATOM     54  N   UNL A   1      41.304  29.715  33.839  1.00  0.00    -0.354 N 
ATOM     55  N   UNL A   1      39.149  30.856  32.220  1.00  0.00    -0.248 NA
ATOM     56  C   UNL A   1      37.246  32.194  32.027  1.00  0.00     0.031 C 
ATOM     57  C   UNL A   1      41.505  30.375  35.951  1.00  0.00     0.029 A 
ATOM     58  C   UNL A   1      40.742  30.532  34.806  1.00  0.00     0.049 A 
ATOM     59  H   UNL A   1      40.972  29.617  32.918  1.00  0.00     0.167 HD
ATOM     60  C   UNL A   1      38.901  31.474  33.439  1.00  0.00     0.074 A 
ATOM     61  C   UNL A   1      37.732  32.309  33.255  1.00  0.00     0.031 C 
ATOM     62  C   UNL A   1      39.582  31.363  34.607  1.00  0.00     0.037 A 
BRANCH  49  63
ATOM     63  C   UNL A   1      44.338  27.432  34.364  1.00  0.00     0.057 A 
ATOM     64  C   UNL A   1      45.612  28.008  34.444  1.00  0.00     0.134 A 
ATOM     65  C   UNL A   1      44.140  26.208  35.015  1.00  0.00     0.134 A 
ATOM     66  F   UNL A   1      45.872  29.173  33.829  1.00  0.00    -0.206 F 
ATOM     67  C   UNL A   1      46.655  27.382  35.128  1.00  0.00     0.040 A 
ATOM     68  C   UNL A   1      45.167  25.583  35.724  1.00  0.00     0.040 A 
ATOM     69  F   UNL A   1      42.942  25.605  34.981  1.00  0.00    -0.206 F 
ATOM     70  C   UNL A   1      46.431  26.167  35.776  1.00  0.00     0.006 A 
ENDBRANCH  49  63
BRANCH  50  71
ATOM     71  C   UNL A   1      36.874  31.561  29.200  1.00  0.00     0.057 A 
ATOM     72  C   UNL A   1      35.723  30.821  28.906  1.00  0.00     0.134 A 
ATOM     73  C   UNL A   1      36.927  32.883  28.742  1.00  0.00     0.134 A 
ATOM     74  F   UNL A   1      35.625  29.542  29.296  1.00  0.00    -0.206 F 
ATOM     75  C   UNL A   1      34.671  31.369  28.170  1.00  0.00     0.040 A 
ATOM     76  C   UNL A   1      35.872  33.451  28.027  1.00  0.00     0.040 A 
ATOM     77  F   UNL A   1      38.003  33.644  28.991  1.00  0.00    -0.206 F 
ATOM     78  C   UNL A   1      34.742  32.691  27.733  1.00  0.00     0.006 A 
ENDBRANCH  50  71
BRANCH  62  79
ATOM     79  C   UNL A   1      39.103  32.188  35.765  1.00  0.00     0.057 A 
ATOM     80  C   UNL A   1      38.257  31.662  36.748  1.00  0.00     0.134 A 
ATOM     81  C   UNL A   1      39.529  33.514  35.919  1.00  0.00     0.134 A 
ATOM     82  F   UNL A   1      37.803  30.403  36.653  1.00  0.00    -0.206 F 
ATOM     83  C   UNL A   1      37.835  32.431  37.834  1.00  0.00     0.040 A 
ATOM     84  C   UNL A   1      39.134  34.285  37.014  1.00  0.00     0.040 A 
ATOM     85  F   UNL A   1      40.348  34.076  35.017  1.00  0.00    -0.206 F 
ATOM     86  C   UNL A   1      38.279  33.745  37.972  1.00  0.00     0.006 A 
ENDBRANCH  62  79
ENDBRANCH  36  37
ENDBRANCH  29  31
ENDBRANCH  28  29
ENDBRANCH  27  28
ENDBRANCH  26  27
ENDBRANCH  25  26
ENDBRANCH   1  25
TORSDOF 18
ENDMDL
