MODEL 1
REMARK VINA RESULT:     -10.5      0.000      0.000
REMARK SMILES CCN(CC)C(=O)N1CCC[C@H](C(=O)N[C@H](C(=O)OCCOCCOC(=O)c2ccc(-c3c4nc(c(-c5c(F)cccc5F)c5ccc([nH]5)c(-c5c(F)cccc5F)c5nc(c(-c6c(F)cccc6F)c6ccc3[nH]6)C=C5)C=C4)cc2)C(C)(C)C)C1
REMARK SMILES IDX 21 1 20 2 19 3 17 4 18 5 16 6 15 7 13 8 14 9 12 11 8 12 9 13
REMARK SMILES IDX 86 14 10 15 11 16 6 17 3 18 7 19 2 20 1 21 4 22 5 23 82 24
REMARK SMILES IDX 83 25 84 26 85 27 22 28 23 29 24 30 25 31 26 32 27 33 28 34
REMARK SMILES IDX 29 35 81 36 30 37 80 38 31 39 32 40 33 41 74 42 34 43 79 44
REMARK SMILES IDX 73 45 75 46 35 47 78 48 72 49 71 50 36 52 62 53 45 54 61 55
REMARK SMILES IDX 46 56 49 57 60 58 76 59 47 60 48 61 59 63 77 64 50 65 37 66
REMARK SMILES IDX 38 67 43 68 39 69 40 70 42 71 44 72 41 73 63 74 64 75 69 76
REMARK SMILES IDX 65 77 66 78 68 79 70 80 67 81 51 82 52 83 57 84 53 85 54 86
REMARK SMILES IDX 56 87 58 88 55 89
REMARK H PARENT 15 10 75 51 49 62
REMARK Flexibility Score: inf
ROOT
ATOM      1  C   UNL A   1      34.171  31.146  27.679  1.00  0.00     0.202 C 
ENDROOT
BRANCH   1   2
ATOM      2  C   UNL A   1      32.759  31.077  26.931  1.00  0.00     0.261 C 
BRANCH   2   3
ATOM      3  O   UNL A   1      32.619  29.980  25.939  1.00  0.00    -0.462 OA
BRANCH   3   4
ATOM      4  C   UNL A   1      31.791  28.913  26.211  1.00  0.00     0.329 C 
ATOM      5  O   UNL A   1      31.397  28.688  27.356  1.00  0.00    -0.250 OA
BRANCH   4   6
ATOM      6  C   UNL A   1      31.141  28.091  24.916  1.00  0.00     0.197 C 
BRANCH   6   7
ATOM      7  N   UNL A   1      30.744  26.611  25.012  1.00  0.00    -0.342 N 
ATOM      8  C   UNL A   1      31.210  25.340  24.862  1.00  0.00     0.225 C 
ATOM      9  O   UNL A   1      30.563  24.509  25.523  1.00  0.00    -0.275 OA
ATOM     10  H   UNL A   1      29.798  26.562  25.283  1.00  0.00     0.164 HD
BRANCH   8  11
ATOM     11  C   UNL A   1      32.295  24.754  23.922  1.00  0.00     0.098 C 
ATOM     12  N   UNL A   1      33.755  23.071  25.096  1.00  0.00    -0.324 N 
ATOM     13  C   UNL A   1      34.354  24.222  25.685  1.00  0.00     0.121 C 
ATOM     14  C   UNL A   1      32.790  23.302  24.041  1.00  0.00     0.134 C 
ATOM     15  C   UNL A   1      34.155  25.640  25.133  1.00  0.00     0.022 C 
ATOM     16  C   UNL A   1      33.468  25.709  23.816  1.00  0.00     0.017 C 
BRANCH  12  17
ATOM     17  C   UNL A   1      34.018  21.883  25.799  1.00  0.00     0.320 C 
ATOM     18  N   UNL A   1      34.811  20.953  25.175  1.00  0.00    -0.325 N 
ATOM     19  O   UNL A   1      33.563  21.660  26.923  1.00  0.00    -0.248 OA
BRANCH  18  20
ATOM     20  C   UNL A   1      34.311  19.603  24.869  1.00  0.00     0.118 C 
ATOM     21  C   UNL A   1      32.933  19.492  24.222  1.00  0.00     0.027 C 
ENDBRANCH  18  20
BRANCH  18  22
ATOM     22  C   UNL A   1      36.232  21.070  25.451  1.00  0.00     0.118 C 
ATOM     23  C   UNL A   1      36.955  21.644  24.252  1.00  0.00     0.027 C 
ENDBRANCH  18  22
ENDBRANCH  12  17
ENDBRANCH   8  11
ENDBRANCH   6   7
BRANCH   6  24
ATOM     24  C   UNL A   1      30.483  28.768  23.638  1.00  0.00    -0.007 C 
ATOM     25  C   UNL A   1      29.922  30.158  23.944  1.00  0.00     0.013 C 
ATOM     26  C   UNL A   1      31.529  28.924  22.499  1.00  0.00     0.013 C 
ATOM     27  C   UNL A   1      29.411  27.897  22.961  1.00  0.00     0.013 C 
ENDBRANCH   6  24
ENDBRANCH   4   6
ENDBRANCH   3   4
ENDBRANCH   2   3
ENDBRANCH   1   2
BRANCH   1  28
ATOM     28  O   UNL A   1      34.551  32.398  28.289  1.00  0.00    -0.374 OA
BRANCH  28  29
ATOM     29  C   UNL A   1      34.492  32.840  29.665  1.00  0.00     0.202 C 
BRANCH  29  30
ATOM     30  C   UNL A   1      35.314  32.321  30.871  1.00  0.00     0.261 C 
BRANCH  30  31
ATOM     31  O   UNL A   1      36.470  31.616  30.493  1.00  0.00    -0.460 OA
BRANCH  31  32
ATOM     32  C   UNL A   1      36.535  30.443  31.148  1.00  0.00     0.338 C 
ATOM     33  O   UNL A   1      35.917  30.103  32.130  1.00  0.00    -0.246 OA
BRANCH  32  34
ATOM     34  C   UNL A   1      37.340  29.545  30.325  1.00  0.00     0.060 A 
ATOM     35  C   UNL A   1      38.126  28.645  31.039  1.00  0.00     0.016 A 
ATOM     36  C   UNL A   1      37.371  29.630  28.928  1.00  0.00     0.016 A 
ATOM     37  C   UNL A   1      39.113  27.969  30.369  1.00  0.00     0.010 A 
ATOM     38  C   UNL A   1      38.351  28.927  28.246  1.00  0.00     0.010 A 
ATOM     39  C   UNL A   1      39.284  28.202  28.997  1.00  0.00    -0.014 A 
BRANCH  39  40
ATOM     40  C   UNL A   1      40.628  27.937  28.471  1.00  0.00     0.031 A 
ATOM     41  C   UNL A   1      41.672  29.002  28.654  1.00  0.00     0.074 A 
ATOM     42  C   UNL A   1      40.914  26.692  28.072  1.00  0.00     0.049 A 
ATOM     43  N   UNL A   1      42.964  28.932  28.480  1.00  0.00    -0.248 NA
ATOM     44  C   UNL A   1      41.204  30.321  29.119  1.00  0.00     0.031 C 
ATOM     45  C   UNL A   1      39.944  25.601  27.975  1.00  0.00     0.029 A 
ATOM     46  N   UNL A   1      42.110  26.123  27.750  1.00  0.00    -0.354 N 
ATOM     47  C   UNL A   1      43.455  30.192  28.807  1.00  0.00     0.074 A 
ATOM     48  C   UNL A   1      42.324  31.021  29.148  1.00  0.00     0.031 C 
ATOM     49  C   UNL A   1      40.596  24.471  27.669  1.00  0.00     0.029 A 
ATOM     50  C   UNL A   1      42.014  24.778  27.509  1.00  0.00     0.049 A 
ATOM     51  H   UNL A   1      42.954  26.626  27.696  1.00  0.00     0.167 HD
ATOM     52  C   UNL A   1      44.741  30.607  28.834  1.00  0.00     0.037 A 
ATOM     53  C   UNL A   1      42.983  23.902  27.202  1.00  0.00     0.037 A 
ATOM     54  C   UNL A   1      45.840  29.748  28.483  1.00  0.00     0.049 A 
ATOM     55  C   UNL A   1      44.395  24.410  27.150  1.00  0.00     0.074 A 
ATOM     56  C   UNL A   1      47.187  30.039  28.426  1.00  0.00     0.029 A 
ATOM     57  N   UNL A   1      45.697  28.412  28.121  1.00  0.00    -0.354 N 
ATOM     58  N   UNL A   1      44.856  25.607  27.431  1.00  0.00    -0.248 NA
ATOM     59  C   UNL A   1      45.419  23.445  26.743  1.00  0.00     0.031 C 
ATOM     60  C   UNL A   1      47.855  28.895  27.973  1.00  0.00     0.029 A 
ATOM     61  C   UNL A   1      46.932  27.870  27.814  1.00  0.00     0.049 A 
ATOM     62  H   UNL A   1      44.843  27.924  28.089  1.00  0.00     0.167 HD
ATOM     63  C   UNL A   1      46.230  25.536  27.263  1.00  0.00     0.074 A 
ATOM     64  C   UNL A   1      46.522  24.169  26.867  1.00  0.00     0.031 C 
ATOM     65  C   UNL A   1      47.171  26.501  27.422  1.00  0.00     0.037 A 
BRANCH  52  66
ATOM     66  C   UNL A   1      44.994  32.048  29.186  1.00  0.00     0.057 A 
ATOM     67  C   UNL A   1      45.279  32.463  30.496  1.00  0.00     0.134 A 
ATOM     68  C   UNL A   1      44.907  33.043  28.206  1.00  0.00     0.134 A 
ATOM     69  F   UNL A   1      45.353  31.569  31.494  1.00  0.00    -0.206 F 
ATOM     70  C   UNL A   1      45.423  33.816  30.821  1.00  0.00     0.040 A 
ATOM     71  C   UNL A   1      45.082  34.394  28.513  1.00  0.00     0.040 A 
ATOM     72  F   UNL A   1      44.636  32.723  26.931  1.00  0.00    -0.206 F 
ATOM     73  C   UNL A   1      45.328  34.786  29.827  1.00  0.00     0.006 A 
ENDBRANCH  52  66
BRANCH  53  74
ATOM     74  C   UNL A   1      42.634  22.485  26.952  1.00  0.00     0.057 A 
ATOM     75  C   UNL A   1      42.232  21.639  27.989  1.00  0.00     0.134 A 
ATOM     76  C   UNL A   1      42.643  21.956  25.654  1.00  0.00     0.134 A 
ATOM     77  F   UNL A   1      42.204  22.086  29.253  1.00  0.00    -0.206 F 
ATOM     78  C   UNL A   1      41.861  20.316  27.748  1.00  0.00     0.040 A 
ATOM     79  C   UNL A   1      42.249  20.644  25.394  1.00  0.00     0.040 A 
ATOM     80  F   UNL A   1      43.003  22.722  24.612  1.00  0.00    -0.206 F 
ATOM     81  C   UNL A   1      41.861  19.817  26.446  1.00  0.00     0.006 A 
ENDBRANCH  53  74
BRANCH  65  82
ATOM     82  C   UNL A   1      48.596  26.087  27.209  1.00  0.00     0.057 A 
ATOM     83  C   UNL A   1      49.214  26.166  25.955  1.00  0.00     0.134 A 
ATOM     84  C   UNL A   1      49.362  25.619  28.284  1.00  0.00     0.134 A 
ATOM     85  F   UNL A   1      48.529  26.596  24.884  1.00  0.00    -0.206 F 
ATOM     86  C   UNL A   1      50.533  25.754  25.769  1.00  0.00     0.040 A 
ATOM     87  C   UNL A   1      50.692  25.238  28.117  1.00  0.00     0.040 A 
ATOM     88  F   UNL A   1      48.832  25.532  29.514  1.00  0.00    -0.206 F 
ATOM     89  C   UNL A   1      51.277  25.294  26.855  1.00  0.00     0.006 A 
ENDBRANCH  65  82
ENDBRANCH  39  40
ENDBRANCH  32  34
ENDBRANCH  31  32
ENDBRANCH  30  31
ENDBRANCH  29  30
ENDBRANCH  28  29
ENDBRANCH   1  28
TORSDOF 20
ENDMDL
MODEL 2
REMARK VINA RESULT:     -10.5      3.863      7.547
REMARK SMILES CCN(CC)C(=O)N1CCC[C@H](C(=O)N[C@H](C(=O)OCCOCCOC(=O)c2ccc(-c3c4nc(c(-c5c(F)cccc5F)c5ccc([nH]5)c(-c5c(F)cccc5F)c5nc(c(-c6c(F)cccc6F)c6ccc3[nH]6)C=C5)C=C4)cc2)C(C)(C)C)C1
REMARK SMILES IDX 21 1 20 2 19 3 17 4 18 5 16 6 15 7 13 8 14 9 12 11 8 12 9 13
REMARK SMILES IDX 86 14 10 15 11 16 6 17 3 18 7 19 2 20 1 21 4 22 5 23 82 24
REMARK SMILES IDX 83 25 84 26 85 27 22 28 23 29 24 30 25 31 26 32 27 33 28 34
REMARK SMILES IDX 29 35 81 36 30 37 80 38 31 39 32 40 33 41 74 42 34 43 79 44
REMARK SMILES IDX 73 45 75 46 35 47 78 48 72 49 71 50 36 52 62 53 45 54 61 55
REMARK SMILES IDX 46 56 49 57 60 58 76 59 47 60 48 61 59 63 77 64 50 65 37 66
REMARK SMILES IDX 38 67 43 68 39 69 40 70 42 71 44 72 41 73 63 74 64 75 69 76
REMARK SMILES IDX 65 77 66 78 68 79 70 80 67 81 51 82 52 83 57 84 53 85 54 86
REMARK SMILES IDX 56 87 58 88 55 89
REMARK H PARENT 15 10 75 51 49 62
REMARK Flexibility Score: inf
ROOT
ATOM      1  C   UNL A   1      32.293  29.767  26.425  1.00  0.00     0.202 C 
ENDROOT
BRANCH   1   2
ATOM      2  C   UNL A   1      31.671  28.769  27.508  1.00  0.00     0.261 C 
BRANCH   2   3
ATOM      3  O   UNL A   1      31.738  27.328  27.155  1.00  0.00    -0.462 OA
BRANCH   3   4
ATOM      4  C   UNL A   1      32.348  26.939  25.981  1.00  0.00     0.329 C 
ATOM      5  O   UNL A   1      33.566  27.037  25.834  1.00  0.00    -0.250 OA
BRANCH   4   6
ATOM      6  C   UNL A   1      31.425  26.104  24.873  1.00  0.00     0.197 C 
BRANCH   6   7
ATOM      7  N   UNL A   1      30.976  24.656  25.119  1.00  0.00    -0.342 N 
ATOM      8  C   UNL A   1      31.242  23.359  24.801  1.00  0.00     0.225 C 
ATOM      9  O   UNL A   1      30.837  22.559  25.663  1.00  0.00    -0.275 OA
ATOM     10  H   UNL A   1      30.210  24.671  25.737  1.00  0.00     0.164 HD
BRANCH   8  11
ATOM     11  C   UNL A   1      31.825  22.721  23.514  1.00  0.00     0.098 C 
ATOM     12  N   UNL A   1      33.571  20.980  24.028  1.00  0.00    -0.324 N 
ATOM     13  C   UNL A   1      34.401  22.105  24.295  1.00  0.00     0.121 C 
ATOM     14  C   UNL A   1      32.268  21.248  23.453  1.00  0.00     0.134 C 
ATOM     15  C   UNL A   1      34.050  23.529  23.841  1.00  0.00     0.022 C 
ATOM     16  C   UNL A   1      32.888  23.621  22.917  1.00  0.00     0.017 C 
BRANCH  12  17
ATOM     17  C   UNL A   1      34.051  19.784  24.589  1.00  0.00     0.320 C 
ATOM     18  N   UNL A   1      33.236  18.683  24.501  1.00  0.00    -0.325 N 
ATOM     19  O   UNL A   1      35.148  19.703  25.145  1.00  0.00    -0.248 OA
BRANCH  18  20
ATOM     20  C   UNL A   1      32.742  17.999  25.707  1.00  0.00     0.118 C 
ATOM     21  C   UNL A   1      32.799  16.474  25.724  1.00  0.00     0.027 C 
ENDBRANCH  18  20
BRANCH  18  22
ATOM     22  C   UNL A   1      33.441  17.857  23.325  1.00  0.00     0.118 C 
ATOM     23  C   UNL A   1      32.301  18.040  22.347  1.00  0.00     0.027 C 
ENDBRANCH  18  22
ENDBRANCH  12  17
ENDBRANCH   8  11
ENDBRANCH   6   7
BRANCH   6  24
ATOM     24  C   UNL A   1      30.577  26.765  23.705  1.00  0.00    -0.007 C 
ATOM     25  C   UNL A   1      31.128  26.417  22.321  1.00  0.00     0.013 C 
ATOM     26  C   UNL A   1      29.100  26.284  23.757  1.00  0.00     0.013 C 
ATOM     27  C   UNL A   1      30.414  28.289  23.845  1.00  0.00     0.013 C 
ENDBRANCH   6  24
ENDBRANCH   4   6
ENDBRANCH   3   4
ENDBRANCH   2   3
ENDBRANCH   1   2
BRANCH   1  28
ATOM     28  O   UNL A   1      31.431  30.785  25.871  1.00  0.00    -0.374 OA
BRANCH  28  29
ATOM     29  C   UNL A   1      31.094  32.107  26.352  1.00  0.00     0.202 C 
BRANCH  29  30
ATOM     30  C   UNL A   1      32.052  33.204  26.882  1.00  0.00     0.261 C 
BRANCH  30  31
ATOM     31  O   UNL A   1      32.895  32.754  27.912  1.00  0.00    -0.460 OA
BRANCH  31  32
ATOM     32  C   UNL A   1      33.877  33.647  28.134  1.00  0.00     0.338 C 
ATOM     33  O   UNL A   1      33.769  34.822  28.393  1.00  0.00    -0.246 OA
BRANCH  32  34
ATOM     34  C   UNL A   1      35.122  32.889  28.227  1.00  0.00     0.060 A 
ATOM     35  C   UNL A   1      34.966  31.506  28.236  1.00  0.00     0.016 A 
ATOM     36  C   UNL A   1      36.371  33.508  28.365  1.00  0.00     0.016 A 
ATOM     37  C   UNL A   1      36.036  30.733  28.603  1.00  0.00     0.010 A 
ATOM     38  C   UNL A   1      37.460  32.725  28.709  1.00  0.00     0.010 A 
ATOM     39  C   UNL A   1      37.244  31.362  28.942  1.00  0.00    -0.014 A 
BRANCH  39  40
ATOM     40  C   UNL A   1      38.124  30.603  29.838  1.00  0.00     0.031 A 
ATOM     41  C   UNL A   1      39.101  29.648  29.213  1.00  0.00     0.074 A 
ATOM     42  C   UNL A   1      38.176  30.965  31.125  1.00  0.00     0.049 A 
ATOM     43  N   UNL A   1      40.117  29.031  29.753  1.00  0.00    -0.248 NA
ATOM     44  C   UNL A   1      38.927  29.362  27.776  1.00  0.00     0.031 C 
ATOM     45  C   UNL A   1      37.307  31.964  31.748  1.00  0.00     0.029 A 
ATOM     46  N   UNL A   1      39.038  30.591  32.112  1.00  0.00    -0.354 N 
ATOM     47  C   UNL A   1      40.693  28.287  28.729  1.00  0.00     0.074 A 
ATOM     48  C   UNL A   1      39.893  28.491  27.545  1.00  0.00     0.031 C 
ATOM     49  C   UNL A   1      37.719  32.166  33.008  1.00  0.00     0.029 A 
ATOM     50  C   UNL A   1      38.846  31.280  33.279  1.00  0.00     0.049 A 
ATOM     51  H   UNL A   1      39.727  29.897  31.997  1.00  0.00     0.167 HD
ATOM     52  C   UNL A   1      41.802  27.517  28.777  1.00  0.00     0.037 A 
ATOM     53  C   UNL A   1      39.526  31.195  34.434  1.00  0.00     0.037 A 
ATOM     54  C   UNL A   1      42.570  27.339  29.980  1.00  0.00     0.049 A 
ATOM     55  C   UNL A   1      40.701  30.264  34.487  1.00  0.00     0.074 A 
ATOM     56  C   UNL A   1      43.690  26.561  30.190  1.00  0.00     0.029 A 
ATOM     57  N   UNL A   1      42.275  27.960  31.190  1.00  0.00    -0.354 N 
ATOM     58  N   UNL A   1      41.228  29.538  33.528  1.00  0.00    -0.248 NA
ATOM     59  C   UNL A   1      41.377  30.142  35.781  1.00  0.00     0.031 C 
ATOM     60  C   UNL A   1      44.039  26.666  31.541  1.00  0.00     0.029 A 
ATOM     61  C   UNL A   1      43.178  27.562  32.159  1.00  0.00     0.049 A 
ATOM     62  H   UNL A   1      41.533  28.590  31.335  1.00  0.00     0.167 HD
ATOM     63  C   UNL A   1      42.318  28.892  34.092  1.00  0.00     0.074 A 
ATOM     64  C   UNL A   1      42.377  29.328  35.476  1.00  0.00     0.031 C 
ATOM     65  C   UNL A   1      43.194  28.024  33.527  1.00  0.00     0.037 A 
BRANCH  52  66
ATOM     66  C   UNL A   1      42.186  26.780  27.523  1.00  0.00     0.057 A 
ATOM     67  C   UNL A   1      41.791  25.457  27.276  1.00  0.00     0.134 A 
ATOM     68  C   UNL A   1      43.006  27.391  26.565  1.00  0.00     0.134 A 
ATOM     69  F   UNL A   1      41.025  24.798  28.160  1.00  0.00    -0.206 F 
ATOM     70  C   UNL A   1      42.231  24.758  26.147  1.00  0.00     0.040 A 
ATOM     71  C   UNL A   1      43.426  26.713  25.419  1.00  0.00     0.040 A 
ATOM     72  F   UNL A   1      43.427  28.653  26.735  1.00  0.00    -0.206 F 
ATOM     73  C   UNL A   1      43.049  25.389  25.213  1.00  0.00     0.006 A 
ENDBRANCH  52  66
BRANCH  53  74
ATOM     74  C   UNL A   1      39.112  32.027  35.587  1.00  0.00     0.057 A 
ATOM     75  C   UNL A   1      39.536  33.353  35.718  1.00  0.00     0.134 A 
ATOM     76  C   UNL A   1      38.236  31.530  36.561  1.00  0.00     0.134 A 
ATOM     77  F   UNL A   1      40.376  33.886  34.819  1.00  0.00    -0.206 F 
ATOM     78  C   UNL A   1      39.112  34.152  36.781  1.00  0.00     0.040 A 
ATOM     79  C   UNL A   1      37.783  32.324  37.614  1.00  0.00     0.040 A 
ATOM     80  F   UNL A   1      37.780  30.270  36.482  1.00  0.00    -0.206 F 
ATOM     81  C   UNL A   1      38.227  33.639  37.728  1.00  0.00     0.006 A 
ENDBRANCH  53  74
BRANCH  65  82
ATOM     82  C   UNL A   1      44.308  27.534  34.403  1.00  0.00     0.057 A 
ATOM     83  C   UNL A   1      45.518  28.227  34.526  1.00  0.00     0.134 A 
ATOM     84  C   UNL A   1      44.153  26.357  35.147  1.00  0.00     0.134 A 
ATOM     85  F   UNL A   1      45.731  29.355  33.829  1.00  0.00    -0.206 F 
ATOM     86  C   UNL A   1      46.552  27.745  35.327  1.00  0.00     0.040 A 
ATOM     87  C   UNL A   1      45.167  25.885  35.978  1.00  0.00     0.040 A 
ATOM     88  F   UNL A   1      43.012  25.654  35.085  1.00  0.00    -0.206 F 
ATOM     89  C   UNL A   1      46.375  26.573  36.061  1.00  0.00     0.006 A 
ENDBRANCH  65  82
ENDBRANCH  39  40
ENDBRANCH  32  34
ENDBRANCH  31  32
ENDBRANCH  30  31
ENDBRANCH  29  30
ENDBRANCH  28  29
ENDBRANCH   1  28
TORSDOF 20
ENDMDL
MODEL 3
REMARK VINA RESULT:     -10.3      1.550      6.301
REMARK SMILES CCN(CC)C(=O)N1CCC[C@H](C(=O)N[C@H](C(=O)OCCOCCOC(=O)c2ccc(-c3c4nc(c(-c5c(F)cccc5F)c5ccc([nH]5)c(-c5c(F)cccc5F)c5nc(c(-c6c(F)cccc6F)c6ccc3[nH]6)C=C5)C=C4)cc2)C(C)(C)C)C1
REMARK SMILES IDX 21 1 20 2 19 3 17 4 18 5 16 6 15 7 13 8 14 9 12 11 8 12 9 13
REMARK SMILES IDX 86 14 10 15 11 16 6 17 3 18 7 19 2 20 1 21 4 22 5 23 82 24
REMARK SMILES IDX 83 25 84 26 85 27 22 28 23 29 24 30 25 31 26 32 27 33 28 34
REMARK SMILES IDX 29 35 81 36 30 37 80 38 31 39 32 40 33 41 74 42 34 43 79 44
REMARK SMILES IDX 73 45 75 46 35 47 78 48 72 49 71 50 36 52 62 53 45 54 61 55
REMARK SMILES IDX 46 56 49 57 60 58 76 59 47 60 48 61 59 63 77 64 50 65 37 66
REMARK SMILES IDX 38 67 43 68 39 69 40 70 42 71 44 72 41 73 63 74 64 75 69 76
REMARK SMILES IDX 65 77 66 78 68 79 70 80 67 81 51 82 52 83 57 84 53 85 54 86
REMARK SMILES IDX 56 87 58 88 55 89
REMARK H PARENT 15 10 75 51 49 62
REMARK Flexibility Score: inf
ROOT
ATOM      1  C   UNL A   1      32.447  30.938  27.066  1.00  0.00     0.202 C 
ENDROOT
BRANCH   1   2
ATOM      2  C   UNL A   1      32.256  30.111  25.711  1.00  0.00     0.261 C 
BRANCH   2   3
ATOM      3  O   UNL A   1      33.436  29.319  25.279  1.00  0.00    -0.462 OA
BRANCH   3   4
ATOM      4  C   UNL A   1      33.445  27.952  25.461  1.00  0.00     0.329 C 
ATOM      5  O   UNL A   1      34.050  27.439  26.403  1.00  0.00    -0.250 OA
BRANCH   4   6
ATOM      6  C   UNL A   1      32.413  27.043  24.521  1.00  0.00     0.197 C 
BRANCH   6   7
ATOM      7  N   UNL A   1      31.222  26.285  25.125  1.00  0.00    -0.342 N 
ATOM      8  C   UNL A   1      30.858  25.436  26.125  1.00  0.00     0.225 C 
ATOM      9  O   UNL A   1      29.649  25.515  26.407  1.00  0.00    -0.275 OA
ATOM     10  H   UNL A   1      30.422  26.490  24.588  1.00  0.00     0.164 HD
BRANCH   8  11
ATOM     11  C   UNL A   1      31.647  24.320  26.855  1.00  0.00     0.098 C 
ATOM     12  N   UNL A   1      33.174  23.065  25.294  1.00  0.00    -0.324 N 
ATOM     13  C   UNL A   1      31.970  22.443  24.855  1.00  0.00     0.121 C 
ATOM     14  C   UNL A   1      33.080  23.928  26.455  1.00  0.00     0.134 C 
ATOM     15  C   UNL A   1      30.659  22.509  25.649  1.00  0.00     0.022 C 
ATOM     16  C   UNL A   1      30.783  23.084  27.015  1.00  0.00     0.017 C 
BRANCH  12  17
ATOM     17  C   UNL A   1      34.237  22.933  24.384  1.00  0.00     0.320 C 
ATOM     18  N   UNL A   1      35.392  22.359  24.854  1.00  0.00    -0.325 N 
ATOM     19  O   UNL A   1      34.161  23.313  23.214  1.00  0.00    -0.248 OA
BRANCH  18  20
ATOM     20  C   UNL A   1      36.666  23.095  24.853  1.00  0.00     0.118 C 
ATOM     21  C   UNL A   1      36.915  24.075  25.997  1.00  0.00     0.027 C 
ENDBRANCH  18  20
BRANCH  18  22
ATOM     22  C   UNL A   1      35.475  20.919  24.690  1.00  0.00     0.118 C 
ATOM     23  C   UNL A   1      36.874  20.434  25.001  1.00  0.00     0.027 C 
ENDBRANCH  18  22
ENDBRANCH  12  17
ENDBRANCH   8  11
ENDBRANCH   6   7
BRANCH   6  24
ATOM     24  C   UNL A   1      32.258  27.169  22.945  1.00  0.00    -0.007 C 
ATOM     25  C   UNL A   1      33.570  27.564  22.264  1.00  0.00     0.013 C 
ATOM     26  C   UNL A   1      31.796  25.820  22.328  1.00  0.00     0.013 C 
ATOM     27  C   UNL A   1      31.126  28.116  22.509  1.00  0.00     0.013 C 
ENDBRANCH   6  24
ENDBRANCH   4   6
ENDBRANCH   3   4
ENDBRANCH   2   3
ENDBRANCH   1   2
BRANCH   1  28
ATOM     28  O   UNL A   1      33.793  31.258  27.478  1.00  0.00    -0.374 OA
BRANCH  28  29
ATOM     29  C   UNL A   1      34.362  32.485  27.989  1.00  0.00     0.202 C 
BRANCH  29  30
ATOM     30  C   UNL A   1      34.474  32.944  29.465  1.00  0.00     0.261 C 
BRANCH  30  31
ATOM     31  O   UNL A   1      34.969  31.945  30.321  1.00  0.00    -0.460 OA
BRANCH  31  32
ATOM     32  C   UNL A   1      36.208  32.261  30.740  1.00  0.00     0.338 C 
ATOM     33  O   UNL A   1      36.545  33.196  31.426  1.00  0.00    -0.246 OA
BRANCH  32  34
ATOM     34  C   UNL A   1      37.069  31.133  30.397  1.00  0.00     0.060 A 
ATOM     35  C   UNL A   1      37.834  30.639  31.450  1.00  0.00     0.016 A 
ATOM     36  C   UNL A   1      37.168  30.631  29.093  1.00  0.00     0.016 A 
ATOM     37  C   UNL A   1      38.865  29.784  31.160  1.00  0.00     0.010 A 
ATOM     38  C   UNL A   1      38.193  29.745  28.803  1.00  0.00     0.010 A 
ATOM     39  C   UNL A   1      39.100  29.432  29.823  1.00  0.00    -0.014 A 
BRANCH  39  40
ATOM     40  C   UNL A   1      40.473  29.022  29.507  1.00  0.00     0.031 A 
ATOM     41  C   UNL A   1      40.687  27.617  29.018  1.00  0.00     0.074 A 
ATOM     42  C   UNL A   1      41.415  29.970  29.445  1.00  0.00     0.049 A 
ATOM     43  N   UNL A   1      41.748  27.083  28.475  1.00  0.00    -0.248 NA
ATOM     44  C   UNL A   1      39.546  26.690  29.134  1.00  0.00     0.031 C 
ATOM     45  C   UNL A   1      41.218  31.371  29.818  1.00  0.00     0.029 A 
ATOM     46  N   UNL A   1      42.694  29.913  28.978  1.00  0.00    -0.354 N 
ATOM     47  C   UNL A   1      41.401  25.766  28.194  1.00  0.00     0.074 A 
ATOM     48  C   UNL A   1      40.051  25.564  28.662  1.00  0.00     0.031 C 
ATOM     49  C   UNL A   1      42.326  32.059  29.512  1.00  0.00     0.029 A 
ATOM     50  C   UNL A   1      43.314  31.134  28.965  1.00  0.00     0.049 A 
ATOM     51  H   UNL A   1      43.127  29.080  28.681  1.00  0.00     0.167 HD
ATOM     52  C   UNL A   1      42.146  24.818  27.582  1.00  0.00     0.037 A 
ATOM     53  C   UNL A   1      44.548  31.452  28.544  1.00  0.00     0.037 A 
ATOM     54  C   UNL A   1      43.491  25.060  27.132  1.00  0.00     0.049 A 
ATOM     55  C   UNL A   1      45.388  30.360  27.949  1.00  0.00     0.074 A 
ATOM     56  C   UNL A   1      44.377  24.189  26.534  1.00  0.00     0.029 A 
ATOM     57  N   UNL A   1      44.139  26.285  27.246  1.00  0.00    -0.354 N 
ATOM     58  N   UNL A   1      45.072  29.109  27.710  1.00  0.00    -0.248 NA
ATOM     59  C   UNL A   1      46.753  30.725  27.565  1.00  0.00     0.031 C 
ATOM     60  C   UNL A   1      45.584  24.871  26.338  1.00  0.00     0.029 A 
ATOM     61  C   UNL A   1      45.427  26.187  26.751  1.00  0.00     0.049 A 
ATOM     62  H   UNL A   1      43.741  27.102  27.623  1.00  0.00     0.167 HD
ATOM     63  C   UNL A   1      46.189  28.539  27.119  1.00  0.00     0.074 A 
ATOM     64  C   UNL A   1      47.184  29.593  27.028  1.00  0.00     0.031 C 
ATOM     65  C   UNL A   1      46.383  27.267  26.684  1.00  0.00     0.037 A 
BRANCH  52  66
ATOM     66  C   UNL A   1      41.539  23.449  27.438  1.00  0.00     0.057 A 
ATOM     67  C   UNL A   1      41.981  22.347  28.186  1.00  0.00     0.134 A 
ATOM     68  C   UNL A   1      40.524  23.219  26.501  1.00  0.00     0.134 A 
ATOM     69  F   UNL A   1      42.967  22.485  29.085  1.00  0.00    -0.206 F 
ATOM     70  C   UNL A   1      41.467  21.064  27.975  1.00  0.00     0.040 A 
ATOM     71  C   UNL A   1      39.980  21.948  26.305  1.00  0.00     0.040 A 
ATOM     72  F   UNL A   1      40.052  24.223  25.747  1.00  0.00    -0.206 F 
ATOM     73  C   UNL A   1      40.460  20.862  27.034  1.00  0.00     0.006 A 
ENDBRANCH  52  66
BRANCH  53  74
ATOM     74  C   UNL A   1      45.019  32.852  28.657  1.00  0.00     0.057 A 
ATOM     75  C   UNL A   1      45.739  33.291  29.772  1.00  0.00     0.134 A 
ATOM     76  C   UNL A   1      44.805  33.773  27.622  1.00  0.00     0.134 A 
ATOM     77  F   UNL A   1      45.974  32.457  30.795  1.00  0.00    -0.206 F 
ATOM     78  C   UNL A   1      46.221  34.597  29.860  1.00  0.00     0.040 A 
ATOM     79  C   UNL A   1      45.305  35.074  27.685  1.00  0.00     0.040 A 
ATOM     80  F   UNL A   1      44.136  33.408  26.518  1.00  0.00    -0.206 F 
ATOM     81  C   UNL A   1      46.010  35.490  28.810  1.00  0.00     0.006 A 
ENDBRANCH  53  74
BRANCH  65  82
ATOM     82  C   UNL A   1      47.703  26.977  26.037  1.00  0.00     0.057 A 
ATOM     83  C   UNL A   1      47.917  27.165  24.666  1.00  0.00     0.134 A 
ATOM     84  C   UNL A   1      48.780  26.517  26.807  1.00  0.00     0.134 A 
ATOM     85  F   UNL A   1      46.921  27.591  23.874  1.00  0.00    -0.206 F 
ATOM     86  C   UNL A   1      49.145  26.867  24.076  1.00  0.00     0.040 A 
ATOM     87  C   UNL A   1      50.021  26.250  26.234  1.00  0.00     0.040 A 
ATOM     88  F   UNL A   1      48.644  26.330  28.128  1.00  0.00    -0.206 F 
ATOM     89  C   UNL A   1      50.203  26.413  24.862  1.00  0.00     0.006 A 
ENDBRANCH  65  82
ENDBRANCH  39  40
ENDBRANCH  32  34
ENDBRANCH  31  32
ENDBRANCH  30  31
ENDBRANCH  29  30
ENDBRANCH  28  29
ENDBRANCH   1  28
TORSDOF 20
ENDMDL
