MODEL 1
REMARK VINA RESULT:     -13.2      0.000      0.000
REMARK SMILES CC(=O)O[C@@H]1CC[C@]23C(=O)O[C@]4(CC[C@]2(O)C1)[C@H]3CC[C@]1(C)[C@H](C(=O)OCCOCCOC(=O)c2ccc(-c3c5nc(c(-c6c(F)cccc6F)c6ccc([nH]6)c(-c6c(F)cccc6F)c6nc(c(-c7c(F)cccc7F)c7ccc3[nH]7)C=C6)C=C5)cc2)CC[C@@H]14
REMARK SMILES IDX 29 1 28 2 27 3 26 4 24 5 25 6 23 7 5 8 6 9 17 10 7 11 15 12
REMARK SMILES IDX 8 13 14 14 9 15 18 16 13 17 10 18 11 19 12 20 19 21 91 22
REMARK SMILES IDX 20 23 21 24 90 25 22 26 89 27 4 28 2 29 1 30 3 31 16 32
REMARK SMILES IDX 30 34 31 35 32 36 33 37 34 38 35 39 36 40 88 41 37 42 87 43
REMARK SMILES IDX 38 44 39 45 40 46 81 47 41 48 86 49 80 50 82 51 42 52 85 53
REMARK SMILES IDX 79 54 78 55 43 57 69 58 52 59 68 60 53 61 56 62 67 63 83 64
REMARK SMILES IDX 54 65 55 66 66 68 84 69 57 70 44 71 45 72 50 73 46 74 47 75
REMARK SMILES IDX 49 76 51 77 48 78 70 79 71 80 76 81 72 82 73 83 75 84 77 85
REMARK SMILES IDX 74 86 58 87 59 88 64 89 60 90 61 91 63 92 65 93 62 94
REMARK H PARENT 16 33 82 56 56 67
REMARK Flexibility Score: inf
ROOT
ATOM      1  O   UNL A   1      35.332  19.002  24.623  1.00  0.00    -0.374 OA
ENDROOT
BRANCH   1   2
ATOM      2  C   UNL A   1      33.925  18.949  24.845  1.00  0.00     0.202 C 
BRANCH   2   3
ATOM      3  C   UNL A   1      33.057  20.026  24.190  1.00  0.00     0.261 C 
BRANCH   3   4
ATOM      4  O   UNL A   1      31.907  20.351  24.986  1.00  0.00    -0.463 OA
BRANCH   4   5
ATOM      5  C   UNL A   1      31.746  21.668  25.250  1.00  0.00     0.309 C 
ATOM      6  O   UNL A   1      30.866  22.122  25.979  1.00  0.00    -0.252 OA
BRANCH   5   7
ATOM      7  C   UNL A   1      32.846  22.562  24.689  1.00  0.00     0.105 C 
ATOM      8  C   UNL A   1      32.230  30.232  26.804  1.00  0.00     0.179 C 
ATOM      9  C   UNL A   1      31.773  28.982  27.502  1.00  0.00     0.047 C 
ATOM     10  C   UNL A   1      31.639  30.243  25.398  1.00  0.00     0.081 C 
ATOM     11  C   UNL A   1      31.917  27.758  26.629  1.00  0.00     0.026 C 
ATOM     12  C   UNL A   1      31.858  28.967  24.532  1.00  0.00     0.085 C 
ATOM     13  C   UNL A   1      31.145  27.690  25.027  1.00  0.00     0.103 C 
ATOM     14  C   UNL A   1      33.363  28.738  24.184  1.00  0.00     0.041 C 
ATOM     15  C   UNL A   1      30.902  26.303  25.480  1.00  0.00     0.316 C 
ATOM     16  C   UNL A   1      31.759  26.702  23.640  1.00  0.00     0.054 C 
ATOM     17  C   UNL A   1      33.929  27.296  24.433  1.00  0.00     0.052 C 
ATOM     18  O   UNL A   1      29.841  25.842  25.865  1.00  0.00    -0.251 OA
ATOM     19  O   UNL A   1      32.125  25.679  25.510  1.00  0.00    -0.458 OA
ATOM     20  C   UNL A   1      32.900  26.114  24.375  1.00  0.00     0.120 C 
ATOM     21  C   UNL A   1      30.942  25.603  22.897  1.00  0.00     0.009 C 
ATOM     22  C   UNL A   1      33.607  24.830  23.983  1.00  0.00     0.040 C 
ATOM     23  C   UNL A   1      31.180  24.132  23.330  1.00  0.00     0.008 C 
ATOM     24  C   UNL A   1      32.651  23.666  23.572  1.00  0.00    -0.013 C 
ATOM     25  C   UNL A   1      34.393  24.298  25.215  1.00  0.00     0.009 C 
ATOM     26  C   UNL A   1      33.243  23.113  22.252  1.00  0.00     0.013 C 
ATOM     27  C   UNL A   1      33.479  23.285  25.875  1.00  0.00     0.016 C 
BRANCH   8  28
ATOM     28  O   UNL A   1      33.645  30.577  26.772  1.00  0.00    -0.462 OA
BRANCH  28  29
ATOM     29  C   UNL A   1      34.446  30.849  27.832  1.00  0.00     0.302 C 
ATOM     30  C   UNL A   1      35.466  29.761  28.017  1.00  0.00     0.139 C 
ATOM     31  O   UNL A   1      34.376  31.812  28.579  1.00  0.00    -0.253 OA
ENDBRANCH  28  29
ENDBRANCH   8  28
BRANCH  12  32
ATOM     32  O   UNL A   1      31.162  29.319  23.301  1.00  0.00    -0.389 OA
ATOM     33  H   UNL A   1      30.487  29.989  23.492  1.00  0.00     0.211 HD
ENDBRANCH  12  32
ENDBRANCH   5   7
ENDBRANCH   4   5
ENDBRANCH   3   4
ENDBRANCH   2   3
ENDBRANCH   1   2
BRANCH   1  34
ATOM     34  C   UNL A   1      36.027  20.197  24.980  1.00  0.00     0.202 C 
BRANCH  34  35
ATOM     35  C   UNL A   1      37.543  20.237  24.745  1.00  0.00     0.261 C 
BRANCH  35  36
ATOM     36  O   UNL A   1      38.164  21.418  25.283  1.00  0.00    -0.460 OA
BRANCH  36  37
ATOM     37  C   UNL A   1      39.251  21.170  26.053  1.00  0.00     0.338 C 
ATOM     38  O   UNL A   1      39.913  20.144  26.092  1.00  0.00    -0.246 OA
BRANCH  37  39
ATOM     39  C   UNL A   1      39.681  22.390  26.757  1.00  0.00     0.060 A 
ATOM     40  C   UNL A   1      39.029  23.585  26.422  1.00  0.00     0.016 A 
ATOM     41  C   UNL A   1      40.775  22.392  27.622  1.00  0.00     0.016 A 
ATOM     42  C   UNL A   1      39.510  24.798  26.904  1.00  0.00     0.010 A 
ATOM     43  C   UNL A   1      41.265  23.615  28.097  1.00  0.00     0.010 A 
ATOM     44  C   UNL A   1      40.659  24.822  27.703  1.00  0.00    -0.014 A 
BRANCH  44  45
ATOM     45  C   UNL A   1      41.310  26.124  27.982  1.00  0.00     0.031 A 
ATOM     46  C   UNL A   1      42.704  26.366  27.472  1.00  0.00     0.074 A 
ATOM     47  C   UNL A   1      40.644  27.098  28.625  1.00  0.00     0.049 A 
ATOM     48  N   UNL A   1      43.461  27.426  27.591  1.00  0.00    -0.248 NA
ATOM     49  C   UNL A   1      43.330  25.262  26.725  1.00  0.00     0.031 C 
ATOM     50  C   UNL A   1      39.273  26.995  29.122  1.00  0.00     0.029 A 
ATOM     51  N   UNL A   1      41.034  28.369  28.964  1.00  0.00    -0.354 N 
ATOM     52  C   UNL A   1      44.648  27.119  26.938  1.00  0.00     0.074 A 
ATOM     53  C   UNL A   1      44.526  25.762  26.450  1.00  0.00     0.031 C 
ATOM     54  C   UNL A   1      38.933  28.159  29.703  1.00  0.00     0.029 A 
ATOM     55  C   UNL A   1      40.072  29.074  29.643  1.00  0.00     0.049 A 
ATOM     56  H   UNL A   1      41.918  28.740  28.741  1.00  0.00     0.167 HD
ATOM     57  C   UNL A   1      45.738  27.901  26.753  1.00  0.00     0.037 A 
ATOM     58  C   UNL A   1      40.115  30.313  30.169  1.00  0.00     0.037 A 
ATOM     59  C   UNL A   1      45.854  29.251  27.237  1.00  0.00     0.049 A 
ATOM     60  C   UNL A   1      41.366  31.135  30.014  1.00  0.00     0.074 A 
ATOM     61  C   UNL A   1      46.913  30.131  27.095  1.00  0.00     0.029 A 
ATOM     62  N   UNL A   1      44.876  29.915  27.964  1.00  0.00    -0.354 N 
ATOM     63  N   UNL A   1      42.478  30.840  29.384  1.00  0.00    -0.248 NA
ATOM     64  C   UNL A   1      41.367  32.464  30.643  1.00  0.00     0.031 C 
ATOM     65  C   UNL A   1      46.593  31.312  27.774  1.00  0.00     0.029 A 
ATOM     66  C   UNL A   1      45.316  31.184  28.297  1.00  0.00     0.049 A 
ATOM     67  H   UNL A   1      44.000  29.538  28.207  1.00  0.00     0.167 HD
ATOM     68  C   UNL A   1      43.297  31.954  29.517  1.00  0.00     0.074 A 
ATOM     69  C   UNL A   1      42.551  32.934  30.278  1.00  0.00     0.031 C 
ATOM     70  C   UNL A   1      44.555  32.149  29.048  1.00  0.00     0.037 A 
BRANCH  57  71
ATOM     71  C   UNL A   1      46.899  27.308  26.012  1.00  0.00     0.057 A 
ATOM     72  C   UNL A   1      47.055  27.470  24.629  1.00  0.00     0.134 A 
ATOM     73  C   UNL A   1      47.894  26.598  26.696  1.00  0.00     0.134 A 
ATOM     74  F   UNL A   1      46.130  28.128  23.913  1.00  0.00    -0.206 F 
ATOM     75  C   UNL A   1      48.150  26.931  23.950  1.00  0.00     0.040 A 
ATOM     76  C   UNL A   1      49.004  26.075  26.031  1.00  0.00     0.040 A 
ATOM     77  F   UNL A   1      47.807  26.409  28.021  1.00  0.00    -0.206 F 
ATOM     78  C   UNL A   1      49.133  26.237  24.654  1.00  0.00     0.006 A 
ENDBRANCH  57  71
BRANCH  58  79
ATOM     79  C   UNL A   1      38.938  30.853  30.895  1.00  0.00     0.057 A 
ATOM     80  C   UNL A   1      37.961  31.606  30.232  1.00  0.00     0.134 A 
ATOM     81  C   UNL A   1      38.770  30.645  32.269  1.00  0.00     0.134 A 
ATOM     82  F   UNL A   1      38.080  31.861  28.921  1.00  0.00    -0.206 F 
ATOM     83  C   UNL A   1      36.866  32.142  30.912  1.00  0.00     0.040 A 
ATOM     84  C   UNL A   1      37.667  31.154  32.956  1.00  0.00     0.040 A 
ATOM     85  F   UNL A   1      39.674  29.936  32.962  1.00  0.00    -0.206 F 
ATOM     86  C   UNL A   1      36.715  31.911  32.278  1.00  0.00     0.006 A 
ENDBRANCH  58  79
BRANCH  70  87
ATOM     87  C   UNL A   1      45.188  33.483  29.314  1.00  0.00     0.057 A 
ATOM     88  C   UNL A   1      45.989  33.710  30.440  1.00  0.00     0.134 A 
ATOM     89  C   UNL A   1      45.032  34.539  28.407  1.00  0.00     0.134 A 
ATOM     90  F   UNL A   1      46.170  32.743  31.353  1.00  0.00    -0.206 F 
ATOM     91  C   UNL A   1      46.595  34.947  30.665  1.00  0.00     0.040 A 
ATOM     92  C   UNL A   1      45.653  35.771  28.608  1.00  0.00     0.040 A 
ATOM     93  F   UNL A   1      44.286  34.383  27.303  1.00  0.00    -0.206 F 
ATOM     94  C   UNL A   1      46.433  35.980  29.743  1.00  0.00     0.006 A 
ENDBRANCH  70  87
ENDBRANCH  44  45
ENDBRANCH  37  39
ENDBRANCH  36  37
ENDBRANCH  35  36
ENDBRANCH  34  35
ENDBRANCH   1  34
TORSDOF 17
ENDMDL
MODEL 2
REMARK VINA RESULT:     -13.1      0.282      5.888
REMARK SMILES CC(=O)O[C@@H]1CC[C@]23C(=O)O[C@]4(CC[C@]2(O)C1)[C@H]3CC[C@]1(C)[C@H](C(=O)OCCOCCOC(=O)c2ccc(-c3c5nc(c(-c6c(F)cccc6F)c6ccc([nH]6)c(-c6c(F)cccc6F)c6nc(c(-c7c(F)cccc7F)c7ccc3[nH]7)C=C6)C=C5)cc2)CC[C@@H]14
REMARK SMILES IDX 29 1 28 2 27 3 26 4 24 5 25 6 23 7 5 8 6 9 17 10 7 11 15 12
REMARK SMILES IDX 8 13 14 14 9 15 18 16 13 17 10 18 11 19 12 20 19 21 91 22
REMARK SMILES IDX 20 23 21 24 90 25 22 26 89 27 4 28 2 29 1 30 3 31 16 32
REMARK SMILES IDX 30 34 31 35 32 36 33 37 34 38 35 39 36 40 88 41 37 42 87 43
REMARK SMILES IDX 38 44 39 45 40 46 81 47 41 48 86 49 80 50 82 51 42 52 85 53
REMARK SMILES IDX 79 54 78 55 43 57 69 58 52 59 68 60 53 61 56 62 67 63 83 64
REMARK SMILES IDX 54 65 55 66 66 68 84 69 57 70 44 71 45 72 50 73 46 74 47 75
REMARK SMILES IDX 49 76 51 77 48 78 70 79 71 80 76 81 72 82 73 83 75 84 77 85
REMARK SMILES IDX 74 86 58 87 59 88 64 89 60 90 61 91 63 92 65 93 62 94
REMARK H PARENT 16 33 82 56 56 67
REMARK Flexibility Score: inf
ROOT
ATOM      1  O   UNL A   1      35.199  18.774  24.604  1.00  0.00    -0.374 OA
ENDROOT
BRANCH   1   2
ATOM      2  C   UNL A   1      33.778  18.670  24.636  1.00  0.00     0.202 C 
BRANCH   2   3
ATOM      3  C   UNL A   1      32.962  19.867  24.139  1.00  0.00     0.261 C 
BRANCH   3   4
ATOM      4  O   UNL A   1      31.871  20.179  25.018  1.00  0.00    -0.463 OA
BRANCH   4   5
ATOM      5  C   UNL A   1      31.726  21.494  25.308  1.00  0.00     0.309 C 
ATOM      6  O   UNL A   1      30.903  21.936  26.106  1.00  0.00    -0.252 OA
BRANCH   5   7
ATOM      7  C   UNL A   1      32.778  22.398  24.675  1.00  0.00     0.105 C 
ATOM      8  C   UNL A   1      32.240  30.061  26.836  1.00  0.00     0.179 C 
ATOM      9  C   UNL A   1      31.842  28.807  27.561  1.00  0.00     0.047 C 
ATOM     10  C   UNL A   1      31.555  30.067  25.473  1.00  0.00     0.081 C 
ATOM     11  C   UNL A   1      31.937  27.584  26.679  1.00  0.00     0.026 C 
ATOM     12  C   UNL A   1      31.726  28.794  24.592  1.00  0.00     0.085 C 
ATOM     13  C   UNL A   1      31.059  27.510  25.133  1.00  0.00     0.103 C 
ATOM     14  C   UNL A   1      33.205  28.578  24.143  1.00  0.00     0.041 C 
ATOM     15  C   UNL A   1      30.859  26.121  25.600  1.00  0.00     0.316 C 
ATOM     16  C   UNL A   1      31.586  26.528  23.706  1.00  0.00     0.054 C 
ATOM     17  C   UNL A   1      33.800  27.141  24.351  1.00  0.00     0.052 C 
ATOM     18  O   UNL A   1      29.832  25.650  26.056  1.00  0.00    -0.251 OA
ATOM     19  O   UNL A   1      32.087  25.507  25.546  1.00  0.00    -0.458 OA
ATOM     20  C   UNL A   1      32.779  25.950  24.362  1.00  0.00     0.120 C 
ATOM     21  C   UNL A   1      30.730  25.422  23.020  1.00  0.00     0.009 C 
ATOM     22  C   UNL A   1      33.470  24.672  23.921  1.00  0.00     0.040 C 
ATOM     23  C   UNL A   1      31.010  23.953  23.433  1.00  0.00     0.008 C 
ATOM     24  C   UNL A   1      32.498  23.501  23.574  1.00  0.00    -0.013 C 
ATOM     25  C   UNL A   1      34.342  24.147  25.096  1.00  0.00     0.009 C 
ATOM     26  C   UNL A   1      33.004  22.954  22.217  1.00  0.00     0.013 C 
ATOM     27  C   UNL A   1      33.484  23.126  25.816  1.00  0.00     0.016 C 
BRANCH   8  28
ATOM     28  O   UNL A   1      33.646  30.418  26.708  1.00  0.00    -0.462 OA
BRANCH  28  29
ATOM     29  C   UNL A   1      34.497  30.769  27.705  1.00  0.00     0.302 C 
ATOM     30  C   UNL A   1      35.533  29.701  27.916  1.00  0.00     0.139 C 
ATOM     31  O   UNL A   1      34.455  31.782  28.384  1.00  0.00    -0.253 OA
ENDBRANCH  28  29
ENDBRANCH   8  28
BRANCH  12  32
ATOM     32  O   UNL A   1      30.944  29.140  23.412  1.00  0.00    -0.389 OA
ATOM     33  H   UNL A   1      30.135  28.606  23.392  1.00  0.00     0.211 HD
ENDBRANCH  12  32
ENDBRANCH   5   7
ENDBRANCH   4   5
ENDBRANCH   3   4
ENDBRANCH   2   3
ENDBRANCH   1   2
BRANCH   1  34
ATOM     34  C   UNL A   1      35.793  20.018  24.972  1.00  0.00     0.202 C 
BRANCH  34  35
ATOM     35  C   UNL A   1      37.312  20.161  24.804  1.00  0.00     0.261 C 
BRANCH  35  36
ATOM     36  O   UNL A   1      37.845  21.320  25.470  1.00  0.00    -0.460 OA
BRANCH  36  37
ATOM     37  C   UNL A   1      39.070  21.130  26.016  1.00  0.00     0.338 C 
ATOM     38  O   UNL A   1      39.783  20.143  25.913  1.00  0.00    -0.246 OA
BRANCH  37  39
ATOM     39  C   UNL A   1      39.558  22.369  26.646  1.00  0.00     0.060 A 
ATOM     40  C   UNL A   1      39.037  23.578  26.166  1.00  0.00     0.016 A 
ATOM     41  C   UNL A   1      40.588  22.359  27.586  1.00  0.00     0.016 A 
ATOM     42  C   UNL A   1      39.589  24.786  26.579  1.00  0.00     0.010 A 
ATOM     43  C   UNL A   1      41.150  23.575  27.992  1.00  0.00     0.010 A 
ATOM     44  C   UNL A   1      40.681  24.788  27.456  1.00  0.00    -0.014 A 
BRANCH  44  45
ATOM     45  C   UNL A   1      41.423  26.051  27.673  1.00  0.00     0.031 A 
ATOM     46  C   UNL A   1      40.772  27.153  28.463  1.00  0.00     0.074 A 
ATOM     47  C   UNL A   1      42.684  26.189  27.227  1.00  0.00     0.049 A 
ATOM     48  N   UNL A   1      41.236  28.334  28.780  1.00  0.00    -0.248 NA
ATOM     49  C   UNL A   1      39.413  26.886  28.963  1.00  0.00     0.031 C 
ATOM     50  C   UNL A   1      43.434  25.172  26.492  1.00  0.00     0.029 A 
ATOM     51  N   UNL A   1      43.555  27.243  27.332  1.00  0.00    -0.354 N 
ATOM     52  C   UNL A   1      40.230  28.951  29.514  1.00  0.00     0.074 A 
ATOM     53  C   UNL A   1      39.117  28.027  29.570  1.00  0.00     0.031 C 
ATOM     54  C   UNL A   1      44.659  25.651  26.214  1.00  0.00     0.029 A 
ATOM     55  C   UNL A   1      44.765  27.017  26.725  1.00  0.00     0.049 A 
ATOM     56  H   UNL A   1      43.334  28.081  27.800  1.00  0.00     0.167 HD
ATOM     57  C   UNL A   1      40.237  30.173  30.097  1.00  0.00     0.037 A 
ATOM     58  C   UNL A   1      45.830  27.829  26.586  1.00  0.00     0.037 A 
ATOM     59  C   UNL A   1      41.346  31.088  30.042  1.00  0.00     0.049 A 
ATOM     60  C   UNL A   1      45.784  29.211  27.180  1.00  0.00     0.074 A 
ATOM     61  C   UNL A   1      41.456  32.346  30.607  1.00  0.00     0.029 A 
ATOM     62  N   UNL A   1      42.537  30.841  29.375  1.00  0.00    -0.354 N 
ATOM     63  N   UNL A   1      44.834  29.780  27.883  1.00  0.00    -0.248 NA
ATOM     64  C   UNL A   1      46.961  30.065  26.962  1.00  0.00     0.031 C 
ATOM     65  C   UNL A   1      42.697  32.880  30.245  1.00  0.00     0.029 A 
ATOM     66  C   UNL A   1      43.379  31.933  29.495  1.00  0.00     0.049 A 
ATOM     67  H   UNL A   1      42.752  30.013  28.888  1.00  0.00     0.167 HD
ATOM     68  C   UNL A   1      45.308  31.043  28.214  1.00  0.00     0.074 A 
ATOM     69  C   UNL A   1      46.634  31.154  27.644  1.00  0.00     0.031 C 
ATOM     70  C   UNL A   1      44.700  32.023  28.927  1.00  0.00     0.037 A 
BRANCH  57  71
ATOM     71  C   UNL A   1      38.999  30.598  30.829  1.00  0.00     0.057 A 
ATOM     72  C   UNL A   1      37.986  31.335  30.202  1.00  0.00     0.134 A 
ATOM     73  C   UNL A   1      38.799  30.234  32.166  1.00  0.00     0.134 A 
ATOM     74  F   UNL A   1      38.120  31.728  28.926  1.00  0.00    -0.206 F 
ATOM     75  C   UNL A   1      36.827  31.711  30.885  1.00  0.00     0.040 A 
ATOM     76  C   UNL A   1      37.635  30.584  32.853  1.00  0.00     0.040 A 
ATOM     77  F   UNL A   1      39.729  29.526  32.825  1.00  0.00    -0.206 F 
ATOM     78  C   UNL A   1      36.646  31.328  32.213  1.00  0.00     0.006 A 
ENDBRANCH  57  71
BRANCH  58  79
ATOM     79  C   UNL A   1      47.031  27.360  25.852  1.00  0.00     0.057 A 
ATOM     80  C   UNL A   1      48.074  26.701  26.514  1.00  0.00     0.134 A 
ATOM     81  C   UNL A   1      47.173  27.572  24.475  1.00  0.00     0.134 A 
ATOM     82  F   UNL A   1      48.008  26.491  27.836  1.00  0.00    -0.206 F 
ATOM     83  C   UNL A   1      49.220  26.282  25.836  1.00  0.00     0.040 A 
ATOM     84  C   UNL A   1      48.302  27.136  23.780  1.00  0.00     0.040 A 
ATOM     85  F   UNL A   1      46.211  28.202  23.784  1.00  0.00    -0.206 F 
ATOM     86  C   UNL A   1      49.333  26.495  24.464  1.00  0.00     0.006 A 
ENDBRANCH  58  79
BRANCH  70  87
ATOM     87  C   UNL A   1      45.477  33.284  29.163  1.00  0.00     0.057 A 
ATOM     88  C   UNL A   1      45.375  34.385  28.304  1.00  0.00     0.134 A 
ATOM     89  C   UNL A   1      46.301  33.414  30.288  1.00  0.00     0.134 A 
ATOM     90  F   UNL A   1      44.611  34.322  27.203  1.00  0.00    -0.206 F 
ATOM     91  C   UNL A   1      46.083  35.565  28.546  1.00  0.00     0.040 A 
ATOM     92  C   UNL A   1      46.992  34.596  30.554  1.00  0.00     0.040 A 
ATOM     93  F   UNL A   1      46.433  32.399  31.155  1.00  0.00    -0.206 F 
ATOM     94  C   UNL A   1      46.889  35.674  29.678  1.00  0.00     0.006 A 
ENDBRANCH  70  87
ENDBRANCH  44  45
ENDBRANCH  37  39
ENDBRANCH  36  37
ENDBRANCH  35  36
ENDBRANCH  34  35
ENDBRANCH   1  34
TORSDOF 17
ENDMDL
MODEL 3
REMARK VINA RESULT:     -12.8      3.383      7.288
REMARK SMILES CC(=O)O[C@@H]1CC[C@]23C(=O)O[C@]4(CC[C@]2(O)C1)[C@H]3CC[C@]1(C)[C@H](C(=O)OCCOCCOC(=O)c2ccc(-c3c5nc(c(-c6c(F)cccc6F)c6ccc([nH]6)c(-c6c(F)cccc6F)c6nc(c(-c7c(F)cccc7F)c7ccc3[nH]7)C=C6)C=C5)cc2)CC[C@@H]14
REMARK SMILES IDX 29 1 28 2 27 3 26 4 24 5 25 6 23 7 5 8 6 9 17 10 7 11 15 12
REMARK SMILES IDX 8 13 14 14 9 15 18 16 13 17 10 18 11 19 12 20 19 21 91 22
REMARK SMILES IDX 20 23 21 24 90 25 22 26 89 27 4 28 2 29 1 30 3 31 16 32
REMARK SMILES IDX 30 34 31 35 32 36 33 37 34 38 35 39 36 40 88 41 37 42 87 43
REMARK SMILES IDX 38 44 39 45 40 46 81 47 41 48 86 49 80 50 82 51 42 52 85 53
REMARK SMILES IDX 79 54 78 55 43 57 69 58 52 59 68 60 53 61 56 62 67 63 83 64
REMARK SMILES IDX 54 65 55 66 66 68 84 69 57 70 44 71 45 72 50 73 46 74 47 75
REMARK SMILES IDX 49 76 51 77 48 78 70 79 71 80 76 81 72 82 73 83 75 84 77 85
REMARK SMILES IDX 74 86 58 87 59 88 64 89 60 90 61 91 63 92 65 93 62 94
REMARK H PARENT 16 33 82 56 56 67
REMARK Flexibility Score: inf
ROOT
ATOM      1  O   UNL A   1      30.076  30.829  24.262  1.00  0.00    -0.374 OA
ENDROOT
BRANCH   1   2
ATOM      2  C   UNL A   1      29.393  30.083  23.258  1.00  0.00     0.202 C 
BRANCH   2   3
ATOM      3  C   UNL A   1      30.237  29.268  22.274  1.00  0.00     0.261 C 
BRANCH   3   4
ATOM      4  O   UNL A   1      30.034  27.855  22.429  1.00  0.00    -0.463 OA
BRANCH   4   5
ATOM      5  C   UNL A   1      31.166  27.126  22.565  1.00  0.00     0.309 C 
ATOM      6  O   UNL A   1      31.910  26.830  21.632  1.00  0.00    -0.252 OA
BRANCH   5   7
ATOM      7  C   UNL A   1      31.545  26.813  24.008  1.00  0.00     0.105 C 
ATOM      8  C   UNL A   1      37.321  21.360  24.771  1.00  0.00     0.179 C 
ATOM      9  C   UNL A   1      37.031  22.334  23.664  1.00  0.00     0.047 C 
ATOM     10  C   UNL A   1      36.066  20.530  25.023  1.00  0.00     0.081 C 
ATOM     11  C   UNL A   1      35.706  23.034  23.854  1.00  0.00     0.026 C 
ATOM     12  C   UNL A   1      34.739  21.311  25.254  1.00  0.00     0.085 C 
ATOM     13  C   UNL A   1      34.204  22.098  24.038  1.00  0.00     0.103 C 
ATOM     14  C   UNL A   1      34.767  22.153  26.569  1.00  0.00     0.041 C 
ATOM     15  C   UNL A   1      33.708  23.202  23.186  1.00  0.00     0.316 C 
ATOM     16  C   UNL A   1      32.745  22.677  24.941  1.00  0.00     0.054 C 
ATOM     17  C   UNL A   1      34.312  23.650  26.454  1.00  0.00     0.052 C 
ATOM     18  O   UNL A   1      33.447  23.138  21.997  1.00  0.00    -0.251 OA
ATOM     19  O   UNL A   1      33.728  24.336  23.961  1.00  0.00    -0.458 OA
ATOM     20  C   UNL A   1      33.311  23.996  25.298  1.00  0.00     0.120 C 
ATOM     21  C   UNL A   1      31.319  22.823  24.331  1.00  0.00     0.009 C 
ATOM     22  C   UNL A   1      32.486  25.213  25.674  1.00  0.00     0.040 C 
ATOM     23  C   UNL A   1      30.896  24.236  23.851  1.00  0.00     0.008 C 
ATOM     24  C   UNL A   1      31.241  25.455  24.763  1.00  0.00    -0.013 C 
ATOM     25  C   UNL A   1      33.368  26.483  25.508  1.00  0.00     0.009 C 
ATOM     26  C   UNL A   1      30.074  25.712  25.747  1.00  0.00     0.013 C 
ATOM     27  C   UNL A   1      33.053  27.021  24.127  1.00  0.00     0.016 C 
BRANCH   8  28
ATOM     28  O   UNL A   1      37.892  21.827  26.027  1.00  0.00    -0.462 OA
BRANCH  28  29
ATOM     29  C   UNL A   1      39.101  22.413  26.210  1.00  0.00     0.302 C 
ATOM     30  C   UNL A   1      38.942  23.882  26.482  1.00  0.00     0.139 C 
ATOM     31  O   UNL A   1      40.196  21.876  26.146  1.00  0.00    -0.253 OA
ENDBRANCH  28  29
ENDBRANCH   8  28
BRANCH  12  32
ATOM     32  O   UNL A   1      33.783  20.227  25.436  1.00  0.00    -0.389 OA
ATOM     33  H   UNL A   1      33.863  19.598  24.701  1.00  0.00     0.211 HD
ENDBRANCH  12  32
ENDBRANCH   5   7
ENDBRANCH   4   5
ENDBRANCH   3   4
ENDBRANCH   2   3
ENDBRANCH   1   2
BRANCH   1  34
ATOM     34  C   UNL A   1      31.081  30.167  25.029  1.00  0.00     0.202 C 
BRANCH  34  35
ATOM     35  C   UNL A   1      31.548  30.840  26.326  1.00  0.00     0.261 C 
BRANCH  35  36
ATOM     36  O   UNL A   1      32.940  30.612  26.609  1.00  0.00    -0.460 OA
BRANCH  36  37
ATOM     37  C   UNL A   1      33.540  31.620  27.286  1.00  0.00     0.338 C 
ATOM     38  O   UNL A   1      33.045  32.685  27.622  1.00  0.00    -0.246 OA
BRANCH  37  39
ATOM     39  C   UNL A   1      34.877  31.213  27.750  1.00  0.00     0.060 A 
ATOM     40  C   UNL A   1      35.058  29.861  28.072  1.00  0.00     0.016 A 
ATOM     41  C   UNL A   1      35.888  32.145  27.988  1.00  0.00     0.016 A 
ATOM     42  C   UNL A   1      36.231  29.445  28.694  1.00  0.00     0.010 A 
ATOM     43  C   UNL A   1      37.063  31.726  28.624  1.00  0.00     0.010 A 
ATOM     44  C   UNL A   1      37.217  30.385  29.017  1.00  0.00    -0.014 A 
BRANCH  44  45
ATOM     45  C   UNL A   1      38.327  29.979  29.911  1.00  0.00     0.031 A 
ATOM     46  C   UNL A   1      39.383  29.046  29.385  1.00  0.00     0.074 A 
ATOM     47  C   UNL A   1      38.427  30.486  31.152  1.00  0.00     0.049 A 
ATOM     48  N   UNL A   1      40.442  28.567  29.984  1.00  0.00    -0.248 NA
ATOM     49  C   UNL A   1      39.222  28.592  27.993  1.00  0.00     0.031 C 
ATOM     50  C   UNL A   1      37.491  31.436  31.752  1.00  0.00     0.029 A 
ATOM     51  N   UNL A   1      39.367  30.274  32.127  1.00  0.00    -0.354 N 
ATOM     52  C   UNL A   1      41.072  27.756  29.048  1.00  0.00     0.074 A 
ATOM     53  C   UNL A   1      40.262  27.783  27.849  1.00  0.00     0.031 C 
ATOM     54  C   UNL A   1      37.907  31.728  32.996  1.00  0.00     0.029 A 
ATOM     55  C   UNL A   1      39.119  30.963  33.288  1.00  0.00     0.049 A 
ATOM     56  H   UNL A   1      40.147  29.685  32.006  1.00  0.00     0.167 HD
ATOM     57  C   UNL A   1      42.228  27.061  29.172  1.00  0.00     0.037 A 
ATOM     58  C   UNL A   1      39.788  30.963  34.456  1.00  0.00     0.037 A 
ATOM     59  C   UNL A   1      43.033  27.040  30.365  1.00  0.00     0.049 A 
ATOM     60  C   UNL A   1      41.029  30.123  34.593  1.00  0.00     0.074 A 
ATOM     61  C   UNL A   1      44.225  26.375  30.589  1.00  0.00     0.029 A 
ATOM     62  N   UNL A   1      42.721  27.713  31.537  1.00  0.00    -0.354 N 
ATOM     63  N   UNL A   1      41.623  29.371  33.698  1.00  0.00    -0.248 NA
ATOM     64  C   UNL A   1      41.694  30.134  35.905  1.00  0.00     0.031 C 
ATOM     65  C   UNL A   1      44.613  26.609  31.913  1.00  0.00     0.029 A 
ATOM     66  C   UNL A   1      43.687  27.460  32.496  1.00  0.00     0.049 A 
ATOM     67  H   UNL A   1      41.931  28.285  31.667  1.00  0.00     0.167 HD
ATOM     68  C   UNL A   1      42.743  28.843  34.327  1.00  0.00     0.074 A 
ATOM     69  C   UNL A   1      42.752  29.368  35.677  1.00  0.00     0.031 C 
ATOM     70  C   UNL A   1      43.682  27.999  33.832  1.00  0.00     0.037 A 
BRANCH  57  71
ATOM     71  C   UNL A   1      42.679  26.251  27.994  1.00  0.00     0.057 A 
ATOM     72  C   UNL A   1      42.302  24.912  27.829  1.00  0.00     0.134 A 
ATOM     73  C   UNL A   1      43.470  26.827  26.991  1.00  0.00     0.134 A 
ATOM     74  F   UNL A   1      41.557  24.296  28.759  1.00  0.00    -0.206 F 
ATOM     75  C   UNL A   1      42.711  24.170  26.719  1.00  0.00     0.040 A 
ATOM     76  C   UNL A   1      43.865  26.102  25.866  1.00  0.00     0.040 A 
ATOM     77  F   UNL A   1      43.864  28.106  27.086  1.00  0.00    -0.206 F 
ATOM     78  C   UNL A   1      43.489  24.768  25.729  1.00  0.00     0.006 A 
ENDBRANCH  57  71
BRANCH  58  79
ATOM     79  C   UNL A   1      39.298  31.782  35.593  1.00  0.00     0.057 A 
ATOM     80  C   UNL A   1      38.323  31.295  36.471  1.00  0.00     0.134 A 
ATOM     81  C   UNL A   1      39.782  33.077  35.819  1.00  0.00     0.134 A 
ATOM     82  F   UNL A   1      37.804  30.072  36.291  1.00  0.00    -0.206 F 
ATOM     83  C   UNL A   1      37.837  32.070  37.525  1.00  0.00     0.040 A 
ATOM     84  C   UNL A   1      39.322  33.853  36.885  1.00  0.00     0.040 A 
ATOM     85  F   UNL A   1      40.713  33.603  35.011  1.00  0.00    -0.206 F 
ATOM     86  C   UNL A   1      38.341  33.351  37.737  1.00  0.00     0.006 A 
ENDBRANCH  58  79
BRANCH  70  87
ATOM     87  C   UNL A   1      44.815  27.622  34.740  1.00  0.00     0.057 A 
ATOM     88  C   UNL A   1      45.977  28.397  34.834  1.00  0.00     0.134 A 
ATOM     89  C   UNL A   1      44.720  26.494  35.566  1.00  0.00     0.134 A 
ATOM     90  F   UNL A   1      46.135  29.484  34.063  1.00  0.00    -0.206 F 
ATOM     91  C   UNL A   1      47.015  28.052  35.702  1.00  0.00     0.040 A 
ATOM     92  C   UNL A   1      45.739  26.153  36.456  1.00  0.00     0.040 A 
ATOM     93  F   UNL A   1      43.628  25.715  35.532  1.00  0.00    -0.206 F 
ATOM     94  C   UNL A   1      46.894  26.930  36.521  1.00  0.00     0.006 A 
ENDBRANCH  70  87
ENDBRANCH  44  45
ENDBRANCH  37  39
ENDBRANCH  36  37
ENDBRANCH  35  36
ENDBRANCH  34  35
ENDBRANCH   1  34
TORSDOF 17
ENDMDL
