MODEL 1
REMARK VINA RESULT:      -8.9      0.000      0.000
REMARK SMILES C[NH2+][C@]1(C(=O)OCCOCCOC(=O)c2ccc(-c3c4nc(c(-c5c(F)cccc5F)c5ccc([nH]5)c(-c5c(F)cccc5F)c5nc(c(-c6c(F)cccc6F)c6ccc3[nH]6)C=C5)C=C4)cc2)CCCCC1(C)C
REMARK SMILES IDX 10 1 9 2 8 3 7 4 6 5 4 6 5 7 3 8 69 9 73 10 70 11 72 12
REMARK SMILES IDX 74 13 75 14 71 15 2 16 1 17 11 20 12 21 13 22 14 23 15 24
REMARK SMILES IDX 16 25 68 26 17 27 67 28 18 29 19 30 20 31 61 32 21 33 66 34
REMARK SMILES IDX 60 35 62 36 22 37 65 38 59 39 58 40 23 42 49 43 32 44 48 45
REMARK SMILES IDX 33 46 36 47 47 48 63 49 34 50 35 51 46 53 64 54 37 55 24 56
REMARK SMILES IDX 25 57 30 58 26 59 27 60 29 61 31 62 28 63 50 64 51 65 56 66
REMARK SMILES IDX 52 67 53 68 55 69 57 70 54 71 38 72 39 73 44 74 40 75 41 76
REMARK SMILES IDX 43 77 45 78 42 79
REMARK H PARENT 2 18 2 19 62 41 36 52
REMARK Flexibility Score: inf
ROOT
ATOM      1  C   UNL A   1      40.664  19.645  26.191  1.00  0.00     0.202 C 
ENDROOT
BRANCH   1   2
ATOM      2  O   UNL A   1      41.768  19.267  25.377  1.00  0.00    -0.374 OA
BRANCH   2   3
ATOM      3  C   UNL A   1      43.053  19.284  25.997  1.00  0.00     0.202 C 
BRANCH   3   4
ATOM      4  C   UNL A   1      44.129  20.179  25.373  1.00  0.00     0.261 C 
BRANCH   4   5
ATOM      5  O   UNL A   1      44.154  21.516  25.926  1.00  0.00    -0.459 OA
BRANCH   5   6
ATOM      6  C   UNL A   1      45.319  22.202  25.725  1.00  0.00     0.368 C 
ATOM      7  O   UNL A   1      46.402  21.629  25.644  1.00  0.00    -0.245 OA
BRANCH   6   8
ATOM      8  C   UNL A   1      45.159  23.784  25.711  1.00  0.00     0.199 C 
ATOM      9  C   UNL A   1      44.355  24.085  27.030  1.00  0.00     0.082 C 
ATOM     10  C   UNL A   1      46.483  24.687  25.748  1.00  0.00     0.031 C 
ATOM     11  C   UNL A   1      45.167  23.845  28.310  1.00  0.00     0.007 C 
ATOM     12  C   UNL A   1      47.272  24.471  27.072  1.00  0.00     0.013 C 
ATOM     13  C   UNL A   1      47.460  24.458  24.574  1.00  0.00     0.018 C 
ATOM     14  C   UNL A   1      46.149  26.213  25.683  1.00  0.00     0.018 C 
ATOM     15  C   UNL A   1      46.447  24.659  28.340  1.00  0.00     0.001 C 
BRANCH   8  16
ATOM     16  N   UNL A   1      44.204  24.167  24.623  1.00  0.00    -0.334 N 
ATOM     17  C   UNL A   1      42.986  24.860  25.000  1.00  0.00     0.331 C 
ATOM     18  H   UNL A   1      44.709  24.771  23.975  1.00  0.00     0.347 HD
ATOM     19  H   UNL A   1      43.883  23.277  24.241  1.00  0.00     0.347 HD
ENDBRANCH   8  16
ENDBRANCH   6   8
ENDBRANCH   5   6
ENDBRANCH   4   5
ENDBRANCH   3   4
ENDBRANCH   2   3
ENDBRANCH   1   2
BRANCH   1  20
ATOM     20  C   UNL A   1      40.907  20.770  27.206  1.00  0.00     0.261 C 
BRANCH  20  21
ATOM     21  O   UNL A   1      40.846  22.070  26.595  1.00  0.00    -0.460 OA
BRANCH  21  22
ATOM     22  C   UNL A   1      39.600  22.587  26.500  1.00  0.00     0.338 C 
ATOM     23  O   UNL A   1      38.573  21.997  26.188  1.00  0.00    -0.246 OA
BRANCH  22  24
ATOM     24  C   UNL A   1      39.580  23.968  27.016  1.00  0.00     0.060 A 
ATOM     25  C   UNL A   1      39.884  24.989  26.106  1.00  0.00     0.016 A 
ATOM     26  C   UNL A   1      39.347  24.260  28.362  1.00  0.00     0.016 A 
ATOM     27  C   UNL A   1      40.030  26.299  26.551  1.00  0.00     0.010 A 
ATOM     28  C   UNL A   1      39.504  25.578  28.810  1.00  0.00     0.010 A 
ATOM     29  C   UNL A   1      39.893  26.590  27.914  1.00  0.00    -0.014 A 
BRANCH  29  30
ATOM     30  C   UNL A   1      40.355  27.911  28.405  1.00  0.00     0.031 A 
ATOM     31  C   UNL A   1      41.831  28.208  28.391  1.00  0.00     0.074 A 
ATOM     32  C   UNL A   1      39.478  28.857  28.779  1.00  0.00     0.049 A 
ATOM     33  N   UNL A   1      42.461  29.303  28.732  1.00  0.00    -0.248 NA
ATOM     34  C   UNL A   1      42.714  27.126  27.924  1.00  0.00     0.031 C 
ATOM     35  C   UNL A   1      38.024  28.705  28.789  1.00  0.00     0.029 A 
ATOM     36  N   UNL A   1      39.687  30.141  29.216  1.00  0.00    -0.354 N 
ATOM     37  C   UNL A   1      43.810  29.042  28.524  1.00  0.00     0.074 A 
ATOM     38  C   UNL A   1      43.911  27.676  28.057  1.00  0.00     0.031 C 
ATOM     39  C   UNL A   1      37.470  29.856  29.211  1.00  0.00     0.029 A 
ATOM     40  C   UNL A   1      38.530  30.813  29.523  1.00  0.00     0.049 A 
ATOM     41  H   UNL A   1      40.582  30.542  29.301  1.00  0.00     0.167 HD
ATOM     42  C   UNL A   1      44.869  29.868  28.693  1.00  0.00     0.037 A 
ATOM     43  C   UNL A   1      38.351  32.056  30.011  1.00  0.00     0.037 A 
ATOM     44  C   UNL A   1      44.767  31.229  29.150  1.00  0.00     0.049 A 
ATOM     45  C   UNL A   1      39.550  32.932  30.258  1.00  0.00     0.074 A 
ATOM     46  C   UNL A   1      45.779  32.154  29.334  1.00  0.00     0.029 A 
ATOM     47  N   UNL A   1      43.581  31.856  29.499  1.00  0.00    -0.354 N 
ATOM     48  N   UNL A   1      40.818  32.684  30.033  1.00  0.00    -0.248 NA
ATOM     49  C   UNL A   1      39.293  34.263  30.827  1.00  0.00     0.031 C 
ATOM     50  C   UNL A   1      45.210  33.327  29.841  1.00  0.00     0.029 A 
ATOM     51  C   UNL A   1      43.839  33.148  29.925  1.00  0.00     0.049 A 
ATOM     52  H   UNL A   1      42.688  31.443  29.450  1.00  0.00     0.167 HD
ATOM     53  C   UNL A   1      41.505  33.834  30.403  1.00  0.00     0.074 A 
ATOM     54  C   UNL A   1      40.511  34.785  30.858  1.00  0.00     0.031 C 
ATOM     55  C   UNL A   1      42.837  34.082  30.368  1.00  0.00     0.037 A 
BRANCH  42  56
ATOM     56  C   UNL A   1      46.232  29.312  28.408  1.00  0.00     0.057 A 
ATOM     57  C   UNL A   1      46.917  28.517  29.336  1.00  0.00     0.134 A 
ATOM     58  C   UNL A   1      46.855  29.552  27.176  1.00  0.00     0.134 A 
ATOM     59  F   UNL A   1      46.382  28.263  30.540  1.00  0.00    -0.206 F 
ATOM     60  C   UNL A   1      48.182  27.996  29.056  1.00  0.00     0.040 A 
ATOM     61  C   UNL A   1      48.108  29.017  26.876  1.00  0.00     0.040 A 
ATOM     62  F   UNL A   1      46.252  30.304  26.244  1.00  0.00    -0.206 F 
ATOM     63  C   UNL A   1      48.777  28.240  27.820  1.00  0.00     0.006 A 
ENDBRANCH  42  56
BRANCH  43  64
ATOM     64  C   UNL A   1      36.982  32.550  30.307  1.00  0.00     0.057 A 
ATOM     65  C   UNL A   1      36.220  33.207  29.335  1.00  0.00     0.134 A 
ATOM     66  C   UNL A   1      36.415  32.398  31.578  1.00  0.00     0.134 A 
ATOM     67  F   UNL A   1      36.719  33.406  28.106  1.00  0.00    -0.206 F 
ATOM     68  C   UNL A   1      34.950  33.710  29.619  1.00  0.00     0.040 A 
ATOM     69  C   UNL A   1      35.136  32.875  31.870  1.00  0.00     0.040 A 
ATOM     70  F   UNL A   1      37.095  31.778  32.553  1.00  0.00    -0.206 F 
ATOM     71  C   UNL A   1      34.402  33.540  30.890  1.00  0.00     0.006 A 
ENDBRANCH  43  64
BRANCH  55  72
ATOM     72  C   UNL A   1      43.295  35.444  30.802  1.00  0.00     0.057 A 
ATOM     73  C   UNL A   1      43.605  35.729  32.137  1.00  0.00     0.134 A 
ATOM     74  C   UNL A   1      43.470  36.470  29.863  1.00  0.00     0.134 A 
ATOM     75  F   UNL A   1      43.448  34.793  33.086  1.00  0.00    -0.206 F 
ATOM     76  C   UNL A   1      44.054  36.992  32.528  1.00  0.00     0.040 A 
ATOM     77  C   UNL A   1      43.942  37.728  30.236  1.00  0.00     0.040 A 
ATOM     78  F   UNL A   1      43.200  36.259  28.566  1.00  0.00    -0.206 F 
ATOM     79  C   UNL A   1      44.229  37.994  31.574  1.00  0.00     0.006 A 
ENDBRANCH  55  72
ENDBRANCH  29  30
ENDBRANCH  22  24
ENDBRANCH  21  22
ENDBRANCH  20  21
ENDBRANCH   1  20
TORSDOF 15
ENDMDL
MODEL 2
REMARK VINA RESULT:      -8.9      3.872      6.640
REMARK SMILES C[NH2+][C@]1(C(=O)OCCOCCOC(=O)c2ccc(-c3c4nc(c(-c5c(F)cccc5F)c5ccc([nH]5)c(-c5c(F)cccc5F)c5nc(c(-c6c(F)cccc6F)c6ccc3[nH]6)C=C5)C=C4)cc2)CCCCC1(C)C
REMARK SMILES IDX 10 1 9 2 8 3 7 4 6 5 4 6 5 7 3 8 69 9 73 10 70 11 72 12
REMARK SMILES IDX 74 13 75 14 71 15 2 16 1 17 11 20 12 21 13 22 14 23 15 24
REMARK SMILES IDX 16 25 68 26 17 27 67 28 18 29 19 30 20 31 61 32 21 33 66 34
REMARK SMILES IDX 60 35 62 36 22 37 65 38 59 39 58 40 23 42 49 43 32 44 48 45
REMARK SMILES IDX 33 46 36 47 47 48 63 49 34 50 35 51 46 53 64 54 37 55 24 56
REMARK SMILES IDX 25 57 30 58 26 59 27 60 29 61 31 62 28 63 50 64 51 65 56 66
REMARK SMILES IDX 52 67 53 68 55 69 57 70 54 71 38 72 39 73 44 74 40 75 41 76
REMARK SMILES IDX 43 77 45 78 42 79
REMARK H PARENT 2 18 2 19 62 41 36 52
REMARK Flexibility Score: inf
ROOT
ATOM      1  C   UNL A   1      35.467  21.634  25.135  1.00  0.00     0.202 C 
ENDROOT
BRANCH   1   2
ATOM      2  O   UNL A   1      35.246  22.449  26.280  1.00  0.00    -0.374 OA
BRANCH   2   3
ATOM      3  C   UNL A   1      34.361  21.928  27.272  1.00  0.00     0.202 C 
BRANCH   3   4
ATOM      4  C   UNL A   1      32.957  22.538  27.357  1.00  0.00     0.261 C 
BRANCH   4   5
ATOM      5  O   UNL A   1      32.564  23.245  26.158  1.00  0.00    -0.459 OA
BRANCH   5   6
ATOM      6  C   UNL A   1      31.563  24.159  26.329  1.00  0.00     0.368 C 
ATOM      7  O   UNL A   1      30.756  24.072  27.251  1.00  0.00    -0.245 OA
BRANCH   6   8
ATOM      8  C   UNL A   1      31.477  25.263  25.188  1.00  0.00     0.199 C 
ATOM      9  C   UNL A   1      31.052  26.564  25.965  1.00  0.00     0.082 C 
ATOM     10  C   UNL A   1      32.805  25.617  24.363  1.00  0.00     0.031 C 
ATOM     11  C   UNL A   1      32.155  27.117  26.879  1.00  0.00     0.007 C 
ATOM     12  C   UNL A   1      33.897  26.223  25.292  1.00  0.00     0.013 C 
ATOM     13  C   UNL A   1      33.437  24.428  23.605  1.00  0.00     0.018 C 
ATOM     14  C   UNL A   1      32.535  26.685  23.254  1.00  0.00     0.018 C 
ATOM     15  C   UNL A   1      33.434  27.415  26.120  1.00  0.00     0.001 C 
BRANCH   8  16
ATOM     16  N   UNL A   1      30.292  24.972  24.319  1.00  0.00    -0.334 N 
ATOM     17  C   UNL A   1      29.227  25.957  24.269  1.00  0.00     0.331 C 
ATOM     18  H   UNL A   1      30.637  24.850  23.367  1.00  0.00     0.347 HD
ATOM     19  H   UNL A   1      29.861  24.150  24.742  1.00  0.00     0.347 HD
ENDBRANCH   8  16
ENDBRANCH   6   8
ENDBRANCH   5   6
ENDBRANCH   4   5
ENDBRANCH   3   4
ENDBRANCH   2   3
ENDBRANCH   1   2
BRANCH   1  20
ATOM     20  C   UNL A   1      36.725  20.756  25.144  1.00  0.00     0.261 C 
BRANCH  20  21
ATOM     21  O   UNL A   1      37.921  21.525  24.929  1.00  0.00    -0.460 OA
BRANCH  21  22
ATOM     22  C   UNL A   1      38.946  21.210  25.753  1.00  0.00     0.338 C 
ATOM     23  O   UNL A   1      39.561  20.153  25.803  1.00  0.00    -0.246 OA
BRANCH  22  24
ATOM     24  C   UNL A   1      39.386  22.404  26.499  1.00  0.00     0.060 A 
ATOM     25  C   UNL A   1      38.784  23.622  26.158  1.00  0.00     0.016 A 
ATOM     26  C   UNL A   1      40.408  22.357  27.450  1.00  0.00     0.016 A 
ATOM     27  C   UNL A   1      39.249  24.810  26.712  1.00  0.00     0.010 A 
ATOM     28  C   UNL A   1      40.883  23.555  27.999  1.00  0.00     0.010 A 
ATOM     29  C   UNL A   1      40.337  24.786  27.595  1.00  0.00    -0.014 A 
BRANCH  29  30
ATOM     30  C   UNL A   1      41.009  26.066  27.922  1.00  0.00     0.031 A 
ATOM     31  C   UNL A   1      42.419  26.284  27.440  1.00  0.00     0.074 A 
ATOM     32  C   UNL A   1      40.355  27.049  28.564  1.00  0.00     0.049 A 
ATOM     33  N   UNL A   1      43.189  27.333  27.571  1.00  0.00    -0.248 NA
ATOM     34  C   UNL A   1      43.041  25.168  26.708  1.00  0.00     0.031 C 
ATOM     35  C   UNL A   1      38.973  26.976  29.036  1.00  0.00     0.029 A 
ATOM     36  N   UNL A   1      40.768  28.307  28.921  1.00  0.00    -0.354 N 
ATOM     37  C   UNL A   1      44.383  27.005  26.940  1.00  0.00     0.074 A 
ATOM     38  C   UNL A   1      44.249  25.648  26.455  1.00  0.00     0.031 C 
ATOM     39  C   UNL A   1      38.652  28.144  29.622  1.00  0.00     0.029 A 
ATOM     40  C   UNL A   1      39.811  29.033  29.586  1.00  0.00     0.049 A 
ATOM     41  H   UNL A   1      41.666  28.657  28.719  1.00  0.00     0.167 HD
ATOM     42  C   UNL A   1      45.488  27.768  26.769  1.00  0.00     0.037 A 
ATOM     43  C   UNL A   1      39.871  30.271  30.115  1.00  0.00     0.037 A 
ATOM     44  C   UNL A   1      45.619  29.119  27.245  1.00  0.00     0.049 A 
ATOM     45  C   UNL A   1      41.138  31.074  29.973  1.00  0.00     0.074 A 
ATOM     46  C   UNL A   1      46.691  29.983  27.103  1.00  0.00     0.029 A 
ATOM     47  N   UNL A   1      44.646  29.800  27.959  1.00  0.00    -0.354 N 
ATOM     48  N   UNL A   1      42.251  30.763  29.354  1.00  0.00    -0.248 NA
ATOM     49  C   UNL A   1      41.155  32.401  30.604  1.00  0.00     0.031 C 
ATOM     50  C   UNL A   1      46.383  31.172  27.774  1.00  0.00     0.029 A 
ATOM     51  C   UNL A   1      45.103  31.065  28.290  1.00  0.00     0.049 A 
ATOM     52  H   UNL A   1      43.760  29.438  28.195  1.00  0.00     0.167 HD
ATOM     53  C   UNL A   1      43.087  31.864  29.493  1.00  0.00     0.074 A 
ATOM     54  C   UNL A   1      42.349  32.855  30.249  1.00  0.00     0.031 C 
ATOM     55  C   UNL A   1      44.351  32.040  29.037  1.00  0.00     0.037 A 
BRANCH  42  56
ATOM     56  C   UNL A   1      46.654  27.146  26.060  1.00  0.00     0.057 A 
ATOM     57  C   UNL A   1      47.567  26.316  26.722  1.00  0.00     0.134 A 
ATOM     58  C   UNL A   1      46.848  27.358  24.689  1.00  0.00     0.134 A 
ATOM     59  F   UNL A   1      47.446  26.085  28.038  1.00  0.00    -0.206 F 
ATOM     60  C   UNL A   1      48.644  25.733  26.049  1.00  0.00     0.040 A 
ATOM     61  C   UNL A   1      47.907  26.763  24.001  1.00  0.00     0.040 A 
ATOM     62  F   UNL A   1      46.009  28.141  23.996  1.00  0.00    -0.206 F 
ATOM     63  C   UNL A   1      48.811  25.951  24.683  1.00  0.00     0.006 A 
ENDBRANCH  42  56
BRANCH  43  64
ATOM     64  C   UNL A   1      38.701  30.831  30.836  1.00  0.00     0.057 A 
ATOM     65  C   UNL A   1      38.498  30.580  32.198  1.00  0.00     0.134 A 
ATOM     66  C   UNL A   1      37.744  31.610  30.174  1.00  0.00     0.134 A 
ATOM     67  F   UNL A   1      39.366  29.819  32.881  1.00  0.00    -0.206 F 
ATOM     68  C   UNL A   1      37.377  31.069  32.872  1.00  0.00     0.040 A 
ATOM     69  C   UNL A   1      36.632  32.126  30.840  1.00  0.00     0.040 A 
ATOM     70  F   UNL A   1      37.882  31.885  28.869  1.00  0.00    -0.206 F 
ATOM     71  C   UNL A   1      36.442  31.849  32.193  1.00  0.00     0.006 A 
ENDBRANCH  43  64
BRANCH  55  72
ATOM     72  C   UNL A   1      45.004  33.363  29.312  1.00  0.00     0.057 A 
ATOM     73  C   UNL A   1      45.811  33.569  30.437  1.00  0.00     0.134 A 
ATOM     74  C   UNL A   1      44.858  34.430  28.416  1.00  0.00     0.134 A 
ATOM     75  F   UNL A   1      45.982  32.591  31.339  1.00  0.00    -0.206 F 
ATOM     76  C   UNL A   1      46.434  34.797  30.673  1.00  0.00     0.040 A 
ATOM     77  C   UNL A   1      45.496  35.653  28.626  1.00  0.00     0.040 A 
ATOM     78  F   UNL A   1      44.106  34.295  27.313  1.00  0.00    -0.206 F 
ATOM     79  C   UNL A   1      46.281  35.841  29.762  1.00  0.00     0.006 A 
ENDBRANCH  55  72
ENDBRANCH  29  30
ENDBRANCH  22  24
ENDBRANCH  21  22
ENDBRANCH  20  21
ENDBRANCH   1  20
TORSDOF 15
ENDMDL
MODEL 3
REMARK VINA RESULT:      -8.9      3.837      9.148
REMARK SMILES C[NH2+][C@]1(C(=O)OCCOCCOC(=O)c2ccc(-c3c4nc(c(-c5c(F)cccc5F)c5ccc([nH]5)c(-c5c(F)cccc5F)c5nc(c(-c6c(F)cccc6F)c6ccc3[nH]6)C=C5)C=C4)cc2)CCCCC1(C)C
REMARK SMILES IDX 10 1 9 2 8 3 7 4 6 5 4 6 5 7 3 8 69 9 73 10 70 11 72 12
REMARK SMILES IDX 74 13 75 14 71 15 2 16 1 17 11 20 12 21 13 22 14 23 15 24
REMARK SMILES IDX 16 25 68 26 17 27 67 28 18 29 19 30 20 31 61 32 21 33 66 34
REMARK SMILES IDX 60 35 62 36 22 37 65 38 59 39 58 40 23 42 49 43 32 44 48 45
REMARK SMILES IDX 33 46 36 47 47 48 63 49 34 50 35 51 46 53 64 54 37 55 24 56
REMARK SMILES IDX 25 57 30 58 26 59 27 60 29 61 31 62 28 63 50 64 51 65 56 66
REMARK SMILES IDX 52 67 53 68 55 69 57 70 54 71 38 72 39 73 44 74 40 75 41 76
REMARK SMILES IDX 43 77 45 78 42 79
REMARK H PARENT 2 18 2 19 62 41 36 52
REMARK Flexibility Score: inf
ROOT
ATOM      1  C   UNL A   1      35.338  21.689  25.307  1.00  0.00     0.202 C 
ENDROOT
BRANCH   1   2
ATOM      2  O   UNL A   1      35.148  22.422  26.512  1.00  0.00    -0.374 OA
BRANCH   2   3
ATOM      3  C   UNL A   1      34.113  21.964  27.381  1.00  0.00     0.202 C 
BRANCH   3   4
ATOM      4  C   UNL A   1      32.738  22.627  27.253  1.00  0.00     0.261 C 
BRANCH   4   5
ATOM      5  O   UNL A   1      32.636  23.527  26.124  1.00  0.00    -0.459 OA
BRANCH   5   6
ATOM      6  C   UNL A   1      31.662  24.479  26.232  1.00  0.00     0.368 C 
ATOM      7  O   UNL A   1      30.771  24.403  27.073  1.00  0.00    -0.245 OA
BRANCH   6   8
ATOM      8  C   UNL A   1      31.727  25.616  25.122  1.00  0.00     0.199 C 
ATOM      9  C   UNL A   1      31.053  26.854  25.823  1.00  0.00     0.082 C 
ATOM     10  C   UNL A   1      33.165  26.093  24.598  1.00  0.00     0.031 C 
ATOM     11  C   UNL A   1      31.899  27.449  26.957  1.00  0.00     0.007 C 
ATOM     12  C   UNL A   1      33.994  26.740  25.747  1.00  0.00     0.013 C 
ATOM     13  C   UNL A   1      34.029  24.981  23.962  1.00  0.00     0.018 C 
ATOM     14  C   UNL A   1      33.047  27.180  23.481  1.00  0.00     0.018 C 
ATOM     15  C   UNL A   1      33.280  27.865  26.487  1.00  0.00     0.001 C 
BRANCH   8  16
ATOM     16  N   UNL A   1      30.773  25.275  24.019  1.00  0.00    -0.334 N 
ATOM     17  C   UNL A   1      29.620  26.135  23.828  1.00  0.00     0.331 C 
ATOM     18  H   UNL A   1      31.302  25.277  23.148  1.00  0.00     0.347 HD
ATOM     19  H   UNL A   1      30.377  24.375  24.294  1.00  0.00     0.347 HD
ENDBRANCH   8  16
ENDBRANCH   6   8
ENDBRANCH   5   6
ENDBRANCH   4   5
ENDBRANCH   3   4
ENDBRANCH   2   3
ENDBRANCH   1   2
BRANCH   1  20
ATOM     20  C   UNL A   1      36.498  20.686  25.284  1.00  0.00     0.261 C 
BRANCH  20  21
ATOM     21  O   UNL A   1      37.747  21.313  24.943  1.00  0.00    -0.460 OA
BRANCH  21  22
ATOM     22  C   UNL A   1      38.781  20.979  25.748  1.00  0.00     0.338 C 
ATOM     23  O   UNL A   1      39.331  19.888  25.836  1.00  0.00    -0.246 OA
BRANCH  22  24
ATOM     24  C   UNL A   1      39.321  22.181  26.410  1.00  0.00     0.060 A 
ATOM     25  C   UNL A   1      38.729  23.406  26.079  1.00  0.00     0.016 A 
ATOM     26  C   UNL A   1      40.420  22.130  27.271  1.00  0.00     0.016 A 
ATOM     27  C   UNL A   1      39.279  24.595  26.548  1.00  0.00     0.010 A 
ATOM     28  C   UNL A   1      40.978  23.328  27.734  1.00  0.00     0.010 A 
ATOM     29  C   UNL A   1      40.437  24.564  27.334  1.00  0.00    -0.014 A 
BRANCH  29  30
ATOM     30  C   UNL A   1      41.176  25.830  27.557  1.00  0.00     0.031 A 
ATOM     31  C   UNL A   1      40.503  26.928  28.338  1.00  0.00     0.074 A 
ATOM     32  C   UNL A   1      42.447  25.973  27.146  1.00  0.00     0.049 A 
ATOM     33  N   UNL A   1      40.965  28.100  28.689  1.00  0.00    -0.248 NA
ATOM     34  C   UNL A   1      39.125  26.666  28.784  1.00  0.00     0.031 C 
ATOM     35  C   UNL A   1      43.221  24.964  26.426  1.00  0.00     0.029 A 
ATOM     36  N   UNL A   1      43.314  27.027  27.287  1.00  0.00    -0.354 N 
ATOM     37  C   UNL A   1      39.938  28.714  29.396  1.00  0.00     0.074 A 
ATOM     38  C   UNL A   1      38.817  27.799  29.396  1.00  0.00     0.031 C 
ATOM     39  C   UNL A   1      44.452  25.449  26.188  1.00  0.00     0.029 A 
ATOM     40  C   UNL A   1      44.544  26.808  26.717  1.00  0.00     0.049 A 
ATOM     41  H   UNL A   1      43.077  27.861  27.753  1.00  0.00     0.167 HD
ATOM     42  C   UNL A   1      39.932  29.925  30.001  1.00  0.00     0.037 A 
ATOM     43  C   UNL A   1      45.615  27.620  26.625  1.00  0.00     0.037 A 
ATOM     44  C   UNL A   1      41.050  30.831  30.008  1.00  0.00     0.049 A 
ATOM     45  C   UNL A   1      45.558  28.991  27.246  1.00  0.00     0.074 A 
ATOM     46  C   UNL A   1      41.149  32.072  30.611  1.00  0.00     0.029 A 
ATOM     47  N   UNL A   1      42.260  30.593  29.376  1.00  0.00    -0.354 N 
ATOM     48  N   UNL A   1      44.592  29.550  27.933  1.00  0.00    -0.248 NA
ATOM     49  C   UNL A   1      46.744  29.843  27.079  1.00  0.00     0.031 C 
ATOM     50  C   UNL A   1      42.405  32.606  30.303  1.00  0.00     0.029 A 
ATOM     51  C   UNL A   1      43.104  31.677  29.550  1.00  0.00     0.049 A 
ATOM     52  H   UNL A   1      42.486  29.774  28.877  1.00  0.00     0.167 HD
ATOM     53  C   UNL A   1      45.062  30.803  28.305  1.00  0.00     0.074 A 
ATOM     54  C   UNL A   1      46.406  30.919  27.775  1.00  0.00     0.031 C 
ATOM     55  C   UNL A   1      44.440  31.771  29.021  1.00  0.00     0.037 A 
BRANCH  42  56
ATOM     56  C   UNL A   1      38.666  30.350  30.684  1.00  0.00     0.057 A 
ATOM     57  C   UNL A   1      38.404  30.031  32.023  1.00  0.00     0.134 A 
ATOM     58  C   UNL A   1      37.711  31.113  30.001  1.00  0.00     0.134 A 
ATOM     59  F   UNL A   1      39.271  29.290  32.729  1.00  0.00    -0.206 F 
ATOM     60  C   UNL A   1      37.226  30.441  32.652  1.00  0.00     0.040 A 
ATOM     61  C   UNL A   1      36.542  31.548  30.626  1.00  0.00     0.040 A 
ATOM     62  F   UNL A   1      37.903  31.453  28.718  1.00  0.00    -0.206 F 
ATOM     63  C   UNL A   1      36.295  31.208  31.955  1.00  0.00     0.006 A 
ENDBRANCH  42  56
BRANCH  43  64
ATOM     64  C   UNL A   1      46.835  27.165  25.911  1.00  0.00     0.057 A 
ATOM     65  C   UNL A   1      47.840  26.449  26.571  1.00  0.00     0.134 A 
ATOM     66  C   UNL A   1      47.035  27.458  24.557  1.00  0.00     0.134 A 
ATOM     67  F   UNL A   1      47.717  26.160  27.876  1.00  0.00    -0.206 F 
ATOM     68  C   UNL A   1      49.007  26.055  25.916  1.00  0.00     0.040 A 
ATOM     69  C   UNL A   1      48.187  27.050  23.882  1.00  0.00     0.040 A 
ATOM     70  F   UNL A   1      46.109  28.142  23.868  1.00  0.00    -0.206 F 
ATOM     71  C   UNL A   1      49.181  26.351  24.565  1.00  0.00     0.006 A 
ENDBRANCH  43  64
BRANCH  55  72
ATOM     72  C   UNL A   1      45.215  33.025  29.303  1.00  0.00     0.057 A 
ATOM     73  C   UNL A   1      45.126  34.151  28.475  1.00  0.00     0.134 A 
ATOM     74  C   UNL A   1      46.026  33.121  30.442  1.00  0.00     0.134 A 
ATOM     75  F   UNL A   1      44.376  34.119  27.363  1.00  0.00    -0.206 F 
ATOM     76  C   UNL A   1      45.833  35.321  28.758  1.00  0.00     0.040 A 
ATOM     77  C   UNL A   1      46.717  34.293  30.749  1.00  0.00     0.040 A 
ATOM     78  F   UNL A   1      46.146  32.081  31.281  1.00  0.00    -0.206 F 
ATOM     79  C   UNL A   1      46.626  35.396  29.902  1.00  0.00     0.006 A 
ENDBRANCH  55  72
ENDBRANCH  29  30
ENDBRANCH  22  24
ENDBRANCH  21  22
ENDBRANCH  20  21
ENDBRANCH   1  20
TORSDOF 15
ENDMDL
