MODEL 1
REMARK VINA RESULT:      -9.9      0.000      0.000
REMARK SMILES O=C(OCCOCCOC(=O)c1cn2ccnc2s1)c1ccc(-c2c3nc(c(-c4c(F)cccc4F)c4ccc([nH]4)c(-c4c(F)cccc4F)c4nc(c(-c5c(F)cccc5F)c5ccc2[nH]5)C=C4)C=C3)cc1
REMARK SMILES IDX 5 1 4 2 3 3 2 4 1 5 20 6 21 7 73 8 22 9 72 10 23 11 24 12
REMARK SMILES IDX 25 13 66 14 26 15 71 16 65 17 67 18 27 19 70 20 64 21 63 22
REMARK SMILES IDX 28 24 54 25 37 26 53 27 38 28 41 29 52 30 68 31 39 32 40 33
REMARK SMILES IDX 51 35 69 36 42 37 29 38 30 39 35 40 31 41 32 42 34 43 36 44
REMARK SMILES IDX 33 45 55 46 56 47 61 48 57 49 58 50 60 51 62 52 59 53 43 54
REMARK SMILES IDX 44 55 49 56 45 57 46 58 48 59 50 60 47 61 6 62 7 63 8 64
REMARK SMILES IDX 9 65 10 66 11 67 12 68 13 69 19 70 14 71 18 72 15 73 17 74
REMARK SMILES IDX 16 75
REMARK H PARENT 67 23 41 34
REMARK Flexibility Score: inf
ROOT
ATOM      1  C   UNL A   1      46.153  21.905  24.301  1.00  0.00     0.202 C 
ENDROOT
BRANCH   1   2
ATOM      2  C   UNL A   1      44.964  22.870  24.204  1.00  0.00     0.261 C 
BRANCH   2   3
ATOM      3  O   UNL A   1      44.855  23.665  25.400  1.00  0.00    -0.460 OA
BRANCH   3   4
ATOM      4  C   UNL A   1      44.830  25.015  25.521  1.00  0.00     0.338 C 
ATOM      5  O   UNL A   1      45.371  25.692  24.648  1.00  0.00    -0.246 OA
BRANCH   4   6
ATOM      6  C   UNL A   1      44.195  25.735  26.668  1.00  0.00     0.060 A 
ATOM      7  C   UNL A   1      44.424  27.070  26.987  1.00  0.00     0.016 A 
ATOM      8  C   UNL A   1      43.229  25.037  27.419  1.00  0.00     0.016 A 
ATOM      9  C   UNL A   1      43.788  27.681  28.056  1.00  0.00     0.010 A 
ATOM     10  C   UNL A   1      42.534  25.665  28.461  1.00  0.00     0.010 A 
ATOM     11  C   UNL A   1      42.827  26.990  28.789  1.00  0.00    -0.014 A 
BRANCH  11  12
ATOM     12  C   UNL A   1      42.207  27.710  29.917  1.00  0.00     0.031 A 
ATOM     13  C   UNL A   1      42.929  27.765  31.225  1.00  0.00     0.074 A 
ATOM     14  C   UNL A   1      41.115  28.462  29.681  1.00  0.00     0.049 A 
ATOM     15  N   UNL A   1      42.618  28.417  32.313  1.00  0.00    -0.248 NA
ATOM     16  C   UNL A   1      44.187  27.004  31.316  1.00  0.00     0.031 C 
ATOM     17  C   UNL A   1      40.416  28.546  28.394  1.00  0.00     0.029 A 
ATOM     18  N   UNL A   1      40.440  29.341  30.483  1.00  0.00    -0.354 N 
ATOM     19  C   UNL A   1      43.635  28.145  33.216  1.00  0.00     0.074 A 
ATOM     20  C   UNL A   1      44.566  27.253  32.560  1.00  0.00     0.031 C 
ATOM     21  C   UNL A   1      39.440  29.463  28.483  1.00  0.00     0.029 A 
ATOM     22  C   UNL A   1      39.403  29.980  29.845  1.00  0.00     0.049 A 
ATOM     23  H   UNL A   1      40.673  29.500  31.426  1.00  0.00     0.167 HD
ATOM     24  C   UNL A   1      43.776  28.609  34.479  1.00  0.00     0.037 A 
ATOM     25  C   UNL A   1      38.513  30.870  30.322  1.00  0.00     0.037 A 
ATOM     26  C   UNL A   1      42.828  29.484  35.112  1.00  0.00     0.049 A 
ATOM     27  C   UNL A   1      38.643  31.291  31.760  1.00  0.00     0.074 A 
ATOM     28  C   UNL A   1      42.802  29.939  36.417  1.00  0.00     0.029 A 
ATOM     29  N   UNL A   1      41.731  30.042  34.469  1.00  0.00    -0.354 N 
ATOM     30  N   UNL A   1      39.566  30.966  32.635  1.00  0.00    -0.248 NA
ATOM     31  C   UNL A   1      37.606  32.187  32.283  1.00  0.00     0.031 C 
ATOM     32  C   UNL A   1      41.669  30.746  36.572  1.00  0.00     0.029 A 
ATOM     33  C   UNL A   1      41.015  30.830  35.352  1.00  0.00     0.049 A 
ATOM     34  H   UNL A   1      41.497  29.899  33.524  1.00  0.00     0.167 HD
ATOM     35  C   UNL A   1      39.223  31.618  33.810  1.00  0.00     0.074 A 
ATOM     36  C   UNL A   1      38.029  32.388  33.522  1.00  0.00     0.031 C 
ATOM     37  C   UNL A   1      39.827  31.578  35.024  1.00  0.00     0.037 A 
BRANCH  24  38
ATOM     38  C   UNL A   1      44.964  28.120  35.253  1.00  0.00     0.057 A 
ATOM     39  C   UNL A   1      46.189  28.797  35.236  1.00  0.00     0.134 A 
ATOM     40  C   UNL A   1      44.889  26.937  35.999  1.00  0.00     0.134 A 
ATOM     41  F   UNL A   1      46.337  29.920  34.517  1.00  0.00    -0.206 F 
ATOM     42  C   UNL A   1      47.305  28.303  35.916  1.00  0.00     0.040 A 
ATOM     43  C   UNL A   1      45.991  26.444  36.698  1.00  0.00     0.040 A 
ATOM     44  F   UNL A   1      43.746  26.235  36.048  1.00  0.00    -0.206 F 
ATOM     45  C   UNL A   1      47.206  27.125  36.653  1.00  0.00     0.006 A 
ENDBRANCH  24  38
BRANCH  25  46
ATOM     46  C   UNL A   1      37.403  31.365  29.466  1.00  0.00     0.057 A 
ATOM     47  C   UNL A   1      37.434  32.633  28.875  1.00  0.00     0.134 A 
ATOM     48  C   UNL A   1      36.261  30.584  29.244  1.00  0.00     0.134 A 
ATOM     49  F   UNL A   1      38.488  33.441  29.062  1.00  0.00    -0.206 F 
ATOM     50  C   UNL A   1      36.362  33.115  28.117  1.00  0.00     0.040 A 
ATOM     51  C   UNL A   1      35.196  31.039  28.464  1.00  0.00     0.040 A 
ATOM     52  F   UNL A   1      36.162  29.358  29.780  1.00  0.00    -0.206 F 
ATOM     53  C   UNL A   1      35.241  32.314  27.907  1.00  0.00     0.006 A 
ENDBRANCH  25  46
BRANCH  37  54
ATOM     54  C   UNL A   1      39.200  32.399  36.109  1.00  0.00     0.057 A 
ATOM     55  C   UNL A   1      39.566  33.733  36.323  1.00  0.00     0.134 A 
ATOM     56  C   UNL A   1      38.208  31.854  36.932  1.00  0.00     0.134 A 
ATOM     57  F   UNL A   1      40.522  34.305  35.576  1.00  0.00    -0.206 F 
ATOM     58  C   UNL A   1      38.985  34.491  37.339  1.00  0.00     0.040 A 
ATOM     59  C   UNL A   1      37.600  32.610  37.933  1.00  0.00     0.040 A 
ATOM     60  F   UNL A   1      37.810  30.583  36.769  1.00  0.00    -0.206 F 
ATOM     61  C   UNL A   1      37.994  33.930  38.144  1.00  0.00     0.006 A 
ENDBRANCH  37  54
ENDBRANCH  11  12
ENDBRANCH   4   6
ENDBRANCH   3   4
ENDBRANCH   2   3
ENDBRANCH   1   2
BRANCH   1  62
ATOM     62  O   UNL A   1      46.066  20.958  25.370  1.00  0.00    -0.374 OA
BRANCH  62  63
ATOM     63  C   UNL A   1      46.242  19.587  24.998  1.00  0.00     0.202 C 
BRANCH  63  64
ATOM     64  C   UNL A   1      44.873  18.917  24.854  1.00  0.00     0.261 C 
BRANCH  64  65
ATOM     65  O   UNL A   1      43.994  19.460  25.854  1.00  0.00    -0.459 OA
BRANCH  65  66
ATOM     66  C   UNL A   1      42.765  18.876  25.913  1.00  0.00     0.350 C 
ATOM     67  O   UNL A   1      42.527  17.679  25.878  1.00  0.00    -0.245 OA
BRANCH  66  68
ATOM     68  C   UNL A   1      41.772  19.932  26.184  1.00  0.00     0.132 A 
ATOM     69  C   UNL A   1      40.464  19.903  25.868  1.00  0.00     0.120 A 
ATOM     70  S   UNL A   1      42.308  21.487  26.842  1.00  0.00    -0.089 S 
ATOM     71  N   UNL A   1      39.875  21.118  26.113  1.00  0.00    -0.297 N 
ATOM     72  C   UNL A   1      40.698  22.087  26.604  1.00  0.00     0.194 A 
ATOM     73  C   UNL A   1      38.643  21.674  25.960  1.00  0.00     0.114 A 
ATOM     74  N   UNL A   1      40.116  23.246  26.743  1.00  0.00    -0.227 NA
ATOM     75  C   UNL A   1      38.817  22.993  26.348  1.00  0.00     0.133 A 
ENDBRANCH  66  68
ENDBRANCH  65  66
ENDBRANCH  64  65
ENDBRANCH  63  64
ENDBRANCH  62  63
ENDBRANCH   1  62
TORSDOF 14
ENDMDL
MODEL 2
REMARK VINA RESULT:      -9.9      6.308     12.199
REMARK SMILES O=C(OCCOCCOC(=O)c1cn2ccnc2s1)c1ccc(-c2c3nc(c(-c4c(F)cccc4F)c4ccc([nH]4)c(-c4c(F)cccc4F)c4nc(c(-c5c(F)cccc5F)c5ccc2[nH]5)C=C4)C=C3)cc1
REMARK SMILES IDX 5 1 4 2 3 3 2 4 1 5 20 6 21 7 73 8 22 9 72 10 23 11 24 12
REMARK SMILES IDX 25 13 66 14 26 15 71 16 65 17 67 18 27 19 70 20 64 21 63 22
REMARK SMILES IDX 28 24 54 25 37 26 53 27 38 28 41 29 52 30 68 31 39 32 40 33
REMARK SMILES IDX 51 35 69 36 42 37 29 38 30 39 35 40 31 41 32 42 34 43 36 44
REMARK SMILES IDX 33 45 55 46 56 47 61 48 57 49 58 50 60 51 62 52 59 53 43 54
REMARK SMILES IDX 44 55 49 56 45 57 46 58 48 59 50 60 47 61 6 62 7 63 8 64
REMARK SMILES IDX 9 65 10 66 11 67 12 68 13 69 19 70 14 71 18 72 15 73 17 74
REMARK SMILES IDX 16 75
REMARK H PARENT 67 23 41 34
REMARK Flexibility Score: inf
ROOT
ATOM      1  C   UNL A   1      35.589  34.812  33.259  1.00  0.00     0.202 C 
ENDROOT
BRANCH   1   2
ATOM      2  C   UNL A   1      34.758  33.532  33.420  1.00  0.00     0.261 C 
BRANCH   2   3
ATOM      3  O   UNL A   1      35.530  32.374  33.052  1.00  0.00    -0.460 OA
BRANCH   3   4
ATOM      4  C   UNL A   1      36.755  31.997  33.493  1.00  0.00     0.338 C 
ATOM      5  O   UNL A   1      36.981  32.036  34.701  1.00  0.00    -0.246 OA
BRANCH   4   6
ATOM      6  C   UNL A   1      37.861  31.549  32.591  1.00  0.00     0.060 A 
ATOM      7  C   UNL A   1      38.949  30.780  32.997  1.00  0.00     0.016 A 
ATOM      8  C   UNL A   1      37.744  31.848  31.220  1.00  0.00     0.016 A 
ATOM      9  C   UNL A   1      39.932  30.385  32.104  1.00  0.00     0.010 A 
ATOM     10  C   UNL A   1      38.699  31.398  30.299  1.00  0.00     0.010 A 
ATOM     11  C   UNL A   1      39.806  30.674  30.748  1.00  0.00    -0.014 A 
BRANCH  11  12
ATOM     12  C   UNL A   1      40.902  30.226  29.869  1.00  0.00     0.031 A 
ATOM     13  C   UNL A   1      42.095  31.111  29.691  1.00  0.00     0.074 A 
ATOM     14  C   UNL A   1      40.890  28.958  29.416  1.00  0.00     0.049 A 
ATOM     15  N   UNL A   1      43.206  30.878  29.046  1.00  0.00    -0.248 NA
ATOM     16  C   UNL A   1      42.042  32.429  30.348  1.00  0.00     0.031 C 
ATOM     17  C   UNL A   1      39.806  27.996  29.644  1.00  0.00     0.029 A 
ATOM     18  N   UNL A   1      41.832  28.240  28.731  1.00  0.00    -0.354 N 
ATOM     19  C   UNL A   1      43.983  32.015  29.218  1.00  0.00     0.074 A 
ATOM     20  C   UNL A   1      43.211  32.948  30.009  1.00  0.00     0.031 C 
ATOM     21  C   UNL A   1      40.167  26.803  29.148  1.00  0.00     0.029 A 
ATOM     22  C   UNL A   1      41.472  26.932  28.513  1.00  0.00     0.049 A 
ATOM     23  H   UNL A   1      42.685  28.624  28.424  1.00  0.00     0.167 HD
ATOM     24  C   UNL A   1      45.233  32.250  28.756  1.00  0.00     0.037 A 
ATOM     25  C   UNL A   1      42.123  25.956  27.853  1.00  0.00     0.037 A 
ATOM     26  C   UNL A   1      45.971  31.309  27.958  1.00  0.00     0.049 A 
ATOM     27  C   UNL A   1      43.471  26.281  27.270  1.00  0.00     0.074 A 
ATOM     28  C   UNL A   1      47.200  31.468  27.344  1.00  0.00     0.029 A 
ATOM     29  N   UNL A   1      45.540  30.021  27.671  1.00  0.00    -0.354 N 
ATOM     30  N   UNL A   1      44.167  27.389  27.368  1.00  0.00    -0.248 NA
ATOM     31  C   UNL A   1      44.117  25.231  26.475  1.00  0.00     0.031 C 
ATOM     32  C   UNL A   1      47.495  30.285  26.656  1.00  0.00     0.029 A 
ATOM     33  C   UNL A   1      46.473  29.375  26.880  1.00  0.00     0.049 A 
ATOM     34  H   UNL A   1      44.696  29.625  27.985  1.00  0.00     0.167 HD
ATOM     35  C   UNL A   1      45.333  27.171  26.651  1.00  0.00     0.074 A 
ATOM     36  C   UNL A   1      45.266  25.809  26.156  1.00  0.00     0.031 C 
ATOM     37  C   UNL A   1      46.364  28.018  26.406  1.00  0.00     0.037 A 
BRANCH  24  38
ATOM     38  C   UNL A   1      45.828  33.592  29.059  1.00  0.00     0.057 A 
ATOM     39  C   UNL A   1      45.620  34.700  28.229  1.00  0.00     0.134 A 
ATOM     40  C   UNL A   1      46.647  33.769  30.181  1.00  0.00     0.134 A 
ATOM     41  F   UNL A   1      44.871  34.590  27.122  1.00  0.00    -0.206 F 
ATOM     42  C   UNL A   1      46.224  35.932  28.491  1.00  0.00     0.040 A 
ATOM     43  C   UNL A   1      47.240  35.000  30.465  1.00  0.00     0.040 A 
ATOM     44  F   UNL A   1      46.894  32.745  31.012  1.00  0.00    -0.206 F 
ATOM     45  C   UNL A   1      47.034  36.085  29.615  1.00  0.00     0.006 A 
ENDBRANCH  24  38
BRANCH  25  46
ATOM     46  C   UNL A   1      41.493  24.623  27.657  1.00  0.00     0.057 A 
ATOM     47  C   UNL A   1      40.465  24.420  26.730  1.00  0.00     0.134 A 
ATOM     48  C   UNL A   1      41.888  23.520  28.425  1.00  0.00     0.134 A 
ATOM     49  F   UNL A   1      40.024  25.438  25.977  1.00  0.00    -0.206 F 
ATOM     50  C   UNL A   1      39.838  23.178  26.591  1.00  0.00     0.040 A 
ATOM     51  C   UNL A   1      41.293  22.266  28.276  1.00  0.00     0.040 A 
ATOM     52  F   UNL A   1      42.868  23.641  29.334  1.00  0.00    -0.206 F 
ATOM     53  C   UNL A   1      40.256  22.096  27.363  1.00  0.00     0.006 A 
ENDBRANCH  25  46
BRANCH  37  54
ATOM     54  C   UNL A   1      47.490  27.478  25.578  1.00  0.00     0.057 A 
ATOM     55  C   UNL A   1      48.588  26.837  26.163  1.00  0.00     0.134 A 
ATOM     56  C   UNL A   1      47.463  27.583  24.183  1.00  0.00     0.134 A 
ATOM     57  F   UNL A   1      48.677  26.720  27.497  1.00  0.00    -0.206 F 
ATOM     58  C   UNL A   1      49.637  26.342  25.389  1.00  0.00     0.040 A 
ATOM     59  C   UNL A   1      48.492  27.068  23.397  1.00  0.00     0.040 A 
ATOM     60  F   UNL A   1      46.433  28.180  23.565  1.00  0.00    -0.206 F 
ATOM     61  C   UNL A   1      49.587  26.453  24.000  1.00  0.00     0.006 A 
ENDBRANCH  37  54
ENDBRANCH  11  12
ENDBRANCH   4   6
ENDBRANCH   3   4
ENDBRANCH   2   3
ENDBRANCH   1   2
BRANCH   1  62
ATOM     62  O   UNL A   1      34.823  35.990  32.993  1.00  0.00    -0.374 OA
BRANCH  62  63
ATOM     63  C   UNL A   1      33.479  35.768  32.553  1.00  0.00     0.202 C 
BRANCH  63  64
ATOM     64  C   UNL A   1      33.127  36.776  31.454  1.00  0.00     0.261 C 
BRANCH  64  65
ATOM     65  O   UNL A   1      32.515  36.064  30.365  1.00  0.00    -0.459 OA
BRANCH  65  66
ATOM     66  C   UNL A   1      33.149  36.198  29.167  1.00  0.00     0.350 C 
ATOM     67  O   UNL A   1      33.398  37.245  28.590  1.00  0.00    -0.245 OA
BRANCH  66  68
ATOM     68  C   UNL A   1      33.625  34.865  28.752  1.00  0.00     0.132 A 
ATOM     69  C   UNL A   1      32.959  33.975  27.994  1.00  0.00     0.120 A 
ATOM     70  S   UNL A   1      35.146  34.238  29.411  1.00  0.00    -0.089 S 
ATOM     71  N   UNL A   1      33.626  32.777  27.948  1.00  0.00    -0.297 N 
ATOM     72  C   UNL A   1      34.787  32.717  28.658  1.00  0.00     0.194 A 
ATOM     73  C   UNL A   1      33.426  31.549  27.396  1.00  0.00     0.114 A 
ATOM     74  N   UNL A   1      35.343  31.538  28.653  1.00  0.00    -0.227 NA
ATOM     75  C   UNL A   1      34.496  30.796  27.852  1.00  0.00     0.133 A 
ENDBRANCH  66  68
ENDBRANCH  65  66
ENDBRANCH  64  65
ENDBRANCH  63  64
ENDBRANCH  62  63
ENDBRANCH   1  62
TORSDOF 14
ENDMDL
MODEL 3
REMARK VINA RESULT:      -9.6      5.383      9.689
REMARK SMILES O=C(OCCOCCOC(=O)c1cn2ccnc2s1)c1ccc(-c2c3nc(c(-c4c(F)cccc4F)c4ccc([nH]4)c(-c4c(F)cccc4F)c4nc(c(-c5c(F)cccc5F)c5ccc2[nH]5)C=C4)C=C3)cc1
REMARK SMILES IDX 5 1 4 2 3 3 2 4 1 5 20 6 21 7 73 8 22 9 72 10 23 11 24 12
REMARK SMILES IDX 25 13 66 14 26 15 71 16 65 17 67 18 27 19 70 20 64 21 63 22
REMARK SMILES IDX 28 24 54 25 37 26 53 27 38 28 41 29 52 30 68 31 39 32 40 33
REMARK SMILES IDX 51 35 69 36 42 37 29 38 30 39 35 40 31 41 32 42 34 43 36 44
REMARK SMILES IDX 33 45 55 46 56 47 61 48 57 49 58 50 60 51 62 52 59 53 43 54
REMARK SMILES IDX 44 55 49 56 45 57 46 58 48 59 50 60 47 61 6 62 7 63 8 64
REMARK SMILES IDX 9 65 10 66 11 67 12 68 13 69 19 70 14 71 18 72 15 73 17 74
REMARK SMILES IDX 16 75
REMARK H PARENT 67 23 41 34
REMARK Flexibility Score: inf
ROOT
ATOM      1  C   UNL A   1      30.960  32.029  26.313  1.00  0.00     0.202 C 
ENDROOT
BRANCH   1   2
ATOM      2  C   UNL A   1      32.305  32.508  26.875  1.00  0.00     0.261 C 
BRANCH   2   3
ATOM      3  O   UNL A   1      32.171  33.807  27.481  1.00  0.00    -0.460 OA
BRANCH   3   4
ATOM      4  C   UNL A   1      32.990  34.414  28.374  1.00  0.00     0.338 C 
ATOM      5  O   UNL A   1      32.704  35.549  28.754  1.00  0.00    -0.246 OA
BRANCH   4   6
ATOM      6  C   UNL A   1      34.236  33.791  28.916  1.00  0.00     0.060 A 
ATOM      7  C   UNL A   1      35.527  34.234  28.638  1.00  0.00     0.016 A 
ATOM      8  C   UNL A   1      34.089  32.742  29.844  1.00  0.00     0.016 A 
ATOM      9  C   UNL A   1      36.640  33.619  29.189  1.00  0.00     0.010 A 
ATOM     10  C   UNL A   1      35.205  32.156  30.455  1.00  0.00     0.010 A 
ATOM     11  C   UNL A   1      36.488  32.590  30.114  1.00  0.00    -0.014 A 
BRANCH  11  12
ATOM     12  C   UNL A   1      37.724  31.983  30.642  1.00  0.00     0.031 A 
ATOM     13  C   UNL A   1      38.120  32.262  32.057  1.00  0.00     0.074 A 
ATOM     14  C   UNL A   1      38.347  31.043  29.907  1.00  0.00     0.049 A 
ATOM     15  N   UNL A   1      39.107  31.763  32.752  1.00  0.00    -0.248 NA
ATOM     16  C   UNL A   1      37.277  33.214  32.802  1.00  0.00     0.031 C 
ATOM     17  C   UNL A   1      37.951  30.636  28.554  1.00  0.00     0.029 A 
ATOM     18  N   UNL A   1      39.397  30.218  30.207  1.00  0.00    -0.354 N 
ATOM     19  C   UNL A   1      39.006  32.337  34.011  1.00  0.00     0.074 A 
ATOM     20  C   UNL A   1      37.875  33.239  33.983  1.00  0.00     0.031 C 
ATOM     21  C   UNL A   1      38.719  29.608  28.162  1.00  0.00     0.029 A 
ATOM     22  C   UNL A   1      39.699  29.328  29.204  1.00  0.00     0.049 A 
ATOM     23  H   UNL A   1      39.888  30.259  31.059  1.00  0.00     0.167 HD
ATOM     24  C   UNL A   1      39.790  32.121  35.092  1.00  0.00     0.037 A 
ATOM     25  C   UNL A   1      40.676  28.405  29.134  1.00  0.00     0.037 A 
ATOM     26  C   UNL A   1      40.917  31.230  35.087  1.00  0.00     0.049 A 
ATOM     27  C   UNL A   1      41.589  28.258  30.320  1.00  0.00     0.074 A 
ATOM     28  C   UNL A   1      41.849  31.003  36.083  1.00  0.00     0.029 A 
ATOM     29  N   UNL A   1      41.258  30.408  34.021  1.00  0.00    -0.354 N 
ATOM     30  N   UNL A   1      41.536  28.865  31.482  1.00  0.00    -0.248 NA
ATOM     31  C   UNL A   1      42.703  27.313  30.183  1.00  0.00     0.031 C 
ATOM     32  C   UNL A   1      42.774  30.068  35.604  1.00  0.00     0.029 A 
ATOM     33  C   UNL A   1      42.393  29.679  34.329  1.00  0.00     0.049 A 
ATOM     34  H   UNL A   1      40.765  30.352  33.171  1.00  0.00     0.167 HD
ATOM     35  C   UNL A   1      42.606  28.375  32.216  1.00  0.00     0.074 A 
ATOM     36  C   UNL A   1      43.266  27.392  31.379  1.00  0.00     0.031 C 
ATOM     37  C   UNL A   1      43.020  28.712  33.463  1.00  0.00     0.037 A 
BRANCH  24  38
ATOM     38  C   UNL A   1      39.475  32.911  36.327  1.00  0.00     0.057 A 
ATOM     39  C   UNL A   1      40.075  34.150  36.588  1.00  0.00     0.134 A 
ATOM     40  C   UNL A   1      38.585  32.410  37.284  1.00  0.00     0.134 A 
ATOM     41  F   UNL A   1      40.961  34.671  35.726  1.00  0.00    -0.206 F 
ATOM     42  C   UNL A   1      39.817  34.851  37.767  1.00  0.00     0.040 A 
ATOM     43  C   UNL A   1      38.303  33.111  38.458  1.00  0.00     0.040 A 
ATOM     44  F   UNL A   1      37.984  31.224  37.100  1.00  0.00    -0.206 F 
ATOM     45  C   UNL A   1      38.925  34.333  38.705  1.00  0.00     0.006 A 
ENDBRANCH  24  38
BRANCH  25  46
ATOM     46  C   UNL A   1      40.877  27.607  27.895  1.00  0.00     0.057 A 
ATOM     47  C   UNL A   1      40.295  26.345  27.726  1.00  0.00     0.134 A 
ATOM     48  C   UNL A   1      41.690  28.081  26.857  1.00  0.00     0.134 A 
ATOM     49  F   UNL A   1      39.522  25.823  28.689  1.00  0.00    -0.206 F 
ATOM     50  C   UNL A   1      40.534  25.576  26.583  1.00  0.00     0.040 A 
ATOM     51  C   UNL A   1      41.913  27.337  25.697  1.00  0.00     0.040 A 
ATOM     52  F   UNL A   1      42.281  29.282  26.951  1.00  0.00    -0.206 F 
ATOM     53  C   UNL A   1      41.342  26.075  25.562  1.00  0.00     0.006 A 
ENDBRANCH  25  46
BRANCH  37  54
ATOM     54  C   UNL A   1      44.232  27.999  33.980  1.00  0.00     0.057 A 
ATOM     55  C   UNL A   1      45.518  28.528  33.818  1.00  0.00     0.134 A 
ATOM     56  C   UNL A   1      44.107  26.784  34.663  1.00  0.00     0.134 A 
ATOM     57  F   UNL A   1      45.701  29.682  33.158  1.00  0.00    -0.206 F 
ATOM     58  C   UNL A   1      46.644  27.858  34.294  1.00  0.00     0.040 A 
ATOM     59  C   UNL A   1      45.223  26.118  35.168  1.00  0.00     0.040 A 
ATOM     60  F   UNL A   1      42.900  26.232  34.856  1.00  0.00    -0.206 F 
ATOM     61  C   UNL A   1      46.496  26.651  34.977  1.00  0.00     0.006 A 
ENDBRANCH  37  54
ENDBRANCH  11  12
ENDBRANCH   4   6
ENDBRANCH   3   4
ENDBRANCH   2   3
ENDBRANCH   1   2
BRANCH   1  62
ATOM     62  O   UNL A   1      31.062  31.035  25.289  1.00  0.00    -0.374 OA
BRANCH  62  63
ATOM     63  C   UNL A   1      31.716  29.820  25.670  1.00  0.00     0.202 C 
BRANCH  63  64
ATOM     64  C   UNL A   1      31.990  28.975  24.422  1.00  0.00     0.261 C 
BRANCH  64  65
ATOM     65  O   UNL A   1      30.840  28.148  24.173  1.00  0.00    -0.459 OA
BRANCH  65  66
ATOM     66  C   UNL A   1      30.668  27.786  22.872  1.00  0.00     0.350 C 
ATOM     67  O   UNL A   1      30.204  28.479  21.980  1.00  0.00    -0.245 OA
BRANCH  66  68
ATOM     68  C   UNL A   1      31.283  26.459  22.683  1.00  0.00     0.132 A 
ATOM     69  C   UNL A   1      30.871  25.299  23.227  1.00  0.00     0.120 A 
ATOM     70  S   UNL A   1      32.812  26.323  21.799  1.00  0.00    -0.089 S 
ATOM     71  N   UNL A   1      31.772  24.295  22.978  1.00  0.00    -0.297 N 
ATOM     72  C   UNL A   1      32.874  24.652  22.261  1.00  0.00     0.194 A 
ATOM     73  C   UNL A   1      31.906  22.979  23.295  1.00  0.00     0.114 A 
ATOM     74  N   UNL A   1      33.741  23.689  22.119  1.00  0.00    -0.227 NA
ATOM     75  C   UNL A   1      33.135  22.625  22.761  1.00  0.00     0.133 A 
ENDBRANCH  66  68
ENDBRANCH  65  66
ENDBRANCH  64  65
ENDBRANCH  63  64
ENDBRANCH  62  63
ENDBRANCH   1  62
TORSDOF 14
ENDMDL
