MODEL 1
REMARK VINA RESULT:     -11.3      0.000      0.000
REMARK SMILES O=C(CS[C@H](C(=O)Nc1ccc(C(F)(F)F)cc1)c1ccccc1)OCCOCCOC(=O)c1ccc(-c2c3nc(c(-c4c(F)cccc4F)c4ccc([nH]4)c(-c4c(F)cccc4F)c4nc(c(-c5c(F)cccc5F)c5ccc2[nH]5)C=C4)C=C3)cc1
REMARK SMILES IDX 26 1 25 2 2 3 1 4 3 5 4 6 5 7 19 8 20 9 24 10 21 11 23 12
REMARK SMILES IDX 22 13 6 14 7 15 8 16 9 18 10 19 18 20 11 21 17 22 12 23
REMARK SMILES IDX 13 24 14 25 15 26 16 27 27 28 28 29 29 30 30 31 31 32 32 33
REMARK SMILES IDX 33 34 34 35 35 36 87 37 36 38 86 39 37 40 38 41 39 42 80 43
REMARK SMILES IDX 40 44 85 45 79 46 81 47 41 48 84 49 78 50 77 51 42 53 68 54
REMARK SMILES IDX 51 55 67 56 52 57 55 58 66 59 82 60 53 61 54 62 65 64 83 65
REMARK SMILES IDX 56 66 43 67 44 68 49 69 45 70 46 71 48 72 50 73 47 74 69 75
REMARK SMILES IDX 70 76 75 77 71 78 72 79 74 80 76 81 73 82 57 83 58 84 63 85
REMARK SMILES IDX 59 86 60 87 62 88 64 89 61 90
REMARK H PARENT 8 17 81 52 55 63
REMARK Flexibility Score: inf
ROOT
ATOM      1  C   UNL A   1      39.222  21.692  26.094  1.00  0.00     0.261 C 
ENDROOT
BRANCH   1   2
ATOM      2  O   UNL A   1      38.079  21.520  25.232  1.00  0.00    -0.463 OA
BRANCH   2   3
ATOM      3  C   UNL A   1      36.967  22.298  25.242  1.00  0.00     0.316 C 
ATOM      4  O   UNL A   1      37.085  23.508  25.432  1.00  0.00    -0.251 OA
BRANCH   3   5
ATOM      5  C   UNL A   1      35.611  21.661  25.052  1.00  0.00     0.193 C 
BRANCH   5   6
ATOM      6  S   UNL A   1      34.314  22.776  24.425  1.00  0.00    -0.132 SA
BRANCH   6   7
ATOM      7  C   UNL A   1      33.762  23.741  25.905  1.00  0.00     0.166 C 
BRANCH   7   8
ATOM      8  C   UNL A   1      33.640  25.222  25.568  1.00  0.00    -0.026 A 
ATOM      9  C   UNL A   1      33.252  26.110  26.594  1.00  0.00     0.005 A 
ATOM     10  C   UNL A   1      33.920  25.763  24.307  1.00  0.00     0.005 A 
ATOM     11  C   UNL A   1      33.157  27.483  26.369  1.00  0.00     0.000 A 
ATOM     12  C   UNL A   1      33.852  27.144  24.089  1.00  0.00     0.000 A 
ATOM     13  C   UNL A   1      33.469  28.002  25.117  1.00  0.00     0.000 A 
ENDBRANCH   7   8
BRANCH   7  14
ATOM     14  C   UNL A   1      32.616  23.092  26.705  1.00  0.00     0.242 C 
ATOM     15  O   UNL A   1      32.638  22.934  27.930  1.00  0.00    -0.273 OA
ATOM     16  N   UNL A   1      31.423  22.758  26.084  1.00  0.00    -0.325 N 
ATOM     17  H   UNL A   1      31.024  21.865  26.199  1.00  0.00     0.169 HD
BRANCH  16  18
ATOM     18  C   UNL A   1      30.798  23.730  25.284  1.00  0.00     0.041 A 
ATOM     19  C   UNL A   1      30.212  24.808  25.948  1.00  0.00     0.027 A 
ATOM     20  C   UNL A   1      30.963  23.742  23.905  1.00  0.00     0.027 A 
ATOM     21  C   UNL A   1      29.973  25.986  25.249  1.00  0.00     0.015 A 
ATOM     22  C   UNL A   1      30.727  24.923  23.207  1.00  0.00     0.015 A 
ATOM     23  C   UNL A   1      30.303  26.075  23.888  1.00  0.00     0.056 A 
BRANCH  23  24
ATOM     24  C   UNL A   1      30.252  27.412  23.190  1.00  0.00     0.416 C 
ATOM     25  F   UNL A   1      30.534  28.451  24.018  1.00  0.00    -0.166 F 
ATOM     26  F   UNL A   1      31.144  27.491  22.162  1.00  0.00    -0.166 F 
ATOM     27  F   UNL A   1      29.035  27.678  22.639  1.00  0.00    -0.166 F 
ENDBRANCH  23  24
ENDBRANCH  16  18
ENDBRANCH   7  14
ENDBRANCH   6   7
ENDBRANCH   5   6
ENDBRANCH   3   5
ENDBRANCH   2   3
ENDBRANCH   1   2
BRANCH   1  28
ATOM     28  C   UNL A   1      40.070  20.431  26.183  1.00  0.00     0.202 C 
BRANCH  28  29
ATOM     29  O   UNL A   1      41.334  20.608  26.806  1.00  0.00    -0.374 OA
BRANCH  29  30
ATOM     30  C   UNL A   1      42.485  20.288  26.027  1.00  0.00     0.202 C 
BRANCH  30  31
ATOM     31  C   UNL A   1      43.396  21.470  25.678  1.00  0.00     0.261 C 
BRANCH  31  32
ATOM     32  O   UNL A   1      42.717  22.570  25.036  1.00  0.00    -0.460 OA
BRANCH  32  33
ATOM     33  C   UNL A   1      43.406  23.732  25.007  1.00  0.00     0.338 C 
ATOM     34  O   UNL A   1      44.498  23.939  24.487  1.00  0.00    -0.246 OA
BRANCH  33  35
ATOM     35  C   UNL A   1      42.656  24.815  25.659  1.00  0.00     0.060 A 
ATOM     36  C   UNL A   1      43.167  26.118  25.621  1.00  0.00     0.016 A 
ATOM     37  C   UNL A   1      41.600  24.488  26.512  1.00  0.00     0.016 A 
ATOM     38  C   UNL A   1      42.666  27.087  26.495  1.00  0.00     0.010 A 
ATOM     39  C   UNL A   1      41.105  25.457  27.389  1.00  0.00     0.010 A 
ATOM     40  C   UNL A   1      41.674  26.742  27.422  1.00  0.00    -0.014 A 
BRANCH  40  41
ATOM     41  C   UNL A   1      41.356  27.644  28.559  1.00  0.00     0.031 A 
ATOM     42  C   UNL A   1      42.164  27.530  29.826  1.00  0.00     0.074 A 
ATOM     43  C   UNL A   1      40.351  28.532  28.483  1.00  0.00     0.049 A 
ATOM     44  N   UNL A   1      41.990  28.122  30.980  1.00  0.00    -0.248 NA
ATOM     45  C   UNL A   1      43.321  26.621  29.784  1.00  0.00     0.031 C 
ATOM     46  C   UNL A   1      39.519  28.772  27.307  1.00  0.00     0.029 A 
ATOM     47  N   UNL A   1      39.850  29.384  29.435  1.00  0.00    -0.354 N 
ATOM     48  C   UNL A   1      43.002  27.647  31.806  1.00  0.00     0.074 A 
ATOM     49  C   UNL A   1      43.776  26.705  31.026  1.00  0.00     0.031 C 
ATOM     50  C   UNL A   1      38.592  29.695  27.613  1.00  0.00     0.029 A 
ATOM     51  C   UNL A   1      38.747  30.085  29.014  1.00  0.00     0.049 A 
ATOM     52  H   UNL A   1      40.243  29.484  30.332  1.00  0.00     0.167 HD
ATOM     53  C   UNL A   1      43.266  27.968  33.095  1.00  0.00     0.037 A 
ATOM     54  C   UNL A   1      37.940  30.923  29.692  1.00  0.00     0.037 A 
ATOM     55  C   UNL A   1      42.502  28.905  33.873  1.00  0.00     0.049 A 
ATOM     56  C   UNL A   1      38.213  31.215  31.144  1.00  0.00     0.074 A 
ATOM     57  C   UNL A   1      42.705  29.308  35.183  1.00  0.00     0.029 A 
ATOM     58  N   UNL A   1      41.385  29.583  33.415  1.00  0.00    -0.354 N 
ATOM     59  N   UNL A   1      39.179  30.771  31.911  1.00  0.00    -0.248 NA
ATOM     60  C   UNL A   1      37.279  32.125  31.824  1.00  0.00     0.031 C 
ATOM     61  C   UNL A   1      41.688  30.205  35.527  1.00  0.00     0.029 A 
ATOM     62  C   UNL A   1      40.875  30.389  34.420  1.00  0.00     0.049 A 
ATOM     63  H   UNL A   1      41.009  29.505  32.509  1.00  0.00     0.167 HD
ATOM     64  C   UNL A   1      38.986  31.368  33.152  1.00  0.00     0.074 A 
ATOM     65  C   UNL A   1      37.815  32.210  33.034  1.00  0.00     0.031 C 
ATOM     66  C   UNL A   1      39.715  31.231  34.286  1.00  0.00     0.037 A 
BRANCH  53  67
ATOM     67  C   UNL A   1      44.424  27.277  33.752  1.00  0.00     0.057 A 
ATOM     68  C   UNL A   1      45.711  27.828  33.750  1.00  0.00     0.134 A 
ATOM     69  C   UNL A   1      44.243  26.058  34.419  1.00  0.00     0.134 A 
ATOM     70  F   UNL A   1      45.953  28.986  33.116  1.00  0.00    -0.206 F 
ATOM     71  C   UNL A   1      46.782  27.183  34.370  1.00  0.00     0.040 A 
ATOM     72  C   UNL A   1      45.300  25.414  35.062  1.00  0.00     0.040 A 
ATOM     73  F   UNL A   1      43.033  25.479  34.462  1.00  0.00    -0.206 F 
ATOM     74  C   UNL A   1      46.577  25.974  35.033  1.00  0.00     0.006 A 
ENDBRANCH  53  67
BRANCH  54  75
ATOM     75  C   UNL A   1      36.776  31.542  29.012  1.00  0.00     0.057 A 
ATOM     76  C   UNL A   1      36.793  32.891  28.640  1.00  0.00     0.134 A 
ATOM     77  C   UNL A   1      35.616  30.808  28.739  1.00  0.00     0.134 A 
ATOM     78  F   UNL A   1      37.868  33.649  28.899  1.00  0.00    -0.206 F 
ATOM     79  C   UNL A   1      35.690  33.492  28.031  1.00  0.00     0.040 A 
ATOM     80  C   UNL A   1      34.515  31.392  28.113  1.00  0.00     0.040 A 
ATOM     81  F   UNL A   1      35.540  29.512  29.075  1.00  0.00    -0.206 F 
ATOM     82  C   UNL A   1      34.548  32.740  27.763  1.00  0.00     0.006 A 
ENDBRANCH  54  75
BRANCH  66  83
ATOM     83  C   UNL A   1      39.295  32.042  35.476  1.00  0.00     0.057 A 
ATOM     84  C   UNL A   1      39.713  33.366  35.653  1.00  0.00     0.134 A 
ATOM     85  C   UNL A   1      38.432  31.500  36.438  1.00  0.00     0.134 A 
ATOM     86  F   UNL A   1      40.549  33.938  34.773  1.00  0.00    -0.206 F 
ATOM     87  C   UNL A   1      39.303  34.118  36.755  1.00  0.00     0.040 A 
ATOM     88  C   UNL A   1      37.998  32.248  37.533  1.00  0.00     0.040 A 
ATOM     89  F   UNL A   1      37.990  30.239  36.323  1.00  0.00    -0.206 F 
ATOM     90  C   UNL A   1      38.439  33.560  37.696  1.00  0.00     0.006 A 
ENDBRANCH  66  83
ENDBRANCH  40  41
ENDBRANCH  33  35
ENDBRANCH  32  33
ENDBRANCH  31  32
ENDBRANCH  30  31
ENDBRANCH  29  30
ENDBRANCH  28  29
ENDBRANCH   1  28
TORSDOF 20
ENDMDL
MODEL 2
REMARK VINA RESULT:     -11.1      2.635      3.395
REMARK SMILES O=C(CS[C@H](C(=O)Nc1ccc(C(F)(F)F)cc1)c1ccccc1)OCCOCCOC(=O)c1ccc(-c2c3nc(c(-c4c(F)cccc4F)c4ccc([nH]4)c(-c4c(F)cccc4F)c4nc(c(-c5c(F)cccc5F)c5ccc2[nH]5)C=C4)C=C3)cc1
REMARK SMILES IDX 26 1 25 2 2 3 1 4 3 5 4 6 5 7 19 8 20 9 24 10 21 11 23 12
REMARK SMILES IDX 22 13 6 14 7 15 8 16 9 18 10 19 18 20 11 21 17 22 12 23
REMARK SMILES IDX 13 24 14 25 15 26 16 27 27 28 28 29 29 30 30 31 31 32 32 33
REMARK SMILES IDX 33 34 34 35 35 36 87 37 36 38 86 39 37 40 38 41 39 42 80 43
REMARK SMILES IDX 40 44 85 45 79 46 81 47 41 48 84 49 78 50 77 51 42 53 68 54
REMARK SMILES IDX 51 55 67 56 52 57 55 58 66 59 82 60 53 61 54 62 65 64 83 65
REMARK SMILES IDX 56 66 43 67 44 68 49 69 45 70 46 71 48 72 50 73 47 74 69 75
REMARK SMILES IDX 70 76 75 77 71 78 72 79 74 80 76 81 73 82 57 83 58 84 63 85
REMARK SMILES IDX 59 86 60 87 62 88 64 89 61 90
REMARK H PARENT 8 17 81 52 55 63
REMARK Flexibility Score: inf
ROOT
ATOM      1  C   UNL A   1      39.710  21.691  26.439  1.00  0.00     0.261 C 
ENDROOT
BRANCH   1   2
ATOM      2  O   UNL A   1      38.440  21.657  25.757  1.00  0.00    -0.463 OA
BRANCH   2   3
ATOM      3  C   UNL A   1      37.528  22.663  25.751  1.00  0.00     0.316 C 
ATOM      4  O   UNL A   1      37.877  23.789  26.105  1.00  0.00    -0.251 OA
BRANCH   3   5
ATOM      5  C   UNL A   1      36.103  22.374  25.344  1.00  0.00     0.193 C 
BRANCH   5   6
ATOM      6  S   UNL A   1      35.651  22.931  23.669  1.00  0.00    -0.132 SA
BRANCH   6   7
ATOM      7  C   UNL A   1      33.812  23.139  23.719  1.00  0.00     0.166 C 
BRANCH   7   8
ATOM      8  C   UNL A   1      33.431  24.386  24.508  1.00  0.00    -0.026 A 
ATOM      9  C   UNL A   1      32.070  24.590  24.817  1.00  0.00     0.005 A 
ATOM     10  C   UNL A   1      34.356  25.329  24.973  1.00  0.00     0.005 A 
ATOM     11  C   UNL A   1      31.652  25.688  25.569  1.00  0.00     0.000 A 
ATOM     12  C   UNL A   1      33.940  26.416  25.751  1.00  0.00     0.000 A 
ATOM     13  C   UNL A   1      32.591  26.596  26.046  1.00  0.00     0.000 A 
ENDBRANCH   7   8
BRANCH   7  14
ATOM     14  C   UNL A   1      33.102  22.899  22.373  1.00  0.00     0.242 C 
ATOM     15  O   UNL A   1      33.500  23.355  21.296  1.00  0.00    -0.273 OA
ATOM     16  N   UNL A   1      32.022  22.033  22.289  1.00  0.00    -0.325 N 
ATOM     17  H   UNL A   1      31.188  22.305  21.841  1.00  0.00     0.169 HD
BRANCH  16  18
ATOM     18  C   UNL A   1      32.151  20.757  22.860  1.00  0.00     0.041 A 
ATOM     19  C   UNL A   1      31.970  19.665  22.010  1.00  0.00     0.027 A 
ATOM     20  C   UNL A   1      32.666  20.590  24.140  1.00  0.00     0.027 A 
ATOM     21  C   UNL A   1      32.495  18.429  22.372  1.00  0.00     0.015 A 
ATOM     22  C   UNL A   1      33.193  19.352  24.500  1.00  0.00     0.015 A 
ATOM     23  C   UNL A   1      33.179  18.285  23.588  1.00  0.00     0.056 A 
BRANCH  23  24
ATOM     24  C   UNL A   1      33.935  17.011  23.877  1.00  0.00     0.416 C 
ATOM     25  F   UNL A   1      33.158  16.052  24.442  1.00  0.00    -0.166 F 
ATOM     26  F   UNL A   1      34.463  16.457  22.747  1.00  0.00    -0.166 F 
ATOM     27  F   UNL A   1      34.989  17.197  24.719  1.00  0.00    -0.166 F 
ENDBRANCH  23  24
ENDBRANCH  16  18
ENDBRANCH   7  14
ENDBRANCH   6   7
ENDBRANCH   5   6
ENDBRANCH   3   5
ENDBRANCH   2   3
ENDBRANCH   1   2
BRANCH   1  28
ATOM     28  C   UNL A   1      40.501  20.404  26.244  1.00  0.00     0.202 C 
BRANCH  28  29
ATOM     29  O   UNL A   1      41.807  20.419  26.802  1.00  0.00    -0.374 OA
BRANCH  29  30
ATOM     30  C   UNL A   1      42.897  20.307  25.889  1.00  0.00     0.202 C 
BRANCH  30  31
ATOM     31  C   UNL A   1      43.695  21.593  25.651  1.00  0.00     0.261 C 
BRANCH  31  32
ATOM     32  O   UNL A   1      42.942  22.644  25.008  1.00  0.00    -0.460 OA
BRANCH  32  33
ATOM     33  C   UNL A   1      43.563  23.842  24.952  1.00  0.00     0.338 C 
ATOM     34  O   UNL A   1      44.626  24.108  24.397  1.00  0.00    -0.246 OA
BRANCH  33  35
ATOM     35  C   UNL A   1      42.774  24.886  25.621  1.00  0.00     0.060 A 
ATOM     36  C   UNL A   1      43.227  26.211  25.589  1.00  0.00     0.016 A 
ATOM     37  C   UNL A   1      41.742  24.506  26.482  1.00  0.00     0.016 A 
ATOM     38  C   UNL A   1      42.693  27.149  26.476  1.00  0.00     0.010 A 
ATOM     39  C   UNL A   1      41.215  25.445  27.373  1.00  0.00     0.010 A 
ATOM     40  C   UNL A   1      41.727  26.754  27.411  1.00  0.00    -0.014 A 
BRANCH  40  41
ATOM     41  C   UNL A   1      41.382  27.631  28.559  1.00  0.00     0.031 A 
ATOM     42  C   UNL A   1      42.165  27.496  29.839  1.00  0.00     0.074 A 
ATOM     43  C   UNL A   1      40.374  28.516  28.480  1.00  0.00     0.049 A 
ATOM     44  N   UNL A   1      41.965  28.065  31.001  1.00  0.00    -0.248 NA
ATOM     45  C   UNL A   1      43.327  26.593  29.802  1.00  0.00     0.031 C 
ATOM     46  C   UNL A   1      39.564  28.776  27.292  1.00  0.00     0.029 A 
ATOM     47  N   UNL A   1      39.850  29.347  29.438  1.00  0.00    -0.354 N 
ATOM     48  C   UNL A   1      42.963  27.578  31.837  1.00  0.00     0.074 A 
ATOM     49  C   UNL A   1      43.758  26.656  31.054  1.00  0.00     0.031 C 
ATOM     50  C   UNL A   1      38.627  29.689  27.599  1.00  0.00     0.029 A 
ATOM     51  C   UNL A   1      38.752  30.051  29.010  1.00  0.00     0.049 A 
ATOM     52  H   UNL A   1      40.225  29.431  30.345  1.00  0.00     0.167 HD
ATOM     53  C   UNL A   1      43.200  27.875  33.137  1.00  0.00     0.037 A 
ATOM     54  C   UNL A   1      37.927  30.872  29.688  1.00  0.00     0.037 A 
ATOM     55  C   UNL A   1      42.416  28.793  33.919  1.00  0.00     0.049 A 
ATOM     56  C   UNL A   1      38.171  31.136  31.151  1.00  0.00     0.074 A 
ATOM     57  C   UNL A   1      42.591  29.170  35.240  1.00  0.00     0.029 A 
ATOM     58  N   UNL A   1      41.305  29.474  33.452  1.00  0.00    -0.354 N 
ATOM     59  N   UNL A   1      39.123  30.682  31.927  1.00  0.00    -0.248 NA
ATOM     60  C   UNL A   1      37.219  32.028  31.830  1.00  0.00     0.031 C 
ATOM     61  C   UNL A   1      41.563  30.056  35.581  1.00  0.00     0.029 A 
ATOM     62  C   UNL A   1      40.771  30.258  34.462  1.00  0.00     0.049 A 
ATOM     63  H   UNL A   1      40.947  29.413  32.536  1.00  0.00     0.167 HD
ATOM     64  C   UNL A   1      38.903  31.253  33.176  1.00  0.00     0.074 A 
ATOM     65  C   UNL A   1      37.730  32.092  33.051  1.00  0.00     0.031 C 
ATOM     66  C   UNL A   1      39.610  31.097  34.321  1.00  0.00     0.037 A 
BRANCH  53  67
ATOM     67  C   UNL A   1      44.348  27.176  33.804  1.00  0.00     0.057 A 
ATOM     68  C   UNL A   1      44.200  25.921  34.404  1.00  0.00     0.134 A 
ATOM     69  C   UNL A   1      45.624  27.755  33.820  1.00  0.00     0.134 A 
ATOM     70  F   UNL A   1      43.000  25.319  34.433  1.00  0.00    -0.206 F 
ATOM     71  C   UNL A   1      45.274  25.272  35.015  1.00  0.00     0.040 A 
ATOM     72  C   UNL A   1      46.711  27.108  34.409  1.00  0.00     0.040 A 
ATOM     73  F   UNL A   1      45.835  28.955  33.258  1.00  0.00    -0.206 F 
ATOM     74  C   UNL A   1      46.536  25.864  35.015  1.00  0.00     0.006 A 
ENDBRANCH  53  67
BRANCH  54  75
ATOM     75  C   UNL A   1      36.775  31.499  28.997  1.00  0.00     0.057 A 
ATOM     76  C   UNL A   1      36.806  32.846  28.620  1.00  0.00     0.134 A 
ATOM     77  C   UNL A   1      35.610  30.774  28.718  1.00  0.00     0.134 A 
ATOM     78  F   UNL A   1      37.886  33.596  28.885  1.00  0.00    -0.206 F 
ATOM     79  C   UNL A   1      35.714  33.455  28.001  1.00  0.00     0.040 A 
ATOM     80  C   UNL A   1      34.519  31.366  28.082  1.00  0.00     0.040 A 
ATOM     81  F   UNL A   1      35.520  29.480  29.058  1.00  0.00    -0.206 F 
ATOM     82  C   UNL A   1      34.567  32.713  27.727  1.00  0.00     0.006 A 
ENDBRANCH  54  75
BRANCH  66  83
ATOM     83  C   UNL A   1      39.162  31.882  35.519  1.00  0.00     0.057 A 
ATOM     84  C   UNL A   1      39.606  33.189  35.753  1.00  0.00     0.134 A 
ATOM     85  C   UNL A   1      38.248  31.334  36.428  1.00  0.00     0.134 A 
ATOM     86  F   UNL A   1      40.491  33.765  34.926  1.00  0.00    -0.206 F 
ATOM     87  C   UNL A   1      39.170  33.918  36.861  1.00  0.00     0.040 A 
ATOM     88  C   UNL A   1      37.789  32.061  37.527  1.00  0.00     0.040 A 
ATOM     89  F   UNL A   1      37.779  30.089  36.256  1.00  0.00    -0.206 F 
ATOM     90  C   UNL A   1      38.255  33.355  37.749  1.00  0.00     0.006 A 
ENDBRANCH  66  83
ENDBRANCH  40  41
ENDBRANCH  33  35
ENDBRANCH  32  33
ENDBRANCH  31  32
ENDBRANCH  30  31
ENDBRANCH  29  30
ENDBRANCH  28  29
ENDBRANCH   1  28
TORSDOF 20
ENDMDL
MODEL 3
REMARK VINA RESULT:     -11.0      1.379      2.685
REMARK SMILES O=C(CS[C@H](C(=O)Nc1ccc(C(F)(F)F)cc1)c1ccccc1)OCCOCCOC(=O)c1ccc(-c2c3nc(c(-c4c(F)cccc4F)c4ccc([nH]4)c(-c4c(F)cccc4F)c4nc(c(-c5c(F)cccc5F)c5ccc2[nH]5)C=C4)C=C3)cc1
REMARK SMILES IDX 26 1 25 2 2 3 1 4 3 5 4 6 5 7 19 8 20 9 24 10 21 11 23 12
REMARK SMILES IDX 22 13 6 14 7 15 8 16 9 18 10 19 18 20 11 21 17 22 12 23
REMARK SMILES IDX 13 24 14 25 15 26 16 27 27 28 28 29 29 30 30 31 31 32 32 33
REMARK SMILES IDX 33 34 34 35 35 36 87 37 36 38 86 39 37 40 38 41 39 42 80 43
REMARK SMILES IDX 40 44 85 45 79 46 81 47 41 48 84 49 78 50 77 51 42 53 68 54
REMARK SMILES IDX 51 55 67 56 52 57 55 58 66 59 82 60 53 61 54 62 65 64 83 65
REMARK SMILES IDX 56 66 43 67 44 68 49 69 45 70 46 71 48 72 50 73 47 74 69 75
REMARK SMILES IDX 70 76 75 77 71 78 72 79 74 80 76 81 73 82 57 83 58 84 63 85
REMARK SMILES IDX 59 86 60 87 62 88 64 89 61 90
REMARK H PARENT 8 17 81 52 55 63
REMARK Flexibility Score: inf
ROOT
ATOM      1  C   UNL A   1      40.079  21.796  27.098  1.00  0.00     0.261 C 
ENDROOT
BRANCH   1   2
ATOM      2  O   UNL A   1      38.942  21.831  26.212  1.00  0.00    -0.463 OA
BRANCH   2   3
ATOM      3  C   UNL A   1      38.095  22.882  26.066  1.00  0.00     0.316 C 
ATOM      4  O   UNL A   1      38.515  24.021  26.270  1.00  0.00    -0.251 OA
BRANCH   3   5
ATOM      5  C   UNL A   1      36.654  22.632  25.691  1.00  0.00     0.193 C 
BRANCH   5   6
ATOM      6  S   UNL A   1      36.271  20.921  25.195  1.00  0.00    -0.132 SA
BRANCH   6   7
ATOM      7  C   UNL A   1      34.422  20.847  25.135  1.00  0.00     0.166 C 
BRANCH   7   8
ATOM      8  C   UNL A   1      33.955  19.546  24.494  1.00  0.00    -0.026 A 
ATOM      9  C   UNL A   1      32.733  19.551  23.788  1.00  0.00     0.005 A 
ATOM     10  C   UNL A   1      34.681  18.349  24.537  1.00  0.00     0.005 A 
ATOM     11  C   UNL A   1      32.262  18.408  23.144  1.00  0.00     0.000 A 
ATOM     12  C   UNL A   1      34.222  17.209  23.867  1.00  0.00     0.000 A 
ATOM     13  C   UNL A   1      33.013  17.237  23.174  1.00  0.00     0.000 A 
ENDBRANCH   7   8
BRANCH   7  14
ATOM     14  C   UNL A   1      33.718  21.302  26.428  1.00  0.00     0.242 C 
ATOM     15  O   UNL A   1      34.212  21.189  27.554  1.00  0.00    -0.273 OA
ATOM     16  N   UNL A   1      32.516  21.991  26.373  1.00  0.00    -0.325 N 
ATOM     17  H   UNL A   1      31.749  21.717  26.925  1.00  0.00     0.169 HD
BRANCH  16  18
ATOM     18  C   UNL A   1      32.425  23.093  25.506  1.00  0.00     0.041 A 
ATOM     19  C   UNL A   1      31.483  23.010  24.479  1.00  0.00     0.027 A 
ATOM     20  C   UNL A   1      33.062  24.293  25.798  1.00  0.00     0.027 A 
ATOM     21  C   UNL A   1      31.033  24.179  23.876  1.00  0.00     0.015 A 
ATOM     22  C   UNL A   1      32.609  25.463  25.194  1.00  0.00     0.015 A 
ATOM     23  C   UNL A   1      31.539  25.422  24.285  1.00  0.00     0.056 A 
BRANCH  23  24
ATOM     24  C   UNL A   1      30.895  26.694  23.791  1.00  0.00     0.416 C 
ATOM     25  F   UNL A   1      30.716  26.706  22.445  1.00  0.00    -0.166 F 
ATOM     26  F   UNL A   1      29.664  26.896  24.342  1.00  0.00    -0.166 F 
ATOM     27  F   UNL A   1      31.618  27.808  24.093  1.00  0.00    -0.166 F 
ENDBRANCH  23  24
ENDBRANCH  16  18
ENDBRANCH   7  14
ENDBRANCH   6   7
ENDBRANCH   5   6
ENDBRANCH   3   5
ENDBRANCH   2   3
ENDBRANCH   1   2
BRANCH   1  28
ATOM     28  C   UNL A   1      40.940  20.559  26.878  1.00  0.00     0.202 C 
BRANCH  28  29
ATOM     29  O   UNL A   1      41.663  20.550  25.655  1.00  0.00    -0.374 OA
BRANCH  29  30
ATOM     30  C   UNL A   1      43.075  20.369  25.745  1.00  0.00     0.202 C 
BRANCH  30  31
ATOM     31  C   UNL A   1      43.923  21.591  25.375  1.00  0.00     0.261 C 
BRANCH  31  32
ATOM     32  O   UNL A   1      43.167  22.684  24.812  1.00  0.00    -0.460 OA
BRANCH  32  33
ATOM     33  C   UNL A   1      43.783  23.887  24.850  1.00  0.00     0.338 C 
ATOM     34  O   UNL A   1      44.862  24.190  24.352  1.00  0.00    -0.246 OA
BRANCH  33  35
ATOM     35  C   UNL A   1      42.963  24.884  25.554  1.00  0.00     0.060 A 
ATOM     36  C   UNL A   1      43.287  26.241  25.433  1.00  0.00     0.016 A 
ATOM     37  C   UNL A   1      42.053  24.452  26.520  1.00  0.00     0.016 A 
ATOM     38  C   UNL A   1      42.750  27.166  26.332  1.00  0.00     0.010 A 
ATOM     39  C   UNL A   1      41.523  25.377  27.422  1.00  0.00     0.010 A 
ATOM     40  C   UNL A   1      41.912  26.727  27.367  1.00  0.00    -0.014 A 
BRANCH  40  41
ATOM     41  C   UNL A   1      41.593  27.619  28.511  1.00  0.00     0.031 A 
ATOM     42  C   UNL A   1      42.420  27.519  29.766  1.00  0.00     0.074 A 
ATOM     43  C   UNL A   1      40.569  28.487  28.451  1.00  0.00     0.049 A 
ATOM     44  N   UNL A   1      42.250  28.104  30.924  1.00  0.00    -0.248 NA
ATOM     45  C   UNL A   1      43.594  26.632  29.706  1.00  0.00     0.031 C 
ATOM     46  C   UNL A   1      39.716  28.714  27.286  1.00  0.00     0.029 A 
ATOM     47  N   UNL A   1      40.064  29.327  29.411  1.00  0.00    -0.354 N 
ATOM     48  C   UNL A   1      43.283  27.647  31.734  1.00  0.00     0.074 A 
ATOM     49  C   UNL A   1      44.065  26.723  30.941  1.00  0.00     0.031 C 
ATOM     50  C   UNL A   1      38.775  29.618  27.608  1.00  0.00     0.029 A 
ATOM     51  C   UNL A   1      38.942  30.007  29.008  1.00  0.00     0.049 A 
ATOM     52  H   UNL A   1      40.467  29.433  30.303  1.00  0.00     0.167 HD
ATOM     53  C   UNL A   1      43.558  27.971  33.020  1.00  0.00     0.037 A 
ATOM     54  C   UNL A   1      38.127  30.827  29.699  1.00  0.00     0.037 A 
ATOM     55  C   UNL A   1      42.786  28.890  33.812  1.00  0.00     0.049 A 
ATOM     56  C   UNL A   1      38.415  31.120  31.148  1.00  0.00     0.074 A 
ATOM     57  C   UNL A   1      42.999  29.293  35.120  1.00  0.00     0.029 A 
ATOM     58  N   UNL A   1      41.650  29.547  33.371  1.00  0.00    -0.354 N 
ATOM     59  N   UNL A   1      39.400  30.694  31.900  1.00  0.00    -0.248 NA
ATOM     60  C   UNL A   1      37.472  32.010  31.843  1.00  0.00     0.031 C 
ATOM     61  C   UNL A   1      41.969  30.169  35.480  1.00  0.00     0.029 A 
ATOM     62  C   UNL A   1      41.138  30.340  34.385  1.00  0.00     0.049 A 
ATOM     63  H   UNL A   1      41.263  29.464  32.469  1.00  0.00     0.167 HD
ATOM     64  C   UNL A   1      39.212  31.284  33.145  1.00  0.00     0.074 A 
ATOM     65  C   UNL A   1      38.023  32.103  33.046  1.00  0.00     0.031 C 
ATOM     66  C   UNL A   1      39.960  31.159  34.269  1.00  0.00     0.037 A 
BRANCH  53  67
ATOM     67  C   UNL A   1      44.738  27.301  33.660  1.00  0.00     0.057 A 
ATOM     68  C   UNL A   1      46.009  27.888  33.661  1.00  0.00     0.134 A 
ATOM     69  C   UNL A   1      44.595  26.066  34.306  1.00  0.00     0.134 A 
ATOM     70  F   UNL A   1      46.215  29.064  33.047  1.00  0.00    -0.206 F 
ATOM     71  C   UNL A   1      47.101  27.263  34.265  1.00  0.00     0.040 A 
ATOM     72  C   UNL A   1      45.674  25.442  34.933  1.00  0.00     0.040 A 
ATOM     73  F   UNL A   1      43.402  25.452  34.345  1.00  0.00    -0.206 F 
ATOM     74  C   UNL A   1      46.934  26.037  34.908  1.00  0.00     0.006 A 
ENDBRANCH  53  67
BRANCH  54  75
ATOM     75  C   UNL A   1      36.943  31.424  29.036  1.00  0.00     0.057 A 
ATOM     76  C   UNL A   1      35.781  30.674  28.825  1.00  0.00     0.134 A 
ATOM     77  C   UNL A   1      36.953  32.747  28.578  1.00  0.00     0.134 A 
ATOM     78  F   UNL A   1      35.723  29.393  29.219  1.00  0.00    -0.206 F 
ATOM     79  C   UNL A   1      34.674  31.214  28.170  1.00  0.00     0.040 A 
ATOM     80  C   UNL A   1      35.845  33.305  27.941  1.00  0.00     0.040 A 
ATOM     81  F   UNL A   1      38.039  33.514  28.750  1.00  0.00    -0.206 F 
ATOM     82  C   UNL A   1      34.703  32.536  27.729  1.00  0.00     0.006 A 
ENDBRANCH  54  75
BRANCH  66  83
ATOM     83  C   UNL A   1      39.540  31.958  35.467  1.00  0.00     0.057 A 
ATOM     84  C   UNL A   1      39.980  33.272  35.670  1.00  0.00     0.134 A 
ATOM     85  C   UNL A   1      38.655  31.417  36.409  1.00  0.00     0.134 A 
ATOM     86  F   UNL A   1      40.837  33.842  34.810  1.00  0.00    -0.206 F 
ATOM     87  C   UNL A   1      39.570  34.013  36.779  1.00  0.00     0.040 A 
ATOM     88  C   UNL A   1      38.222  32.156  37.511  1.00  0.00     0.040 A 
ATOM     89  F   UNL A   1      38.191  30.167  36.268  1.00  0.00    -0.206 F 
ATOM     90  C   UNL A   1      38.684  33.457  37.701  1.00  0.00     0.006 A 
ENDBRANCH  66  83
ENDBRANCH  40  41
ENDBRANCH  33  35
ENDBRANCH  32  33
ENDBRANCH  31  32
ENDBRANCH  30  31
ENDBRANCH  29  30
ENDBRANCH  28  29
ENDBRANCH   1  28
TORSDOF 20
ENDMDL
