MODEL 1
REMARK VINA RESULT:      -9.8      0.000      0.000
REMARK SMILES COCCNC(=O)Cn1ccc(C(=O)OCCOCCOC(=O)c2ccc(-c3c4nc(c(-c5c(F)cccc5F)c5ccc([nH]5)c(-c5c(F)cccc5F)c5nc(c(-c6c(F)cccc6F)c6ccc3[nH]6)C=C5)C=C4)cc2)c1
REMARK SMILES IDX 16 1 15 2 13 3 14 4 12 5 9 6 10 7 78 8 11 9 8 10 6 11 5 12
REMARK SMILES IDX 7 14 4 15 3 16 2 17 1 18 17 19 18 20 19 21 20 22 21 23 22 24
REMARK SMILES IDX 23 25 24 26 25 27 77 28 26 29 76 30 27 31 28 32 29 33 70 34
REMARK SMILES IDX 30 35 75 36 69 37 71 38 31 39 74 40 68 41 67 42 32 44 58 45
REMARK SMILES IDX 41 46 57 47 42 48 45 49 56 50 72 51 43 52 44 53 55 55 73 56
REMARK SMILES IDX 46 57 33 58 34 59 39 60 35 61 36 62 38 63 40 64 37 65 59 66
REMARK SMILES IDX 60 67 65 68 61 69 62 70 64 71 66 72 63 73 47 74 48 75 53 76
REMARK SMILES IDX 49 77 50 78 52 79 54 80 51 81
REMARK H PARENT 5 13 71 43 45 54
REMARK Flexibility Score: inf
ROOT
ATOM      1  C   UNL A   1      36.673  23.243  25.194  1.00  0.00     0.261 C 
ENDROOT
BRANCH   1   2
ATOM      2  O   UNL A   1      35.301  23.008  25.539  1.00  0.00    -0.460 OA
BRANCH   2   3
ATOM      3  C   UNL A   1      34.402  23.470  24.616  1.00  0.00     0.339 C 
ATOM      4  O   UNL A   1      34.326  24.611  24.220  1.00  0.00    -0.246 OA
BRANCH   3   5
ATOM      5  C   UNL A   1      33.641  22.379  24.016  1.00  0.00     0.077 A 
ATOM      6  N   UNL A   1      32.722  20.397  23.632  1.00  0.00    -0.344 N 
ATOM      7  C   UNL A   1      32.121  21.263  22.760  1.00  0.00     0.087 A 
ATOM      8  C   UNL A   1      33.770  21.026  24.258  1.00  0.00     0.101 A 
ATOM      9  C   UNL A   1      32.623  22.517  23.026  1.00  0.00     0.035 A 
BRANCH   6  10
ATOM     10  C   UNL A   1      32.254  19.060  23.954  1.00  0.00     0.221 C 
BRANCH  10  11
ATOM     11  C   UNL A   1      32.818  17.977  23.052  1.00  0.00     0.239 C 
ATOM     12  N   UNL A   1      33.849  17.175  23.443  1.00  0.00    -0.352 N 
ATOM     13  H   UNL A   1      34.208  16.599  22.730  1.00  0.00     0.163 HD
ATOM     14  O   UNL A   1      32.401  17.847  21.897  1.00  0.00    -0.273 OA
BRANCH  12  15
ATOM     15  C   UNL A   1      34.512  17.019  24.735  1.00  0.00     0.144 C 
BRANCH  15  16
ATOM     16  C   UNL A   1      34.903  15.566  25.049  1.00  0.00     0.181 C 
BRANCH  16  17
ATOM     17  O   UNL A   1      33.775  14.741  25.358  1.00  0.00    -0.383 OA
ATOM     18  C   UNL A   1      32.634  15.470  25.789  1.00  0.00     0.194 C 
ENDBRANCH  16  17
ENDBRANCH  15  16
ENDBRANCH  12  15
ENDBRANCH  10  11
ENDBRANCH   6  10
ENDBRANCH   3   5
ENDBRANCH   2   3
ENDBRANCH   1   2
BRANCH   1  19
ATOM     19  C   UNL A   1      37.493  21.952  25.236  1.00  0.00     0.202 C 
BRANCH  19  20
ATOM     20  O   UNL A   1      38.901  22.048  25.449  1.00  0.00    -0.374 OA
BRANCH  20  21
ATOM     21  C   UNL A   1      39.550  21.204  26.392  1.00  0.00     0.202 C 
BRANCH  21  22
ATOM     22  C   UNL A   1      39.910  19.773  26.019  1.00  0.00     0.261 C 
BRANCH  22  23
ATOM     23  O   UNL A   1      41.116  19.657  25.281  1.00  0.00    -0.460 OA
BRANCH  23  24
ATOM     24  C   UNL A   1      42.140  19.310  26.089  1.00  0.00     0.338 C 
ATOM     25  O   UNL A   1      42.321  18.243  26.655  1.00  0.00    -0.246 OA
BRANCH  24  26
ATOM     26  C   UNL A   1      42.936  20.482  26.408  1.00  0.00     0.060 A 
ATOM     27  C   UNL A   1      42.824  20.944  27.721  1.00  0.00     0.016 A 
ATOM     28  C   UNL A   1      43.338  21.291  25.338  1.00  0.00     0.016 A 
ATOM     29  C   UNL A   1      42.935  22.293  27.939  1.00  0.00     0.010 A 
ATOM     30  C   UNL A   1      43.394  22.646  25.545  1.00  0.00     0.010 A 
ATOM     31  C   UNL A   1      43.163  23.129  26.837  1.00  0.00    -0.014 A 
BRANCH  31  32
ATOM     32  C   UNL A   1      43.424  24.535  27.116  1.00  0.00     0.031 A 
ATOM     33  C   UNL A   1      42.040  25.239  27.292  1.00  0.00     0.074 A 
ATOM     34  C   UNL A   1      44.754  24.883  27.111  1.00  0.00     0.049 A 
ATOM     35  N   UNL A   1      41.698  26.472  27.101  1.00  0.00    -0.248 NA
ATOM     36  C   UNL A   1      40.829  24.433  27.670  1.00  0.00     0.031 C 
ATOM     37  C   UNL A   1      45.905  23.950  26.934  1.00  0.00     0.029 A 
ATOM     38  N   UNL A   1      45.429  26.074  27.246  1.00  0.00    -0.354 N 
ATOM     39  C   UNL A   1      40.367  26.633  27.560  1.00  0.00     0.074 A 
ATOM     40  C   UNL A   1      39.844  25.326  27.772  1.00  0.00     0.031 C 
ATOM     41  C   UNL A   1      47.082  24.620  26.864  1.00  0.00     0.029 A 
ATOM     42  C   UNL A   1      46.838  26.041  27.007  1.00  0.00     0.049 A 
ATOM     43  H   UNL A   1      44.966  26.906  27.493  1.00  0.00     0.167 HD
ATOM     44  C   UNL A   1      39.846  27.852  27.887  1.00  0.00     0.037 A 
ATOM     45  C   UNL A   1      47.701  27.106  26.877  1.00  0.00     0.037 A 
ATOM     46  C   UNL A   1      40.808  28.860  27.600  1.00  0.00     0.049 A 
ATOM     47  C   UNL A   1      46.859  28.262  27.203  1.00  0.00     0.074 A 
ATOM     48  C   UNL A   1      41.260  29.351  26.405  1.00  0.00     0.029 A 
ATOM     49  N   UNL A   1      41.730  29.116  28.586  1.00  0.00    -0.354 N 
ATOM     50  N   UNL A   1      46.430  28.551  28.394  1.00  0.00    -0.248 NA
ATOM     51  C   UNL A   1      46.306  29.043  26.092  1.00  0.00     0.031 C 
ATOM     52  C   UNL A   1      42.653  29.367  26.603  1.00  0.00     0.029 A 
ATOM     53  C   UNL A   1      42.948  29.245  27.967  1.00  0.00     0.049 A 
ATOM     54  H   UNL A   1      41.552  29.192  29.552  1.00  0.00     0.167 HD
ATOM     55  C   UNL A   1      45.317  29.306  28.122  1.00  0.00     0.074 A 
ATOM     56  C   UNL A   1      45.484  29.827  26.780  1.00  0.00     0.031 C 
ATOM     57  C   UNL A   1      44.140  29.044  28.751  1.00  0.00     0.037 A 
BRANCH  44  58
ATOM     58  C   UNL A   1      38.652  28.278  28.689  1.00  0.00     0.057 A 
ATOM     59  C   UNL A   1      37.889  29.365  28.198  1.00  0.00     0.134 A 
ATOM     60  C   UNL A   1      38.481  27.972  30.042  1.00  0.00     0.134 A 
ATOM     61  F   UNL A   1      37.926  29.703  26.898  1.00  0.00    -0.206 F 
ATOM     62  C   UNL A   1      37.150  30.202  29.034  1.00  0.00     0.040 A 
ATOM     63  C   UNL A   1      37.696  28.776  30.880  1.00  0.00     0.040 A 
ATOM     64  F   UNL A   1      39.139  26.958  30.618  1.00  0.00    -0.206 F 
ATOM     65  C   UNL A   1      37.074  29.922  30.389  1.00  0.00     0.006 A 
ENDBRANCH  44  58
BRANCH  45  66
ATOM     66  C   UNL A   1      49.111  27.428  26.406  1.00  0.00     0.057 A 
ATOM     67  C   UNL A   1      49.654  27.168  25.146  1.00  0.00     0.134 A 
ATOM     68  C   UNL A   1      50.012  28.127  27.270  1.00  0.00     0.134 A 
ATOM     69  F   UNL A   1      49.004  26.403  24.262  1.00  0.00    -0.206 F 
ATOM     70  C   UNL A   1      50.919  27.672  24.746  1.00  0.00     0.040 A 
ATOM     71  C   UNL A   1      51.232  28.683  26.871  1.00  0.00     0.040 A 
ATOM     72  F   UNL A   1      49.752  28.309  28.572  1.00  0.00    -0.206 F 
ATOM     73  C   UNL A   1      51.687  28.474  25.589  1.00  0.00     0.006 A 
ENDBRANCH  45  66
BRANCH  57  74
ATOM     74  C   UNL A   1      44.252  28.273  30.059  1.00  0.00     0.057 A 
ATOM     75  C   UNL A   1      44.942  28.830  31.141  1.00  0.00     0.134 A 
ATOM     76  C   UNL A   1      43.783  26.965  30.268  1.00  0.00     0.134 A 
ATOM     77  F   UNL A   1      45.406  30.087  31.064  1.00  0.00    -0.206 F 
ATOM     78  C   UNL A   1      45.172  28.128  32.335  1.00  0.00     0.040 A 
ATOM     79  C   UNL A   1      44.007  26.242  31.451  1.00  0.00     0.040 A 
ATOM     80  F   UNL A   1      43.081  26.332  29.335  1.00  0.00    -0.206 F 
ATOM     81  C   UNL A   1      44.711  26.825  32.492  1.00  0.00     0.006 A 
ENDBRANCH  57  74
ENDBRANCH  31  32
ENDBRANCH  24  26
ENDBRANCH  23  24
ENDBRANCH  22  23
ENDBRANCH  21  22
ENDBRANCH  20  21
ENDBRANCH  19  20
ENDBRANCH   1  19
TORSDOF 19
ENDMDL
MODEL 2
REMARK VINA RESULT:      -9.8      6.195     11.350
REMARK SMILES COCCNC(=O)Cn1ccc(C(=O)OCCOCCOC(=O)c2ccc(-c3c4nc(c(-c5c(F)cccc5F)c5ccc([nH]5)c(-c5c(F)cccc5F)c5nc(c(-c6c(F)cccc6F)c6ccc3[nH]6)C=C5)C=C4)cc2)c1
REMARK SMILES IDX 16 1 15 2 13 3 14 4 12 5 9 6 10 7 78 8 11 9 8 10 6 11 5 12
REMARK SMILES IDX 7 14 4 15 3 16 2 17 1 18 17 19 18 20 19 21 20 22 21 23 22 24
REMARK SMILES IDX 23 25 24 26 25 27 77 28 26 29 76 30 27 31 28 32 29 33 70 34
REMARK SMILES IDX 30 35 75 36 69 37 71 38 31 39 74 40 68 41 67 42 32 44 58 45
REMARK SMILES IDX 41 46 57 47 42 48 45 49 56 50 72 51 43 52 44 53 55 55 73 56
REMARK SMILES IDX 46 57 33 58 34 59 39 60 35 61 36 62 38 63 40 64 37 65 59 66
REMARK SMILES IDX 60 67 65 68 61 69 62 70 64 71 66 72 63 73 47 74 48 75 53 76
REMARK SMILES IDX 49 77 50 78 52 79 54 80 51 81
REMARK H PARENT 5 13 71 43 45 54
REMARK Flexibility Score: inf
ROOT
ATOM      1  C   UNL A   1      32.949  28.519  26.801  1.00  0.00     0.261 C 
ENDROOT
BRANCH   1   2
ATOM      2  O   UNL A   1      31.598  28.047  26.895  1.00  0.00    -0.460 OA
BRANCH   2   3
ATOM      3  C   UNL A   1      31.320  26.974  26.093  1.00  0.00     0.339 C 
ATOM      4  O   UNL A   1      31.297  25.818  26.450  1.00  0.00    -0.246 OA
BRANCH   3   5
ATOM      5  C   UNL A   1      30.873  27.395  24.769  1.00  0.00     0.077 A 
ATOM      6  N   UNL A   1      29.599  27.929  23.033  1.00  0.00    -0.344 N 
ATOM      7  C   UNL A   1      30.864  28.335  22.708  1.00  0.00     0.087 A 
ATOM      8  C   UNL A   1      29.634  27.193  24.193  1.00  0.00     0.101 A 
ATOM      9  C   UNL A   1      31.664  28.078  23.799  1.00  0.00     0.035 A 
BRANCH   6  10
ATOM     10  C   UNL A   1      28.381  28.320  22.344  1.00  0.00     0.221 C 
BRANCH  10  11
ATOM     11  C   UNL A   1      27.495  29.257  23.145  1.00  0.00     0.239 C 
ATOM     12  N   UNL A   1      27.793  30.579  23.297  1.00  0.00    -0.352 N 
ATOM     13  H   UNL A   1      27.216  31.054  23.938  1.00  0.00     0.163 HD
ATOM     14  O   UNL A   1      26.512  28.822  23.750  1.00  0.00    -0.273 OA
BRANCH  12  15
ATOM     15  C   UNL A   1      28.817  31.415  22.675  1.00  0.00     0.144 C 
BRANCH  15  16
ATOM     16  C   UNL A   1      28.562  32.921  22.845  1.00  0.00     0.181 C 
BRANCH  16  17
ATOM     17  O   UNL A   1      27.948  33.514  21.696  1.00  0.00    -0.383 OA
ATOM     18  C   UNL A   1      27.842  32.633  20.586  1.00  0.00     0.194 C 
ENDBRANCH  16  17
ENDBRANCH  15  16
ENDBRANCH  12  15
ENDBRANCH  10  11
ENDBRANCH   6  10
ENDBRANCH   3   5
ENDBRANCH   2   3
ENDBRANCH   1   2
BRANCH   1  19
ATOM     19  C   UNL A   1      33.027  30.038  26.959  1.00  0.00     0.202 C 
BRANCH  19  20
ATOM     20  O   UNL A   1      31.878  30.816  26.623  1.00  0.00    -0.374 OA
BRANCH  20  21
ATOM     21  C   UNL A   1      31.836  32.209  26.907  1.00  0.00     0.202 C 
BRANCH  21  22
ATOM     22  C   UNL A   1      32.883  32.836  27.816  1.00  0.00     0.261 C 
BRANCH  22  23
ATOM     23  O   UNL A   1      33.182  34.187  27.503  1.00  0.00    -0.460 OA
BRANCH  23  24
ATOM     24  C   UNL A   1      33.097  34.963  28.604  1.00  0.00     0.338 C 
ATOM     25  O   UNL A   1      32.311  35.872  28.823  1.00  0.00    -0.246 OA
BRANCH  24  26
ATOM     26  C   UNL A   1      34.247  34.735  29.460  1.00  0.00     0.060 A 
ATOM     27  C   UNL A   1      35.486  34.738  28.813  1.00  0.00     0.016 A 
ATOM     28  C   UNL A   1      34.017  34.088  30.680  1.00  0.00     0.016 A 
ATOM     29  C   UNL A   1      36.469  33.918  29.304  1.00  0.00     0.010 A 
ATOM     30  C   UNL A   1      34.980  33.226  31.141  1.00  0.00     0.010 A 
ATOM     31  C   UNL A   1      36.181  33.133  30.429  1.00  0.00    -0.014 A 
BRANCH  31  32
ATOM     32  C   UNL A   1      37.286  32.386  31.015  1.00  0.00     0.031 A 
ATOM     33  C   UNL A   1      37.489  31.100  30.152  1.00  0.00     0.074 A 
ATOM     34  C   UNL A   1      37.818  32.949  32.151  1.00  0.00     0.049 A 
ATOM     35  N   UNL A   1      37.981  29.946  30.471  1.00  0.00    -0.248 NA
ATOM     36  C   UNL A   1      37.005  31.065  28.729  1.00  0.00     0.031 C 
ATOM     37  C   UNL A   1      37.422  34.255  32.753  1.00  0.00     0.029 A 
ATOM     38  N   UNL A   1      38.790  32.559  33.044  1.00  0.00    -0.354 N 
ATOM     39  C   UNL A   1      38.096  29.176  29.287  1.00  0.00     0.074 A 
ATOM     40  C   UNL A   1      37.362  29.862  28.278  1.00  0.00     0.031 C 
ATOM     41  C   UNL A   1      38.055  34.473  33.932  1.00  0.00     0.029 A 
ATOM     42  C   UNL A   1      38.939  33.360  34.218  1.00  0.00     0.049 A 
ATOM     43  H   UNL A   1      39.353  31.768  32.882  1.00  0.00     0.167 HD
ATOM     44  C   UNL A   1      38.933  28.103  29.188  1.00  0.00     0.037 A 
ATOM     45  C   UNL A   1      39.679  33.084  35.346  1.00  0.00     0.037 A 
ATOM     46  C   UNL A   1      39.544  27.873  30.451  1.00  0.00     0.049 A 
ATOM     47  C   UNL A   1      40.398  31.858  34.982  1.00  0.00     0.074 A 
ATOM     48  C   UNL A   1      39.025  27.386  31.621  1.00  0.00     0.029 A 
ATOM     49  N   UNL A   1      40.684  28.594  30.714  1.00  0.00    -0.354 N 
ATOM     50  N   UNL A   1      41.378  31.801  34.131  1.00  0.00    -0.248 NA
ATOM     51  C   UNL A   1      39.863  30.580  35.463  1.00  0.00     0.031 C 
ATOM     52  C   UNL A   1      39.534  28.295  32.568  1.00  0.00     0.029 A 
ATOM     53  C   UNL A   1      40.587  29.032  32.010  1.00  0.00     0.049 A 
ATOM     54  H   UNL A   1      41.428  28.764  30.091  1.00  0.00     0.167 HD
ATOM     55  C   UNL A   1      41.334  30.489  33.731  1.00  0.00     0.074 A 
ATOM     56  C   UNL A   1      40.648  29.757  34.777  1.00  0.00     0.031 C 
ATOM     57  C   UNL A   1      41.370  30.174  32.409  1.00  0.00     0.037 A 
BRANCH  44  58
ATOM     58  C   UNL A   1      39.503  27.347  28.024  1.00  0.00     0.057 A 
ATOM     59  C   UNL A   1      39.561  25.936  28.127  1.00  0.00     0.134 A 
ATOM     60  C   UNL A   1      40.331  27.925  27.058  1.00  0.00     0.134 A 
ATOM     61  F   UNL A   1      38.759  25.272  28.976  1.00  0.00    -0.206 F 
ATOM     62  C   UNL A   1      40.509  25.172  27.447  1.00  0.00     0.040 A 
ATOM     63  C   UNL A   1      41.250  27.157  26.329  1.00  0.00     0.040 A 
ATOM     64  F   UNL A   1      40.354  29.249  26.858  1.00  0.00    -0.206 F 
ATOM     65  C   UNL A   1      41.379  25.789  26.561  1.00  0.00     0.006 A 
ENDBRANCH  44  58
BRANCH  45  66
ATOM     66  C   UNL A   1      39.858  33.552  36.781  1.00  0.00     0.057 A 
ATOM     67  C   UNL A   1      41.010  34.103  37.346  1.00  0.00     0.134 A 
ATOM     68  C   UNL A   1      38.754  33.512  37.690  1.00  0.00     0.134 A 
ATOM     69  F   UNL A   1      42.173  34.090  36.685  1.00  0.00    -0.206 F 
ATOM     70  C   UNL A   1      41.019  34.676  38.644  1.00  0.00     0.040 A 
ATOM     71  C   UNL A   1      38.730  34.127  38.946  1.00  0.00     0.040 A 
ATOM     72  F   UNL A   1      37.620  32.858  37.404  1.00  0.00    -0.206 F 
ATOM     73  C   UNL A   1      39.867  34.736  39.425  1.00  0.00     0.006 A 
ENDBRANCH  45  66
BRANCH  57  74
ATOM     74  C   UNL A   1      41.953  31.243  31.495  1.00  0.00     0.057 A 
ATOM     75  C   UNL A   1      43.287  31.638  31.645  1.00  0.00     0.134 A 
ATOM     76  C   UNL A   1      41.229  31.964  30.530  1.00  0.00     0.134 A 
ATOM     77  F   UNL A   1      44.082  30.997  32.515  1.00  0.00    -0.206 F 
ATOM     78  C   UNL A   1      43.852  32.691  30.907  1.00  0.00     0.040 A 
ATOM     79  C   UNL A   1      41.772  33.024  29.786  1.00  0.00     0.040 A 
ATOM     80  F   UNL A   1      39.962  31.667  30.262  1.00  0.00    -0.206 F 
ATOM     81  C   UNL A   1      43.092  33.395  29.978  1.00  0.00     0.006 A 
ENDBRANCH  57  74
ENDBRANCH  31  32
ENDBRANCH  24  26
ENDBRANCH  23  24
ENDBRANCH  22  23
ENDBRANCH  21  22
ENDBRANCH  20  21
ENDBRANCH  19  20
ENDBRANCH   1  19
TORSDOF 19
ENDMDL
MODEL 3
REMARK VINA RESULT:      -9.5      7.251     11.315
REMARK SMILES COCCNC(=O)Cn1ccc(C(=O)OCCOCCOC(=O)c2ccc(-c3c4nc(c(-c5c(F)cccc5F)c5ccc([nH]5)c(-c5c(F)cccc5F)c5nc(c(-c6c(F)cccc6F)c6ccc3[nH]6)C=C5)C=C4)cc2)c1
REMARK SMILES IDX 16 1 15 2 13 3 14 4 12 5 9 6 10 7 78 8 11 9 8 10 6 11 5 12
REMARK SMILES IDX 7 14 4 15 3 16 2 17 1 18 17 19 18 20 19 21 20 22 21 23 22 24
REMARK SMILES IDX 23 25 24 26 25 27 77 28 26 29 76 30 27 31 28 32 29 33 70 34
REMARK SMILES IDX 30 35 75 36 69 37 71 38 31 39 74 40 68 41 67 42 32 44 58 45
REMARK SMILES IDX 41 46 57 47 42 48 45 49 56 50 72 51 43 52 44 53 55 55 73 56
REMARK SMILES IDX 46 57 33 58 34 59 39 60 35 61 36 62 38 63 40 64 37 65 59 66
REMARK SMILES IDX 60 67 65 68 61 69 62 70 64 71 66 72 63 73 47 74 48 75 53 76
REMARK SMILES IDX 49 77 50 78 52 79 54 80 51 81
REMARK H PARENT 5 13 71 43 45 54
REMARK Flexibility Score: inf
ROOT
ATOM      1  C   UNL A   1      33.771  31.051  27.501  1.00  0.00     0.261 C 
ENDROOT
BRANCH   1   2
ATOM      2  O   UNL A   1      32.852  30.449  26.580  1.00  0.00    -0.460 OA
BRANCH   2   3
ATOM      3  C   UNL A   1      32.753  29.089  26.692  1.00  0.00     0.339 C 
ATOM      4  O   UNL A   1      32.226  28.496  27.606  1.00  0.00    -0.246 OA
BRANCH   3   5
ATOM      5  C   UNL A   1      33.207  28.416  25.479  1.00  0.00     0.077 A 
ATOM      6  N   UNL A   1      33.532  26.901  23.891  1.00  0.00    -0.344 N 
ATOM      7  C   UNL A   1      34.022  28.078  23.393  1.00  0.00     0.087 A 
ATOM      8  C   UNL A   1      33.213  27.060  25.218  1.00  0.00     0.101 A 
ATOM      9  C   UNL A   1      33.769  29.051  24.333  1.00  0.00     0.035 A 
BRANCH   6  10
ATOM     10  C   UNL A   1      33.260  25.702  23.117  1.00  0.00     0.221 C 
BRANCH  10  11
ATOM     11  C   UNL A   1      32.682  25.978  21.741  1.00  0.00     0.239 C 
ATOM     12  N   UNL A   1      31.460  26.562  21.574  1.00  0.00    -0.352 N 
ATOM     13  H   UNL A   1      31.140  26.574  20.642  1.00  0.00     0.163 HD
ATOM     14  O   UNL A   1      33.278  25.605  20.727  1.00  0.00    -0.273 OA
BRANCH  12  15
ATOM     15  C   UNL A   1      30.544  27.174  22.533  1.00  0.00     0.144 C 
BRANCH  15  16
ATOM     16  C   UNL A   1      30.426  28.698  22.376  1.00  0.00     0.181 C 
BRANCH  16  17
ATOM     17  O   UNL A   1      29.393  29.262  23.189  1.00  0.00    -0.383 OA
ATOM     18  C   UNL A   1      28.319  29.821  22.444  1.00  0.00     0.194 C 
ENDBRANCH  16  17
ENDBRANCH  15  16
ENDBRANCH  12  15
ENDBRANCH  10  11
ENDBRANCH   6  10
ENDBRANCH   3   5
ENDBRANCH   2   3
ENDBRANCH   1   2
BRANCH   1  19
ATOM     19  C   UNL A   1      33.406  32.508  27.789  1.00  0.00     0.202 C 
BRANCH  19  20
ATOM     20  O   UNL A   1      34.432  33.387  28.249  1.00  0.00    -0.374 OA
BRANCH  20  21
ATOM     21  C   UNL A   1      34.330  34.792  28.045  1.00  0.00     0.202 C 
BRANCH  21  22
ATOM     22  C   UNL A   1      33.148  35.564  28.614  1.00  0.00     0.261 C 
BRANCH  22  23
ATOM     23  O   UNL A   1      32.535  34.939  29.729  1.00  0.00    -0.460 OA
BRANCH  23  24
ATOM     24  C   UNL A   1      32.630  35.718  30.826  1.00  0.00     0.338 C 
ATOM     25  O   UNL A   1      32.153  36.829  31.002  1.00  0.00    -0.246 OA
BRANCH  24  26
ATOM     26  C   UNL A   1      33.599  35.156  31.750  1.00  0.00     0.060 A 
ATOM     27  C   UNL A   1      34.323  36.086  32.500  1.00  0.00     0.016 A 
ATOM     28  C   UNL A   1      34.054  33.858  31.485  1.00  0.00     0.016 A 
ATOM     29  C   UNL A   1      35.615  35.774  32.837  1.00  0.00     0.010 A 
ATOM     30  C   UNL A   1      35.364  33.566  31.773  1.00  0.00     0.010 A 
ATOM     31  C   UNL A   1      36.132  34.541  32.419  1.00  0.00    -0.014 A 
BRANCH  31  32
ATOM     32  C   UNL A   1      37.453  34.174  32.915  1.00  0.00     0.031 A 
ATOM     33  C   UNL A   1      37.346  34.047  34.469  1.00  0.00     0.074 A 
ATOM     34  C   UNL A   1      38.423  34.081  31.946  1.00  0.00     0.049 A 
ATOM     35  N   UNL A   1      38.249  34.194  35.384  1.00  0.00    -0.248 NA
ATOM     36  C   UNL A   1      36.014  33.785  35.113  1.00  0.00     0.031 C 
ATOM     37  C   UNL A   1      38.215  34.236  30.477  1.00  0.00     0.029 A 
ATOM     38  N   UNL A   1      39.778  33.844  31.973  1.00  0.00    -0.354 N 
ATOM     39  C   UNL A   1      37.681  33.809  36.625  1.00  0.00     0.074 A 
ATOM     40  C   UNL A   1      36.277  33.697  36.417  1.00  0.00     0.031 C 
ATOM     41  C   UNL A   1      39.391  34.200  29.801  1.00  0.00     0.029 A 
ATOM     42  C   UNL A   1      40.479  33.998  30.737  1.00  0.00     0.049 A 
ATOM     43  H   UNL A   1      40.241  33.582  32.801  1.00  0.00     0.167 HD
ATOM     44  C   UNL A   1      38.442  33.452  37.700  1.00  0.00     0.037 A 
ATOM     45  C   UNL A   1      41.840  34.021  30.530  1.00  0.00     0.037 A 
ATOM     46  C   UNL A   1      39.816  33.627  37.376  1.00  0.00     0.049 A 
ATOM     47  C   UNL A   1      42.385  33.687  31.851  1.00  0.00     0.074 A 
ATOM     48  C   UNL A   1      40.556  34.765  37.205  1.00  0.00     0.029 A 
ATOM     49  N   UNL A   1      40.427  32.575  36.737  1.00  0.00    -0.354 N 
ATOM     50  N   UNL A   1      42.327  32.511  32.399  1.00  0.00    -0.248 NA
ATOM     51  C   UNL A   1      42.862  34.788  32.695  1.00  0.00     0.031 C 
ATOM     52  C   UNL A   1      41.258  34.483  36.018  1.00  0.00     0.029 A 
ATOM     53  C   UNL A   1      41.198  33.111  35.738  1.00  0.00     0.049 A 
ATOM     54  H   UNL A   1      40.329  31.619  36.955  1.00  0.00     0.167 HD
ATOM     55  C   UNL A   1      42.435  32.810  33.734  1.00  0.00     0.074 A 
ATOM     56  C   UNL A   1      43.069  34.111  33.818  1.00  0.00     0.031 C 
ATOM     57  C   UNL A   1      41.569  32.269  34.630  1.00  0.00     0.037 A 
BRANCH  44  58
ATOM     58  C   UNL A   1      38.145  32.702  38.966  1.00  0.00     0.057 A 
ATOM     59  C   UNL A   1      37.425  31.489  38.852  1.00  0.00     0.134 A 
ATOM     60  C   UNL A   1      38.157  33.290  40.233  1.00  0.00     0.134 A 
ATOM     61  F   UNL A   1      37.404  30.804  37.696  1.00  0.00    -0.206 F 
ATOM     62  C   UNL A   1      36.621  30.993  39.879  1.00  0.00     0.040 A 
ATOM     63  C   UNL A   1      37.395  32.769  41.288  1.00  0.00     0.040 A 
ATOM     64  F   UNL A   1      38.814  34.433  40.468  1.00  0.00    -0.206 F 
ATOM     65  C   UNL A   1      36.584  31.652  41.098  1.00  0.00     0.006 A 
ENDBRANCH  44  58
BRANCH  45  66
ATOM     66  C   UNL A   1      42.865  34.388  29.468  1.00  0.00     0.057 A 
ATOM     67  C   UNL A   1      43.209  35.673  29.043  1.00  0.00     0.134 A 
ATOM     68  C   UNL A   1      43.640  33.365  28.838  1.00  0.00     0.134 A 
ATOM     69  F   UNL A   1      42.492  36.737  29.424  1.00  0.00    -0.206 F 
ATOM     70  C   UNL A   1      44.305  35.918  28.178  1.00  0.00     0.040 A 
ATOM     71  C   UNL A   1      44.762  33.593  28.033  1.00  0.00     0.040 A 
ATOM     72  F   UNL A   1      43.344  32.065  28.969  1.00  0.00    -0.206 F 
ATOM     73  C   UNL A   1      45.116  34.883  27.713  1.00  0.00     0.006 A 
ENDBRANCH  45  66
BRANCH  57  74
ATOM     74  C   UNL A   1      40.863  30.998  34.176  1.00  0.00     0.057 A 
ATOM     75  C   UNL A   1      41.610  29.849  33.891  1.00  0.00     0.134 A 
ATOM     76  C   UNL A   1      39.486  30.884  33.923  1.00  0.00     0.134 A 
ATOM     77  F   UNL A   1      42.931  29.833  34.126  1.00  0.00    -0.206 F 
ATOM     78  C   UNL A   1      41.031  28.681  33.368  1.00  0.00     0.040 A 
ATOM     79  C   UNL A   1      38.888  29.729  33.395  1.00  0.00     0.040 A 
ATOM     80  F   UNL A   1      38.657  31.890  34.184  1.00  0.00    -0.206 F 
ATOM     81  C   UNL A   1      39.666  28.619  33.109  1.00  0.00     0.006 A 
ENDBRANCH  57  74
ENDBRANCH  31  32
ENDBRANCH  24  26
ENDBRANCH  23  24
ENDBRANCH  22  23
ENDBRANCH  21  22
ENDBRANCH  20  21
ENDBRANCH  19  20
ENDBRANCH   1  19
TORSDOF 19
ENDMDL
