MODEL 1
REMARK VINA RESULT:     -11.8      0.000      0.000
REMARK SMILES O=C(OCCOCCOC(=O)[C@@H]1C[C@@H]1C(=O)N1CCN(c2ncc(C(F)(F)F)cc2Cl)CC1)c1ccc(-c2c3nc(c(-c4c(F)cccc4F)c4ccc([nH]4)c(-c4c(F)cccc4F)c4nc(c(-c5c(F)cccc5F)c5ccc2[nH]5)C=C4)C=C3)cc1
REMARK SMILES IDX 7 1 6 2 5 3 4 4 3 5 2 6 1 7 34 8 35 9 87 10 36 11 86 12
REMARK SMILES IDX 37 13 38 14 39 15 80 16 40 17 85 18 79 19 81 20 41 21 84 22
REMARK SMILES IDX 78 23 77 24 42 26 68 27 51 28 67 29 52 30 55 31 66 32 82 33
REMARK SMILES IDX 53 34 54 35 65 37 83 38 56 39 43 40 44 41 49 42 45 43 46 44
REMARK SMILES IDX 48 45 50 46 47 47 69 48 70 49 75 50 71 51 72 52 74 53 76 54
REMARK SMILES IDX 73 55 57 56 58 57 63 58 59 59 60 60 62 61 64 62 61 63 8 64
REMARK SMILES IDX 9 65 10 66 11 67 12 68 13 69 14 70 15 71 16 72 17 73 18 74
REMARK SMILES IDX 33 75 19 76 32 77 20 78 21 79 22 80 30 81 23 82 29 83 31 84
REMARK SMILES IDX 24 85 25 86 26 87 27 88 28 89
REMARK H PARENT 81 25 55 36
REMARK Flexibility Score: inf
ROOT
ATOM      1  C   UNL A   1      31.421  29.900  25.387  1.00  0.00     0.202 C 
ENDROOT
BRANCH   1   2
ATOM      2  O   UNL A   1      31.856  30.509  26.611  1.00  0.00    -0.374 OA
BRANCH   2   3
ATOM      3  C   UNL A   1      31.449  31.863  26.831  1.00  0.00     0.202 C 
BRANCH   3   4
ATOM      4  C   UNL A   1      32.544  32.944  26.909  1.00  0.00     0.261 C 
BRANCH   4   5
ATOM      5  O   UNL A   1      32.194  34.056  27.749  1.00  0.00    -0.460 OA
BRANCH   5   6
ATOM      6  C   UNL A   1      32.981  34.702  28.641  1.00  0.00     0.338 C 
ATOM      7  O   UNL A   1      32.653  35.820  29.033  1.00  0.00    -0.246 OA
BRANCH   6   8
ATOM      8  C   UNL A   1      34.239  34.111  29.186  1.00  0.00     0.060 A 
ATOM      9  C   UNL A   1      35.515  34.391  28.703  1.00  0.00     0.016 A 
ATOM     10  C   UNL A   1      34.134  33.272  30.308  1.00  0.00     0.016 A 
ATOM     11  C   UNL A   1      36.647  33.817  29.240  1.00  0.00     0.010 A 
ATOM     12  C   UNL A   1      35.278  32.721  30.896  1.00  0.00     0.010 A 
ATOM     13  C   UNL A   1      36.535  32.987  30.346  1.00  0.00    -0.014 A 
BRANCH  13  14
ATOM     14  C   UNL A   1      37.774  32.361  30.820  1.00  0.00     0.031 A 
ATOM     15  C   UNL A   1      38.354  32.830  32.113  1.00  0.00     0.074 A 
ATOM     16  C   UNL A   1      38.230  31.269  30.184  1.00  0.00     0.049 A 
ATOM     17  N   UNL A   1      39.420  32.412  32.737  1.00  0.00    -0.248 NA
ATOM     18  C   UNL A   1      37.622  33.903  32.811  1.00  0.00     0.031 C 
ATOM     19  C   UNL A   1      37.612  30.666  28.996  1.00  0.00     0.029 A 
ATOM     20  N   UNL A   1      39.280  30.443  30.469  1.00  0.00    -0.354 N 
ATOM     21  C   UNL A   1      39.504  33.185  33.885  1.00  0.00     0.074 A 
ATOM     22  C   UNL A   1      38.382  34.096  33.878  1.00  0.00     0.031 C 
ATOM     23  C   UNL A   1      38.284  29.550  28.673  1.00  0.00     0.029 A 
ATOM     24  C   UNL A   1      39.412  29.401  29.584  1.00  0.00     0.049 A 
ATOM     25  H   UNL A   1      39.883  30.582  31.234  1.00  0.00     0.167 HD
ATOM     26  C   UNL A   1      40.451  33.136  34.848  1.00  0.00     0.037 A 
ATOM     27  C   UNL A   1      40.365  28.456  29.511  1.00  0.00     0.037 A 
ATOM     28  C   UNL A   1      41.557  32.220  34.816  1.00  0.00     0.049 A 
ATOM     29  C   UNL A   1      41.462  28.490  30.538  1.00  0.00     0.074 A 
ATOM     30  C   UNL A   1      42.631  32.123  35.680  1.00  0.00     0.029 A 
ATOM     31  N   UNL A   1      41.721  31.232  33.852  1.00  0.00    -0.354 N 
ATOM     32  N   UNL A   1      41.593  29.281  31.578  1.00  0.00    -0.248 NA
ATOM     33  C   UNL A   1      42.551  27.521  30.375  1.00  0.00     0.031 C 
ATOM     34  C   UNL A   1      43.464  31.099  35.217  1.00  0.00     0.029 A 
ATOM     35  C   UNL A   1      42.888  30.529  34.090  1.00  0.00     0.049 A 
ATOM     36  H   UNL A   1      41.098  31.057  33.110  1.00  0.00     0.167 HD
ATOM     37  C   UNL A   1      42.774  28.904  32.198  1.00  0.00     0.074 A 
ATOM     38  C   UNL A   1      43.308  27.796  31.429  1.00  0.00     0.031 C 
ATOM     39  C   UNL A   1      43.373  29.428  33.296  1.00  0.00     0.037 A 
BRANCH  26  40
ATOM     40  C   UNL A   1      40.355  34.154  35.942  1.00  0.00     0.057 A 
ATOM     41  C   UNL A   1      39.681  33.900  37.143  1.00  0.00     0.134 A 
ATOM     42  C   UNL A   1      40.904  35.431  35.767  1.00  0.00     0.134 A 
ATOM     43  F   UNL A   1      39.101  32.709  37.358  1.00  0.00    -0.206 F 
ATOM     44  C   UNL A   1      39.535  34.886  38.121  1.00  0.00     0.040 A 
ATOM     45  C   UNL A   1      40.783  36.419  36.744  1.00  0.00     0.040 A 
ATOM     46  F   UNL A   1      41.552  35.744  34.634  1.00  0.00    -0.206 F 
ATOM     47  C   UNL A   1      40.090  36.151  37.923  1.00  0.00     0.006 A 
ENDBRANCH  26  40
BRANCH  27  48
ATOM     48  C   UNL A   1      40.352  27.460  28.411  1.00  0.00     0.057 A 
ATOM     49  C   UNL A   1      39.663  26.248  28.529  1.00  0.00     0.134 A 
ATOM     50  C   UNL A   1      41.030  27.697  27.208  1.00  0.00     0.134 A 
ATOM     51  F   UNL A   1      39.010  25.949  29.661  1.00  0.00    -0.206 F 
ATOM     52  C   UNL A   1      39.659  25.305  27.497  1.00  0.00     0.040 A 
ATOM     53  C   UNL A   1      41.012  26.777  26.158  1.00  0.00     0.040 A 
ATOM     54  F   UNL A   1      41.710  28.839  27.027  1.00  0.00    -0.206 F 
ATOM     55  C   UNL A   1      40.330  25.572  26.305  1.00  0.00     0.006 A 
ENDBRANCH  27  48
BRANCH  39  56
ATOM     56  C   UNL A   1      44.654  28.787  33.727  1.00  0.00     0.057 A 
ATOM     57  C   UNL A   1      44.668  27.691  34.598  1.00  0.00     0.134 A 
ATOM     58  C   UNL A   1      45.880  29.243  33.229  1.00  0.00     0.134 A 
ATOM     59  F   UNL A   1      43.524  27.220  35.117  1.00  0.00    -0.206 F 
ATOM     60  C   UNL A   1      45.863  27.078  34.971  1.00  0.00     0.040 A 
ATOM     61  C   UNL A   1      47.080  28.624  33.577  1.00  0.00     0.040 A 
ATOM     62  F   UNL A   1      45.928  30.285  32.385  1.00  0.00    -0.206 F 
ATOM     63  C   UNL A   1      47.073  27.541  34.454  1.00  0.00     0.006 A 
ENDBRANCH  39  56
ENDBRANCH  13  14
ENDBRANCH   6   8
ENDBRANCH   5   6
ENDBRANCH   4   5
ENDBRANCH   3   4
ENDBRANCH   2   3
ENDBRANCH   1   2
BRANCH   1  64
ATOM     64  C   UNL A   1      32.605  29.340  24.594  1.00  0.00     0.261 C 
BRANCH  64  65
ATOM     65  O   UNL A   1      32.192  29.118  23.237  1.00  0.00    -0.463 OA
BRANCH  65  66
ATOM     66  C   UNL A   1      32.459  27.878  22.772  1.00  0.00     0.309 C 
ATOM     67  O   UNL A   1      33.571  27.387  22.630  1.00  0.00    -0.252 OA
BRANCH  66  68
ATOM     68  C   UNL A   1      31.245  27.075  22.485  1.00  0.00     0.112 C 
ATOM     69  C   UNL A   1      29.956  27.396  23.181  1.00  0.00     0.030 C 
ATOM     70  C   UNL A   1      30.596  26.039  23.392  1.00  0.00     0.094 C 
BRANCH  70  71
ATOM     71  C   UNL A   1      31.133  25.649  24.723  1.00  0.00     0.226 C 
ATOM     72  O   UNL A   1      30.842  26.280  25.731  1.00  0.00    -0.275 OA
ATOM     73  N   UNL A   1      31.985  24.582  24.772  1.00  0.00    -0.339 N 
ATOM     74  C   UNL A   1      32.061  23.799  26.009  1.00  0.00     0.141 C 
ATOM     75  C   UNL A   1      32.810  24.107  23.660  1.00  0.00     0.141 C 
ATOM     76  C   UNL A   1      31.715  22.330  25.704  1.00  0.00     0.139 C 
ATOM     77  C   UNL A   1      32.544  22.624  23.372  1.00  0.00     0.139 C 
ATOM     78  N   UNL A   1      32.607  21.882  24.632  1.00  0.00    -0.352 N 
BRANCH  78  79
ATOM     79  C   UNL A   1      33.040  20.580  24.625  1.00  0.00     0.147 A 
ATOM     80  N   UNL A   1      32.098  19.608  24.642  1.00  0.00    -0.237 NA
ATOM     81  C   UNL A   1      34.409  20.271  24.653  1.00  0.00     0.084 A 
ATOM     82  C   UNL A   1      32.510  18.321  24.666  1.00  0.00     0.126 A 
ATOM     83  C   UNL A   1      34.806  18.939  24.694  1.00  0.00     0.039 A 
ATOM     84  Cl  UNL A   1      35.641  21.484  24.736  1.00  0.00    -0.080 Cl
ATOM     85  C   UNL A   1      33.841  17.934  24.700  1.00  0.00     0.075 A 
BRANCH  85  86
ATOM     86  C   UNL A   1      34.197  16.484  24.748  1.00  0.00     0.417 C 
ATOM     87  F   UNL A   1      35.477  16.275  25.155  1.00  0.00    -0.166 F 
ATOM     88  F   UNL A   1      33.407  15.785  25.608  1.00  0.00    -0.166 F 
ATOM     89  F   UNL A   1      34.080  15.863  23.543  1.00  0.00    -0.166 F 
ENDBRANCH  85  86
ENDBRANCH  78  79
ENDBRANCH  70  71
ENDBRANCH  66  68
ENDBRANCH  65  66
ENDBRANCH  64  65
ENDBRANCH   1  64
TORSDOF 17
ENDMDL
MODEL 2
REMARK VINA RESULT:     -11.5      4.220      8.883
REMARK SMILES O=C(OCCOCCOC(=O)[C@@H]1C[C@@H]1C(=O)N1CCN(c2ncc(C(F)(F)F)cc2Cl)CC1)c1ccc(-c2c3nc(c(-c4c(F)cccc4F)c4ccc([nH]4)c(-c4c(F)cccc4F)c4nc(c(-c5c(F)cccc5F)c5ccc2[nH]5)C=C4)C=C3)cc1
REMARK SMILES IDX 7 1 6 2 5 3 4 4 3 5 2 6 1 7 34 8 35 9 87 10 36 11 86 12
REMARK SMILES IDX 37 13 38 14 39 15 80 16 40 17 85 18 79 19 81 20 41 21 84 22
REMARK SMILES IDX 78 23 77 24 42 26 68 27 51 28 67 29 52 30 55 31 66 32 82 33
REMARK SMILES IDX 53 34 54 35 65 37 83 38 56 39 43 40 44 41 49 42 45 43 46 44
REMARK SMILES IDX 48 45 50 46 47 47 69 48 70 49 75 50 71 51 72 52 74 53 76 54
REMARK SMILES IDX 73 55 57 56 58 57 63 58 59 59 60 60 62 61 64 62 61 63 8 64
REMARK SMILES IDX 9 65 10 66 11 67 12 68 13 69 14 70 15 71 16 72 17 73 18 74
REMARK SMILES IDX 33 75 19 76 32 77 20 78 21 79 22 80 30 81 23 82 29 83 31 84
REMARK SMILES IDX 24 85 25 86 26 87 27 88 28 89
REMARK H PARENT 81 25 55 36
REMARK Flexibility Score: inf
ROOT
ATOM      1  C   UNL A   1      40.080  20.494  26.177  1.00  0.00     0.202 C 
ENDROOT
BRANCH   1   2
ATOM      2  O   UNL A   1      41.358  20.690  26.801  1.00  0.00    -0.374 OA
BRANCH   2   3
ATOM      3  C   UNL A   1      42.507  20.313  26.036  1.00  0.00     0.202 C 
BRANCH   3   4
ATOM      4  C   UNL A   1      43.480  21.423  25.598  1.00  0.00     0.261 C 
BRANCH   4   5
ATOM      5  O   UNL A   1      42.824  22.641  25.209  1.00  0.00    -0.460 OA
BRANCH   5   6
ATOM      6  C   UNL A   1      43.267  23.910  25.367  1.00  0.00     0.338 C 
ATOM      7  O   UNL A   1      44.042  24.385  24.540  1.00  0.00    -0.246 OA
BRANCH   6   8
ATOM      8  C   UNL A   1      42.844  24.777  26.508  1.00  0.00     0.060 A 
ATOM      9  C   UNL A   1      42.024  24.358  27.552  1.00  0.00     0.016 A 
ATOM     10  C   UNL A   1      43.367  26.079  26.568  1.00  0.00     0.016 A 
ATOM     11  C   UNL A   1      41.660  25.197  28.584  1.00  0.00     0.010 A 
ATOM     12  C   UNL A   1      43.048  26.927  27.634  1.00  0.00     0.010 A 
ATOM     13  C   UNL A   1      42.179  26.483  28.634  1.00  0.00    -0.014 A 
BRANCH  13  14
ATOM     14  C   UNL A   1      41.694  27.339  29.723  1.00  0.00     0.031 A 
ATOM     15  C   UNL A   1      42.495  27.405  30.981  1.00  0.00     0.074 A 
ATOM     16  C   UNL A   1      40.668  28.173  29.481  1.00  0.00     0.049 A 
ATOM     17  N   UNL A   1      42.278  28.106  32.060  1.00  0.00    -0.248 NA
ATOM     18  C   UNL A   1      43.721  26.588  31.023  1.00  0.00     0.031 C 
ATOM     19  C   UNL A   1      39.939  28.265  28.211  1.00  0.00     0.029 A 
ATOM     20  N   UNL A   1      40.094  29.132  30.265  1.00  0.00    -0.354 N 
ATOM     21  C   UNL A   1      43.321  27.795  32.919  1.00  0.00     0.074 A 
ATOM     22  C   UNL A   1      44.175  26.848  32.239  1.00  0.00     0.031 C 
ATOM     23  C   UNL A   1      39.031  29.249  28.298  1.00  0.00     0.029 A 
ATOM     24  C   UNL A   1      39.070  29.804  29.645  1.00  0.00     0.049 A 
ATOM     25  H   UNL A   1      40.387  29.323  31.186  1.00  0.00     0.167 HD
ATOM     26  C   UNL A   1      43.527  28.260  34.171  1.00  0.00     0.037 A 
ATOM     27  C   UNL A   1      38.240  30.741  30.136  1.00  0.00     0.037 A 
ATOM     28  C   UNL A   1      42.650  29.197  34.816  1.00  0.00     0.049 A 
ATOM     29  C   UNL A   1      38.432  31.163  31.566  1.00  0.00     0.074 A 
ATOM     30  C   UNL A   1      42.695  29.683  36.108  1.00  0.00     0.029 A 
ATOM     31  N   UNL A   1      41.559  29.794  34.196  1.00  0.00    -0.354 N 
ATOM     32  N   UNL A   1      39.367  30.802  32.413  1.00  0.00    -0.248 NA
ATOM     33  C   UNL A   1      37.449  32.103  32.116  1.00  0.00     0.031 C 
ATOM     34  C   UNL A   1      41.608  30.546  36.281  1.00  0.00     0.029 A 
ATOM     35  C   UNL A   1      40.911  30.632  35.084  1.00  0.00     0.049 A 
ATOM     36  H   UNL A   1      41.287  29.643  33.261  1.00  0.00     0.167 HD
ATOM     37  C   UNL A   1      39.092  31.472  33.595  1.00  0.00     0.074 A 
ATOM     38  C   UNL A   1      37.914  32.282  33.345  1.00  0.00     0.031 C 
ATOM     39  C   UNL A   1      39.742  31.421  34.784  1.00  0.00     0.037 A 
BRANCH  26  40
ATOM     40  C   UNL A   1      44.690  27.687  34.921  1.00  0.00     0.057 A 
ATOM     41  C   UNL A   1      45.956  28.287  34.910  1.00  0.00     0.134 A 
ATOM     42  C   UNL A   1      44.552  26.483  35.623  1.00  0.00     0.134 A 
ATOM     43  F   UNL A   1      46.164  29.422  34.225  1.00  0.00    -0.206 F 
ATOM     44  C   UNL A   1      47.048  27.698  35.551  1.00  0.00     0.040 A 
ATOM     45  C   UNL A   1      45.630  25.895  36.285  1.00  0.00     0.040 A 
ATOM     46  F   UNL A   1      43.369  25.850  35.663  1.00  0.00    -0.206 F 
ATOM     47  C   UNL A   1      46.885  26.499  36.244  1.00  0.00     0.006 A 
ENDBRANCH  26  40
BRANCH  27  48
ATOM     48  C   UNL A   1      37.139  31.282  29.300  1.00  0.00     0.057 A 
ATOM     49  C   UNL A   1      35.997  30.527  29.014  1.00  0.00     0.134 A 
ATOM     50  C   UNL A   1      37.204  32.576  28.764  1.00  0.00     0.134 A 
ATOM     51  F   UNL A   1      35.881  29.275  29.480  1.00  0.00    -0.206 F 
ATOM     52  C   UNL A   1      34.966  31.032  28.219  1.00  0.00     0.040 A 
ATOM     53  C   UNL A   1      36.168  33.104  27.990  1.00  0.00     0.040 A 
ATOM     54  F   UNL A   1      38.270  33.354  28.999  1.00  0.00    -0.206 F 
ATOM     55  C   UNL A   1      35.048  32.327  27.709  1.00  0.00     0.006 A 
ENDBRANCH  27  48
BRANCH  39  56
ATOM     56  C   UNL A   1      39.197  32.279  35.881  1.00  0.00     0.057 A 
ATOM     57  C   UNL A   1      38.261  31.789  36.800  1.00  0.00     0.134 A 
ATOM     58  C   UNL A   1      39.648  33.593  36.046  1.00  0.00     0.134 A 
ATOM     59  F   UNL A   1      37.782  30.541  36.682  1.00  0.00    -0.206 F 
ATOM     60  C   UNL A   1      37.781  32.584  37.838  1.00  0.00     0.040 A 
ATOM     61  C   UNL A   1      39.193  34.391  37.094  1.00  0.00     0.040 A 
ATOM     62  F   UNL A   1      40.550  34.115  35.200  1.00  0.00    -0.206 F 
ATOM     63  C   UNL A   1      38.252  33.887  37.991  1.00  0.00     0.006 A 
ENDBRANCH  39  56
ENDBRANCH  13  14
ENDBRANCH   6   8
ENDBRANCH   5   6
ENDBRANCH   4   5
ENDBRANCH   3   4
ENDBRANCH   2   3
ENDBRANCH   1   2
BRANCH   1  64
ATOM     64  C   UNL A   1      39.391  21.831  25.892  1.00  0.00     0.261 C 
BRANCH  64  65
ATOM     65  O   UNL A   1      37.969  21.642  25.948  1.00  0.00    -0.463 OA
BRANCH  65  66
ATOM     66  C   UNL A   1      37.254  22.635  25.375  1.00  0.00     0.309 C 
ATOM     67  O   UNL A   1      37.305  23.822  25.672  1.00  0.00    -0.252 OA
BRANCH  66  68
ATOM     68  C   UNL A   1      36.397  22.182  24.252  1.00  0.00     0.112 C 
ATOM     69  C   UNL A   1      35.721  23.192  23.374  1.00  0.00     0.030 C 
ATOM     70  C   UNL A   1      34.877  22.228  24.184  1.00  0.00     0.094 C 
BRANCH  70  71
ATOM     71  C   UNL A   1      34.011  22.718  25.289  1.00  0.00     0.226 C 
ATOM     72  O   UNL A   1      34.247  22.427  26.454  1.00  0.00    -0.275 OA
ATOM     73  N   UNL A   1      32.928  23.479  24.951  1.00  0.00    -0.339 N 
ATOM     74  C   UNL A   1      32.418  24.450  25.925  1.00  0.00     0.141 C 
ATOM     75  C   UNL A   1      32.243  23.449  23.658  1.00  0.00     0.141 C 
ATOM     76  C   UNL A   1      32.440  25.856  25.300  1.00  0.00     0.139 C 
ATOM     77  C   UNL A   1      32.182  24.850  23.035  1.00  0.00     0.139 C 
ATOM     78  N   UNL A   1      31.692  25.791  24.043  1.00  0.00    -0.352 N 
BRANCH  78  79
ATOM     79  C   UNL A   1      30.959  26.880  23.645  1.00  0.00     0.147 A 
ATOM     80  N   UNL A   1      29.612  26.797  23.749  1.00  0.00    -0.237 NA
ATOM     81  C   UNL A   1      31.582  28.015  23.101  1.00  0.00     0.084 A 
ATOM     82  C   UNL A   1      28.874  27.851  23.333  1.00  0.00     0.126 A 
ATOM     83  C   UNL A   1      30.799  29.079  22.666  1.00  0.00     0.039 A 
ATOM     84  Cl  UNL A   1      33.292  28.117  22.857  1.00  0.00    -0.080 Cl
ATOM     85  C   UNL A   1      29.412  29.004  22.781  1.00  0.00     0.075 A 
BRANCH  85  86
ATOM     86  C   UNL A   1      28.512  30.107  22.330  1.00  0.00     0.417 C 
ATOM     87  F   UNL A   1      27.752  29.754  21.258  1.00  0.00    -0.166 F 
ATOM     88  F   UNL A   1      27.641  30.494  23.301  1.00  0.00    -0.166 F 
ATOM     89  F   UNL A   1      29.184  31.231  21.959  1.00  0.00    -0.166 F 
ENDBRANCH  85  86
ENDBRANCH  78  79
ENDBRANCH  70  71
ENDBRANCH  66  68
ENDBRANCH  65  66
ENDBRANCH  64  65
ENDBRANCH   1  64
TORSDOF 17
ENDMDL
MODEL 3
REMARK VINA RESULT:     -11.5      4.509      8.208
REMARK SMILES O=C(OCCOCCOC(=O)[C@@H]1C[C@@H]1C(=O)N1CCN(c2ncc(C(F)(F)F)cc2Cl)CC1)c1ccc(-c2c3nc(c(-c4c(F)cccc4F)c4ccc([nH]4)c(-c4c(F)cccc4F)c4nc(c(-c5c(F)cccc5F)c5ccc2[nH]5)C=C4)C=C3)cc1
REMARK SMILES IDX 7 1 6 2 5 3 4 4 3 5 2 6 1 7 34 8 35 9 87 10 36 11 86 12
REMARK SMILES IDX 37 13 38 14 39 15 80 16 40 17 85 18 79 19 81 20 41 21 84 22
REMARK SMILES IDX 78 23 77 24 42 26 68 27 51 28 67 29 52 30 55 31 66 32 82 33
REMARK SMILES IDX 53 34 54 35 65 37 83 38 56 39 43 40 44 41 49 42 45 43 46 44
REMARK SMILES IDX 48 45 50 46 47 47 69 48 70 49 75 50 71 51 72 52 74 53 76 54
REMARK SMILES IDX 73 55 57 56 58 57 63 58 59 59 60 60 62 61 64 62 61 63 8 64
REMARK SMILES IDX 9 65 10 66 11 67 12 68 13 69 14 70 15 71 16 72 17 73 18 74
REMARK SMILES IDX 33 75 19 76 32 77 20 78 21 79 22 80 30 81 23 82 29 83 31 84
REMARK SMILES IDX 24 85 25 86 26 87 27 88 28 89
REMARK H PARENT 81 25 55 36
REMARK Flexibility Score: inf
ROOT
ATOM      1  C   UNL A   1      33.150  31.366  27.276  1.00  0.00     0.202 C 
ENDROOT
BRANCH   1   2
ATOM      2  O   UNL A   1      34.461  31.630  27.795  1.00  0.00    -0.374 OA
BRANCH   2   3
ATOM      3  C   UNL A   1      34.540  32.539  28.897  1.00  0.00     0.202 C 
BRANCH   3   4
ATOM      4  C   UNL A   1      35.920  32.779  29.538  1.00  0.00     0.261 C 
BRANCH   4   5
ATOM      5  O   UNL A   1      36.236  31.849  30.586  1.00  0.00    -0.460 OA
BRANCH   5   6
ATOM      6  C   UNL A   1      36.535  30.534  30.468  1.00  0.00     0.338 C 
ATOM      7  O   UNL A   1      35.663  29.696  30.689  1.00  0.00    -0.246 OA
BRANCH   6   8
ATOM      8  C   UNL A   1      37.888  30.046  30.065  1.00  0.00     0.060 A 
ATOM      9  C   UNL A   1      38.869  29.620  30.958  1.00  0.00     0.016 A 
ATOM     10  C   UNL A   1      38.163  29.941  28.692  1.00  0.00     0.016 A 
ATOM     11  C   UNL A   1      40.105  29.179  30.537  1.00  0.00     0.010 A 
ATOM     12  C   UNL A   1      39.395  29.449  28.246  1.00  0.00     0.010 A 
ATOM     13  C   UNL A   1      40.370  29.082  29.178  1.00  0.00    -0.014 A 
BRANCH  13  14
ATOM     14  C   UNL A   1      41.728  28.669  28.807  1.00  0.00     0.031 A 
ATOM     15  C   UNL A   1      41.942  27.260  28.361  1.00  0.00     0.074 A 
ATOM     16  C   UNL A   1      42.680  29.610  28.694  1.00  0.00     0.049 A 
ATOM     17  N   UNL A   1      43.041  26.680  27.965  1.00  0.00    -0.248 NA
ATOM     18  C   UNL A   1      40.753  26.390  28.337  1.00  0.00     0.031 C 
ATOM     19  C   UNL A   1      42.490  31.039  28.967  1.00  0.00     0.029 A 
ATOM     20  N   UNL A   1      43.977  29.521  28.272  1.00  0.00    -0.354 N 
ATOM     21  C   UNL A   1      42.685  25.373  27.671  1.00  0.00     0.074 A 
ATOM     22  C   UNL A   1      41.269  25.242  27.928  1.00  0.00     0.031 C 
ATOM     23  C   UNL A   1      43.625  31.695  28.681  1.00  0.00     0.029 A 
ATOM     24  C   UNL A   1      44.635  30.726  28.272  1.00  0.00     0.049 A 
ATOM     25  H   UNL A   1      44.398  28.675  27.997  1.00  0.00     0.167 HD
ATOM     26  C   UNL A   1      43.485  24.375  27.237  1.00  0.00     0.037 A 
ATOM     27  C   UNL A   1      45.923  30.998  28.000  1.00  0.00     0.037 A 
ATOM     28  C   UNL A   1      44.892  24.543  26.999  1.00  0.00     0.049 A 
ATOM     29  C   UNL A   1      46.813  29.849  27.617  1.00  0.00     0.074 A 
ATOM     30  C   UNL A   1      45.832  23.597  26.641  1.00  0.00     0.029 A 
ATOM     31  N   UNL A   1      45.557  25.759  27.098  1.00  0.00    -0.354 N 
ATOM     32  N   UNL A   1      46.496  28.589  27.425  1.00  0.00    -0.248 NA
ATOM     33  C   UNL A   1      48.237  30.147  27.434  1.00  0.00     0.031 C 
ATOM     34  C   UNL A   1      47.075  24.235  26.559  1.00  0.00     0.029 A 
ATOM     35  C   UNL A   1      46.902  25.586  26.824  1.00  0.00     0.049 A 
ATOM     36  H   UNL A   1      45.134  26.618  27.329  1.00  0.00     0.167 HD
ATOM     37  C   UNL A   1      47.676  27.944  27.092  1.00  0.00     0.074 A 
ATOM     38  C   UNL A   1      48.713  28.959  27.085  1.00  0.00     0.031 C 
ATOM     39  C   UNL A   1      47.893  26.632  26.826  1.00  0.00     0.037 A 
BRANCH  26  40
ATOM     40  C   UNL A   1      42.858  23.024  27.084  1.00  0.00     0.057 A 
ATOM     41  C   UNL A   1      42.465  22.518  25.838  1.00  0.00     0.134 A 
ATOM     42  C   UNL A   1      42.595  22.237  28.212  1.00  0.00     0.134 A 
ATOM     43  F   UNL A   1      42.655  23.238  24.721  1.00  0.00    -0.206 F 
ATOM     44  C   UNL A   1      41.811  21.290  25.722  1.00  0.00     0.040 A 
ATOM     45  C   UNL A   1      41.961  20.999  28.109  1.00  0.00     0.040 A 
ATOM     46  F   UNL A   1      42.934  22.669  29.437  1.00  0.00    -0.206 F 
ATOM     47  C   UNL A   1      41.560  20.524  26.861  1.00  0.00     0.006 A 
ENDBRANCH  26  40
BRANCH  27  48
ATOM     48  C   UNL A   1      46.445  32.381  28.139  1.00  0.00     0.057 A 
ATOM     49  C   UNL A   1      46.357  33.305  27.093  1.00  0.00     0.134 A 
ATOM     50  C   UNL A   1      47.046  32.814  29.329  1.00  0.00     0.134 A 
ATOM     51  F   UNL A   1      45.811  32.949  25.921  1.00  0.00    -0.206 F 
ATOM     52  C   UNL A   1      46.857  34.604  27.219  1.00  0.00     0.040 A 
ATOM     53  C   UNL A   1      47.525  34.117  29.479  1.00  0.00     0.040 A 
ATOM     54  F   UNL A   1      47.162  31.980  30.372  1.00  0.00    -0.206 F 
ATOM     55  C   UNL A   1      47.438  35.014  28.418  1.00  0.00     0.006 A 
ENDBRANCH  27  48
BRANCH  39  56
ATOM     56  C   UNL A   1      49.298  26.243  26.488  1.00  0.00     0.057 A 
ATOM     57  C   UNL A   1      49.807  26.391  25.192  1.00  0.00     0.134 A 
ATOM     58  C   UNL A   1      50.160  25.761  27.479  1.00  0.00     0.134 A 
ATOM     59  F   UNL A   1      49.022  26.835  24.199  1.00  0.00    -0.206 F 
ATOM     60  C   UNL A   1      51.126  26.056  24.891  1.00  0.00     0.040 A 
ATOM     61  C   UNL A   1      51.487  25.444  27.195  1.00  0.00     0.040 A 
ATOM     62  F   UNL A   1      49.729  25.605  28.741  1.00  0.00    -0.206 F 
ATOM     63  C   UNL A   1      51.972  25.587  25.896  1.00  0.00     0.006 A 
ENDBRANCH  39  56
ENDBRANCH  13  14
ENDBRANCH   6   8
ENDBRANCH   5   6
ENDBRANCH   4   5
ENDBRANCH   3   4
ENDBRANCH   2   3
ENDBRANCH   1   2
BRANCH   1  64
ATOM     64  C   UNL A   1      32.896  29.861  27.149  1.00  0.00     0.261 C 
BRANCH  64  65
ATOM     65  O   UNL A   1      32.314  29.595  25.864  1.00  0.00    -0.463 OA
BRANCH  65  66
ATOM     66  C   UNL A   1      32.934  28.618  25.165  1.00  0.00     0.309 C 
ATOM     67  O   UNL A   1      34.114  28.307  25.258  1.00  0.00    -0.252 OA
BRANCH  66  68
ATOM     68  C   UNL A   1      32.028  27.859  24.269  1.00  0.00     0.112 C 
ATOM     69  C   UNL A   1      30.558  27.810  24.562  1.00  0.00     0.030 C 
ATOM     70  C   UNL A   1      31.359  26.523  24.560  1.00  0.00     0.094 C 
BRANCH  70  71
ATOM     71  C   UNL A   1      31.561  25.751  25.816  1.00  0.00     0.226 C 
ATOM     72  O   UNL A   1      31.085  26.134  26.876  1.00  0.00    -0.275 OA
ATOM     73  N   UNL A   1      32.320  24.617  25.743  1.00  0.00    -0.339 N 
ATOM     74  C   UNL A   1      32.073  23.543  26.710  1.00  0.00     0.141 C 
ATOM     75  C   UNL A   1      33.346  24.350  24.735  1.00  0.00     0.141 C 
ATOM     76  C   UNL A   1      31.725  22.248  25.953  1.00  0.00     0.139 C 
ATOM     77  C   UNL A   1      33.072  23.028  24.007  1.00  0.00     0.139 C 
ATOM     78  N   UNL A   1      32.809  21.989  25.003  1.00  0.00    -0.352 N 
BRANCH  78  79
ATOM     79  C   UNL A   1      33.161  20.691  24.730  1.00  0.00     0.147 A 
ATOM     80  N   UNL A   1      32.172  19.836  24.380  1.00  0.00    -0.237 NA
ATOM     81  C   UNL A   1      34.490  20.257  24.862  1.00  0.00     0.084 A 
ATOM     82  C   UNL A   1      32.499  18.547  24.138  1.00  0.00     0.126 A 
ATOM     83  C   UNL A   1      34.797  18.922  24.622  1.00  0.00     0.039 A 
ATOM     84  Cl  UNL A   1      35.764  21.294  25.407  1.00  0.00    -0.080 Cl
ATOM     85  C   UNL A   1      33.784  18.039  24.251  1.00  0.00     0.075 A 
BRANCH  85  86
ATOM     86  C   UNL A   1      34.043  16.593  23.983  1.00  0.00     0.417 C 
ATOM     87  F   UNL A   1      35.056  16.096  24.742  1.00  0.00    -0.166 F 
ATOM     88  F   UNL A   1      32.957  15.816  24.245  1.00  0.00    -0.166 F 
ATOM     89  F   UNL A   1      34.383  16.339  22.690  1.00  0.00    -0.166 F 
ENDBRANCH  85  86
ENDBRANCH  78  79
ENDBRANCH  70  71
ENDBRANCH  66  68
ENDBRANCH  65  66
ENDBRANCH  64  65
ENDBRANCH   1  64
TORSDOF 17
ENDMDL
