MODEL 1
REMARK VINA RESULT:     -11.9      0.000      0.000
REMARK SMILES COc1cc2c(CC(=O)OCCOCCOC(=O)c3ccc(-c4c5nc(c(-c6c(F)cccc6F)c6ccc([nH]6)c(-c6c(F)cccc6F)c6nc(c(-c7c(F)cccc7F)c7ccc4[nH]7)C=C6)C=C5)cc3)c(C)n(C(=O)c3ccc(Cl)cc3)c2cc1Cl
REMARK SMILES IDX 12 1 11 2 10 3 8 4 9 5 7 6 6 7 3 8 4 9 87 10 5 11 86 12
REMARK SMILES IDX 88 13 85 14 73 15 75 16 74 17 2 18 1 19 76 20 77 21 78 22
REMARK SMILES IDX 79 23 84 24 80 25 83 26 81 27 82 28 13 29 14 30 15 31 16 32
REMARK SMILES IDX 17 33 18 34 19 35 20 36 72 37 21 38 71 39 22 40 23 41 24 42
REMARK SMILES IDX 65 43 25 44 70 45 64 46 66 47 26 48 69 49 63 50 62 51 27 53
REMARK SMILES IDX 53 54 36 55 52 56 37 57 40 58 51 59 67 60 38 61 39 62 50 64
REMARK SMILES IDX 68 65 41 66 28 67 29 68 34 69 30 70 31 71 33 72 35 73 32 74
REMARK SMILES IDX 54 75 55 76 60 77 56 78 57 79 59 80 61 81 58 82 42 83 43 84
REMARK SMILES IDX 48 85 44 86 45 87 47 88 49 89 46 90
REMARK H PARENT 66 52 40 63
REMARK Flexibility Score: inf
ROOT
ATOM      1  C   UNL A   1      41.019  21.201  27.425  1.00  0.00     0.202 C 
ENDROOT
BRANCH   1   2
ATOM      2  C   UNL A   1      40.367  21.718  26.131  1.00  0.00     0.261 C 
BRANCH   2   3
ATOM      3  O   UNL A   1      38.962  21.435  25.996  1.00  0.00    -0.463 OA
BRANCH   3   4
ATOM      4  C   UNL A   1      38.186  22.535  25.810  1.00  0.00     0.310 C 
ATOM      5  O   UNL A   1      38.356  23.599  26.402  1.00  0.00    -0.252 OA
BRANCH   4   6
ATOM      6  C   UNL A   1      37.072  22.407  24.797  1.00  0.00     0.160 C 
BRANCH   6   7
ATOM      7  C   UNL A   1      35.657  22.103  25.228  1.00  0.00    -0.008 A 
ATOM      8  C   UNL A   1      34.503  18.468  24.660  1.00  0.00     0.138 A 
ATOM      9  C   UNL A   1      35.347  19.593  24.572  1.00  0.00     0.058 A 
ATOM     10  C   UNL A   1      33.191  18.668  25.064  1.00  0.00     0.085 A 
ATOM     11  C   UNL A   1      34.966  20.867  25.058  1.00  0.00     0.008 A 
ATOM     12  C   UNL A   1      32.750  19.959  25.397  1.00  0.00     0.051 A 
ATOM     13  Cl  UNL A   1      31.991  17.437  25.259  1.00  0.00    -0.080 Cl
ATOM     14  C   UNL A   1      33.646  21.049  25.474  1.00  0.00     0.058 A 
ATOM     15  C   UNL A   1      34.734  23.019  25.727  1.00  0.00     0.028 A 
ATOM     16  N   UNL A   1      33.488  22.386  25.890  1.00  0.00    -0.280 N 
ATOM     17  C   UNL A   1      35.020  24.462  26.015  1.00  0.00     0.065 C 
BRANCH   8  18
ATOM     18  O   UNL A   1      35.186  17.314  24.395  1.00  0.00    -0.495 OA
ATOM     19  C   UNL A   1      34.991  16.155  25.188  1.00  0.00     0.278 C 
ENDBRANCH   8  18
BRANCH  16  20
ATOM     20  C   UNL A   1      32.274  22.978  26.366  1.00  0.00     0.262 C 
ATOM     21  O   UNL A   1      31.901  22.759  27.516  1.00  0.00    -0.268 OA
BRANCH  20  22
ATOM     22  C   UNL A   1      31.419  23.896  25.594  1.00  0.00     0.040 A 
ATOM     23  C   UNL A   1      31.527  23.963  24.199  1.00  0.00     0.015 A 
ATOM     24  C   UNL A   1      30.550  24.745  26.288  1.00  0.00     0.015 A 
ATOM     25  C   UNL A   1      30.832  24.959  23.509  1.00  0.00     0.021 A 
ATOM     26  C   UNL A   1      29.847  25.729  25.590  1.00  0.00     0.021 A 
ATOM     27  C   UNL A   1      30.009  25.847  24.208  1.00  0.00     0.041 A 
ATOM     28  Cl  UNL A   1      29.215  27.119  23.364  1.00  0.00    -0.084 Cl
ENDBRANCH  20  22
ENDBRANCH  16  20
ENDBRANCH   6   7
ENDBRANCH   4   6
ENDBRANCH   3   4
ENDBRANCH   2   3
ENDBRANCH   1   2
BRANCH   1  29
ATOM     29  O   UNL A   1      41.690  19.950  27.450  1.00  0.00    -0.374 OA
BRANCH  29  30
ATOM     30  C   UNL A   1      41.928  19.304  26.202  1.00  0.00     0.202 C 
BRANCH  30  31
ATOM     31  C   UNL A   1      43.348  19.283  25.601  1.00  0.00     0.261 C 
BRANCH  31  32
ATOM     32  O   UNL A   1      43.602  20.384  24.732  1.00  0.00    -0.460 OA
BRANCH  32  33
ATOM     33  C   UNL A   1      44.901  20.807  24.731  1.00  0.00     0.338 C 
ATOM     34  O   UNL A   1      45.848  20.317  24.174  1.00  0.00    -0.246 OA
BRANCH  33  35
ATOM     35  C   UNL A   1      44.802  22.208  25.184  1.00  0.00     0.060 A 
ATOM     36  C   UNL A   1      45.461  22.610  26.348  1.00  0.00     0.016 A 
ATOM     37  C   UNL A   1      43.733  22.944  24.646  1.00  0.00     0.016 A 
ATOM     38  C   UNL A   1      44.964  23.704  27.037  1.00  0.00     0.010 A 
ATOM     39  C   UNL A   1      43.225  24.023  25.356  1.00  0.00     0.010 A 
ATOM     40  C   UNL A   1      43.813  24.371  26.573  1.00  0.00    -0.014 A 
BRANCH  40  41
ATOM     41  C   UNL A   1      43.441  25.608  27.253  1.00  0.00     0.031 A 
ATOM     42  C   UNL A   1      44.428  26.678  26.949  1.00  0.00     0.074 A 
ATOM     43  C   UNL A   1      42.323  25.861  27.964  1.00  0.00     0.049 A 
ATOM     44  N   UNL A   1      45.291  27.200  27.753  1.00  0.00    -0.248 NA
ATOM     45  C   UNL A   1      44.619  27.042  25.534  1.00  0.00     0.031 C 
ATOM     46  C   UNL A   1      41.128  25.037  28.134  1.00  0.00     0.029 A 
ATOM     47  N   UNL A   1      41.999  26.999  28.647  1.00  0.00    -0.354 N 
ATOM     48  C   UNL A   1      46.016  28.104  26.984  1.00  0.00     0.074 A 
ATOM     49  C   UNL A   1      45.698  27.821  25.611  1.00  0.00     0.031 C 
ATOM     50  C   UNL A   1      40.137  25.788  28.678  1.00  0.00     0.029 A 
ATOM     51  C   UNL A   1      40.659  27.104  29.008  1.00  0.00     0.049 A 
ATOM     52  H   UNL A   1      42.663  27.692  28.868  1.00  0.00     0.167 HD
ATOM     53  C   UNL A   1      46.622  29.179  27.555  1.00  0.00     0.037 A 
ATOM     54  C   UNL A   1      40.032  28.213  29.487  1.00  0.00     0.037 A 
ATOM     55  C   UNL A   1      46.773  28.994  28.977  1.00  0.00     0.049 A 
ATOM     56  C   UNL A   1      41.076  29.138  29.992  1.00  0.00     0.074 A 
ATOM     57  C   UNL A   1      47.429  28.082  29.782  1.00  0.00     0.029 A 
ATOM     58  N   UNL A   1      45.880  29.636  29.797  1.00  0.00    -0.354 N 
ATOM     59  N   UNL A   1      41.777  28.920  31.068  1.00  0.00    -0.248 NA
ATOM     60  C   UNL A   1      41.656  30.082  29.049  1.00  0.00     0.031 C 
ATOM     61  C   UNL A   1      46.569  27.891  30.903  1.00  0.00     0.029 A 
ATOM     62  C   UNL A   1      45.472  28.738  30.746  1.00  0.00     0.049 A 
ATOM     63  H   UNL A   1      45.585  30.572  29.717  1.00  0.00     0.167 HD
ATOM     64  C   UNL A   1      43.060  29.320  30.733  1.00  0.00     0.074 A 
ATOM     65  C   UNL A   1      42.910  30.102  29.508  1.00  0.00     0.031 C 
ATOM     66  C   UNL A   1      44.148  28.737  31.316  1.00  0.00     0.037 A 
BRANCH  53  67
ATOM     67  C   UNL A   1      46.662  30.550  26.917  1.00  0.00     0.057 A 
ATOM     68  C   UNL A   1      45.525  31.326  26.608  1.00  0.00     0.134 A 
ATOM     69  C   UNL A   1      47.879  31.256  26.925  1.00  0.00     0.134 A 
ATOM     70  F   UNL A   1      44.285  30.828  26.587  1.00  0.00    -0.206 F 
ATOM     71  C   UNL A   1      45.584  32.706  26.400  1.00  0.00     0.040 A 
ATOM     72  C   UNL A   1      47.941  32.644  26.769  1.00  0.00     0.040 A 
ATOM     73  F   UNL A   1      49.036  30.631  27.189  1.00  0.00    -0.206 F 
ATOM     74  C   UNL A   1      46.787  33.378  26.523  1.00  0.00     0.006 A 
ENDBRANCH  53  67
BRANCH  54  75
ATOM     75  C   UNL A   1      38.636  28.680  29.299  1.00  0.00     0.057 A 
ATOM     76  C   UNL A   1      38.240  29.337  28.123  1.00  0.00     0.134 A 
ATOM     77  C   UNL A   1      37.741  28.769  30.380  1.00  0.00     0.134 A 
ATOM     78  F   UNL A   1      39.047  29.381  27.053  1.00  0.00    -0.206 F 
ATOM     79  C   UNL A   1      37.044  30.059  28.032  1.00  0.00     0.040 A 
ATOM     80  C   UNL A   1      36.542  29.493  30.303  1.00  0.00     0.040 A 
ATOM     81  F   UNL A   1      38.043  28.214  31.563  1.00  0.00    -0.206 F 
ATOM     82  C   UNL A   1      36.197  30.153  29.129  1.00  0.00     0.006 A 
ENDBRANCH  54  75
BRANCH  66  83
ATOM     83  C   UNL A   1      43.909  27.852  32.506  1.00  0.00     0.057 A 
ATOM     84  C   UNL A   1      43.917  28.430  33.780  1.00  0.00     0.134 A 
ATOM     85  C   UNL A   1      43.782  26.455  32.443  1.00  0.00     0.134 A 
ATOM     86  F   UNL A   1      44.092  29.754  33.920  1.00  0.00    -0.206 F 
ATOM     87  C   UNL A   1      43.784  27.663  34.938  1.00  0.00     0.040 A 
ATOM     88  C   UNL A   1      43.612  25.680  33.594  1.00  0.00     0.040 A 
ATOM     89  F   UNL A   1      43.869  25.801  31.277  1.00  0.00    -0.206 F 
ATOM     90  C   UNL A   1      43.616  26.284  34.847  1.00  0.00     0.006 A 
ENDBRANCH  66  83
ENDBRANCH  40  41
ENDBRANCH  33  35
ENDBRANCH  32  33
ENDBRANCH  31  32
ENDBRANCH  30  31
ENDBRANCH  29  30
ENDBRANCH   1  29
TORSDOF 18
ENDMDL
MODEL 2
REMARK VINA RESULT:     -11.5      3.142      5.891
REMARK SMILES COc1cc2c(CC(=O)OCCOCCOC(=O)c3ccc(-c4c5nc(c(-c6c(F)cccc6F)c6ccc([nH]6)c(-c6c(F)cccc6F)c6nc(c(-c7c(F)cccc7F)c7ccc4[nH]7)C=C6)C=C5)cc3)c(C)n(C(=O)c3ccc(Cl)cc3)c2cc1Cl
REMARK SMILES IDX 12 1 11 2 10 3 8 4 9 5 7 6 6 7 3 8 4 9 87 10 5 11 86 12
REMARK SMILES IDX 88 13 85 14 73 15 75 16 74 17 2 18 1 19 76 20 77 21 78 22
REMARK SMILES IDX 79 23 84 24 80 25 83 26 81 27 82 28 13 29 14 30 15 31 16 32
REMARK SMILES IDX 17 33 18 34 19 35 20 36 72 37 21 38 71 39 22 40 23 41 24 42
REMARK SMILES IDX 65 43 25 44 70 45 64 46 66 47 26 48 69 49 63 50 62 51 27 53
REMARK SMILES IDX 53 54 36 55 52 56 37 57 40 58 51 59 67 60 38 61 39 62 50 64
REMARK SMILES IDX 68 65 41 66 28 67 29 68 34 69 30 70 31 71 33 72 35 73 32 74
REMARK SMILES IDX 54 75 55 76 60 77 56 78 57 79 59 80 61 81 58 82 42 83 43 84
REMARK SMILES IDX 48 85 44 86 45 87 47 88 49 89 46 90
REMARK H PARENT 66 52 40 63
REMARK Flexibility Score: inf
ROOT
ATOM      1  C   UNL A   1      33.829  22.199  23.807  1.00  0.00     0.202 C 
ENDROOT
BRANCH   1   2
ATOM      2  C   UNL A   1      33.136  23.050  22.728  1.00  0.00     0.261 C 
BRANCH   2   3
ATOM      3  O   UNL A   1      33.929  24.123  22.188  1.00  0.00    -0.463 OA
BRANCH   3   4
ATOM      4  C   UNL A   1      33.260  25.296  22.043  1.00  0.00     0.310 C 
ATOM      5  O   UNL A   1      33.674  26.241  21.374  1.00  0.00    -0.252 OA
BRANCH   4   6
ATOM      6  C   UNL A   1      31.926  25.399  22.746  1.00  0.00     0.160 C 
BRANCH   6   7
ATOM      7  C   UNL A   1      31.650  26.505  23.736  1.00  0.00    -0.008 A 
ATOM      8  C   UNL A   1      29.735  29.542  22.327  1.00  0.00     0.138 A 
ATOM      9  C   UNL A   1      30.432  28.317  22.299  1.00  0.00     0.058 A 
ATOM     10  C   UNL A   1      29.808  30.307  23.482  1.00  0.00     0.085 A 
ATOM     11  C   UNL A   1      31.032  27.760  23.455  1.00  0.00     0.008 A 
ATOM     12  C   UNL A   1      30.538  29.839  24.587  1.00  0.00     0.051 A 
ATOM     13  Cl  UNL A   1      29.022  31.826  23.743  1.00  0.00    -0.080 Cl
ATOM     14  C   UNL A   1      31.085  28.537  24.613  1.00  0.00     0.058 A 
ATOM     15  C   UNL A   1      32.083  26.553  25.058  1.00  0.00     0.028 A 
ATOM     16  N   UNL A   1      31.740  27.798  25.619  1.00  0.00    -0.280 N 
ATOM     17  C   UNL A   1      32.828  25.459  25.763  1.00  0.00     0.065 C 
BRANCH   8  18
ATOM     18  O   UNL A   1      29.012  29.726  21.181  1.00  0.00    -0.495 OA
ATOM     19  C   UNL A   1      27.989  30.705  21.118  1.00  0.00     0.278 C 
ENDBRANCH   8  18
BRANCH  16  20
ATOM     20  C   UNL A   1      32.016  28.252  26.948  1.00  0.00     0.262 C 
ATOM     21  O   UNL A   1      31.413  27.757  27.897  1.00  0.00    -0.268 OA
BRANCH  20  22
ATOM     22  C   UNL A   1      33.025  29.264  27.306  1.00  0.00     0.040 A 
ATOM     23  C   UNL A   1      32.669  30.614  27.412  1.00  0.00     0.015 A 
ATOM     24  C   UNL A   1      34.354  28.857  27.470  1.00  0.00     0.015 A 
ATOM     25  C   UNL A   1      33.672  31.572  27.583  1.00  0.00     0.021 A 
ATOM     26  C   UNL A   1      35.349  29.819  27.654  1.00  0.00     0.021 A 
ATOM     27  C   UNL A   1      35.007  31.173  27.686  1.00  0.00     0.041 A 
ATOM     28  Cl  UNL A   1      36.245  32.360  27.819  1.00  0.00    -0.084 Cl
ENDBRANCH  20  22
ENDBRANCH  16  20
ENDBRANCH   6   7
ENDBRANCH   4   6
ENDBRANCH   3   4
ENDBRANCH   2   3
ENDBRANCH   1   2
BRANCH   1  29
ATOM     29  O   UNL A   1      34.970  22.690  24.495  1.00  0.00    -0.374 OA
BRANCH  29  30
ATOM     30  C   UNL A   1      36.157  21.902  24.447  1.00  0.00     0.202 C 
BRANCH  30  31
ATOM     31  C   UNL A   1      37.078  21.815  25.681  1.00  0.00     0.261 C 
BRANCH  31  32
ATOM     32  O   UNL A   1      38.213  22.674  25.590  1.00  0.00    -0.460 OA
BRANCH  32  33
ATOM     33  C   UNL A   1      39.243  22.328  26.418  1.00  0.00     0.338 C 
ATOM     34  O   UNL A   1      39.776  21.257  26.542  1.00  0.00    -0.246 OA
BRANCH  33  35
ATOM     35  C   UNL A   1      39.834  23.629  26.787  1.00  0.00     0.060 A 
ATOM     36  C   UNL A   1      40.982  23.670  27.581  1.00  0.00     0.016 A 
ATOM     37  C   UNL A   1      38.983  24.739  26.657  1.00  0.00     0.016 A 
ATOM     38  C   UNL A   1      41.213  24.806  28.340  1.00  0.00     0.010 A 
ATOM     39  C   UNL A   1      39.206  25.863  27.441  1.00  0.00     0.010 A 
ATOM     40  C   UNL A   1      40.294  25.874  28.314  1.00  0.00    -0.014 A 
BRANCH  40  41
ATOM     41  C   UNL A   1      40.681  27.100  29.008  1.00  0.00     0.031 A 
ATOM     42  C   UNL A   1      41.869  27.708  28.353  1.00  0.00     0.074 A 
ATOM     43  C   UNL A   1      40.036  27.721  30.016  1.00  0.00     0.049 A 
ATOM     44  N   UNL A   1      43.071  27.777  28.820  1.00  0.00    -0.248 NA
ATOM     45  C   UNL A   1      41.748  28.074  26.932  1.00  0.00     0.031 C 
ATOM     46  C   UNL A   1      38.724  27.431  30.595  1.00  0.00     0.029 A 
ATOM     47  N   UNL A   1      40.423  28.837  30.703  1.00  0.00    -0.354 N 
ATOM     48  C   UNL A   1      43.825  28.375  27.815  1.00  0.00     0.074 A 
ATOM     49  C   UNL A   1      43.016  28.350  26.627  1.00  0.00     0.031 C 
ATOM     50  C   UNL A   1      38.339  28.470  31.378  1.00  0.00     0.029 A 
ATOM     51  C   UNL A   1      39.420  29.439  31.456  1.00  0.00     0.049 A 
ATOM     52  H   UNL A   1      41.343  29.188  30.668  1.00  0.00     0.167 HD
ATOM     53  C   UNL A   1      44.955  29.070  28.110  1.00  0.00     0.037 A 
ATOM     54  C   UNL A   1      39.473  30.664  32.046  1.00  0.00     0.037 A 
ATOM     55  C   UNL A   1      45.446  28.729  29.422  1.00  0.00     0.049 A 
ATOM     56  C   UNL A   1      40.901  31.053  32.150  1.00  0.00     0.074 A 
ATOM     57  C   UNL A   1      45.891  27.572  30.031  1.00  0.00     0.029 A 
ATOM     58  N   UNL A   1      45.185  29.608  30.443  1.00  0.00    -0.354 N 
ATOM     59  N   UNL A   1      41.747  30.490  32.964  1.00  0.00    -0.248 NA
ATOM     60  C   UNL A   1      41.493  31.759  31.023  1.00  0.00     0.031 C 
ATOM     61  C   UNL A   1      45.415  27.653  31.373  1.00  0.00     0.029 A 
ATOM     62  C   UNL A   1      44.762  28.875  31.519  1.00  0.00     0.049 A 
ATOM     63  H   UNL A   1      45.283  30.587  30.408  1.00  0.00     0.167 HD
ATOM     64  C   UNL A   1      42.912  30.370  32.226  1.00  0.00     0.074 A 
ATOM     65  C   UNL A   1      42.723  31.241  31.067  1.00  0.00     0.031 C 
ATOM     66  C   UNL A   1      43.794  29.358  32.472  1.00  0.00     0.037 A 
BRANCH  53  67
ATOM     67  C   UNL A   1      45.346  30.357  27.417  1.00  0.00     0.057 A 
ATOM     68  C   UNL A   1      44.598  31.552  27.460  1.00  0.00     0.134 A 
ATOM     69  C   UNL A   1      46.676  30.503  26.979  1.00  0.00     0.134 A 
ATOM     70  F   UNL A   1      43.332  31.606  27.882  1.00  0.00    -0.206 F 
ATOM     71  C   UNL A   1      45.150  32.801  27.166  1.00  0.00     0.040 A 
ATOM     72  C   UNL A   1      47.250  31.754  26.732  1.00  0.00     0.040 A 
ATOM     73  F   UNL A   1      47.488  29.440  26.878  1.00  0.00    -0.206 F 
ATOM     74  C   UNL A   1      46.491  32.912  26.843  1.00  0.00     0.006 A 
ENDBRANCH  53  67
BRANCH  54  75
ATOM     75  C   UNL A   1      38.399  31.662  32.276  1.00  0.00     0.057 A 
ATOM     76  C   UNL A   1      37.677  31.690  33.481  1.00  0.00     0.134 A 
ATOM     77  C   UNL A   1      37.850  32.407  31.217  1.00  0.00     0.134 A 
ATOM     78  F   UNL A   1      38.067  30.959  34.535  1.00  0.00    -0.206 F 
ATOM     79  C   UNL A   1      36.473  32.390  33.619  1.00  0.00     0.040 A 
ATOM     80  C   UNL A   1      36.641  33.108  31.342  1.00  0.00     0.040 A 
ATOM     81  F   UNL A   1      38.436  32.412  30.012  1.00  0.00    -0.206 F 
ATOM     82  C   UNL A   1      35.941  33.090  32.542  1.00  0.00     0.006 A 
ENDBRANCH  54  75
BRANCH  66  83
ATOM     83  C   UNL A   1      43.596  28.552  33.723  1.00  0.00     0.057 A 
ATOM     84  C   UNL A   1      44.480  28.747  34.790  1.00  0.00     0.134 A 
ATOM     85  C   UNL A   1      42.644  27.530  33.866  1.00  0.00     0.134 A 
ATOM     86  F   UNL A   1      45.453  29.667  34.701  1.00  0.00    -0.206 F 
ATOM     87  C   UNL A   1      44.411  27.979  35.953  1.00  0.00     0.040 A 
ATOM     88  C   UNL A   1      42.541  26.779  35.041  1.00  0.00     0.040 A 
ATOM     89  F   UNL A   1      41.823  27.199  32.861  1.00  0.00    -0.206 F 
ATOM     90  C   UNL A   1      43.430  27.001  36.089  1.00  0.00     0.006 A 
ENDBRANCH  66  83
ENDBRANCH  40  41
ENDBRANCH  33  35
ENDBRANCH  32  33
ENDBRANCH  31  32
ENDBRANCH  30  31
ENDBRANCH  29  30
ENDBRANCH   1  29
TORSDOF 18
ENDMDL
MODEL 3
REMARK VINA RESULT:     -11.4      1.177      3.594
REMARK SMILES COc1cc2c(CC(=O)OCCOCCOC(=O)c3ccc(-c4c5nc(c(-c6c(F)cccc6F)c6ccc([nH]6)c(-c6c(F)cccc6F)c6nc(c(-c7c(F)cccc7F)c7ccc4[nH]7)C=C6)C=C5)cc3)c(C)n(C(=O)c3ccc(Cl)cc3)c2cc1Cl
REMARK SMILES IDX 12 1 11 2 10 3 8 4 9 5 7 6 6 7 3 8 4 9 87 10 5 11 86 12
REMARK SMILES IDX 88 13 85 14 73 15 75 16 74 17 2 18 1 19 76 20 77 21 78 22
REMARK SMILES IDX 79 23 84 24 80 25 83 26 81 27 82 28 13 29 14 30 15 31 16 32
REMARK SMILES IDX 17 33 18 34 19 35 20 36 72 37 21 38 71 39 22 40 23 41 24 42
REMARK SMILES IDX 65 43 25 44 70 45 64 46 66 47 26 48 69 49 63 50 62 51 27 53
REMARK SMILES IDX 53 54 36 55 52 56 37 57 40 58 51 59 67 60 38 61 39 62 50 64
REMARK SMILES IDX 68 65 41 66 28 67 29 68 34 69 30 70 31 71 33 72 35 73 32 74
REMARK SMILES IDX 54 75 55 76 60 77 56 78 57 79 59 80 61 81 58 82 42 83 43 84
REMARK SMILES IDX 48 85 44 86 45 87 47 88 49 89 46 90
REMARK H PARENT 66 52 40 63
REMARK Flexibility Score: inf
ROOT
ATOM      1  C   UNL A   1      40.524  21.787  27.587  1.00  0.00     0.202 C 
ENDROOT
BRANCH   1   2
ATOM      2  C   UNL A   1      39.582  22.042  26.398  1.00  0.00     0.261 C 
BRANCH   2   3
ATOM      3  O   UNL A   1      38.945  23.334  26.386  1.00  0.00    -0.463 OA
BRANCH   3   4
ATOM      4  C   UNL A   1      37.801  23.386  25.656  1.00  0.00     0.310 C 
ATOM      5  O   UNL A   1      37.770  23.631  24.451  1.00  0.00    -0.252 OA
BRANCH   4   6
ATOM      6  C   UNL A   1      36.516  23.103  26.399  1.00  0.00     0.160 C 
BRANCH   6   7
ATOM      7  C   UNL A   1      35.252  22.735  25.660  1.00  0.00    -0.008 A 
ATOM      8  C   UNL A   1      32.504  25.440  25.636  1.00  0.00     0.138 A 
ATOM      9  C   UNL A   1      33.717  24.822  26.000  1.00  0.00     0.058 A 
ATOM     10  C   UNL A   1      31.547  24.669  24.990  1.00  0.00     0.085 A 
ATOM     11  C   UNL A   1      34.064  23.519  25.567  1.00  0.00     0.008 A 
ATOM     12  C   UNL A   1      31.817  23.323  24.696  1.00  0.00     0.051 A 
ATOM     13  Cl  UNL A   1      30.004  25.221  24.439  1.00  0.00    -0.080 Cl
ATOM     14  C   UNL A   1      33.096  22.761  24.907  1.00  0.00     0.058 A 
ATOM     15  C   UNL A   1      34.974  21.505  25.068  1.00  0.00     0.028 A 
ATOM     16  N   UNL A   1      33.649  21.503  24.593  1.00  0.00    -0.280 N 
ATOM     17  C   UNL A   1      35.929  20.354  24.980  1.00  0.00     0.065 C 
BRANCH   8  18
ATOM     18  O   UNL A   1      32.521  26.776  25.928  1.00  0.00    -0.495 OA
ATOM     19  C   UNL A   1      33.627  27.585  25.565  1.00  0.00     0.278 C 
ENDBRANCH   8  18
BRANCH  16  20
ATOM     20  C   UNL A   1      32.969  20.429  23.935  1.00  0.00     0.262 C 
ATOM     21  O   UNL A   1      32.278  20.663  22.946  1.00  0.00    -0.268 OA
BRANCH  20  22
ATOM     22  C   UNL A   1      33.056  19.009  24.317  1.00  0.00     0.040 A 
ATOM     23  C   UNL A   1      33.446  18.045  23.380  1.00  0.00     0.015 A 
ATOM     24  C   UNL A   1      32.674  18.639  25.611  1.00  0.00     0.015 A 
ATOM     25  C   UNL A   1      33.355  16.692  23.715  1.00  0.00     0.021 A 
ATOM     26  C   UNL A   1      32.598  17.285  25.944  1.00  0.00     0.021 A 
ATOM     27  C   UNL A   1      32.916  16.318  24.989  1.00  0.00     0.041 A 
ATOM     28  Cl  UNL A   1      32.732  14.650  25.372  1.00  0.00    -0.084 Cl
ENDBRANCH  20  22
ENDBRANCH  16  20
ENDBRANCH   6   7
ENDBRANCH   4   6
ENDBRANCH   3   4
ENDBRANCH   2   3
ENDBRANCH   1   2
BRANCH   1  29
ATOM     29  O   UNL A   1      41.279  20.587  27.670  1.00  0.00    -0.374 OA
BRANCH  29  30
ATOM     30  C   UNL A   1      41.330  19.759  26.511  1.00  0.00     0.202 C 
BRANCH  30  31
ATOM     31  C   UNL A   1      42.680  19.476  25.822  1.00  0.00     0.261 C 
BRANCH  31  32
ATOM     32  O   UNL A   1      43.108  20.542  24.977  1.00  0.00    -0.460 OA
BRANCH  32  33
ATOM     33  C   UNL A   1      44.439  20.834  25.077  1.00  0.00     0.338 C 
ATOM     34  O   UNL A   1      45.373  20.237  24.611  1.00  0.00    -0.246 OA
BRANCH  33  35
ATOM     35  C   UNL A   1      44.445  22.251  25.491  1.00  0.00     0.060 A 
ATOM     36  C   UNL A   1      45.128  22.633  26.648  1.00  0.00     0.016 A 
ATOM     37  C   UNL A   1      43.439  23.051  24.927  1.00  0.00     0.016 A 
ATOM     38  C   UNL A   1      44.713  23.780  27.305  1.00  0.00     0.010 A 
ATOM     39  C   UNL A   1      43.011  24.184  25.605  1.00  0.00     0.010 A 
ATOM     40  C   UNL A   1      43.618  24.519  26.815  1.00  0.00    -0.014 A 
BRANCH  40  41
ATOM     41  C   UNL A   1      43.339  25.800  27.460  1.00  0.00     0.031 A 
ATOM     42  C   UNL A   1      44.416  26.777  27.148  1.00  0.00     0.074 A 
ATOM     43  C   UNL A   1      42.235  26.161  28.144  1.00  0.00     0.049 A 
ATOM     44  N   UNL A   1      45.306  27.246  27.955  1.00  0.00    -0.248 NA
ATOM     45  C   UNL A   1      44.659  27.088  25.729  1.00  0.00     0.031 C 
ATOM     46  C   UNL A   1      40.973  25.442  28.312  1.00  0.00     0.029 A 
ATOM     47  N   UNL A   1      41.995  27.339  28.795  1.00  0.00    -0.354 N 
ATOM     48  C   UNL A   1      46.116  28.068  27.178  1.00  0.00     0.074 A 
ATOM     49  C   UNL A   1      45.797  27.777  25.807  1.00  0.00     0.031 C 
ATOM     50  C   UNL A   1      40.039  26.286  28.821  1.00  0.00     0.029 A 
ATOM     51  C   UNL A   1      40.663  27.562  29.129  1.00  0.00     0.049 A 
ATOM     52  H   UNL A   1      42.710  27.980  29.011  1.00  0.00     0.167 HD
ATOM     53  C   UNL A   1      46.799  29.103  27.735  1.00  0.00     0.037 A 
ATOM     54  C   UNL A   1      40.122  28.731  29.570  1.00  0.00     0.037 A 
ATOM     55  C   UNL A   1      46.912  28.941  29.163  1.00  0.00     0.049 A 
ATOM     56  C   UNL A   1      41.231  29.579  30.072  1.00  0.00     0.074 A 
ATOM     57  C   UNL A   1      47.478  27.999  30.001  1.00  0.00     0.029 A 
ATOM     58  N   UNL A   1      46.062  29.675  29.952  1.00  0.00    -0.354 N 
ATOM     59  N   UNL A   1      41.894  29.330  31.165  1.00  0.00    -0.248 NA
ATOM     60  C   UNL A   1      41.902  30.448  29.118  1.00  0.00     0.031 C 
ATOM     61  C   UNL A   1      46.586  27.908  31.111  1.00  0.00     0.029 A 
ATOM     62  C   UNL A   1      45.566  28.837  30.914  1.00  0.00     0.049 A 
ATOM     63  H   UNL A   1      45.847  30.630  29.845  1.00  0.00     0.167 HD
ATOM     64  C   UNL A   1      43.211  29.615  30.845  1.00  0.00     0.074 A 
ATOM     65  C   UNL A   1      43.146  30.377  29.599  1.00  0.00     0.031 C 
ATOM     66  C   UNL A   1      44.238  28.959  31.461  1.00  0.00     0.037 A 
BRANCH  53  67
ATOM     67  C   UNL A   1      46.963  30.450  27.066  1.00  0.00     0.057 A 
ATOM     68  C   UNL A   1      45.898  31.302  26.704  1.00  0.00     0.134 A 
ATOM     69  C   UNL A   1      48.230  31.061  27.094  1.00  0.00     0.134 A 
ATOM     70  F   UNL A   1      44.625  30.899  26.657  1.00  0.00    -0.206 F 
ATOM     71  C   UNL A   1      46.069  32.667  26.465  1.00  0.00     0.040 A 
ATOM     72  C   UNL A   1      48.402  32.436  26.907  1.00  0.00     0.040 A 
ATOM     73  F   UNL A   1      49.328  30.357  27.408  1.00  0.00    -0.206 F 
ATOM     74  C   UNL A   1      47.315  33.249  26.609  1.00  0.00     0.006 A 
ENDBRANCH  53  67
BRANCH  54  75
ATOM     75  C   UNL A   1      38.773  29.306  29.347  1.00  0.00     0.057 A 
ATOM     76  C   UNL A   1      37.802  29.301  30.361  1.00  0.00     0.134 A 
ATOM     77  C   UNL A   1      38.304  29.593  28.053  1.00  0.00     0.134 A 
ATOM     78  F   UNL A   1      38.122  28.968  31.620  1.00  0.00    -0.206 F 
ATOM     79  C   UNL A   1      36.446  29.539  30.105  1.00  0.00     0.040 A 
ATOM     80  C   UNL A   1      36.947  29.829  27.782  1.00  0.00     0.040 A 
ATOM     81  F   UNL A   1      39.140  29.580  27.005  1.00  0.00    -0.206 F 
ATOM     82  C   UNL A   1      36.011  29.789  28.809  1.00  0.00     0.006 A 
ENDBRANCH  54  75
BRANCH  66  83
ATOM     83  C   UNL A   1      43.908  28.127  32.666  1.00  0.00     0.057 A 
ATOM     84  C   UNL A   1      43.903  28.744  33.922  1.00  0.00     0.134 A 
ATOM     85  C   UNL A   1      43.705  26.738  32.640  1.00  0.00     0.134 A 
ATOM     86  F   UNL A   1      44.147  30.059  34.029  1.00  0.00    -0.206 F 
ATOM     87  C   UNL A   1      43.686  28.022  35.096  1.00  0.00     0.040 A 
ATOM     88  C   UNL A   1      43.450  26.010  33.806  1.00  0.00     0.040 A 
ATOM     89  F   UNL A   1      43.795  26.044  31.498  1.00  0.00    -0.206 F 
ATOM     90  C   UNL A   1      43.444  26.652  35.040  1.00  0.00     0.006 A 
ENDBRANCH  66  83
ENDBRANCH  40  41
ENDBRANCH  33  35
ENDBRANCH  32  33
ENDBRANCH  31  32
ENDBRANCH  30  31
ENDBRANCH  29  30
ENDBRANCH   1  29
TORSDOF 18
ENDMDL
