MODEL 1
REMARK VINA RESULT:      -9.9      0.000      0.000
REMARK SMILES Cc1ccccc1-c1nc(CC(=O)OCCOCCOC(=O)c2ccc(-c3c4nc(c(-c5c(F)cccc5F)c5ccc([nH]5)c(-c5c(F)cccc5F)c5nc(c(-c6c(F)cccc6F)c6ccc3[nH]6)C=C5)C=C4)cc2)cs1
REMARK SMILES IDX 17 1 16 2 15 3 14 4 12 5 13 6 11 7 10 8 8 9 9 10 78 11 77 12
REMARK SMILES IDX 7 13 1 14 2 15 3 16 4 17 6 18 5 19 18 20 19 21 20 22 21 23
REMARK SMILES IDX 22 24 23 25 24 26 76 27 25 28 75 29 26 30 27 31 28 32 69 33
REMARK SMILES IDX 29 34 74 35 68 36 70 37 30 38 73 39 67 40 66 41 31 43 57 44
REMARK SMILES IDX 40 45 56 46 41 47 44 48 55 49 71 50 42 51 43 52 54 54 72 55
REMARK SMILES IDX 45 56 32 57 33 58 38 59 34 60 35 61 37 62 39 63 36 64 58 65
REMARK SMILES IDX 59 66 64 67 60 68 61 69 63 70 65 71 62 72 46 73 47 74 52 75
REMARK SMILES IDX 48 76 49 77 51 78 53 79 50 80
REMARK H PARENT 70 42 44 53
REMARK Flexibility Score: inf
ROOT
ATOM      1  O   UNL A   1      33.752  34.128  28.167  1.00  0.00    -0.374 OA
ENDROOT
BRANCH   1   2
ATOM      2  C   UNL A   1      34.004  35.357  28.821  1.00  0.00     0.202 C 
BRANCH   2   3
ATOM      3  C   UNL A   1      32.874  35.589  29.787  1.00  0.00     0.261 C 
BRANCH   3   4
ATOM      4  O   UNL A   1      32.939  36.859  30.469  1.00  0.00    -0.463 OA
BRANCH   4   5
ATOM      5  C   UNL A   1      33.310  36.986  31.786  1.00  0.00     0.311 C 
ATOM      6  O   UNL A   1      33.717  37.987  32.340  1.00  0.00    -0.252 OA
BRANCH   5   7
ATOM      7  C   UNL A   1      33.103  35.666  32.489  1.00  0.00     0.179 C 
BRANCH   7   8
ATOM      8  C   UNL A   1      34.449  35.200  32.920  1.00  0.00     0.063 A 
ATOM      9  C   UNL A   1      36.358  34.178  32.473  1.00  0.00     0.123 A 
ATOM     10  N   UNL A   1      35.283  34.709  31.939  1.00  0.00    -0.240 NA
ATOM     11  S   UNL A   1      36.404  34.183  34.190  1.00  0.00    -0.122 S 
ATOM     12  C   UNL A   1      34.910  35.033  34.211  1.00  0.00     0.091 A 
BRANCH   9  13
ATOM     13  C   UNL A   1      37.528  33.808  31.690  1.00  0.00     0.013 A 
ATOM     14  C   UNL A   1      36.673  31.390  31.623  1.00  0.00     0.045 C 
ATOM     15  C   UNL A   1      37.665  32.469  31.262  1.00  0.00    -0.041 A 
ATOM     16  C   UNL A   1      38.781  32.110  30.498  1.00  0.00     0.004 A 
ATOM     17  C   UNL A   1      39.751  33.056  30.168  1.00  0.00     0.000 A 
ATOM     18  C   UNL A   1      38.525  34.748  31.379  1.00  0.00     0.011 A 
ATOM     19  C   UNL A   1      39.630  34.370  30.616  1.00  0.00     0.001 A 
ENDBRANCH   9  13
ENDBRANCH   7   8
ENDBRANCH   5   7
ENDBRANCH   4   5
ENDBRANCH   3   4
ENDBRANCH   2   3
ENDBRANCH   1   2
BRANCH   1  20
ATOM     20  C   UNL A   1      34.366  32.984  28.722  1.00  0.00     0.202 C 
BRANCH  20  21
ATOM     21  C   UNL A   1      34.749  31.936  27.670  1.00  0.00     0.261 C 
BRANCH  21  22
ATOM     22  O   UNL A   1      34.429  30.606  28.137  1.00  0.00    -0.460 OA
BRANCH  22  23
ATOM     23  C   UNL A   1      35.207  29.600  27.651  1.00  0.00     0.338 C 
ATOM     24  O   UNL A   1      34.789  28.604  27.071  1.00  0.00    -0.246 OA
BRANCH  23  25
ATOM     25  C   UNL A   1      36.598  29.736  28.168  1.00  0.00     0.060 A 
ATOM     26  C   UNL A   1      37.653  30.056  27.289  1.00  0.00     0.016 A 
ATOM     27  C   UNL A   1      36.876  29.182  29.411  1.00  0.00     0.016 A 
ATOM     28  C   UNL A   1      38.967  29.652  27.585  1.00  0.00     0.010 A 
ATOM     29  C   UNL A   1      38.127  28.648  29.614  1.00  0.00     0.010 A 
ATOM     30  C   UNL A   1      39.183  28.867  28.713  1.00  0.00    -0.014 A 
BRANCH  30  31
ATOM     31  C   UNL A   1      40.428  28.191  29.093  1.00  0.00     0.031 A 
ATOM     32  C   UNL A   1      40.552  26.751  28.766  1.00  0.00     0.074 A 
ATOM     33  C   UNL A   1      41.546  28.870  29.447  1.00  0.00     0.049 A 
ATOM     34  N   UNL A   1      41.496  25.992  29.201  1.00  0.00    -0.248 NA
ATOM     35  C   UNL A   1      39.576  26.021  27.962  1.00  0.00     0.031 C 
ATOM     36  C   UNL A   1      42.936  28.458  29.236  1.00  0.00     0.029 A 
ATOM     37  N   UNL A   1      41.683  30.120  30.053  1.00  0.00    -0.354 N 
ATOM     38  C   UNL A   1      41.467  24.832  28.464  1.00  0.00     0.074 A 
ATOM     39  C   UNL A   1      40.174  24.836  27.834  1.00  0.00     0.031 C 
ATOM     40  C   UNL A   1      43.757  29.288  29.900  1.00  0.00     0.029 A 
ATOM     41  C   UNL A   1      42.931  30.175  30.695  1.00  0.00     0.049 A 
ATOM     42  H   UNL A   1      41.014  30.843  30.033  1.00  0.00     0.167 HD
ATOM     43  C   UNL A   1      42.613  24.097  28.370  1.00  0.00     0.037 A 
ATOM     44  C   UNL A   1      43.004  30.430  32.029  1.00  0.00     0.037 A 
ATOM     45  C   UNL A   1      43.682  24.695  29.195  1.00  0.00     0.049 A 
ATOM     46  C   UNL A   1      43.481  29.206  32.761  1.00  0.00     0.074 A 
ATOM     47  C   UNL A   1      44.831  25.420  28.923  1.00  0.00     0.029 A 
ATOM     48  N   UNL A   1      43.473  24.839  30.558  1.00  0.00    -0.354 N 
ATOM     49  N   UNL A   1      43.843  28.120  32.139  1.00  0.00    -0.248 NA
ATOM     50  C   UNL A   1      43.530  29.049  34.210  1.00  0.00     0.031 C 
ATOM     51  C   UNL A   1      45.297  25.995  30.147  1.00  0.00     0.029 A 
ATOM     52  C   UNL A   1      44.446  25.605  31.168  1.00  0.00     0.049 A 
ATOM     53  H   UNL A   1      42.712  24.439  31.038  1.00  0.00     0.167 HD
ATOM     54  C   UNL A   1      44.064  27.119  33.025  1.00  0.00     0.074 A 
ATOM     55  C   UNL A   1      43.866  27.750  34.321  1.00  0.00     0.031 C 
ATOM     56  C   UNL A   1      44.356  25.855  32.605  1.00  0.00     0.037 A 
BRANCH  43  57
ATOM     57  C   UNL A   1      42.868  22.968  27.383  1.00  0.00     0.057 A 
ATOM     58  C   UNL A   1      42.149  21.759  27.499  1.00  0.00     0.134 A 
ATOM     59  C   UNL A   1      43.803  22.958  26.327  1.00  0.00     0.134 A 
ATOM     60  F   UNL A   1      41.161  21.610  28.391  1.00  0.00    -0.206 F 
ATOM     61  C   UNL A   1      42.392  20.634  26.696  1.00  0.00     0.040 A 
ATOM     62  C   UNL A   1      44.069  21.836  25.528  1.00  0.00     0.040 A 
ATOM     63  F   UNL A   1      44.494  24.034  25.957  1.00  0.00    -0.206 F 
ATOM     64  C   UNL A   1      43.370  20.661  25.717  1.00  0.00     0.006 A 
ENDBRANCH  43  57
BRANCH  44  65
ATOM     65  C   UNL A   1      41.970  31.421  32.449  1.00  0.00     0.057 A 
ATOM     66  C   UNL A   1      40.812  30.920  33.078  1.00  0.00     0.134 A 
ATOM     67  C   UNL A   1      42.305  32.753  32.717  1.00  0.00     0.134 A 
ATOM     68  F   UNL A   1      40.438  29.645  32.884  1.00  0.00    -0.206 F 
ATOM     69  C   UNL A   1      40.095  31.666  34.021  1.00  0.00     0.040 A 
ATOM     70  C   UNL A   1      41.607  33.502  33.675  1.00  0.00     0.040 A 
ATOM     71  F   UNL A   1      43.402  33.299  32.171  1.00  0.00    -0.206 F 
ATOM     72  C   UNL A   1      40.521  32.948  34.354  1.00  0.00     0.006 A 
ENDBRANCH  44  65
BRANCH  56  73
ATOM     73  C   UNL A   1      44.573  24.740  33.570  1.00  0.00     0.057 A 
ATOM     74  C   UNL A   1      45.818  24.117  33.709  1.00  0.00     0.134 A 
ATOM     75  C   UNL A   1      43.519  24.197  34.330  1.00  0.00     0.134 A 
ATOM     76  F   UNL A   1      46.869  24.498  32.965  1.00  0.00    -0.206 F 
ATOM     77  C   UNL A   1      46.024  23.072  34.610  1.00  0.00     0.040 A 
ATOM     78  C   UNL A   1      43.697  23.110  35.182  1.00  0.00     0.040 A 
ATOM     79  F   UNL A   1      42.283  24.715  34.303  1.00  0.00    -0.206 F 
ATOM     80  C   UNL A   1      44.959  22.561  35.345  1.00  0.00     0.006 A 
ENDBRANCH  56  73
ENDBRANCH  30  31
ENDBRANCH  23  25
ENDBRANCH  22  23
ENDBRANCH  21  22
ENDBRANCH  20  21
ENDBRANCH   1  20
TORSDOF 16
ENDMDL
MODEL 2
REMARK VINA RESULT:      -9.3      3.699      6.674
REMARK SMILES Cc1ccccc1-c1nc(CC(=O)OCCOCCOC(=O)c2ccc(-c3c4nc(c(-c5c(F)cccc5F)c5ccc([nH]5)c(-c5c(F)cccc5F)c5nc(c(-c6c(F)cccc6F)c6ccc3[nH]6)C=C5)C=C4)cc2)cs1
REMARK SMILES IDX 17 1 16 2 15 3 14 4 12 5 13 6 11 7 10 8 8 9 9 10 78 11 77 12
REMARK SMILES IDX 7 13 1 14 2 15 3 16 4 17 6 18 5 19 18 20 19 21 20 22 21 23
REMARK SMILES IDX 22 24 23 25 24 26 76 27 25 28 75 29 26 30 27 31 28 32 69 33
REMARK SMILES IDX 29 34 74 35 68 36 70 37 30 38 73 39 67 40 66 41 31 43 57 44
REMARK SMILES IDX 40 45 56 46 41 47 44 48 55 49 71 50 42 51 43 52 54 54 72 55
REMARK SMILES IDX 45 56 32 57 33 58 38 59 34 60 35 61 37 62 39 63 36 64 58 65
REMARK SMILES IDX 59 66 64 67 60 68 61 69 63 70 65 71 62 72 46 73 47 74 52 75
REMARK SMILES IDX 48 76 49 77 51 78 53 79 50 80
REMARK H PARENT 70 42 44 53
REMARK Flexibility Score: inf
ROOT
ATOM      1  O   UNL A   1      32.309  29.902  25.109  1.00  0.00    -0.374 OA
ENDROOT
BRANCH   1   2
ATOM      2  C   UNL A   1      31.466  28.830  24.735  1.00  0.00     0.202 C 
BRANCH   2   3
ATOM      3  C   UNL A   1      31.689  28.576  23.269  1.00  0.00     0.261 C 
BRANCH   3   4
ATOM      4  O   UNL A   1      32.173  27.249  22.972  1.00  0.00    -0.463 OA
BRANCH   4   5
ATOM      5  C   UNL A   1      33.044  26.979  21.944  1.00  0.00     0.311 C 
ATOM      6  O   UNL A   1      34.014  27.631  21.615  1.00  0.00    -0.252 OA
BRANCH   5   7
ATOM      7  C   UNL A   1      32.634  25.691  21.271  1.00  0.00     0.179 C 
BRANCH   7   8
ATOM      8  C   UNL A   1      32.937  24.597  22.233  1.00  0.00     0.063 A 
ATOM      9  C   UNL A   1      34.402  23.415  23.393  1.00  0.00     0.123 A 
ATOM     10  N   UNL A   1      34.232  24.514  22.698  1.00  0.00    -0.240 NA
ATOM     11  S   UNL A   1      33.032  22.383  23.483  1.00  0.00    -0.122 S 
ATOM     12  C   UNL A   1      32.125  23.538  22.590  1.00  0.00     0.091 A 
BRANCH   9  13
ATOM     13  C   UNL A   1      35.580  23.176  24.216  1.00  0.00     0.013 A 
ATOM     14  C   UNL A   1      34.815  25.050  25.791  1.00  0.00     0.045 C 
ATOM     15  C   UNL A   1      35.763  23.949  25.382  1.00  0.00    -0.041 A 
ATOM     16  C   UNL A   1      36.886  23.715  26.184  1.00  0.00     0.004 A 
ATOM     17  C   UNL A   1      37.817  22.738  25.835  1.00  0.00     0.000 A 
ATOM     18  C   UNL A   1      36.539  22.215  23.854  1.00  0.00     0.011 A 
ATOM     19  C   UNL A   1      37.652  21.996  24.667  1.00  0.00     0.001 A 
ENDBRANCH   9  13
ENDBRANCH   7   8
ENDBRANCH   5   7
ENDBRANCH   4   5
ENDBRANCH   3   4
ENDBRANCH   2   3
ENDBRANCH   1   2
BRANCH   1  20
ATOM     20  C   UNL A   1      33.213  29.651  26.165  1.00  0.00     0.202 C 
BRANCH  20  21
ATOM     21  C   UNL A   1      33.179  30.729  27.255  1.00  0.00     0.261 C 
BRANCH  21  22
ATOM     22  O   UNL A   1      34.471  31.364  27.383  1.00  0.00    -0.460 OA
BRANCH  22  23
ATOM     23  C   UNL A   1      35.034  31.325  28.622  1.00  0.00     0.338 C 
ATOM     24  O   UNL A   1      34.928  32.203  29.472  1.00  0.00    -0.246 OA
BRANCH  23  25
ATOM     25  C   UNL A   1      36.023  30.213  28.699  1.00  0.00     0.060 A 
ATOM     26  C   UNL A   1      36.306  29.599  29.936  1.00  0.00     0.016 A 
ATOM     27  C   UNL A   1      36.904  30.064  27.636  1.00  0.00     0.016 A 
ATOM     28  C   UNL A   1      37.555  28.994  30.156  1.00  0.00     0.010 A 
ATOM     29  C   UNL A   1      38.177  29.621  27.909  1.00  0.00     0.010 A 
ATOM     30  C   UNL A   1      38.524  29.088  29.163  1.00  0.00    -0.014 A 
BRANCH  30  31
ATOM     31  C   UNL A   1      39.934  28.697  29.264  1.00  0.00     0.031 A 
ATOM     32  C   UNL A   1      40.293  27.320  28.854  1.00  0.00     0.074 A 
ATOM     33  C   UNL A   1      40.930  29.602  29.427  1.00  0.00     0.049 A 
ATOM     34  N   UNL A   1      41.444  26.783  29.064  1.00  0.00    -0.248 NA
ATOM     35  C   UNL A   1      39.355  26.397  28.222  1.00  0.00     0.031 C 
ATOM     36  C   UNL A   1      42.305  29.502  28.933  1.00  0.00     0.029 A 
ATOM     37  N   UNL A   1      40.915  30.850  30.051  1.00  0.00    -0.354 N 
ATOM     38  C   UNL A   1      41.517  25.646  28.295  1.00  0.00     0.074 A 
ATOM     39  C   UNL A   1      40.154  25.371  27.927  1.00  0.00     0.031 C 
ATOM     40  C   UNL A   1      43.046  30.490  29.462  1.00  0.00     0.029 A 
ATOM     41  C   UNL A   1      42.225  31.174  30.442  1.00  0.00     0.049 A 
ATOM     42  H   UNL A   1      40.118  31.411  30.193  1.00  0.00     0.167 HD
ATOM     43  C   UNL A   1      42.751  25.178  27.948  1.00  0.00     0.037 A 
ATOM     44  C   UNL A   1      42.505  31.435  31.747  1.00  0.00     0.037 A 
ATOM     45  C   UNL A   1      43.810  25.991  28.577  1.00  0.00     0.049 A 
ATOM     46  C   UNL A   1      43.367  30.342  32.317  1.00  0.00     0.074 A 
ATOM     47  C   UNL A   1      44.702  26.949  28.122  1.00  0.00     0.029 A 
ATOM     48  N   UNL A   1      43.850  26.083  29.960  1.00  0.00    -0.354 N 
ATOM     49  N   UNL A   1      43.821  29.362  31.588  1.00  0.00    -0.248 NA
ATOM     50  C   UNL A   1      43.734  30.196  33.720  1.00  0.00     0.031 C 
ATOM     51  C   UNL A   1      45.268  27.609  29.258  1.00  0.00     0.029 A 
ATOM     52  C   UNL A   1      44.740  27.040  30.405  1.00  0.00     0.049 A 
ATOM     53  H   UNL A   1      43.302  25.526  30.560  1.00  0.00     0.167 HD
ATOM     54  C   UNL A   1      44.420  28.431  32.368  1.00  0.00     0.074 A 
ATOM     55  C   UNL A   1      44.354  29.000  33.705  1.00  0.00     0.031 C 
ATOM     56  C   UNL A   1      44.885  27.262  31.842  1.00  0.00     0.037 A 
BRANCH  43  57
ATOM     57  C   UNL A   1      43.039  24.133  26.880  1.00  0.00     0.057 A 
ATOM     58  C   UNL A   1      43.386  22.819  27.260  1.00  0.00     0.134 A 
ATOM     59  C   UNL A   1      43.034  24.324  25.483  1.00  0.00     0.134 A 
ATOM     60  F   UNL A   1      43.365  22.427  28.540  1.00  0.00    -0.206 F 
ATOM     61  C   UNL A   1      43.763  21.824  26.345  1.00  0.00     0.040 A 
ATOM     62  C   UNL A   1      43.426  23.344  24.558  1.00  0.00     0.040 A 
ATOM     63  F   UNL A   1      42.612  25.445  24.903  1.00  0.00    -0.206 F 
ATOM     64  C   UNL A   1      43.804  22.088  24.988  1.00  0.00     0.006 A 
ENDBRANCH  43  57
BRANCH  44  65
ATOM     65  C   UNL A   1      41.389  32.177  32.403  1.00  0.00     0.057 A 
ATOM     66  C   UNL A   1      41.246  33.543  32.088  1.00  0.00     0.134 A 
ATOM     67  C   UNL A   1      40.244  31.513  32.859  1.00  0.00     0.134 A 
ATOM     68  F   UNL A   1      42.297  34.241  31.627  1.00  0.00    -0.206 F 
ATOM     69  C   UNL A   1      40.002  34.186  32.105  1.00  0.00     0.040 A 
ATOM     70  C   UNL A   1      38.989  32.140  32.859  1.00  0.00     0.040 A 
ATOM     71  F   UNL A   1      40.292  30.208  33.162  1.00  0.00    -0.206 F 
ATOM     72  C   UNL A   1      38.861  33.468  32.450  1.00  0.00     0.006 A 
ENDBRANCH  44  65
BRANCH  56  73
ATOM     73  C   UNL A   1      45.521  26.218  32.696  1.00  0.00     0.057 A 
ATOM     74  C   UNL A   1      44.772  25.426  33.572  1.00  0.00     0.134 A 
ATOM     75  C   UNL A   1      46.916  26.032  32.730  1.00  0.00     0.134 A 
ATOM     76  F   UNL A   1      43.444  25.584  33.684  1.00  0.00    -0.206 F 
ATOM     77  C   UNL A   1      45.364  24.449  34.374  1.00  0.00     0.040 A 
ATOM     78  C   UNL A   1      47.525  25.108  33.575  1.00  0.00     0.040 A 
ATOM     79  F   UNL A   1      47.744  26.714  31.926  1.00  0.00    -0.206 F 
ATOM     80  C   UNL A   1      46.746  24.293  34.382  1.00  0.00     0.006 A 
ENDBRANCH  56  73
ENDBRANCH  30  31
ENDBRANCH  23  25
ENDBRANCH  22  23
ENDBRANCH  21  22
ENDBRANCH  20  21
ENDBRANCH   1  20
TORSDOF 16
ENDMDL
MODEL 3
REMARK VINA RESULT:      -9.2      5.584     11.169
REMARK SMILES Cc1ccccc1-c1nc(CC(=O)OCCOCCOC(=O)c2ccc(-c3c4nc(c(-c5c(F)cccc5F)c5ccc([nH]5)c(-c5c(F)cccc5F)c5nc(c(-c6c(F)cccc6F)c6ccc3[nH]6)C=C5)C=C4)cc2)cs1
REMARK SMILES IDX 17 1 16 2 15 3 14 4 12 5 13 6 11 7 10 8 8 9 9 10 78 11 77 12
REMARK SMILES IDX 7 13 1 14 2 15 3 16 4 17 6 18 5 19 18 20 19 21 20 22 21 23
REMARK SMILES IDX 22 24 23 25 24 26 76 27 25 28 75 29 26 30 27 31 28 32 69 33
REMARK SMILES IDX 29 34 74 35 68 36 70 37 30 38 73 39 67 40 66 41 31 43 57 44
REMARK SMILES IDX 40 45 56 46 41 47 44 48 55 49 71 50 42 51 43 52 54 54 72 55
REMARK SMILES IDX 45 56 32 57 33 58 38 59 34 60 35 61 37 62 39 63 36 64 58 65
REMARK SMILES IDX 59 66 64 67 60 68 61 69 63 70 65 71 62 72 46 73 47 74 52 75
REMARK SMILES IDX 48 76 49 77 51 78 53 79 50 80
REMARK H PARENT 70 42 44 53
REMARK Flexibility Score: inf
ROOT
ATOM      1  O   UNL A   1      41.955  19.402  27.248  1.00  0.00    -0.374 OA
ENDROOT
BRANCH   1   2
ATOM      2  C   UNL A   1      41.133  20.503  27.583  1.00  0.00     0.202 C 
BRANCH   2   3
ATOM      3  C   UNL A   1      40.373  20.887  26.343  1.00  0.00     0.261 C 
BRANCH   3   4
ATOM      4  O   UNL A   1      39.266  21.780  26.588  1.00  0.00    -0.463 OA
BRANCH   4   5
ATOM      5  C   UNL A   1      38.243  21.973  25.691  1.00  0.00     0.311 C 
ATOM      6  O   UNL A   1      37.746  21.144  24.956  1.00  0.00    -0.252 OA
BRANCH   5   7
ATOM      7  C   UNL A   1      37.778  23.408  25.771  1.00  0.00     0.179 C 
BRANCH   7   8
ATOM      8  C   UNL A   1      36.493  23.477  25.024  1.00  0.00     0.063 A 
ATOM      9  C   UNL A   1      34.286  23.340  24.989  1.00  0.00     0.123 A 
ATOM     10  N   UNL A   1      35.334  23.447  25.770  1.00  0.00    -0.240 NA
ATOM     11  S   UNL A   1      34.631  23.211  23.311  1.00  0.00    -0.122 S 
ATOM     12  C   UNL A   1      36.304  23.393  23.658  1.00  0.00     0.091 A 
BRANCH   9  13
ATOM     13  C   UNL A   1      32.924  23.536  25.464  1.00  0.00     0.013 A 
ATOM     14  C   UNL A   1      32.539  21.006  25.288  1.00  0.00     0.045 C 
ATOM     15  C   UNL A   1      32.093  22.406  25.629  1.00  0.00    -0.041 A 
ATOM     16  C   UNL A   1      30.786  22.587  26.098  1.00  0.00     0.004 A 
ATOM     17  C   UNL A   1      30.306  23.862  26.391  1.00  0.00     0.000 A 
ATOM     18  C   UNL A   1      32.422  24.820  25.732  1.00  0.00     0.011 A 
ATOM     19  C   UNL A   1      31.117  24.979  26.199  1.00  0.00     0.001 A 
ENDBRANCH   9  13
ENDBRANCH   7   8
ENDBRANCH   5   7
ENDBRANCH   4   5
ENDBRANCH   3   4
ENDBRANCH   2   3
ENDBRANCH   1   2
BRANCH   1  20
ATOM     20  C   UNL A   1      42.163  19.170  25.870  1.00  0.00     0.202 C 
BRANCH  20  21
ATOM     21  C   UNL A   1      43.642  18.995  25.505  1.00  0.00     0.261 C 
BRANCH  21  22
ATOM     22  O   UNL A   1      44.052  19.996  24.546  1.00  0.00    -0.460 OA
BRANCH  22  23
ATOM     23  C   UNL A   1      44.896  20.957  25.012  1.00  0.00     0.338 C 
ATOM     24  O   UNL A   1      46.067  20.771  25.327  1.00  0.00    -0.246 OA
BRANCH  23  25
ATOM     25  C   UNL A   1      44.131  22.188  25.356  1.00  0.00     0.060 A 
ATOM     26  C   UNL A   1      44.139  23.295  24.483  1.00  0.00     0.016 A 
ATOM     27  C   UNL A   1      43.743  22.353  26.679  1.00  0.00     0.016 A 
ATOM     28  C   UNL A   1      43.937  24.592  24.984  1.00  0.00     0.010 A 
ATOM     29  C   UNL A   1      43.710  23.630  27.187  1.00  0.00     0.010 A 
ATOM     30  C   UNL A   1      43.810  24.762  26.359  1.00  0.00    -0.014 A 
BRANCH  30  31
ATOM     31  C   UNL A   1      43.782  26.031  27.094  1.00  0.00     0.031 A 
ATOM     32  C   UNL A   1      42.491  26.755  27.160  1.00  0.00     0.074 A 
ATOM     33  C   UNL A   1      44.775  26.407  27.936  1.00  0.00     0.049 A 
ATOM     34  N   UNL A   1      42.361  27.956  27.602  1.00  0.00    -0.248 NA
ATOM     35  C   UNL A   1      41.232  26.202  26.669  1.00  0.00     0.031 C 
ATOM     36  C   UNL A   1      44.649  27.223  29.145  1.00  0.00     0.029 A 
ATOM     37  N   UNL A   1      46.137  26.101  27.909  1.00  0.00    -0.354 N 
ATOM     38  C   UNL A   1      41.019  28.181  27.801  1.00  0.00     0.074 A 
ATOM     39  C   UNL A   1      40.365  27.136  27.061  1.00  0.00     0.031 C 
ATOM     40  C   UNL A   1      45.871  27.550  29.597  1.00  0.00     0.029 A 
ATOM     41  C   UNL A   1      46.835  27.095  28.615  1.00  0.00     0.049 A 
ATOM     42  H   UNL A   1      46.541  25.318  27.470  1.00  0.00     0.167 HD
ATOM     43  C   UNL A   1      40.650  29.141  28.698  1.00  0.00     0.037 A 
ATOM     44  C   UNL A   1      47.819  27.808  28.001  1.00  0.00     0.037 A 
ATOM     45  C   UNL A   1      41.838  29.833  29.236  1.00  0.00     0.049 A 
ATOM     46  C   UNL A   1      47.386  29.238  27.828  1.00  0.00     0.074 A 
ATOM     47  C   UNL A   1      42.515  29.808  30.445  1.00  0.00     0.029 A 
ATOM     48  N   UNL A   1      42.686  30.488  28.355  1.00  0.00    -0.354 N 
ATOM     49  N   UNL A   1      46.258  29.686  28.302  1.00  0.00    -0.248 NA
ATOM     50  C   UNL A   1      48.106  30.256  27.072  1.00  0.00     0.031 C 
ATOM     51  C   UNL A   1      43.777  30.457  30.263  1.00  0.00     0.029 A 
ATOM     52  C   UNL A   1      43.861  30.897  28.953  1.00  0.00     0.049 A 
ATOM     53  H   UNL A   1      42.473  30.643  27.407  1.00  0.00     0.167 HD
ATOM     54  C   UNL A   1      46.030  30.948  27.866  1.00  0.00     0.074 A 
ATOM     55  C   UNL A   1      47.225  31.275  27.102  1.00  0.00     0.031 C 
ATOM     56  C   UNL A   1      44.863  31.594  28.148  1.00  0.00     0.037 A 
BRANCH  43  57
ATOM     57  C   UNL A   1      39.254  29.335  29.271  1.00  0.00     0.057 A 
ATOM     58  C   UNL A   1      38.198  29.734  28.425  1.00  0.00     0.134 A 
ATOM     59  C   UNL A   1      38.862  29.190  30.618  1.00  0.00     0.134 A 
ATOM     60  F   UNL A   1      38.359  29.843  27.100  1.00  0.00    -0.206 F 
ATOM     61  C   UNL A   1      36.907  30.031  28.888  1.00  0.00     0.040 A 
ATOM     62  C   UNL A   1      37.580  29.500  31.097  1.00  0.00     0.040 A 
ATOM     63  F   UNL A   1      39.664  28.699  31.560  1.00  0.00    -0.206 F 
ATOM     64  C   UNL A   1      36.596  29.934  30.232  1.00  0.00     0.006 A 
ENDBRANCH  43  57
BRANCH  44  65
ATOM     65  C   UNL A   1      48.601  26.953  27.061  1.00  0.00     0.057 A 
ATOM     66  C   UNL A   1      48.321  27.079  25.685  1.00  0.00     0.134 A 
ATOM     67  C   UNL A   1      49.869  26.468  27.403  1.00  0.00     0.134 A 
ATOM     68  F   UNL A   1      47.132  27.556  25.281  1.00  0.00    -0.206 F 
ATOM     69  C   UNL A   1      49.293  26.854  24.703  1.00  0.00     0.040 A 
ATOM     70  C   UNL A   1      50.857  26.260  26.430  1.00  0.00     0.040 A 
ATOM     71  F   UNL A   1      50.220  26.336  28.690  1.00  0.00    -0.206 F 
ATOM     72  C   UNL A   1      50.581  26.485  25.081  1.00  0.00     0.006 A 
ENDBRANCH  44  65
BRANCH  56  73
ATOM     73  C   UNL A   1      44.590  32.972  27.650  1.00  0.00     0.057 A 
ATOM     74  C   UNL A   1      44.010  33.202  26.398  1.00  0.00     0.134 A 
ATOM     75  C   UNL A   1      44.979  34.115  28.373  1.00  0.00     0.134 A 
ATOM     76  F   UNL A   1      43.684  32.181  25.589  1.00  0.00    -0.206 F 
ATOM     77  C   UNL A   1      43.755  34.490  25.927  1.00  0.00     0.040 A 
ATOM     78  C   UNL A   1      44.792  35.406  27.884  1.00  0.00     0.040 A 
ATOM     79  F   UNL A   1      45.527  34.033  29.593  1.00  0.00    -0.206 F 
ATOM     80  C   UNL A   1      44.153  35.598  26.669  1.00  0.00     0.006 A 
ENDBRANCH  56  73
ENDBRANCH  30  31
ENDBRANCH  23  25
ENDBRANCH  22  23
ENDBRANCH  21  22
ENDBRANCH  20  21
ENDBRANCH   1  20
TORSDOF 16
ENDMDL
