MODEL 1
REMARK VINA RESULT:      -9.7      0.000      0.000
REMARK SMILES C[C@H]1CCC[C@@H](S[C@H](F)C(=O)OCCOCCOC(=O)c2ccc(-c3c4nc(c(-c5c(F)cccc5F)c5ccc([nH]5)c(-c5c(F)cccc5F)c5nc(c(-c6c(F)cccc6F)c6ccc3[nH]6)C=C5)C=C4)cc2)C1
REMARK SMILES IDX 15 1 14 2 13 3 12 4 10 5 11 6 8 7 9 8 7 9 6 10 1 11 2 12
REMARK SMILES IDX 3 13 75 14 4 15 5 16 16 17 17 18 18 19 19 20 20 21 21 22
REMARK SMILES IDX 22 23 74 24 23 25 73 26 24 27 25 28 26 29 67 30 27 31 72 32
REMARK SMILES IDX 66 33 68 34 28 35 71 36 65 37 64 38 29 40 55 41 38 42 54 43
REMARK SMILES IDX 39 44 42 45 53 46 69 47 40 48 41 49 52 51 70 52 43 53 30 54
REMARK SMILES IDX 31 55 36 56 32 57 33 58 35 59 37 60 34 61 56 62 57 63 62 64
REMARK SMILES IDX 58 65 59 66 61 67 63 68 60 69 44 70 45 71 50 72 46 73 47 74
REMARK SMILES IDX 49 75 51 76 48 77
REMARK H PARENT 68 39 42 50
REMARK Flexibility Score: inf
ROOT
ATOM      1  O   UNL A   1      46.348  21.168  25.299  1.00  0.00    -0.374 OA
ENDROOT
BRANCH   1   2
ATOM      2  C   UNL A   1      46.253  19.906  24.641  1.00  0.00     0.202 C 
BRANCH   2   3
ATOM      3  C   UNL A   1      45.197  18.944  25.184  1.00  0.00     0.261 C 
BRANCH   3   4
ATOM      4  O   UNL A   1      43.888  19.524  25.097  1.00  0.00    -0.460 OA
BRANCH   4   5
ATOM      5  C   UNL A   1      42.921  18.888  25.819  1.00  0.00     0.351 C 
ATOM      6  O   UNL A   1      43.064  17.772  26.308  1.00  0.00    -0.248 OA
BRANCH   5   7
ATOM      7  C   UNL A   1      41.690  19.775  26.022  1.00  0.00     0.334 C 
ATOM      8  F   UNL A   1      40.616  19.069  26.497  1.00  0.00    -0.223 F 
BRANCH   7   9
ATOM      9  S   UNL A   1      42.029  21.122  27.198  1.00  0.00    -0.110 SA
BRANCH   9  10
ATOM     10  C   UNL A   1      40.438  22.045  27.212  1.00  0.00     0.050 C 
ATOM     11  C   UNL A   1      39.435  25.719  27.933  1.00  0.00     0.007 C 
ATOM     12  C   UNL A   1      39.230  24.229  27.657  1.00  0.00    -0.013 C 
ATOM     13  C   UNL A   1      38.400  24.015  26.386  1.00  0.00     0.003 C 
ATOM     14  C   UNL A   1      40.588  23.532  27.532  1.00  0.00     0.018 C 
ATOM     15  C   UNL A   1      38.274  22.534  26.026  1.00  0.00     0.001 C 
ATOM     16  C   UNL A   1      39.638  21.845  25.920  1.00  0.00     0.014 C 
ENDBRANCH   9  10
ENDBRANCH   7   9
ENDBRANCH   5   7
ENDBRANCH   4   5
ENDBRANCH   3   4
ENDBRANCH   2   3
ENDBRANCH   1   2
BRANCH   1  17
ATOM     17  C   UNL A   1      45.966  22.335  24.568  1.00  0.00     0.202 C 
BRANCH  17  18
ATOM     18  C   UNL A   1      46.387  23.689  25.152  1.00  0.00     0.261 C 
BRANCH  18  19
ATOM     19  O   UNL A   1      45.271  24.391  25.730  1.00  0.00    -0.460 OA
BRANCH  19  20
ATOM     20  C   UNL A   1      45.298  25.735  25.577  1.00  0.00     0.338 C 
ATOM     21  O   UNL A   1      45.828  26.369  24.674  1.00  0.00    -0.246 OA
BRANCH  20  22
ATOM     22  C   UNL A   1      44.411  26.370  26.567  1.00  0.00     0.060 A 
ATOM     23  C   UNL A   1      44.396  27.770  26.620  1.00  0.00     0.016 A 
ATOM     24  C   UNL A   1      43.672  25.616  27.481  1.00  0.00     0.016 A 
ATOM     25  C   UNL A   1      43.678  28.423  27.618  1.00  0.00     0.010 A 
ATOM     26  C   UNL A   1      42.963  26.274  28.491  1.00  0.00     0.010 A 
ATOM     27  C   UNL A   1      42.992  27.677  28.584  1.00  0.00    -0.014 A 
BRANCH  27  28
ATOM     28  C   UNL A   1      42.437  28.363  29.774  1.00  0.00     0.031 A 
ATOM     29  C   UNL A   1      41.127  29.091  29.649  1.00  0.00     0.074 A 
ATOM     30  C   UNL A   1      43.071  28.310  30.957  1.00  0.00     0.049 A 
ATOM     31  N   UNL A   1      40.469  29.774  30.549  1.00  0.00    -0.248 NA
ATOM     32  C   UNL A   1      40.473  29.040  28.332  1.00  0.00     0.031 C 
ATOM     33  C   UNL A   1      44.326  27.605  31.212  1.00  0.00     0.029 A 
ATOM     34  N   UNL A   1      42.745  28.869  32.167  1.00  0.00    -0.354 N 
ATOM     35  C   UNL A   1      39.326  30.238  29.909  1.00  0.00     0.074 A 
ATOM     36  C   UNL A   1      39.394  29.781  28.537  1.00  0.00     0.031 C 
ATOM     37  C   UNL A   1      44.670  27.783  32.500  1.00  0.00     0.029 A 
ATOM     38  C   UNL A   1      43.675  28.635  33.149  1.00  0.00     0.049 A 
ATOM     39  H   UNL A   1      41.922  29.388  32.317  1.00  0.00     0.167 HD
ATOM     40  C   UNL A   1      38.308  30.970  30.419  1.00  0.00     0.037 A 
ATOM     41  C   UNL A   1      43.725  29.077  34.420  1.00  0.00     0.037 A 
ATOM     42  C   UNL A   1      38.241  31.425  31.783  1.00  0.00     0.049 A 
ATOM     43  C   UNL A   1      42.616  29.948  34.946  1.00  0.00     0.074 A 
ATOM     44  C   UNL A   1      37.243  32.158  32.400  1.00  0.00     0.029 A 
ATOM     45  N   UNL A   1      39.219  31.195  32.738  1.00  0.00    -0.354 N 
ATOM     46  N   UNL A   1      41.528  30.359  34.339  1.00  0.00    -0.248 NA
ATOM     47  C   UNL A   1      42.741  30.415  36.334  1.00  0.00     0.031 C 
ATOM     48  C   UNL A   1      37.637  32.408  33.719  1.00  0.00     0.029 A 
ATOM     49  C   UNL A   1      38.859  31.792  33.935  1.00  0.00     0.049 A 
ATOM     50  H   UNL A   1      40.046  30.683  32.589  1.00  0.00     0.167 HD
ATOM     51  C   UNL A   1      40.829  31.109  35.277  1.00  0.00     0.074 A 
ATOM     52  C   UNL A   1      41.610  31.087  36.496  1.00  0.00     0.031 C 
ATOM     53  C   UNL A   1      39.645  31.755  35.142  1.00  0.00     0.037 A 
BRANCH  40  54
ATOM     54  C   UNL A   1      37.194  31.344  29.488  1.00  0.00     0.057 A 
ATOM     55  C   UNL A   1      37.156  32.585  28.842  1.00  0.00     0.134 A 
ATOM     56  C   UNL A   1      36.161  30.439  29.213  1.00  0.00     0.134 A 
ATOM     57  F   UNL A   1      38.108  33.502  29.074  1.00  0.00    -0.206 F 
ATOM     58  C   UNL A   1      36.119  32.922  27.970  1.00  0.00     0.040 A 
ATOM     59  C   UNL A   1      35.130  30.755  28.327  1.00  0.00     0.040 A 
ATOM     60  F   UNL A   1      36.140  29.231  29.798  1.00  0.00    -0.206 F 
ATOM     61  C   UNL A   1      35.106  32.003  27.707  1.00  0.00     0.006 A 
ENDBRANCH  40  54
BRANCH  41  62
ATOM     62  C   UNL A   1      44.874  28.715  35.286  1.00  0.00     0.057 A 
ATOM     63  C   UNL A   1      46.034  29.497  35.318  1.00  0.00     0.134 A 
ATOM     64  C   UNL A   1      44.847  27.567  36.087  1.00  0.00     0.134 A 
ATOM     65  F   UNL A   1      46.128  30.595  34.554  1.00  0.00    -0.206 F 
ATOM     66  C   UNL A   1      47.131  29.144  36.104  1.00  0.00     0.040 A 
ATOM     67  C   UNL A   1      45.928  27.214  36.895  1.00  0.00     0.040 A 
ATOM     68  F   UNL A   1      43.765  26.775  36.099  1.00  0.00    -0.206 F 
ATOM     69  C   UNL A   1      47.078  28.002  36.901  1.00  0.00     0.006 A 
ENDBRANCH  41  62
BRANCH  53  70
ATOM     70  C   UNL A   1      39.106  32.464  36.349  1.00  0.00     0.057 A 
ATOM     71  C   UNL A   1      39.453  33.788  36.645  1.00  0.00     0.134 A 
ATOM     72  C   UNL A   1      38.196  31.826  37.202  1.00  0.00     0.134 A 
ATOM     73  F   UNL A   1      40.330  34.450  35.875  1.00  0.00    -0.206 F 
ATOM     74  C   UNL A   1      38.928  34.446  37.759  1.00  0.00     0.040 A 
ATOM     75  C   UNL A   1      37.646  32.482  38.304  1.00  0.00     0.040 A 
ATOM     76  F   UNL A   1      37.815  30.561  36.969  1.00  0.00    -0.206 F 
ATOM     77  C   UNL A   1      38.017  33.795  38.588  1.00  0.00     0.006 A 
ENDBRANCH  53  70
ENDBRANCH  27  28
ENDBRANCH  20  22
ENDBRANCH  19  20
ENDBRANCH  18  19
ENDBRANCH  17  18
ENDBRANCH   1  17
TORSDOF 16
ENDMDL
MODEL 2
REMARK VINA RESULT:      -9.7      2.722      7.328
REMARK SMILES C[C@H]1CCC[C@@H](S[C@H](F)C(=O)OCCOCCOC(=O)c2ccc(-c3c4nc(c(-c5c(F)cccc5F)c5ccc([nH]5)c(-c5c(F)cccc5F)c5nc(c(-c6c(F)cccc6F)c6ccc3[nH]6)C=C5)C=C4)cc2)C1
REMARK SMILES IDX 15 1 14 2 13 3 12 4 10 5 11 6 8 7 9 8 7 9 6 10 1 11 2 12
REMARK SMILES IDX 3 13 75 14 4 15 5 16 16 17 17 18 18 19 19 20 20 21 21 22
REMARK SMILES IDX 22 23 74 24 23 25 73 26 24 27 25 28 26 29 67 30 27 31 72 32
REMARK SMILES IDX 66 33 68 34 28 35 71 36 65 37 64 38 29 40 55 41 38 42 54 43
REMARK SMILES IDX 39 44 42 45 53 46 69 47 40 48 41 49 52 51 70 52 43 53 30 54
REMARK SMILES IDX 31 55 36 56 32 57 33 58 35 59 37 60 34 61 56 62 57 63 62 64
REMARK SMILES IDX 58 65 59 66 61 67 63 68 60 69 44 70 45 71 50 72 46 73 47 74
REMARK SMILES IDX 49 75 51 76 48 77
REMARK H PARENT 68 39 42 50
REMARK Flexibility Score: inf
ROOT
ATOM      1  O   UNL A   1      40.983  20.603  27.026  1.00  0.00    -0.374 OA
ENDROOT
BRANCH   1   2
ATOM      2  C   UNL A   1      41.920  19.561  27.295  1.00  0.00     0.202 C 
BRANCH   2   3
ATOM      3  C   UNL A   1      42.431  18.789  26.080  1.00  0.00     0.261 C 
BRANCH   3   4
ATOM      4  O   UNL A   1      43.110  19.665  25.169  1.00  0.00    -0.460 OA
BRANCH   4   5
ATOM      5  C   UNL A   1      44.444  19.424  25.015  1.00  0.00     0.351 C 
ATOM      6  O   UNL A   1      44.904  18.323  24.730  1.00  0.00    -0.248 OA
BRANCH   5   7
ATOM      7  C   UNL A   1      45.270  20.706  25.142  1.00  0.00     0.334 C 
ATOM      8  F   UNL A   1      46.608  20.480  24.953  1.00  0.00    -0.223 F 
BRANCH   7   9
ATOM      9  S   UNL A   1      44.745  21.958  23.928  1.00  0.00    -0.110 SA
BRANCH   9  10
ATOM     10  C   UNL A   1      44.017  23.264  24.997  1.00  0.00     0.050 C 
ATOM     11  C   UNL A   1      42.705  23.372  28.643  1.00  0.00     0.007 C 
ATOM     12  C   UNL A   1      42.970  23.875  27.224  1.00  0.00    -0.013 C 
ATOM     13  C   UNL A   1      43.798  25.166  27.246  1.00  0.00     0.003 C 
ATOM     14  C   UNL A   1      43.689  22.793  26.414  1.00  0.00     0.018 C 
ATOM     15  C   UNL A   1      44.171  25.631  25.837  1.00  0.00     0.001 C 
ATOM     16  C   UNL A   1      44.874  24.534  25.032  1.00  0.00     0.014 C 
ENDBRANCH   9  10
ENDBRANCH   7   9
ENDBRANCH   5   7
ENDBRANCH   4   5
ENDBRANCH   3   4
ENDBRANCH   2   3
ENDBRANCH   1   2
BRANCH   1  17
ATOM     17  C   UNL A   1      39.893  20.313  26.147  1.00  0.00     0.202 C 
BRANCH  17  18
ATOM     18  C   UNL A   1      38.950  21.473  25.807  1.00  0.00     0.261 C 
BRANCH  18  19
ATOM     19  O   UNL A   1      39.598  22.750  25.956  1.00  0.00    -0.460 OA
BRANCH  19  20
ATOM     20  C   UNL A   1      38.763  23.807  26.075  1.00  0.00     0.338 C 
ATOM     21  O   UNL A   1      37.598  23.878  25.705  1.00  0.00    -0.246 OA
BRANCH  20  22
ATOM     22  C   UNL A   1      39.387  24.847  26.911  1.00  0.00     0.060 A 
ATOM     23  C   UNL A   1      39.108  24.829  28.284  1.00  0.00     0.016 A 
ATOM     24  C   UNL A   1      40.161  25.867  26.356  1.00  0.00     0.016 A 
ATOM     25  C   UNL A   1      39.564  25.860  29.102  1.00  0.00     0.010 A 
ATOM     26  C   UNL A   1      40.606  26.909  27.177  1.00  0.00     0.010 A 
ATOM     27  C   UNL A   1      40.279  26.927  28.545  1.00  0.00    -0.014 A 
BRANCH  27  28
ATOM     28  C   UNL A   1      40.549  28.129  29.367  1.00  0.00     0.031 A 
ATOM     29  C   UNL A   1      41.862  28.236  30.091  1.00  0.00     0.074 A 
ATOM     30  C   UNL A   1      39.653  29.128  29.440  1.00  0.00     0.049 A 
ATOM     31  N   UNL A   1      42.301  29.184  30.879  1.00  0.00    -0.248 NA
ATOM     32  C   UNL A   1      42.808  27.125  29.900  1.00  0.00     0.031 C 
ATOM     33  C   UNL A   1      38.363  29.157  28.754  1.00  0.00     0.029 A 
ATOM     34  N   UNL A   1      39.694  30.310  30.135  1.00  0.00    -0.354 N 
ATOM     35  C   UNL A   1      43.569  28.783  31.281  1.00  0.00     0.074 A 
ATOM     36  C   UNL A   1      43.819  27.494  30.672  1.00  0.00     0.031 C 
ATOM     37  C   UNL A   1      37.728  30.299  29.071  1.00  0.00     0.029 A 
ATOM     38  C   UNL A   1      38.555  31.065  30.002  1.00  0.00     0.049 A 
ATOM     39  H   UNL A   1      40.466  30.591  30.677  1.00  0.00     0.167 HD
ATOM     40  C   UNL A   1      44.449  29.434  32.078  1.00  0.00     0.037 A 
ATOM     41  C   UNL A   1      38.214  32.231  30.583  1.00  0.00     0.037 A 
ATOM     42  C   UNL A   1      44.199  30.715  32.684  1.00  0.00     0.049 A 
ATOM     43  C   UNL A   1      39.181  32.902  31.520  1.00  0.00     0.074 A 
ATOM     44  C   UNL A   1      45.036  31.464  33.493  1.00  0.00     0.029 A 
ATOM     45  N   UNL A   1      43.021  31.433  32.551  1.00  0.00    -0.354 N 
ATOM     46  N   UNL A   1      40.388  32.528  31.874  1.00  0.00    -0.248 NA
ATOM     47  C   UNL A   1      38.739  34.161  32.139  1.00  0.00     0.031 C 
ATOM     48  C   UNL A   1      44.346  32.617  33.885  1.00  0.00     0.029 A 
ATOM     49  C   UNL A   1      43.098  32.606  33.283  1.00  0.00     0.049 A 
ATOM     50  H   UNL A   1      42.245  31.151  32.016  1.00  0.00     0.167 HD
ATOM     51  C   UNL A   1      40.857  33.513  32.732  1.00  0.00     0.074 A 
ATOM     52  C   UNL A   1      39.811  34.509  32.839  1.00  0.00     0.031 C 
ATOM     53  C   UNL A   1      42.049  33.590  33.373  1.00  0.00     0.037 A 
BRANCH  40  54
ATOM     54  C   UNL A   1      45.757  28.756  32.357  1.00  0.00     0.057 A 
ATOM     55  C   UNL A   1      46.884  28.964  31.551  1.00  0.00     0.134 A 
ATOM     56  C   UNL A   1      45.899  27.907  33.461  1.00  0.00     0.134 A 
ATOM     57  F   UNL A   1      46.810  29.755  30.470  1.00  0.00    -0.206 F 
ATOM     58  C   UNL A   1      48.099  28.335  31.823  1.00  0.00     0.040 A 
ATOM     59  C   UNL A   1      47.114  27.289  33.755  1.00  0.00     0.040 A 
ATOM     60  F   UNL A   1      44.858  27.667  34.274  1.00  0.00    -0.206 F 
ATOM     61  C   UNL A   1      48.218  27.499  32.931  1.00  0.00     0.006 A 
ENDBRANCH  40  54
BRANCH  41  62
ATOM     62  C   UNL A   1      36.887  32.837  30.307  1.00  0.00     0.057 A 
ATOM     63  C   UNL A   1      35.786  32.578  31.131  1.00  0.00     0.134 A 
ATOM     64  C   UNL A   1      36.686  33.672  29.202  1.00  0.00     0.134 A 
ATOM     65  F   UNL A   1      35.912  31.765  32.190  1.00  0.00    -0.206 F 
ATOM     66  C   UNL A   1      34.528  33.117  30.858  1.00  0.00     0.040 A 
ATOM     67  C   UNL A   1      35.439  34.236  28.931  1.00  0.00     0.040 A 
ATOM     68  F   UNL A   1      37.702  33.957  28.374  1.00  0.00    -0.206 F 
ATOM     69  C   UNL A   1      34.353  33.954  29.758  1.00  0.00     0.006 A 
ENDBRANCH  41  62
BRANCH  53  70
ATOM     70  C   UNL A   1      42.299  34.803  34.219  1.00  0.00     0.057 A 
ATOM     71  C   UNL A   1      42.861  35.971  33.690  1.00  0.00     0.134 A 
ATOM     72  C   UNL A   1      41.935  34.815  35.572  1.00  0.00     0.134 A 
ATOM     73  F   UNL A   1      43.244  36.019  32.404  1.00  0.00    -0.206 F 
ATOM     74  C   UNL A   1      43.070  37.102  34.480  1.00  0.00     0.040 A 
ATOM     75  C   UNL A   1      42.117  35.948  36.366  1.00  0.00     0.040 A 
ATOM     76  F   UNL A   1      41.384  33.731  36.139  1.00  0.00    -0.206 F 
ATOM     77  C   UNL A   1      42.691  37.094  35.821  1.00  0.00     0.006 A 
ENDBRANCH  53  70
ENDBRANCH  27  28
ENDBRANCH  20  22
ENDBRANCH  19  20
ENDBRANCH  18  19
ENDBRANCH  17  18
ENDBRANCH   1  17
TORSDOF 16
ENDMDL
MODEL 3
REMARK VINA RESULT:      -9.7      5.678     11.921
REMARK SMILES C[C@H]1CCC[C@@H](S[C@H](F)C(=O)OCCOCCOC(=O)c2ccc(-c3c4nc(c(-c5c(F)cccc5F)c5ccc([nH]5)c(-c5c(F)cccc5F)c5nc(c(-c6c(F)cccc6F)c6ccc3[nH]6)C=C5)C=C4)cc2)C1
REMARK SMILES IDX 15 1 14 2 13 3 12 4 10 5 11 6 8 7 9 8 7 9 6 10 1 11 2 12
REMARK SMILES IDX 3 13 75 14 4 15 5 16 16 17 17 18 18 19 19 20 20 21 21 22
REMARK SMILES IDX 22 23 74 24 23 25 73 26 24 27 25 28 26 29 67 30 27 31 72 32
REMARK SMILES IDX 66 33 68 34 28 35 71 36 65 37 64 38 29 40 55 41 38 42 54 43
REMARK SMILES IDX 39 44 42 45 53 46 69 47 40 48 41 49 52 51 70 52 43 53 30 54
REMARK SMILES IDX 31 55 36 56 32 57 33 58 35 59 37 60 34 61 56 62 57 63 62 64
REMARK SMILES IDX 58 65 59 66 61 67 63 68 60 69 44 70 45 71 50 72 46 73 47 74
REMARK SMILES IDX 49 75 51 76 48 77
REMARK H PARENT 68 39 42 50
REMARK Flexibility Score: inf
ROOT
ATOM      1  O   UNL A   1      34.385  34.547  27.975  1.00  0.00    -0.374 OA
ENDROOT
BRANCH   1   2
ATOM      2  C   UNL A   1      33.221  34.744  28.776  1.00  0.00     0.202 C 
BRANCH   2   3
ATOM      3  C   UNL A   1      33.136  36.077  29.519  1.00  0.00     0.261 C 
BRANCH   3   4
ATOM      4  O   UNL A   1      32.949  35.864  30.926  1.00  0.00    -0.460 OA
BRANCH   4   5
ATOM      5  C   UNL A   1      33.309  36.909  31.725  1.00  0.00     0.351 C 
ATOM      6  O   UNL A   1      32.884  38.051  31.579  1.00  0.00    -0.248 OA
BRANCH   5   7
ATOM      7  C   UNL A   1      34.217  36.459  32.871  1.00  0.00     0.334 C 
ATOM      8  F   UNL A   1      33.788  36.925  34.086  1.00  0.00    -0.223 F 
BRANCH   7   9
ATOM      9  S   UNL A   1      34.304  34.644  32.976  1.00  0.00    -0.110 SA
BRANCH   9  10
ATOM     10  C   UNL A   1      35.902  34.276  32.144  1.00  0.00     0.050 C 
ATOM     11  C   UNL A   1      39.629  34.561  33.172  1.00  0.00     0.007 C 
ATOM     12  C   UNL A   1      38.435  34.335  32.244  1.00  0.00    -0.013 C 
ATOM     13  C   UNL A   1      38.481  32.934  31.622  1.00  0.00     0.003 C 
ATOM     14  C   UNL A   1      37.129  34.533  33.019  1.00  0.00     0.018 C 
ATOM     15  C   UNL A   1      37.241  32.643  30.775  1.00  0.00     0.001 C 
ATOM     16  C   UNL A   1      35.942  32.860  31.557  1.00  0.00     0.014 C 
ENDBRANCH   9  10
ENDBRANCH   7   9
ENDBRANCH   5   7
ENDBRANCH   4   5
ENDBRANCH   3   4
ENDBRANCH   2   3
ENDBRANCH   1   2
BRANCH   1  17
ATOM     17  C   UNL A   1      34.984  33.249  27.972  1.00  0.00     0.202 C 
BRANCH  17  18
ATOM     18  C   UNL A   1      34.042  32.051  27.800  1.00  0.00     0.261 C 
BRANCH  18  19
ATOM     19  O   UNL A   1      34.340  30.998  28.735  1.00  0.00    -0.460 OA
BRANCH  19  20
ATOM     20  C   UNL A   1      34.852  29.873  28.186  1.00  0.00     0.338 C 
ATOM     21  O   UNL A   1      34.305  29.118  27.394  1.00  0.00    -0.246 OA
BRANCH  20  22
ATOM     22  C   UNL A   1      36.282  29.757  28.522  1.00  0.00     0.060 A 
ATOM     23  C   UNL A   1      37.210  30.052  27.516  1.00  0.00     0.016 A 
ATOM     24  C   UNL A   1      36.707  29.291  29.768  1.00  0.00     0.016 A 
ATOM     25  C   UNL A   1      38.569  29.837  27.735  1.00  0.00     0.010 A 
ATOM     26  C   UNL A   1      38.070  29.062  29.981  1.00  0.00     0.010 A 
ATOM     27  C   UNL A   1      39.002  29.301  28.954  1.00  0.00    -0.014 A 
BRANCH  27  28
ATOM     28  C   UNL A   1      40.406  28.850  29.092  1.00  0.00     0.031 A 
ATOM     29  C   UNL A   1      41.414  29.786  29.697  1.00  0.00     0.074 A 
ATOM     30  C   UNL A   1      40.771  27.612  28.718  1.00  0.00     0.049 A 
ATOM     31  N   UNL A   1      42.696  29.610  29.895  1.00  0.00    -0.248 NA
ATOM     32  C   UNL A   1      40.910  31.096  30.138  1.00  0.00     0.031 C 
ATOM     33  C   UNL A   1      39.877  26.601  28.155  1.00  0.00     0.029 A 
ATOM     34  N   UNL A   1      41.998  26.998  28.751  1.00  0.00    -0.354 N 
ATOM     35  C   UNL A   1      43.151  30.786  30.479  1.00  0.00     0.074 A 
ATOM     36  C   UNL A   1      42.016  31.678  30.579  1.00  0.00     0.031 C 
ATOM     37  C   UNL A   1      40.590  25.494  27.885  1.00  0.00     0.029 A 
ATOM     38  C   UNL A   1      41.991  25.729  28.229  1.00  0.00     0.049 A 
ATOM     39  H   UNL A   1      42.806  27.428  29.113  1.00  0.00     0.167 HD
ATOM     40  C   UNL A   1      44.401  31.091  30.902  1.00  0.00     0.037 A 
ATOM     41  C   UNL A   1      43.005  24.865  28.037  1.00  0.00     0.037 A 
ATOM     42  C   UNL A   1      45.529  30.205  30.802  1.00  0.00     0.049 A 
ATOM     43  C   UNL A   1      44.399  25.253  28.451  1.00  0.00     0.074 A 
ATOM     44  C   UNL A   1      46.832  30.416  31.218  1.00  0.00     0.029 A 
ATOM     45  N   UNL A   1      45.489  28.939  30.239  1.00  0.00    -0.354 N 
ATOM     46  N   UNL A   1      44.814  26.357  29.025  1.00  0.00    -0.248 NA
ATOM     47  C   UNL A   1      45.465  24.274  28.193  1.00  0.00     0.031 C 
ATOM     48  C   UNL A   1      47.590  29.294  30.868  1.00  0.00     0.029 A 
ATOM     49  C   UNL A   1      46.749  28.366  30.275  1.00  0.00     0.049 A 
ATOM     50  H   UNL A   1      44.684  28.510  29.868  1.00  0.00     0.167 HD
ATOM     51  C   UNL A   1      46.180  26.196  29.220  1.00  0.00     0.074 A 
ATOM     52  C   UNL A   1      46.522  24.883  28.712  1.00  0.00     0.031 C 
ATOM     53  C   UNL A   1      47.071  27.055  29.771  1.00  0.00     0.037 A 
BRANCH  40  54
ATOM     54  C   UNL A   1      44.614  32.453  31.491  1.00  0.00     0.057 A 
ATOM     55  C   UNL A   1      44.523  32.684  32.870  1.00  0.00     0.134 A 
ATOM     56  C   UNL A   1      44.942  33.541  30.674  1.00  0.00     0.134 A 
ATOM     57  F   UNL A   1      44.197  31.686  33.706  1.00  0.00    -0.206 F 
ATOM     58  C   UNL A   1      44.730  33.954  33.412  1.00  0.00     0.040 A 
ATOM     59  C   UNL A   1      45.173  34.811  31.205  1.00  0.00     0.040 A 
ATOM     60  F   UNL A   1      45.048  33.387  29.345  1.00  0.00    -0.206 F 
ATOM     61  C   UNL A   1      45.062  35.020  32.578  1.00  0.00     0.006 A 
ENDBRANCH  40  54
BRANCH  41  62
ATOM     62  C   UNL A   1      42.746  23.546  27.407  1.00  0.00     0.057 A 
ATOM     63  C   UNL A   1      42.853  23.370  26.023  1.00  0.00     0.134 A 
ATOM     64  C   UNL A   1      42.367  22.437  28.172  1.00  0.00     0.134 A 
ATOM     65  F   UNL A   1      43.188  24.402  25.234  1.00  0.00    -0.206 F 
ATOM     66  C   UNL A   1      42.578  22.141  25.420  1.00  0.00     0.040 A 
ATOM     67  C   UNL A   1      42.111  21.197  27.585  1.00  0.00     0.040 A 
ATOM     68  F   UNL A   1      42.246  22.543  29.504  1.00  0.00    -0.206 F 
ATOM     69  C   UNL A   1      42.211  21.049  26.203  1.00  0.00     0.006 A 
ENDBRANCH  41  62
BRANCH  53  70
ATOM     70  C   UNL A   1      48.494  26.593  29.884  1.00  0.00     0.057 A 
ATOM     71  C   UNL A   1      49.445  26.879  28.898  1.00  0.00     0.134 A 
ATOM     72  C   UNL A   1      48.925  25.889  31.016  1.00  0.00     0.134 A 
ATOM     73  F   UNL A   1      49.092  27.538  27.784  1.00  0.00    -0.206 F 
ATOM     74  C   UNL A   1      50.772  26.464  29.024  1.00  0.00     0.040 A 
ATOM     75  C   UNL A   1      50.255  25.490  31.164  1.00  0.00     0.040 A 
ATOM     76  F   UNL A   1      48.066  25.590  32.002  1.00  0.00    -0.206 F 
ATOM     77  C   UNL A   1      51.181  25.772  30.162  1.00  0.00     0.006 A 
ENDBRANCH  53  70
ENDBRANCH  27  28
ENDBRANCH  20  22
ENDBRANCH  19  20
ENDBRANCH  18  19
ENDBRANCH  17  18
ENDBRANCH   1  17
TORSDOF 16
ENDMDL
