MODEL 1
REMARK VINA RESULT:     -12.1      0.000      0.000
REMARK SMILES COc1ccccc1[C@@H]1C[N@@H+](Cc2cc3c(cc2C)OCO3)C[C@H]1C(=O)OCCOCCOC(=O)c1ccc(-c2c3nc(c(-c4c(F)cccc4F)c4ccc([nH]4)c(-c4c(F)cccc4F)c4nc(c(-c5c(F)cccc5F)c5ccc2[nH]5)C=C4)C=C3)cc1
REMARK SMILES IDX 30 1 29 2 28 3 27 4 25 5 26 6 24 7 9 8 10 9 11 10 23 11 8 13
REMARK SMILES IDX 3 14 4 15 5 16 7 17 6 18 2 19 1 20 12 21 13 22 14 23 18 24
REMARK SMILES IDX 15 25 17 26 19 27 16 28 22 29 20 30 21 31 31 32 32 33 33 34
REMARK SMILES IDX 34 35 35 36 36 37 37 38 89 39 38 40 88 41 39 42 40 43 41 44
REMARK SMILES IDX 82 45 42 46 87 47 81 48 83 49 43 50 86 51 80 52 79 53 44 55
REMARK SMILES IDX 70 56 53 57 69 58 54 59 57 60 68 61 84 62 55 63 56 64 67 66
REMARK SMILES IDX 85 67 58 68 45 69 46 70 51 71 47 72 48 73 50 74 52 75 49 76
REMARK SMILES IDX 71 77 72 78 77 79 73 80 74 81 76 82 78 83 75 84 59 85 60 86
REMARK SMILES IDX 65 87 61 88 62 89 64 90 66 91 63 92
REMARK H PARENT 11 12 83 54 57 65
REMARK Flexibility Score: inf
ROOT
ATOM      1  O   UNL A   1      33.358  30.842  27.115  1.00  0.00    -0.374 OA
ENDROOT
BRANCH   1   2
ATOM      2  C   UNL A   1      33.800  29.683  26.401  1.00  0.00     0.202 C 
BRANCH   2   3
ATOM      3  C   UNL A   1      33.681  28.377  27.187  1.00  0.00     0.261 C 
BRANCH   3   4
ATOM      4  O   UNL A   1      32.933  27.386  26.447  1.00  0.00    -0.463 OA
BRANCH   4   5
ATOM      5  C   UNL A   1      31.658  27.238  26.889  1.00  0.00     0.315 C 
ATOM      6  O   UNL A   1      31.248  27.745  27.932  1.00  0.00    -0.252 OA
BRANCH   5   7
ATOM      7  C   UNL A   1      30.727  26.560  25.902  1.00  0.00     0.167 C 
ATOM      8  C   UNL A   1      30.968  26.695  24.389  1.00  0.00     0.098 C 
ATOM      9  C   UNL A   1      30.729  25.283  23.832  1.00  0.00     0.272 C 
ATOM     10  N   UNL A   1      31.010  24.343  24.916  1.00  0.00    -0.330 N 
ATOM     11  C   UNL A   1      30.682  25.047  26.160  1.00  0.00     0.278 C 
ATOM     12  H   UNL A   1      30.428  23.511  24.828  1.00  0.00     0.348 HD
BRANCH   8  13
ATOM     13  C   UNL A   1      30.110  27.705  23.638  1.00  0.00     0.004 A 
ATOM     14  C   UNL A   1      30.623  28.875  23.046  1.00  0.00     0.122 A 
ATOM     15  C   UNL A   1      29.793  29.738  22.324  1.00  0.00     0.047 A 
ATOM     16  C   UNL A   1      28.422  29.487  22.252  1.00  0.00     0.004 A 
ATOM     17  C   UNL A   1      28.720  27.508  23.606  1.00  0.00     0.008 A 
ATOM     18  C   UNL A   1      27.881  28.400  22.932  1.00  0.00     0.001 A 
BRANCH  14  19
ATOM     19  O   UNL A   1      31.881  29.290  23.398  1.00  0.00    -0.496 OA
ATOM     20  C   UNL A   1      32.939  28.730  22.633  1.00  0.00     0.278 C 
ENDBRANCH  14  19
ENDBRANCH   8  13
BRANCH  10  21
ATOM     21  C   UNL A   1      32.336  23.717  24.868  1.00  0.00     0.299 C 
BRANCH  21  22
ATOM     22  C   UNL A   1      32.381  22.314  24.301  1.00  0.00     0.013 A 
ATOM     23  C   UNL A   1      32.237  21.254  25.214  1.00  0.00     0.060 A 
ATOM     24  C   UNL A   1      32.531  22.029  22.910  1.00  0.00    -0.038 A 
ATOM     25  C   UNL A   1      32.203  19.983  24.713  1.00  0.00     0.166 A 
ATOM     26  C   UNL A   1      32.320  20.727  22.431  1.00  0.00     0.054 A 
ATOM     27  C   UNL A   1      33.022  23.030  21.900  1.00  0.00     0.045 C 
ATOM     28  C   UNL A   1      32.196  19.731  23.361  1.00  0.00     0.166 A 
ATOM     29  O   UNL A   1      32.329  18.843  25.442  1.00  0.00    -0.454 OA
ATOM     30  O   UNL A   1      32.278  18.395  23.105  1.00  0.00    -0.454 OA
ATOM     31  C   UNL A   1      32.819  18.008  24.381  1.00  0.00     0.468 C 
ENDBRANCH  21  22
ENDBRANCH  10  21
ENDBRANCH   5   7
ENDBRANCH   4   5
ENDBRANCH   3   4
ENDBRANCH   2   3
ENDBRANCH   1   2
BRANCH   1  32
ATOM     32  C   UNL A   1      32.160  31.449  26.642  1.00  0.00     0.202 C 
BRANCH  32  33
ATOM     33  C   UNL A   1      31.813  32.798  27.280  1.00  0.00     0.261 C 
BRANCH  33  34
ATOM     34  O   UNL A   1      32.836  33.792  27.157  1.00  0.00    -0.460 OA
BRANCH  34  35
ATOM     35  C   UNL A   1      33.294  34.262  28.344  1.00  0.00     0.338 C 
ATOM     36  O   UNL A   1      32.837  35.182  29.005  1.00  0.00    -0.246 OA
BRANCH  35  37
ATOM     37  C   UNL A   1      34.439  33.456  28.798  1.00  0.00     0.060 A 
ATOM     38  C   UNL A   1      34.280  32.635  29.922  1.00  0.00     0.016 A 
ATOM     39  C   UNL A   1      35.682  33.568  28.178  1.00  0.00     0.016 A 
ATOM     40  C   UNL A   1      35.363  31.905  30.424  1.00  0.00     0.010 A 
ATOM     41  C   UNL A   1      36.765  32.859  28.700  1.00  0.00     0.010 A 
ATOM     42  C   UNL A   1      36.620  32.006  29.819  1.00  0.00    -0.014 A 
BRANCH  42  43
ATOM     43  C   UNL A   1      37.815  31.307  30.382  1.00  0.00     0.031 A 
ATOM     44  C   UNL A   1      38.262  31.673  31.771  1.00  0.00     0.074 A 
ATOM     45  C   UNL A   1      38.531  30.402  29.680  1.00  0.00     0.049 A 
ATOM     46  N   UNL A   1      39.269  31.213  32.467  1.00  0.00    -0.248 NA
ATOM     47  C   UNL A   1      37.468  32.700  32.465  1.00  0.00     0.031 C 
ATOM     48  C   UNL A   1      38.238  29.937  28.324  1.00  0.00     0.029 A 
ATOM     49  N   UNL A   1      39.691  29.732  30.004  1.00  0.00    -0.354 N 
ATOM     50  C   UNL A   1      39.200  31.863  33.691  1.00  0.00     0.074 A 
ATOM     51  C   UNL A   1      38.132  32.832  33.600  1.00  0.00     0.031 C 
ATOM     52  C   UNL A   1      39.223  29.118  27.909  1.00  0.00     0.029 A 
ATOM     53  C   UNL A   1      40.195  28.954  28.985  1.00  0.00     0.049 A 
ATOM     54  H   UNL A   1      40.122  29.803  30.887  1.00  0.00     0.167 HD
ATOM     55  C   UNL A   1      39.911  31.636  34.818  1.00  0.00     0.037 A 
ATOM     56  C   UNL A   1      41.298  28.181  28.933  1.00  0.00     0.037 A 
ATOM     57  C   UNL A   1      40.984  30.691  34.925  1.00  0.00     0.049 A 
ATOM     58  C   UNL A   1      42.141  28.007  30.173  1.00  0.00     0.074 A 
ATOM     59  C   UNL A   1      41.756  30.382  36.031  1.00  0.00     0.029 A 
ATOM     60  N   UNL A   1      41.445  29.908  33.879  1.00  0.00    -0.354 N 
ATOM     61  N   UNL A   1      41.987  28.544  31.359  1.00  0.00    -0.248 NA
ATOM     62  C   UNL A   1      43.286  27.087  30.080  1.00  0.00     0.031 C 
ATOM     63  C   UNL A   1      42.712  29.439  35.642  1.00  0.00     0.029 A 
ATOM     64  C   UNL A   1      42.506  29.130  34.307  1.00  0.00     0.049 A 
ATOM     65  H   UNL A   1      41.073  29.906  32.967  1.00  0.00     0.167 HD
ATOM     66  C   UNL A   1      42.973  27.983  32.163  1.00  0.00     0.074 A 
ATOM     67  C   UNL A   1      43.724  27.068  31.332  1.00  0.00     0.031 C 
ATOM     68  C   UNL A   1      43.227  28.200  33.476  1.00  0.00     0.037 A 
BRANCH  55  69
ATOM     69  C   UNL A   1      39.504  32.422  36.027  1.00  0.00     0.057 A 
ATOM     70  C   UNL A   1      38.484  31.965  36.876  1.00  0.00     0.134 A 
ATOM     71  C   UNL A   1      40.091  33.655  36.321  1.00  0.00     0.134 A 
ATOM     72  F   UNL A   1      37.867  30.799  36.631  1.00  0.00    -0.206 F 
ATOM     73  C   UNL A   1      38.034  32.730  37.951  1.00  0.00     0.040 A 
ATOM     74  C   UNL A   1      39.668  34.418  37.410  1.00  0.00     0.040 A 
ATOM     75  F   UNL A   1      41.069  34.147  35.546  1.00  0.00    -0.206 F 
ATOM     76  C   UNL A   1      38.629  33.961  38.220  1.00  0.00     0.006 A 
ENDBRANCH  55  69
BRANCH  56  77
ATOM     77  C   UNL A   1      41.668  27.450  27.689  1.00  0.00     0.057 A 
ATOM     78  C   UNL A   1      42.387  28.080  26.665  1.00  0.00     0.134 A 
ATOM     79  C   UNL A   1      41.236  26.139  27.457  1.00  0.00     0.134 A 
ATOM     80  F   UNL A   1      42.805  29.345  26.816  1.00  0.00    -0.206 F 
ATOM     81  C   UNL A   1      42.629  27.450  25.443  1.00  0.00     0.040 A 
ATOM     82  C   UNL A   1      41.489  25.489  26.245  1.00  0.00     0.040 A 
ATOM     83  F   UNL A   1      40.542  25.478  28.395  1.00  0.00    -0.206 F 
ATOM     84  C   UNL A   1      42.176  26.150  25.229  1.00  0.00     0.006 A 
ENDBRANCH  56  77
BRANCH  68  85
ATOM     85  C   UNL A   1      44.323  27.404  34.120  1.00  0.00     0.057 A 
ATOM     86  C   UNL A   1      45.635  27.884  34.210  1.00  0.00     0.134 A 
ATOM     87  C   UNL A   1      44.042  26.172  34.725  1.00  0.00     0.134 A 
ATOM     88  F   UNL A   1      45.972  29.052  33.642  1.00  0.00    -0.206 F 
ATOM     89  C   UNL A   1      46.631  27.163  34.872  1.00  0.00     0.040 A 
ATOM     90  C   UNL A   1      45.022  25.454  35.411  1.00  0.00     0.040 A 
ATOM     91  F   UNL A   1      42.803  25.657  34.682  1.00  0.00    -0.206 F 
ATOM     92  C   UNL A   1      46.322  25.950  35.485  1.00  0.00     0.006 A 
ENDBRANCH  68  85
ENDBRANCH  42  43
ENDBRANCH  35  37
ENDBRANCH  34  35
ENDBRANCH  33  34
ENDBRANCH  32  33
ENDBRANCH   1  32
TORSDOF 18
ENDMDL
MODEL 2
REMARK VINA RESULT:     -11.6      3.841      9.304
REMARK SMILES COc1ccccc1[C@@H]1C[N@@H+](Cc2cc3c(cc2C)OCO3)C[C@H]1C(=O)OCCOCCOC(=O)c1ccc(-c2c3nc(c(-c4c(F)cccc4F)c4ccc([nH]4)c(-c4c(F)cccc4F)c4nc(c(-c5c(F)cccc5F)c5ccc2[nH]5)C=C4)C=C3)cc1
REMARK SMILES IDX 30 1 29 2 28 3 27 4 25 5 26 6 24 7 9 8 10 9 11 10 23 11 8 13
REMARK SMILES IDX 3 14 4 15 5 16 7 17 6 18 2 19 1 20 12 21 13 22 14 23 18 24
REMARK SMILES IDX 15 25 17 26 19 27 16 28 22 29 20 30 21 31 31 32 32 33 33 34
REMARK SMILES IDX 34 35 35 36 36 37 37 38 89 39 38 40 88 41 39 42 40 43 41 44
REMARK SMILES IDX 82 45 42 46 87 47 81 48 83 49 43 50 86 51 80 52 79 53 44 55
REMARK SMILES IDX 70 56 53 57 69 58 54 59 57 60 68 61 84 62 55 63 56 64 67 66
REMARK SMILES IDX 85 67 58 68 45 69 46 70 51 71 47 72 48 73 50 74 52 75 49 76
REMARK SMILES IDX 71 77 72 78 77 79 73 80 74 81 76 82 78 83 75 84 59 85 60 86
REMARK SMILES IDX 65 87 61 88 62 89 64 90 66 91 63 92
REMARK H PARENT 11 12 83 54 57 65
REMARK Flexibility Score: inf
ROOT
ATOM      1  O   UNL A   1      38.425  22.247  26.098  1.00  0.00    -0.374 OA
ENDROOT
BRANCH   1   2
ATOM      2  C   UNL A   1      37.932  23.382  25.379  1.00  0.00     0.202 C 
BRANCH   2   3
ATOM      3  C   UNL A   1      36.516  23.807  25.771  1.00  0.00     0.261 C 
BRANCH   3   4
ATOM      4  O   UNL A   1      35.674  23.959  24.606  1.00  0.00    -0.463 OA
BRANCH   4   5
ATOM      5  C   UNL A   1      34.462  24.503  24.889  1.00  0.00     0.315 C 
ATOM      6  O   UNL A   1      34.328  25.532  25.550  1.00  0.00    -0.252 OA
BRANCH   5   7
ATOM      7  C   UNL A   1      33.298  23.849  24.169  1.00  0.00     0.167 C 
ATOM      8  C   UNL A   1      32.459  22.770  24.873  1.00  0.00     0.098 C 
ATOM      9  C   UNL A   1      31.006  23.112  24.508  1.00  0.00     0.272 C 
ATOM     10  N   UNL A   1      30.959  24.549  24.242  1.00  0.00    -0.330 N 
ATOM     11  C   UNL A   1      32.282  24.909  23.721  1.00  0.00     0.278 C 
ATOM     12  H   UNL A   1      30.245  24.761  23.545  1.00  0.00     0.348 HD
BRANCH   8  13
ATOM     13  C   UNL A   1      32.758  21.319  24.520  1.00  0.00     0.004 A 
ATOM     14  C   UNL A   1      33.658  20.511  25.241  1.00  0.00     0.122 A 
ATOM     15  C   UNL A   1      33.851  19.169  24.899  1.00  0.00     0.047 A 
ATOM     16  C   UNL A   1      33.210  18.636  23.780  1.00  0.00     0.004 A 
ATOM     17  C   UNL A   1      32.174  20.779  23.362  1.00  0.00     0.008 A 
ATOM     18  C   UNL A   1      32.411  19.454  22.986  1.00  0.00     0.001 A 
BRANCH  14  19
ATOM     19  O   UNL A   1      34.526  21.115  26.112  1.00  0.00    -0.496 OA
ATOM     20  C   UNL A   1      33.970  21.469  27.372  1.00  0.00     0.278 C 
ENDBRANCH  14  19
ENDBRANCH   8  13
BRANCH  10  21
ATOM     21  C   UNL A   1      30.465  25.371  25.352  1.00  0.00     0.299 C 
BRANCH  21  22
ATOM     22  C   UNL A   1      30.965  26.799  25.386  1.00  0.00     0.013 A 
ATOM     23  C   UNL A   1      31.786  27.160  26.470  1.00  0.00     0.060 A 
ATOM     24  C   UNL A   1      30.670  27.764  24.376  1.00  0.00    -0.038 A 
ATOM     25  C   UNL A   1      32.305  28.425  26.481  1.00  0.00     0.166 A 
ATOM     26  C   UNL A   1      31.361  28.985  24.344  1.00  0.00     0.054 A 
ATOM     27  C   UNL A   1      29.560  27.610  23.372  1.00  0.00     0.045 C 
ATOM     28  C   UNL A   1      32.138  29.293  25.427  1.00  0.00     0.166 A 
ATOM     29  O   UNL A   1      32.893  29.028  27.548  1.00  0.00    -0.454 OA
ATOM     30  O   UNL A   1      32.642  30.525  25.715  1.00  0.00    -0.454 OA
ATOM     31  C   UNL A   1      32.637  30.383  27.148  1.00  0.00     0.468 C 
ENDBRANCH  21  22
ENDBRANCH  10  21
ENDBRANCH   5   7
ENDBRANCH   4   5
ENDBRANCH   3   4
ENDBRANCH   2   3
ENDBRANCH   1   2
BRANCH   1  32
ATOM     32  C   UNL A   1      38.010  20.973  25.614  1.00  0.00     0.202 C 
BRANCH  32  33
ATOM     33  C   UNL A   1      39.130  20.087  25.058  1.00  0.00     0.261 C 
BRANCH  33  34
ATOM     34  O   UNL A   1      39.799  19.289  26.042  1.00  0.00    -0.460 OA
BRANCH  34  35
ATOM     35  C   UNL A   1      41.149  19.406  26.023  1.00  0.00     0.338 C 
ATOM     36  O   UNL A   1      41.960  18.591  25.610  1.00  0.00    -0.246 OA
BRANCH  35  37
ATOM     37  C   UNL A   1      41.550  20.727  26.536  1.00  0.00     0.060 A 
ATOM     38  C   UNL A   1      41.244  21.054  27.863  1.00  0.00     0.016 A 
ATOM     39  C   UNL A   1      42.144  21.668  25.698  1.00  0.00     0.016 A 
ATOM     40  C   UNL A   1      41.548  22.323  28.368  1.00  0.00     0.010 A 
ATOM     41  C   UNL A   1      42.419  22.942  26.198  1.00  0.00     0.010 A 
ATOM     42  C   UNL A   1      42.141  23.284  27.543  1.00  0.00    -0.014 A 
BRANCH  42  43
ATOM     43  C   UNL A   1      42.400  24.674  28.025  1.00  0.00     0.031 A 
ATOM     44  C   UNL A   1      43.798  25.028  28.452  1.00  0.00     0.074 A 
ATOM     45  C   UNL A   1      41.425  25.602  28.138  1.00  0.00     0.049 A 
ATOM     46  N   UNL A   1      44.264  26.161  28.911  1.00  0.00    -0.248 NA
ATOM     47  C   UNL A   1      44.805  23.959  28.350  1.00  0.00     0.031 C 
ATOM     48  C   UNL A   1      40.020  25.423  27.773  1.00  0.00     0.029 A 
ATOM     49  N   UNL A   1      41.465  26.887  28.635  1.00  0.00    -0.354 N 
ATOM     50  C   UNL A   1      45.620  25.949  29.110  1.00  0.00     0.074 A 
ATOM     51  C   UNL A   1      45.879  24.554  28.839  1.00  0.00     0.031 C 
ATOM     52  C   UNL A   1      39.323  26.522  28.120  1.00  0.00     0.029 A 
ATOM     53  C   UNL A   1      40.237  27.509  28.686  1.00  0.00     0.049 A 
ATOM     54  H   UNL A   1      42.298  27.322  28.928  1.00  0.00     0.167 HD
ATOM     55  C   UNL A   1      46.586  26.842  29.426  1.00  0.00     0.037 A 
ATOM     56  C   UNL A   1      39.892  28.739  29.117  1.00  0.00     0.037 A 
ATOM     57  C   UNL A   1      46.348  28.227  29.714  1.00  0.00     0.049 A 
ATOM     58  C   UNL A   1      40.970  29.700  29.557  1.00  0.00     0.074 A 
ATOM     59  C   UNL A   1      47.266  29.212  30.031  1.00  0.00     0.029 A 
ATOM     60  N   UNL A   1      45.096  28.820  29.731  1.00  0.00    -0.354 N 
ATOM     61  N   UNL A   1      42.266  29.514  29.625  1.00  0.00    -0.248 NA
ATOM     62  C   UNL A   1      40.543  31.056  29.938  1.00  0.00     0.031 C 
ATOM     63  C   UNL A   1      46.562  30.395  30.279  1.00  0.00     0.029 A 
ATOM     64  C   UNL A   1      45.214  30.155  30.074  1.00  0.00     0.049 A 
ATOM     65  H   UNL A   1      44.249  28.359  29.528  1.00  0.00     0.167 HD
ATOM     66  C   UNL A   1      42.809  30.738  29.997  1.00  0.00     0.074 A 
ATOM     67  C   UNL A   1      41.704  31.661  30.145  1.00  0.00     0.031 C 
ATOM     68  C   UNL A   1      44.108  31.071  30.188  1.00  0.00     0.037 A 
BRANCH  55  69
ATOM     69  C   UNL A   1      47.990  26.322  29.436  1.00  0.00     0.057 A 
ATOM     70  C   UNL A   1      48.559  25.799  30.607  1.00  0.00     0.134 A 
ATOM     71  C   UNL A   1      48.794  26.386  28.295  1.00  0.00     0.134 A 
ATOM     72  F   UNL A   1      47.843  25.735  31.740  1.00  0.00    -0.206 F 
ATOM     73  C   UNL A   1      49.893  25.398  30.653  1.00  0.00     0.040 A 
ATOM     74  C   UNL A   1      50.124  25.961  28.321  1.00  0.00     0.040 A 
ATOM     75  F   UNL A   1      48.310  26.878  27.145  1.00  0.00    -0.206 F 
ATOM     76  C   UNL A   1      50.679  25.477  29.505  1.00  0.00     0.006 A 
ENDBRANCH  55  69
BRANCH  56  77
ATOM     77  C   UNL A   1      38.472  29.186  29.113  1.00  0.00     0.057 A 
ATOM     78  C   UNL A   1      37.884  29.726  27.962  1.00  0.00     0.134 A 
ATOM     79  C   UNL A   1      37.697  29.167  30.279  1.00  0.00     0.134 A 
ATOM     80  F   UNL A   1      38.584  29.797  26.820  1.00  0.00    -0.206 F 
ATOM     81  C   UNL A   1      36.596  30.266  27.978  1.00  0.00     0.040 A 
ATOM     82  C   UNL A   1      36.399  29.686  30.304  1.00  0.00     0.040 A 
ATOM     83  F   UNL A   1      38.198  28.664  31.417  1.00  0.00    -0.206 F 
ATOM     84  C   UNL A   1      35.850  30.249  29.154  1.00  0.00     0.006 A 
ENDBRANCH  56  77
BRANCH  68  85
ATOM     85  C   UNL A   1      44.425  32.498  30.526  1.00  0.00     0.057 A 
ATOM     86  C   UNL A   1      44.588  32.929  31.848  1.00  0.00     0.134 A 
ATOM     87  C   UNL A   1      44.645  33.435  29.507  1.00  0.00     0.134 A 
ATOM     88  F   UNL A   1      44.380  32.084  32.870  1.00  0.00    -0.206 F 
ATOM     89  C   UNL A   1      44.949  34.245  32.146  1.00  0.00     0.040 A 
ATOM     90  C   UNL A   1      45.031  34.745  29.791  1.00  0.00     0.040 A 
ATOM     91  F   UNL A   1      44.512  33.085  28.219  1.00  0.00    -0.206 F 
ATOM     92  C   UNL A   1      45.183  35.153  31.114  1.00  0.00     0.006 A 
ENDBRANCH  68  85
ENDBRANCH  42  43
ENDBRANCH  35  37
ENDBRANCH  34  35
ENDBRANCH  33  34
ENDBRANCH  32  33
ENDBRANCH   1  32
TORSDOF 18
ENDMDL
MODEL 3
REMARK VINA RESULT:     -11.6      4.272      9.964
REMARK SMILES COc1ccccc1[C@@H]1C[N@@H+](Cc2cc3c(cc2C)OCO3)C[C@H]1C(=O)OCCOCCOC(=O)c1ccc(-c2c3nc(c(-c4c(F)cccc4F)c4ccc([nH]4)c(-c4c(F)cccc4F)c4nc(c(-c5c(F)cccc5F)c5ccc2[nH]5)C=C4)C=C3)cc1
REMARK SMILES IDX 30 1 29 2 28 3 27 4 25 5 26 6 24 7 9 8 10 9 11 10 23 11 8 13
REMARK SMILES IDX 3 14 4 15 5 16 7 17 6 18 2 19 1 20 12 21 13 22 14 23 18 24
REMARK SMILES IDX 15 25 17 26 19 27 16 28 22 29 20 30 21 31 31 32 32 33 33 34
REMARK SMILES IDX 34 35 35 36 36 37 37 38 89 39 38 40 88 41 39 42 40 43 41 44
REMARK SMILES IDX 82 45 42 46 87 47 81 48 83 49 43 50 86 51 80 52 79 53 44 55
REMARK SMILES IDX 70 56 53 57 69 58 54 59 57 60 68 61 84 62 55 63 56 64 67 66
REMARK SMILES IDX 85 67 58 68 45 69 46 70 51 71 47 72 48 73 50 74 52 75 49 76
REMARK SMILES IDX 71 77 72 78 77 79 73 80 74 81 76 82 78 83 75 84 59 85 60 86
REMARK SMILES IDX 65 87 61 88 62 89 64 90 66 91 63 92
REMARK H PARENT 11 12 83 54 57 65
REMARK Flexibility Score: inf
ROOT
ATOM      1  O   UNL A   1      38.448  21.926  26.159  1.00  0.00    -0.374 OA
ENDROOT
BRANCH   1   2
ATOM      2  C   UNL A   1      38.083  23.146  25.504  1.00  0.00     0.202 C 
BRANCH   2   3
ATOM      3  C   UNL A   1      36.680  23.646  25.846  1.00  0.00     0.261 C 
BRANCH   3   4
ATOM      4  O   UNL A   1      35.971  24.073  24.660  1.00  0.00    -0.463 OA
BRANCH   4   5
ATOM      5  C   UNL A   1      34.752  24.605  24.928  1.00  0.00     0.315 C 
ATOM      6  O   UNL A   1      34.575  25.485  25.769  1.00  0.00    -0.252 OA
BRANCH   5   7
ATOM      7  C   UNL A   1      33.654  24.166  23.978  1.00  0.00     0.167 C 
ATOM      8  C   UNL A   1      32.516  23.258  24.475  1.00  0.00     0.098 C 
ATOM      9  C   UNL A   1      31.246  23.852  23.846  1.00  0.00     0.272 C 
ATOM     10  N   UNL A   1      31.507  25.273  23.618  1.00  0.00    -0.330 N 
ATOM     11  C   UNL A   1      32.948  25.388  23.373  1.00  0.00     0.278 C 
ATOM     12  H   UNL A   1      30.991  25.605  22.803  1.00  0.00     0.348 HD
BRANCH   8  13
ATOM     13  C   UNL A   1      32.618  21.775  24.144  1.00  0.00     0.004 A 
ATOM     14  C   UNL A   1      33.319  20.846  24.936  1.00  0.00     0.122 A 
ATOM     15  C   UNL A   1      33.332  19.487  24.608  1.00  0.00     0.047 A 
ATOM     16  C   UNL A   1      32.713  19.047  23.437  1.00  0.00     0.004 A 
ATOM     17  C   UNL A   1      32.057  21.319  22.939  1.00  0.00     0.008 A 
ATOM     18  C   UNL A   1      32.119  19.969  22.581  1.00  0.00     0.001 A 
BRANCH  14  19
ATOM     19  O   UNL A   1      34.193  21.319  25.879  1.00  0.00    -0.496 OA
ATOM     20  C   UNL A   1      33.750  21.208  27.225  1.00  0.00     0.278 C 
ENDBRANCH  14  19
ENDBRANCH   8  13
BRANCH  10  21
ATOM     21  C   UNL A   1      30.959  26.177  24.635  1.00  0.00     0.299 C 
BRANCH  21  22
ATOM     22  C   UNL A   1      30.580  27.560  24.151  1.00  0.00     0.013 A 
ATOM     23  C   UNL A   1      29.500  27.647  23.255  1.00  0.00     0.060 A 
ATOM     24  C   UNL A   1      31.239  28.753  24.576  1.00  0.00    -0.038 A 
ATOM     25  C   UNL A   1      29.098  28.893  22.863  1.00  0.00     0.166 A 
ATOM     26  C   UNL A   1      30.684  30.008  24.282  1.00  0.00     0.054 A 
ATOM     27  C   UNL A   1      32.586  28.771  25.246  1.00  0.00     0.045 C 
ATOM     28  C   UNL A   1      29.641  30.039  23.397  1.00  0.00     0.166 A 
ATOM     29  O   UNL A   1      28.261  29.163  21.825  1.00  0.00    -0.454 OA
ATOM     30  O   UNL A   1      29.167  31.151  22.770  1.00  0.00    -0.454 OA
ATOM     31  C   UNL A   1      28.727  30.497  21.566  1.00  0.00     0.468 C 
ENDBRANCH  21  22
ENDBRANCH  10  21
ENDBRANCH   5   7
ENDBRANCH   4   5
ENDBRANCH   3   4
ENDBRANCH   2   3
ENDBRANCH   1   2
BRANCH   1  32
ATOM     32  C   UNL A   1      38.541  20.773  25.327  1.00  0.00     0.202 C 
BRANCH  32  33
ATOM     33  C   UNL A   1      39.322  19.597  25.923  1.00  0.00     0.261 C 
BRANCH  33  34
ATOM     34  O   UNL A   1      40.666  19.475  25.444  1.00  0.00    -0.460 OA
BRANCH  34  35
ATOM     35  C   UNL A   1      41.611  19.651  26.400  1.00  0.00     0.338 C 
ATOM     36  O   UNL A   1      42.295  18.792  26.936  1.00  0.00    -0.246 OA
BRANCH  35  37
ATOM     37  C   UNL A   1      41.766  21.085  26.700  1.00  0.00     0.060 A 
ATOM     38  C   UNL A   1      42.096  21.958  25.655  1.00  0.00     0.016 A 
ATOM     39  C   UNL A   1      41.672  21.555  28.008  1.00  0.00     0.016 A 
ATOM     40  C   UNL A   1      42.317  23.316  25.911  1.00  0.00     0.010 A 
ATOM     41  C   UNL A   1      41.921  22.904  28.262  1.00  0.00     0.010 A 
ATOM     42  C   UNL A   1      42.231  23.808  27.218  1.00  0.00    -0.014 A 
BRANCH  42  43
ATOM     43  C   UNL A   1      42.546  25.233  27.536  1.00  0.00     0.031 A 
ATOM     44  C   UNL A   1      43.934  25.735  27.246  1.00  0.00     0.074 A 
ATOM     45  C   UNL A   1      41.654  26.068  28.114  1.00  0.00     0.049 A 
ATOM     46  N   UNL A   1      44.445  26.924  27.441  1.00  0.00    -0.248 NA
ATOM     47  C   UNL A   1      44.873  24.764  26.661  1.00  0.00     0.031 C 
ATOM     48  C   UNL A   1      40.271  25.742  28.462  1.00  0.00     0.029 A 
ATOM     49  N   UNL A   1      41.796  27.368  28.547  1.00  0.00    -0.354 N 
ATOM     50  C   UNL A   1      45.745  26.850  26.964  1.00  0.00     0.074 A 
ATOM     51  C   UNL A   1      45.983  25.476  26.584  1.00  0.00     0.031 C 
ATOM     52  C   UNL A   1      39.718  26.781  29.115  1.00  0.00     0.029 A 
ATOM     53  C   UNL A   1      40.685  27.871  29.188  1.00  0.00     0.049 A 
ATOM     54  H   UNL A   1      42.618  27.892  28.412  1.00  0.00     0.167 HD
ATOM     55  C   UNL A   1      46.648  27.842  26.791  1.00  0.00     0.037 A 
ATOM     56  C   UNL A   1      40.464  29.079  29.747  1.00  0.00     0.037 A 
ATOM     57  C   UNL A   1      46.437  29.208  27.176  1.00  0.00     0.049 A 
ATOM     58  C   UNL A   1      41.518  30.153  29.630  1.00  0.00     0.074 A 
ATOM     59  C   UNL A   1      47.289  30.287  27.029  1.00  0.00     0.029 A 
ATOM     60  N   UNL A   1      45.292  29.678  27.797  1.00  0.00    -0.354 N 
ATOM     61  N   UNL A   1      42.700  30.094  29.068  1.00  0.00    -0.248 NA
ATOM     62  C   UNL A   1      41.189  31.475  30.187  1.00  0.00     0.031 C 
ATOM     63  C   UNL A   1      46.673  31.406  27.598  1.00  0.00     0.029 A 
ATOM     64  C   UNL A   1      45.423  31.030  28.060  1.00  0.00     0.049 A 
ATOM     65  H   UNL A   1      44.503  29.132  28.019  1.00  0.00     0.167 HD
ATOM     66  C   UNL A   1      43.227  31.378  29.150  1.00  0.00     0.074 A 
ATOM     67  C   UNL A   1      42.240  32.196  29.821  1.00  0.00     0.031 C 
ATOM     68  C   UNL A   1      44.419  31.840  28.701  1.00  0.00     0.037 A 
BRANCH  55  69
ATOM     69  C   UNL A   1      47.932  27.459  26.121  1.00  0.00     0.057 A 
ATOM     70  C   UNL A   1      48.041  27.447  24.723  1.00  0.00     0.134 A 
ATOM     71  C   UNL A   1      49.044  27.056  26.865  1.00  0.00     0.134 A 
ATOM     72  F   UNL A   1      46.998  27.801  23.956  1.00  0.00    -0.206 F 
ATOM     73  C   UNL A   1      49.201  27.005  24.087  1.00  0.00     0.040 A 
ATOM     74  C   UNL A   1      50.220  26.638  26.240  1.00  0.00     0.040 A 
ATOM     75  F   UNL A   1      49.001  27.044  28.205  1.00  0.00    -0.206 F 
ATOM     76  C   UNL A   1      50.295  26.600  24.848  1.00  0.00     0.006 A 
ENDBRANCH  55  69
BRANCH  56  77
ATOM     77  C   UNL A   1      39.177  29.387  30.429  1.00  0.00     0.057 A 
ATOM     78  C   UNL A   1      38.948  29.000  31.756  1.00  0.00     0.134 A 
ATOM     79  C   UNL A   1      38.116  29.994  29.746  1.00  0.00     0.134 A 
ATOM     80  F   UNL A   1      39.916  28.389  32.455  1.00  0.00    -0.206 F 
ATOM     81  C   UNL A   1      37.703  29.167  32.366  1.00  0.00     0.040 A 
ATOM     82  C   UNL A   1      36.870  30.186  30.352  1.00  0.00     0.040 A 
ATOM     83  F   UNL A   1      38.267  30.389  28.474  1.00  0.00    -0.206 F 
ATOM     84  C   UNL A   1      36.658  29.761  31.661  1.00  0.00     0.006 A 
ENDBRANCH  56  77
BRANCH  68  85
ATOM     85  C   UNL A   1      44.712  33.303  28.865  1.00  0.00     0.057 A 
ATOM     86  C   UNL A   1      45.352  33.809  30.002  1.00  0.00     0.134 A 
ATOM     87  C   UNL A   1      44.416  34.204  27.833  1.00  0.00     0.134 A 
ATOM     88  F   UNL A   1      45.652  33.000  31.030  1.00  0.00    -0.206 F 
ATOM     89  C   UNL A   1      45.679  35.162  30.112  1.00  0.00     0.040 A 
ATOM     90  C   UNL A   1      44.760  35.553  27.920  1.00  0.00     0.040 A 
ATOM     91  F   UNL A   1      43.809  33.783  26.713  1.00  0.00    -0.206 F 
ATOM     92  C   UNL A   1      45.394  36.035  29.064  1.00  0.00     0.006 A 
ENDBRANCH  68  85
ENDBRANCH  42  43
ENDBRANCH  35  37
ENDBRANCH  34  35
ENDBRANCH  33  34
ENDBRANCH  32  33
ENDBRANCH   1  32
TORSDOF 18
ENDMDL
