MODEL 1
REMARK VINA RESULT:     -10.6      0.000      0.000
REMARK SMILES O=C(OCCOCCOC(=O)c1ccccc1C[NH2+]C1CCCC1)c1ccc(-c2c3nc(c(-c4c(F)cccc4F)c4ccc([nH]4)c(-c4c(F)cccc4F)c4nc(c(-c5c(F)cccc5F)c5ccc2[nH]5)C=C4)C=C3)cc1
REMARK SMILES IDX 7 1 6 2 5 3 4 4 3 5 2 6 1 7 25 8 26 9 78 10 27 11 77 12
REMARK SMILES IDX 28 13 29 14 30 15 71 16 31 17 76 18 70 19 72 20 32 21 75 22
REMARK SMILES IDX 69 23 68 24 33 26 59 27 42 28 58 29 43 30 46 31 57 32 73 33
REMARK SMILES IDX 44 34 45 35 56 37 74 38 47 39 34 40 35 41 40 42 36 43 37 44
REMARK SMILES IDX 39 45 41 46 38 47 60 48 61 49 66 50 62 51 63 52 65 53 67 54
REMARK SMILES IDX 64 55 48 56 49 57 54 58 50 59 51 60 53 61 55 62 52 63 8 64
REMARK SMILES IDX 9 65 10 66 11 67 12 68 13 69 17 70 14 71 16 72 15 73 18 74
REMARK SMILES IDX 19 75 20 78 21 79 24 80 22 81 23 82
REMARK H PARENT 72 25 46 36 19 76 19 77
REMARK Flexibility Score: inf
ROOT
ATOM      1  C   UNL A   1      32.433  29.176  27.196  1.00  0.00     0.202 C 
ENDROOT
BRANCH   1   2
ATOM      2  O   UNL A   1      32.780  30.418  26.574  1.00  0.00    -0.374 OA
BRANCH   2   3
ATOM      3  C   UNL A   1      31.678  31.218  26.140  1.00  0.00     0.202 C 
BRANCH   3   4
ATOM      4  C   UNL A   1      31.297  32.327  27.126  1.00  0.00     0.261 C 
BRANCH   4   5
ATOM      5  O   UNL A   1      32.257  33.397  27.081  1.00  0.00    -0.460 OA
BRANCH   5   6
ATOM      6  C   UNL A   1      33.059  33.866  28.065  1.00  0.00     0.338 C 
ATOM      7  O   UNL A   1      32.747  34.921  28.616  1.00  0.00    -0.246 OA
BRANCH   6   8
ATOM      8  C   UNL A   1      34.299  33.176  28.545  1.00  0.00     0.060 A 
ATOM      9  C   UNL A   1      34.357  31.876  29.045  1.00  0.00     0.016 A 
ATOM     10  C   UNL A   1      35.512  33.877  28.411  1.00  0.00     0.016 A 
ATOM     11  C   UNL A   1      35.549  31.301  29.447  1.00  0.00     0.010 A 
ATOM     12  C   UNL A   1      36.728  33.302  28.798  1.00  0.00     0.010 A 
ATOM     13  C   UNL A   1      36.736  32.015  29.341  1.00  0.00    -0.014 A 
BRANCH  13  14
ATOM     14  C   UNL A   1      37.914  31.417  29.984  1.00  0.00     0.031 A 
ATOM     15  C   UNL A   1      38.109  31.666  31.447  1.00  0.00     0.074 A 
ATOM     16  C   UNL A   1      38.637  30.504  29.312  1.00  0.00     0.049 A 
ATOM     17  N   UNL A   1      39.015  31.190  32.255  1.00  0.00    -0.248 NA
ATOM     18  C   UNL A   1      37.125  32.552  32.096  1.00  0.00     0.031 C 
ATOM     19  C   UNL A   1      38.398  30.095  27.925  1.00  0.00     0.029 A 
ATOM     20  N   UNL A   1      39.676  29.715  29.719  1.00  0.00    -0.354 N 
ATOM     21  C   UNL A   1      38.727  31.736  33.499  1.00  0.00     0.074 A 
ATOM     22  C   UNL A   1      37.563  32.577  33.343  1.00  0.00     0.031 C 
ATOM     23  C   UNL A   1      39.245  29.105  27.609  1.00  0.00     0.029 A 
ATOM     24  C   UNL A   1      40.122  28.853  28.746  1.00  0.00     0.049 A 
ATOM     25  H   UNL A   1      40.067  29.758  30.621  1.00  0.00     0.167 HD
ATOM     26  C   UNL A   1      39.391  31.554  34.661  1.00  0.00     0.037 A 
ATOM     27  C   UNL A   1      41.142  27.976  28.782  1.00  0.00     0.037 A 
ATOM     28  C   UNL A   1      40.548  30.710  34.778  1.00  0.00     0.049 A 
ATOM     29  C   UNL A   1      41.927  27.868  30.061  1.00  0.00     0.074 A 
ATOM     30  C   UNL A   1      41.367  30.504  35.870  1.00  0.00     0.029 A 
ATOM     31  N   UNL A   1      41.046  29.927  33.744  1.00  0.00    -0.354 N 
ATOM     32  N   UNL A   1      41.709  28.455  31.215  1.00  0.00    -0.248 NA
ATOM     33  C   UNL A   1      43.104  26.994  30.042  1.00  0.00     0.031 C 
ATOM     34  C   UNL A   1      42.387  29.626  35.485  1.00  0.00     0.029 A 
ATOM     35  C   UNL A   1      42.173  29.246  34.167  1.00  0.00     0.049 A 
ATOM     36  H   UNL A   1      40.654  29.865  32.843  1.00  0.00     0.167 HD
ATOM     37  C   UNL A   1      42.707  28.005  32.067  1.00  0.00     0.074 A 
ATOM     38  C   UNL A   1      43.521  27.083  31.298  1.00  0.00     0.031 C 
ATOM     39  C   UNL A   1      42.941  28.325  33.364  1.00  0.00     0.037 A 
BRANCH  26  40
ATOM     40  C   UNL A   1      38.924  32.356  35.839  1.00  0.00     0.057 A 
ATOM     41  C   UNL A   1      39.305  33.689  36.041  1.00  0.00     0.134 A 
ATOM     42  C   UNL A   1      38.127  31.756  36.823  1.00  0.00     0.134 A 
ATOM     43  F   UNL A   1      40.098  34.311  35.155  1.00  0.00    -0.206 F 
ATOM     44  C   UNL A   1      38.937  34.387  37.194  1.00  0.00     0.040 A 
ATOM     45  C   UNL A   1      37.734  32.450  37.968  1.00  0.00     0.040 A 
ATOM     46  F   UNL A   1      37.736  30.480  36.697  1.00  0.00    -0.206 F 
ATOM     47  C   UNL A   1      38.148  33.767  38.161  1.00  0.00     0.006 A 
ENDBRANCH  26  40
BRANCH  27  48
ATOM     48  C   UNL A   1      41.502  27.182  27.578  1.00  0.00     0.057 A 
ATOM     49  C   UNL A   1      42.321  27.703  26.570  1.00  0.00     0.134 A 
ATOM     50  C   UNL A   1      41.015  25.879  27.395  1.00  0.00     0.134 A 
ATOM     51  F   UNL A   1      42.806  28.950  26.672  1.00  0.00    -0.206 F 
ATOM     52  C   UNL A   1      42.628  26.970  25.422  1.00  0.00     0.040 A 
ATOM     53  C   UNL A   1      41.337  25.125  26.266  1.00  0.00     0.040 A 
ATOM     54  F   UNL A   1      40.223  25.316  28.321  1.00  0.00    -0.206 F 
ATOM     55  C   UNL A   1      42.139  25.673  25.270  1.00  0.00     0.006 A 
ENDBRANCH  27  48
BRANCH  39  56
ATOM     56  C   UNL A   1      44.092  27.636  34.030  1.00  0.00     0.057 A 
ATOM     57  C   UNL A   1      45.372  28.201  34.065  1.00  0.00     0.134 A 
ATOM     58  C   UNL A   1      43.901  26.408  34.675  1.00  0.00     0.134 A 
ATOM     59  F   UNL A   1      45.617  29.370  33.453  1.00  0.00    -0.206 F 
ATOM     60  C   UNL A   1      46.431  27.555  34.701  1.00  0.00     0.040 A 
ATOM     61  C   UNL A   1      44.945  25.766  35.337  1.00  0.00     0.040 A 
ATOM     62  F   UNL A   1      42.693  25.822  34.682  1.00  0.00    -0.206 F 
ATOM     63  C   UNL A   1      46.217  26.338  35.346  1.00  0.00     0.006 A 
ENDBRANCH  39  56
ENDBRANCH  13  14
ENDBRANCH   6   8
ENDBRANCH   5   6
ENDBRANCH   4   5
ENDBRANCH   3   4
ENDBRANCH   2   3
ENDBRANCH   1   2
BRANCH   1  64
ATOM     64  C   UNL A   1      33.650  28.257  27.211  1.00  0.00     0.261 C 
BRANCH  64  65
ATOM     65  O   UNL A   1      33.733  27.624  25.928  1.00  0.00    -0.460 OA
BRANCH  65  66
ATOM     66  C   UNL A   1      32.846  26.627  25.696  1.00  0.00     0.338 C 
ATOM     67  O   UNL A   1      32.132  26.070  26.512  1.00  0.00    -0.246 OA
BRANCH  66  68
ATOM     68  C   UNL A   1      32.747  26.426  24.228  1.00  0.00     0.068 A 
ATOM     69  C   UNL A   1      33.569  25.422  23.692  1.00  0.00     0.016 A 
ATOM     70  C   UNL A   1      31.855  27.140  23.400  1.00  0.00     0.021 A 
ATOM     71  C   UNL A   1      33.464  25.068  22.350  1.00  0.00     0.001 A 
ATOM     72  C   UNL A   1      31.767  26.765  22.049  1.00  0.00     0.010 A 
ATOM     73  C   UNL A   1      32.555  25.733  21.533  1.00  0.00     0.001 A 
BRANCH  70  74
ATOM     74  C   UNL A   1      31.003  28.288  23.906  1.00  0.00     0.298 C 
BRANCH  74  75
ATOM     75  N   UNL A   1      30.971  29.391  22.945  1.00  0.00    -0.340 N 
ATOM     76  H   UNL A   1      31.425  29.089  22.084  1.00  0.00     0.346 HD
ATOM     77  H   UNL A   1      31.456  30.185  23.365  1.00  0.00     0.346 HD
BRANCH  75  78
ATOM     78  C   UNL A   1      29.612  29.815  22.633  1.00  0.00     0.182 C 
ATOM     79  C   UNL A   1      28.609  28.721  22.997  1.00  0.00     0.065 C 
ATOM     80  C   UNL A   1      29.139  30.992  23.478  1.00  0.00     0.065 C 
ATOM     81  C   UNL A   1      27.281  29.463  23.018  1.00  0.00     0.006 C 
ATOM     82  C   UNL A   1      27.614  30.885  23.471  1.00  0.00     0.006 C 
ENDBRANCH  75  78
ENDBRANCH  74  75
ENDBRANCH  70  74
ENDBRANCH  66  68
ENDBRANCH  65  66
ENDBRANCH  64  65
ENDBRANCH   1  64
TORSDOF 17
ENDMDL
MODEL 2
REMARK VINA RESULT:     -10.5      5.502     10.532
REMARK SMILES O=C(OCCOCCOC(=O)c1ccccc1C[NH2+]C1CCCC1)c1ccc(-c2c3nc(c(-c4c(F)cccc4F)c4ccc([nH]4)c(-c4c(F)cccc4F)c4nc(c(-c5c(F)cccc5F)c5ccc2[nH]5)C=C4)C=C3)cc1
REMARK SMILES IDX 7 1 6 2 5 3 4 4 3 5 2 6 1 7 25 8 26 9 78 10 27 11 77 12
REMARK SMILES IDX 28 13 29 14 30 15 71 16 31 17 76 18 70 19 72 20 32 21 75 22
REMARK SMILES IDX 69 23 68 24 33 26 59 27 42 28 58 29 43 30 46 31 57 32 73 33
REMARK SMILES IDX 44 34 45 35 56 37 74 38 47 39 34 40 35 41 40 42 36 43 37 44
REMARK SMILES IDX 39 45 41 46 38 47 60 48 61 49 66 50 62 51 63 52 65 53 67 54
REMARK SMILES IDX 64 55 48 56 49 57 54 58 50 59 51 60 53 61 55 62 52 63 8 64
REMARK SMILES IDX 9 65 10 66 11 67 12 68 13 69 17 70 14 71 16 72 15 73 18 74
REMARK SMILES IDX 19 75 20 78 21 79 24 80 22 81 23 82
REMARK H PARENT 72 25 46 36 19 76 19 77
REMARK Flexibility Score: inf
ROOT
ATOM      1  C   UNL A   1      37.235  21.765  25.011  1.00  0.00     0.202 C 
ENDROOT
BRANCH   1   2
ATOM      2  O   UNL A   1      36.844  20.418  24.724  1.00  0.00    -0.374 OA
BRANCH   2   3
ATOM      3  C   UNL A   1      37.841  19.423  24.966  1.00  0.00     0.202 C 
BRANCH   3   4
ATOM      4  C   UNL A   1      39.019  19.925  25.807  1.00  0.00     0.261 C 
BRANCH   4   5
ATOM      5  O   UNL A   1      40.141  19.033  25.692  1.00  0.00    -0.460 OA
BRANCH   5   6
ATOM      6  C   UNL A   1      41.451  19.274  25.936  1.00  0.00     0.338 C 
ATOM      7  O   UNL A   1      42.252  18.355  25.764  1.00  0.00    -0.246 OA
BRANCH   6   8
ATOM      8  C   UNL A   1      41.999  20.592  26.387  1.00  0.00     0.060 A 
ATOM      9  C   UNL A   1      42.206  20.969  27.713  1.00  0.00     0.016 A 
ATOM     10  C   UNL A   1      42.401  21.494  25.383  1.00  0.00     0.016 A 
ATOM     11  C   UNL A   1      42.740  22.200  28.047  1.00  0.00     0.010 A 
ATOM     12  C   UNL A   1      42.958  22.736  25.706  1.00  0.00     0.010 A 
ATOM     13  C   UNL A   1      43.104  23.094  27.049  1.00  0.00    -0.014 A 
BRANCH  13  14
ATOM     14  C   UNL A   1      43.459  24.451  27.488  1.00  0.00     0.031 A 
ATOM     15  C   UNL A   1      44.867  24.907  27.267  1.00  0.00     0.074 A 
ATOM     16  C   UNL A   1      42.482  25.300  27.856  1.00  0.00     0.049 A 
ATOM     17  N   UNL A   1      45.405  26.074  27.490  1.00  0.00    -0.248 NA
ATOM     18  C   UNL A   1      45.791  23.917  26.685  1.00  0.00     0.031 C 
ATOM     19  C   UNL A   1      41.059  24.960  27.937  1.00  0.00     0.029 A 
ATOM     20  N   UNL A   1      42.528  26.629  28.170  1.00  0.00    -0.354 N 
ATOM     21  C   UNL A   1      46.732  25.952  27.100  1.00  0.00     0.074 A 
ATOM     22  C   UNL A   1      46.920  24.601  26.624  1.00  0.00     0.031 C 
ATOM     23  C   UNL A   1      40.363  26.065  28.246  1.00  0.00     0.029 A 
ATOM     24  C   UNL A   1      41.294  27.170  28.443  1.00  0.00     0.049 A 
ATOM     25  H   UNL A   1      43.363  27.149  28.198  1.00  0.00     0.167 HD
ATOM     26  C   UNL A   1      47.703  26.891  27.150  1.00  0.00     0.037 A 
ATOM     27  C   UNL A   1      40.973  28.418  28.826  1.00  0.00     0.037 A 
ATOM     28  C   UNL A   1      47.479  28.225  27.632  1.00  0.00     0.049 A 
ATOM     29  C   UNL A   1      42.091  29.415  28.970  1.00  0.00     0.074 A 
ATOM     30  C   UNL A   1      48.389  29.246  27.819  1.00  0.00     0.029 A 
ATOM     31  N   UNL A   1      46.234  28.717  28.005  1.00  0.00    -0.354 N 
ATOM     32  N   UNL A   1      43.366  29.273  28.686  1.00  0.00    -0.248 NA
ATOM     33  C   UNL A   1      41.736  30.735  29.500  1.00  0.00     0.031 C 
ATOM     34  C   UNL A   1      47.701  30.345  28.346  1.00  0.00     0.029 A 
ATOM     35  C   UNL A   1      46.353  30.026  28.437  1.00  0.00     0.049 A 
ATOM     36  H   UNL A   1      45.391  28.210  27.967  1.00  0.00     0.167 HD
ATOM     37  C   UNL A   1      43.961  30.491  28.981  1.00  0.00     0.074 A 
ATOM     38  C   UNL A   1      42.902  31.364  29.450  1.00  0.00     0.031 C 
ATOM     39  C   UNL A   1      45.262  30.859  28.882  1.00  0.00     0.037 A 
BRANCH  26  40
ATOM     40  C   UNL A   1      49.084  26.454  26.762  1.00  0.00     0.057 A 
ATOM     41  C   UNL A   1      49.979  25.886  27.679  1.00  0.00     0.134 A 
ATOM     42  C   UNL A   1      49.546  26.668  25.457  1.00  0.00     0.134 A 
ATOM     43  F   UNL A   1      49.612  25.687  28.953  1.00  0.00    -0.206 F 
ATOM     44  C   UNL A   1      51.293  25.576  27.319  1.00  0.00     0.040 A 
ATOM     45  C   UNL A   1      50.849  26.342  25.080  1.00  0.00     0.040 A 
ATOM     46  F   UNL A   1      48.744  27.219  24.534  1.00  0.00    -0.206 F 
ATOM     47  C   UNL A   1      51.730  25.802  26.015  1.00  0.00     0.006 A 
ENDBRANCH  26  40
BRANCH  27  48
ATOM     48  C   UNL A   1      39.565  28.777  29.140  1.00  0.00     0.057 A 
ATOM     49  C   UNL A   1      38.707  29.303  28.168  1.00  0.00     0.134 A 
ATOM     50  C   UNL A   1      39.046  28.619  30.433  1.00  0.00     0.134 A 
ATOM     51  F   UNL A   1      39.143  29.497  26.915  1.00  0.00    -0.206 F 
ATOM     52  C   UNL A   1      37.394  29.675  28.472  1.00  0.00     0.040 A 
ATOM     53  C   UNL A   1      37.729  28.960  30.744  1.00  0.00     0.040 A 
ATOM     54  F   UNL A   1      39.814  28.122  31.415  1.00  0.00    -0.206 F 
ATOM     55  C   UNL A   1      36.901  29.499  29.764  1.00  0.00     0.006 A 
ENDBRANCH  27  48
BRANCH  39  56
ATOM     56  C   UNL A   1      45.590  32.274  29.247  1.00  0.00     0.057 A 
ATOM     57  C   UNL A   1      45.985  32.630  30.542  1.00  0.00     0.134 A 
ATOM     58  C   UNL A   1      45.544  33.282  28.276  1.00  0.00     0.134 A 
ATOM     59  F   UNL A   1      46.036  31.710  31.516  1.00  0.00    -0.206 F 
ATOM     60  C   UNL A   1      46.302  33.950  30.864  1.00  0.00     0.040 A 
ATOM     61  C   UNL A   1      45.884  34.598  28.580  1.00  0.00     0.040 A 
ATOM     62  F   UNL A   1      45.181  32.998  27.016  1.00  0.00    -0.206 F 
ATOM     63  C   UNL A   1      46.259  34.936  29.880  1.00  0.00     0.006 A 
ENDBRANCH  39  56
ENDBRANCH  13  14
ENDBRANCH   6   8
ENDBRANCH   5   6
ENDBRANCH   4   5
ENDBRANCH   3   4
ENDBRANCH   2   3
ENDBRANCH   1   2
BRANCH   1  64
ATOM     64  C   UNL A   1      36.734  22.687  23.904  1.00  0.00     0.261 C 
BRANCH  64  65
ATOM     65  O   UNL A   1      35.833  23.630  24.498  1.00  0.00    -0.460 OA
BRANCH  65  66
ATOM     66  C   UNL A   1      34.626  23.761  23.899  1.00  0.00     0.338 C 
ATOM     67  O   UNL A   1      34.407  23.964  22.716  1.00  0.00    -0.246 OA
BRANCH  66  68
ATOM     68  C   UNL A   1      33.575  23.440  24.897  1.00  0.00     0.068 A 
ATOM     69  C   UNL A   1      33.166  24.503  25.718  1.00  0.00     0.016 A 
ATOM     70  C   UNL A   1      32.961  22.174  25.006  1.00  0.00     0.021 A 
ATOM     71  C   UNL A   1      32.103  24.343  26.600  1.00  0.00     0.001 A 
ATOM     72  C   UNL A   1      31.890  22.036  25.905  1.00  0.00     0.010 A 
ATOM     73  C   UNL A   1      31.459  23.112  26.685  1.00  0.00     0.001 A 
BRANCH  70  74
ATOM     74  C   UNL A   1      33.414  20.969  24.205  1.00  0.00     0.298 C 
BRANCH  74  75
ATOM     75  N   UNL A   1      33.867  19.887  25.081  1.00  0.00    -0.340 N 
ATOM     76  H   UNL A   1      33.504  20.050  26.019  1.00  0.00     0.346 HD
ATOM     77  H   UNL A   1      34.888  19.885  25.071  1.00  0.00     0.346 HD
BRANCH  75  78
ATOM     78  C   UNL A   1      33.416  18.579  24.625  1.00  0.00     0.182 C 
ATOM     79  C   UNL A   1      34.607  17.696  24.255  1.00  0.00     0.065 C 
ATOM     80  C   UNL A   1      32.727  17.766  25.714  1.00  0.00     0.065 C 
ATOM     81  C   UNL A   1      34.007  16.299  24.226  1.00  0.00     0.006 C 
ATOM     82  C   UNL A   1      32.892  16.311  25.274  1.00  0.00     0.006 C 
ENDBRANCH  75  78
ENDBRANCH  74  75
ENDBRANCH  70  74
ENDBRANCH  66  68
ENDBRANCH  65  66
ENDBRANCH  64  65
ENDBRANCH   1  64
TORSDOF 17
ENDMDL
MODEL 3
REMARK VINA RESULT:     -10.3      0.966      2.009
REMARK SMILES O=C(OCCOCCOC(=O)c1ccccc1C[NH2+]C1CCCC1)c1ccc(-c2c3nc(c(-c4c(F)cccc4F)c4ccc([nH]4)c(-c4c(F)cccc4F)c4nc(c(-c5c(F)cccc5F)c5ccc2[nH]5)C=C4)C=C3)cc1
REMARK SMILES IDX 7 1 6 2 5 3 4 4 3 5 2 6 1 7 25 8 26 9 78 10 27 11 77 12
REMARK SMILES IDX 28 13 29 14 30 15 71 16 31 17 76 18 70 19 72 20 32 21 75 22
REMARK SMILES IDX 69 23 68 24 33 26 59 27 42 28 58 29 43 30 46 31 57 32 73 33
REMARK SMILES IDX 44 34 45 35 56 37 74 38 47 39 34 40 35 41 40 42 36 43 37 44
REMARK SMILES IDX 39 45 41 46 38 47 60 48 61 49 66 50 62 51 63 52 65 53 67 54
REMARK SMILES IDX 64 55 48 56 49 57 54 58 50 59 51 60 53 61 55 62 52 63 8 64
REMARK SMILES IDX 9 65 10 66 11 67 12 68 13 69 17 70 14 71 16 72 15 73 18 74
REMARK SMILES IDX 19 75 20 78 21 79 24 80 22 81 23 82
REMARK H PARENT 72 25 46 36 19 76 19 77
REMARK Flexibility Score: inf
ROOT
ATOM      1  C   UNL A   1      32.585  29.929  27.174  1.00  0.00     0.202 C 
ENDROOT
BRANCH   1   2
ATOM      2  O   UNL A   1      31.435  30.437  26.490  1.00  0.00    -0.374 OA
BRANCH   2   3
ATOM      3  C   UNL A   1      31.288  31.858  26.506  1.00  0.00     0.202 C 
BRANCH   3   4
ATOM      4  C   UNL A   1      32.570  32.605  26.889  1.00  0.00     0.261 C 
BRANCH   4   5
ATOM      5  O   UNL A   1      32.259  33.804  27.621  1.00  0.00    -0.460 OA
BRANCH   5   6
ATOM      6  C   UNL A   1      33.019  34.480  28.513  1.00  0.00     0.338 C 
ATOM      7  O   UNL A   1      32.671  35.618  28.828  1.00  0.00    -0.246 OA
BRANCH   6   8
ATOM      8  C   UNL A   1      34.252  33.931  29.161  1.00  0.00     0.060 A 
ATOM      9  C   UNL A   1      35.557  34.334  28.882  1.00  0.00     0.016 A 
ATOM     10  C   UNL A   1      34.068  32.982  30.184  1.00  0.00     0.016 A 
ATOM     11  C   UNL A   1      36.645  33.793  29.543  1.00  0.00     0.010 A 
ATOM     12  C   UNL A   1      35.158  32.438  30.872  1.00  0.00     0.010 A 
ATOM     13  C   UNL A   1      36.453  32.833  30.528  1.00  0.00    -0.014 A 
BRANCH  13  14
ATOM     14  C   UNL A   1      37.662  32.159  31.025  1.00  0.00     0.031 A 
ATOM     15  C   UNL A   1      38.056  32.401  32.448  1.00  0.00     0.074 A 
ATOM     16  C   UNL A   1      38.230  31.196  30.279  1.00  0.00     0.049 A 
ATOM     17  N   UNL A   1      39.024  31.869  33.141  1.00  0.00    -0.248 NA
ATOM     18  C   UNL A   1      37.225  33.355  33.204  1.00  0.00     0.031 C 
ATOM     19  C   UNL A   1      37.790  30.798  28.939  1.00  0.00     0.029 A 
ATOM     20  N   UNL A   1      39.258  30.340  30.562  1.00  0.00    -0.354 N 
ATOM     21  C   UNL A   1      38.933  32.440  34.404  1.00  0.00     0.074 A 
ATOM     22  C   UNL A   1      37.818  33.357  34.385  1.00  0.00     0.031 C 
ATOM     23  C   UNL A   1      38.523  29.751  28.532  1.00  0.00     0.029 A 
ATOM     24  C   UNL A   1      39.518  29.445  29.552  1.00  0.00     0.049 A 
ATOM     25  H   UNL A   1      39.762  30.361  31.407  1.00  0.00     0.167 HD
ATOM     26  C   UNL A   1      39.727  32.218  35.476  1.00  0.00     0.037 A 
ATOM     27  C   UNL A   1      40.474  28.502  29.470  1.00  0.00     0.037 A 
ATOM     28  C   UNL A   1      40.830  31.298  35.456  1.00  0.00     0.049 A 
ATOM     29  C   UNL A   1      41.406  28.347  30.641  1.00  0.00     0.074 A 
ATOM     30  C   UNL A   1      41.766  31.042  36.439  1.00  0.00     0.029 A 
ATOM     31  N   UNL A   1      41.139  30.478  34.378  1.00  0.00    -0.354 N 
ATOM     32  N   UNL A   1      41.376  28.953  31.806  1.00  0.00    -0.248 NA
ATOM     33  C   UNL A   1      42.510  27.395  30.485  1.00  0.00     0.031 C 
ATOM     34  C   UNL A   1      42.667  30.096  35.939  1.00  0.00     0.029 A 
ATOM     35  C   UNL A   1      42.263  29.724  34.665  1.00  0.00     0.049 A 
ATOM     36  H   UNL A   1      40.633  30.439  33.535  1.00  0.00     0.167 HD
ATOM     37  C   UNL A   1      42.442  28.440  32.531  1.00  0.00     0.074 A 
ATOM     38  C   UNL A   1      43.088  27.461  31.676  1.00  0.00     0.031 C 
ATOM     39  C   UNL A   1      42.859  28.750  33.783  1.00  0.00     0.037 A 
BRANCH  26  40
ATOM     40  C   UNL A   1      39.468  33.055  36.692  1.00  0.00     0.057 A 
ATOM     41  C   UNL A   1      38.527  32.696  37.667  1.00  0.00     0.134 A 
ATOM     42  C   UNL A   1      40.130  34.279  36.854  1.00  0.00     0.134 A 
ATOM     43  F   UNL A   1      37.832  31.554  37.553  1.00  0.00    -0.206 F 
ATOM     44  C   UNL A   1      38.232  33.538  38.742  1.00  0.00     0.040 A 
ATOM     45  C   UNL A   1      39.860  35.118  37.936  1.00  0.00     0.040 A 
ATOM     46  F   UNL A   1      41.033  34.688  35.952  1.00  0.00    -0.206 F 
ATOM     47  C   UNL A   1      38.902  34.753  38.879  1.00  0.00     0.006 A 
ENDBRANCH  26  40
BRANCH  27  48
ATOM     48  C   UNL A   1      40.624  27.679  28.242  1.00  0.00     0.057 A 
ATOM     49  C   UNL A   1      40.019  26.423  28.119  1.00  0.00     0.134 A 
ATOM     50  C   UNL A   1      41.397  28.124  27.159  1.00  0.00     0.134 A 
ATOM     51  F   UNL A   1      39.280  25.929  29.124  1.00  0.00    -0.206 F 
ATOM     52  C   UNL A   1      40.190  25.634  26.979  1.00  0.00     0.040 A 
ATOM     53  C   UNL A   1      41.554  27.357  26.003  1.00  0.00     0.040 A 
ATOM     54  F   UNL A   1      42.007  29.318  27.208  1.00  0.00    -0.206 F 
ATOM     55  C   UNL A   1      40.957  26.104  25.914  1.00  0.00     0.006 A 
ENDBRANCH  27  48
BRANCH  39  56
ATOM     56  C   UNL A   1      44.037  27.987  34.307  1.00  0.00     0.057 A 
ATOM     57  C   UNL A   1      43.884  26.815  35.056  1.00  0.00     0.134 A 
ATOM     58  C   UNL A   1      45.339  28.415  34.020  1.00  0.00     0.134 A 
ATOM     59  F   UNL A   1      42.661  26.363  35.372  1.00  0.00    -0.206 F 
ATOM     60  C   UNL A   1      44.990  26.106  35.524  1.00  0.00     0.040 A 
ATOM     61  C   UNL A   1      46.451  27.700  34.459  1.00  0.00     0.040 A 
ATOM     62  F   UNL A   1      45.547  29.527  33.298  1.00  0.00    -0.206 F 
ATOM     63  C   UNL A   1      46.278  26.545  35.219  1.00  0.00     0.006 A 
ENDBRANCH  39  56
ENDBRANCH  13  14
ENDBRANCH   6   8
ENDBRANCH   5   6
ENDBRANCH   4   5
ENDBRANCH   3   4
ENDBRANCH   2   3
ENDBRANCH   1   2
BRANCH   1  64
ATOM     64  C   UNL A   1      33.431  29.106  26.208  1.00  0.00     0.261 C 
BRANCH  64  65
ATOM     65  O   UNL A   1      33.475  27.762  26.705  1.00  0.00    -0.460 OA
BRANCH  65  66
ATOM     66  C   UNL A   1      32.451  26.956  26.338  1.00  0.00     0.338 C 
ATOM     67  O   UNL A   1      31.432  26.724  26.968  1.00  0.00    -0.246 OA
BRANCH  66  68
ATOM     68  C   UNL A   1      32.680  26.521  24.937  1.00  0.00     0.068 A 
ATOM     69  C   UNL A   1      33.800  25.700  24.729  1.00  0.00     0.016 A 
ATOM     70  C   UNL A   1      31.820  26.845  23.866  1.00  0.00     0.021 A 
ATOM     71  C   UNL A   1      34.037  25.136  23.478  1.00  0.00     0.001 A 
ATOM     72  C   UNL A   1      32.079  26.264  22.613  1.00  0.00     0.010 A 
ATOM     73  C   UNL A   1      33.170  25.410  22.425  1.00  0.00     0.001 A 
BRANCH  70  74
ATOM     74  C   UNL A   1      30.644  27.791  24.014  1.00  0.00     0.298 C 
BRANCH  74  75
ATOM     75  N   UNL A   1      29.810  27.795  22.811  1.00  0.00    -0.340 N 
ATOM     76  H   UNL A   1      29.106  27.063  22.897  1.00  0.00     0.346 HD
ATOM     77  H   UNL A   1      30.420  27.635  22.008  1.00  0.00     0.346 HD
BRANCH  75  78
ATOM     78  C   UNL A   1      29.136  29.071  22.608  1.00  0.00     0.182 C 
ATOM     79  C   UNL A   1      27.694  29.005  23.111  1.00  0.00     0.065 C 
ATOM     80  C   UNL A   1      29.725  30.203  23.441  1.00  0.00     0.065 C 
ATOM     81  C   UNL A   1      27.299  30.469  23.223  1.00  0.00     0.006 C 
ATOM     82  C   UNL A   1      28.587  31.214  23.581  1.00  0.00     0.006 C 
ENDBRANCH  75  78
ENDBRANCH  74  75
ENDBRANCH  70  74
ENDBRANCH  66  68
ENDBRANCH  65  66
ENDBRANCH  64  65
ENDBRANCH   1  64
TORSDOF 17
ENDMDL
