MODEL 1
REMARK VINA RESULT:      -9.9      0.000      0.000
REMARK SMILES C#CCN(CC(=O)OCCOCCOC(=O)c1ccc(-c2c3nc(c(-c4c(F)cccc4F)c4ccc([nH]4)c(-c4c(F)cccc4F)c4nc(c(-c5c(F)cccc5F)c5ccc2[nH]5)C=C4)C=C3)cc1)C(=O)NCc1ccnc(C)n1
REMARK SMILES IDX 10 1 9 2 8 3 6 4 7 5 5 6 4 7 3 8 2 9 1 10 71 11 72 12 73 13
REMARK SMILES IDX 74 15 75 16 76 17 81 18 77 19 79 20 78 21 80 22 11 23 12 24
REMARK SMILES IDX 13 25 14 26 15 27 16 28 17 29 18 30 70 31 19 32 69 33 20 34
REMARK SMILES IDX 21 35 22 36 63 37 23 38 68 39 62 40 64 41 24 42 67 43 61 44
REMARK SMILES IDX 60 45 25 47 51 48 34 49 50 50 35 51 38 52 49 53 65 54 36 55
REMARK SMILES IDX 37 56 48 58 66 59 39 60 26 61 27 62 32 63 28 64 29 65 31 66
REMARK SMILES IDX 33 67 30 68 52 69 53 70 58 71 54 72 55 73 57 74 59 75 56 76
REMARK SMILES IDX 40 77 41 78 46 79 42 80 43 81 45 82 47 83 44 84
REMARK H PARENT 73 14 64 46 38 57
REMARK Flexibility Score: inf
ROOT
ATOM      1  C   UNL A   1      32.976  29.040  27.391  1.00  0.00     0.202 C 
ENDROOT
BRANCH   1   2
ATOM      2  C   UNL A   1      34.019  28.389  26.466  1.00  0.00     0.261 C 
BRANCH   2   3
ATOM      3  O   UNL A   1      33.402  27.822  25.291  1.00  0.00    -0.462 OA
BRANCH   3   4
ATOM      4  C   UNL A   1      33.339  26.463  25.265  1.00  0.00     0.325 C 
ATOM      5  O   UNL A   1      32.917  25.775  26.190  1.00  0.00    -0.250 OA
BRANCH   4   6
ATOM      6  C   UNL A   1      33.984  25.849  24.016  1.00  0.00     0.245 C 
BRANCH   6   7
ATOM      7  N   UNL A   1      33.403  26.131  22.698  1.00  0.00    -0.303 N 
BRANCH   7   8
ATOM      8  C   UNL A   1      32.799  24.965  21.956  1.00  0.00     0.211 C 
BRANCH   8   9
ATOM      9  C   UNL A   1      31.663  24.436  22.816  1.00  0.00    -0.085 C 
ATOM     10  C   UNL A   1      30.688  23.983  23.554  1.00  0.00     0.006 C 
ENDBRANCH   8   9
ENDBRANCH   7   8
BRANCH   7  11
ATOM     11  C   UNL A   1      33.229  27.377  22.154  1.00  0.00     0.319 C 
ATOM     12  O   UNL A   1      34.189  28.035  21.735  1.00  0.00    -0.249 OA
ATOM     13  N   UNL A   1      32.062  28.036  22.039  1.00  0.00    -0.332 N 
ATOM     14  H   UNL A   1      32.209  28.862  21.524  1.00  0.00     0.165 HD
BRANCH  13  15
ATOM     15  C   UNL A   1      30.646  27.951  22.417  1.00  0.00     0.174 C 
BRANCH  15  16
ATOM     16  C   UNL A   1      29.947  29.293  22.587  1.00  0.00     0.063 A 
ATOM     17  C   UNL A   1      29.931  29.964  23.798  1.00  0.00     0.046 A 
ATOM     18  N   UNL A   1      29.340  29.804  21.491  1.00  0.00    -0.236 NA
ATOM     19  C   UNL A   1      29.225  31.150  23.837  1.00  0.00     0.115 A 
ATOM     20  C   UNL A   1      28.696  30.985  21.628  1.00  0.00     0.125 A 
ATOM     21  N   UNL A   1      28.621  31.690  22.767  1.00  0.00    -0.242 NA
ATOM     22  C   UNL A   1      28.025  31.557  20.418  1.00  0.00     0.089 C 
ENDBRANCH  15  16
ENDBRANCH  13  15
ENDBRANCH   7  11
ENDBRANCH   6   7
ENDBRANCH   4   6
ENDBRANCH   3   4
ENDBRANCH   2   3
ENDBRANCH   1   2
BRANCH   1  23
ATOM     23  O   UNL A   1      33.025  30.467  27.495  1.00  0.00    -0.374 OA
BRANCH  23  24
ATOM     24  C   UNL A   1      32.007  31.128  26.742  1.00  0.00     0.202 C 
BRANCH  24  25
ATOM     25  C   UNL A   1      31.943  32.635  27.000  1.00  0.00     0.261 C 
BRANCH  25  26
ATOM     26  O   UNL A   1      33.265  33.142  27.128  1.00  0.00    -0.460 OA
BRANCH  26  27
ATOM     27  C   UNL A   1      33.355  34.019  28.149  1.00  0.00     0.338 C 
ATOM     28  O   UNL A   1      32.573  34.916  28.415  1.00  0.00    -0.246 OA
BRANCH  27  29
ATOM     29  C   UNL A   1      34.462  33.564  29.007  1.00  0.00     0.060 A 
ATOM     30  C   UNL A   1      35.723  34.127  28.792  1.00  0.00     0.016 A 
ATOM     31  C   UNL A   1      34.249  32.635  30.037  1.00  0.00     0.016 A 
ATOM     32  C   UNL A   1      36.803  33.672  29.531  1.00  0.00     0.010 A 
ATOM     33  C   UNL A   1      35.324  32.199  30.793  1.00  0.00     0.010 A 
ATOM     34  C   UNL A   1      36.608  32.665  30.484  1.00  0.00    -0.014 A 
BRANCH  34  35
ATOM     35  C   UNL A   1      37.768  31.915  30.988  1.00  0.00     0.031 A 
ATOM     36  C   UNL A   1      38.255  32.236  32.371  1.00  0.00     0.074 A 
ATOM     37  C   UNL A   1      38.343  30.975  30.225  1.00  0.00     0.049 A 
ATOM     38  N   UNL A   1      39.261  31.733  33.032  1.00  0.00    -0.248 NA
ATOM     39  C   UNL A   1      37.512  33.277  33.105  1.00  0.00     0.031 C 
ATOM     40  C   UNL A   1      37.915  30.603  28.877  1.00  0.00     0.029 A 
ATOM     41  N   UNL A   1      39.413  30.166  30.480  1.00  0.00    -0.354 N 
ATOM     42  C   UNL A   1      39.270  32.394  34.254  1.00  0.00     0.074 A 
ATOM     43  C   UNL A   1      38.209  33.372  34.226  1.00  0.00     0.031 C 
ATOM     44  C   UNL A   1      38.720  29.627  28.422  1.00  0.00     0.029 A 
ATOM     45  C   UNL A   1      39.728  29.334  29.437  1.00  0.00     0.049 A 
ATOM     46  H   UNL A   1      39.910  30.179  31.331  1.00  0.00     0.167 HD
ATOM     47  C   UNL A   1      40.085  32.184  35.312  1.00  0.00     0.037 A 
ATOM     48  C   UNL A   1      40.732  28.447  29.328  1.00  0.00     0.037 A 
ATOM     49  C   UNL A   1      41.139  31.207  35.309  1.00  0.00     0.049 A 
ATOM     50  C   UNL A   1      41.660  28.269  30.499  1.00  0.00     0.074 A 
ATOM     51  C   UNL A   1      42.027  30.889  36.318  1.00  0.00     0.029 A 
ATOM     52  N   UNL A   1      41.445  30.391  34.227  1.00  0.00    -0.354 N 
ATOM     53  N   UNL A   1      41.645  28.871  31.666  1.00  0.00    -0.248 NA
ATOM     54  C   UNL A   1      42.736  27.285  30.343  1.00  0.00     0.031 C 
ATOM     55  C   UNL A   1      42.905  29.916  35.828  1.00  0.00     0.029 A 
ATOM     56  C   UNL A   1      42.525  29.584  34.535  1.00  0.00     0.049 A 
ATOM     57  H   UNL A   1      40.963  30.387  33.369  1.00  0.00     0.167 HD
ATOM     58  C   UNL A   1      42.689  28.319  32.395  1.00  0.00     0.074 A 
ATOM     59  C   UNL A   1      43.305  27.322  31.541  1.00  0.00     0.031 C 
ATOM     60  C   UNL A   1      43.106  28.602  33.655  1.00  0.00     0.037 A 
BRANCH  47  61
ATOM     61  C   UNL A   1      39.874  33.037  36.529  1.00  0.00     0.057 A 
ATOM     62  C   UNL A   1      40.600  34.217  36.744  1.00  0.00     0.134 A 
ATOM     63  C   UNL A   1      38.931  32.678  37.499  1.00  0.00     0.134 A 
ATOM     64  F   UNL A   1      41.537  34.610  35.866  1.00  0.00    -0.206 F 
ATOM     65  C   UNL A   1      40.414  34.994  37.890  1.00  0.00     0.040 A 
ATOM     66  C   UNL A   1      38.714  33.461  38.635  1.00  0.00     0.040 A 
ATOM     67  F   UNL A   1      38.203  31.559  37.361  1.00  0.00    -0.206 F 
ATOM     68  C   UNL A   1      39.462  34.620  38.835  1.00  0.00     0.006 A 
ENDBRANCH  47  61
BRANCH  48  69
ATOM     69  C   UNL A   1      40.893  27.658  28.082  1.00  0.00     0.057 A 
ATOM     70  C   UNL A   1      41.657  28.140  27.012  1.00  0.00     0.134 A 
ATOM     71  C   UNL A   1      40.294  26.402  27.929  1.00  0.00     0.134 A 
ATOM     72  F   UNL A   1      42.247  29.342  27.092  1.00  0.00    -0.206 F 
ATOM     73  C   UNL A   1      41.802  27.413  25.831  1.00  0.00     0.040 A 
ATOM     74  C   UNL A   1      40.452  25.652  26.763  1.00  0.00     0.040 A 
ATOM     75  F   UNL A   1      39.559  25.876  28.921  1.00  0.00    -0.206 F 
ATOM     76  C   UNL A   1      41.201  26.162  25.705  1.00  0.00     0.006 A 
ENDBRANCH  48  69
BRANCH  60  77
ATOM     77  C   UNL A   1      44.254  27.796  34.187  1.00  0.00     0.057 A 
ATOM     78  C   UNL A   1      44.063  26.559  34.815  1.00  0.00     0.134 A 
ATOM     79  C   UNL A   1      45.570  28.250  34.032  1.00  0.00     0.134 A 
ATOM     80  F   UNL A   1      42.826  26.075  35.003  1.00  0.00    -0.206 F 
ATOM     81  C   UNL A   1      45.140  25.816  35.299  1.00  0.00     0.040 A 
ATOM     82  C   UNL A   1      46.656  27.500  34.482  1.00  0.00     0.040 A 
ATOM     83  F   UNL A   1      45.822  29.420  33.427  1.00  0.00    -0.206 F 
ATOM     84  C   UNL A   1      46.441  26.283  35.126  1.00  0.00     0.006 A 
ENDBRANCH  60  77
ENDBRANCH  34  35
ENDBRANCH  27  29
ENDBRANCH  26  27
ENDBRANCH  25  26
ENDBRANCH  24  25
ENDBRANCH  23  24
ENDBRANCH   1  23
TORSDOF 20
ENDMDL
MODEL 2
REMARK VINA RESULT:      -9.9      5.503      9.653
REMARK SMILES C#CCN(CC(=O)OCCOCCOC(=O)c1ccc(-c2c3nc(c(-c4c(F)cccc4F)c4ccc([nH]4)c(-c4c(F)cccc4F)c4nc(c(-c5c(F)cccc5F)c5ccc2[nH]5)C=C4)C=C3)cc1)C(=O)NCc1ccnc(C)n1
REMARK SMILES IDX 10 1 9 2 8 3 6 4 7 5 5 6 4 7 3 8 2 9 1 10 71 11 72 12 73 13
REMARK SMILES IDX 74 15 75 16 76 17 81 18 77 19 79 20 78 21 80 22 11 23 12 24
REMARK SMILES IDX 13 25 14 26 15 27 16 28 17 29 18 30 70 31 19 32 69 33 20 34
REMARK SMILES IDX 21 35 22 36 63 37 23 38 68 39 62 40 64 41 24 42 67 43 61 44
REMARK SMILES IDX 60 45 25 47 51 48 34 49 50 50 35 51 38 52 49 53 65 54 36 55
REMARK SMILES IDX 37 56 48 58 66 59 39 60 26 61 27 62 32 63 28 64 29 65 31 66
REMARK SMILES IDX 33 67 30 68 52 69 53 70 58 71 54 72 55 73 57 74 59 75 56 76
REMARK SMILES IDX 40 77 41 78 46 79 42 80 43 81 45 82 47 83 44 84
REMARK H PARENT 73 14 64 46 38 57
REMARK Flexibility Score: inf
ROOT
ATOM      1  C   UNL A   1      37.876  21.840  25.658  1.00  0.00     0.202 C 
ENDROOT
BRANCH   1   2
ATOM      2  C   UNL A   1      36.982  23.092  25.639  1.00  0.00     0.261 C 
BRANCH   2   3
ATOM      3  O   UNL A   1      36.373  23.288  24.346  1.00  0.00    -0.462 OA
BRANCH   3   4
ATOM      4  C   UNL A   1      35.028  23.081  24.299  1.00  0.00     0.325 C 
ATOM      5  O   UNL A   1      34.445  22.557  23.354  1.00  0.00    -0.250 OA
BRANCH   4   6
ATOM      6  C   UNL A   1      34.276  23.700  25.484  1.00  0.00     0.245 C 
BRANCH   6   7
ATOM      7  N   UNL A   1      33.354  22.864  26.262  1.00  0.00    -0.303 N 
BRANCH   7   8
ATOM      8  C   UNL A   1      31.927  23.342  26.370  1.00  0.00     0.211 C 
BRANCH   8   9
ATOM      9  C   UNL A   1      31.391  23.453  24.952  1.00  0.00    -0.085 C 
ATOM     10  C   UNL A   1      30.932  23.549  23.735  1.00  0.00     0.006 C 
ENDBRANCH   8   9
ENDBRANCH   7   8
BRANCH   7  11
ATOM     11  C   UNL A   1      33.637  21.621  26.767  1.00  0.00     0.319 C 
ATOM     12  O   UNL A   1      34.342  21.483  27.775  1.00  0.00    -0.249 OA
ATOM     13  N   UNL A   1      33.243  20.445  26.248  1.00  0.00    -0.332 N 
ATOM     14  H   UNL A   1      33.501  19.720  26.862  1.00  0.00     0.165 HD
BRANCH  13  15
ATOM     15  C   UNL A   1      32.564  19.867  25.082  1.00  0.00     0.174 C 
BRANCH  15  16
ATOM     16  C   UNL A   1      32.946  18.427  24.767  1.00  0.00     0.063 A 
ATOM     17  C   UNL A   1      33.807  18.106  23.731  1.00  0.00     0.046 A 
ATOM     18  N   UNL A   1      32.403  17.469  25.553  1.00  0.00    -0.236 NA
ATOM     19  C   UNL A   1      34.040  16.762  23.516  1.00  0.00     0.115 A 
ATOM     20  C   UNL A   1      32.713  16.183  25.275  1.00  0.00     0.125 A 
ATOM     21  N   UNL A   1      33.526  15.788  24.283  1.00  0.00    -0.242 NA
ATOM     22  C   UNL A   1      32.119  15.119  26.144  1.00  0.00     0.089 C 
ENDBRANCH  15  16
ENDBRANCH  13  15
ENDBRANCH   7  11
ENDBRANCH   6   7
ENDBRANCH   4   6
ENDBRANCH   3   4
ENDBRANCH   2   3
ENDBRANCH   1   2
BRANCH   1  23
ATOM     23  O   UNL A   1      37.316  20.654  25.085  1.00  0.00    -0.374 OA
BRANCH  23  24
ATOM     24  C   UNL A   1      38.272  19.611  24.889  1.00  0.00     0.202 C 
BRANCH  24  25
ATOM     25  C   UNL A   1      39.384  19.600  25.941  1.00  0.00     0.261 C 
BRANCH  25  26
ATOM     26  O   UNL A   1      40.626  19.334  25.304  1.00  0.00    -0.460 OA
BRANCH  26  27
ATOM     27  C   UNL A   1      41.646  19.379  26.184  1.00  0.00     0.338 C 
ATOM     28  O   UNL A   1      42.442  18.489  26.429  1.00  0.00    -0.246 OA
BRANCH  27  29
ATOM     29  C   UNL A   1      41.750  20.774  26.648  1.00  0.00     0.060 A 
ATOM     30  C   UNL A   1      41.725  21.782  25.681  1.00  0.00     0.016 A 
ATOM     31  C   UNL A   1      41.822  21.082  28.014  1.00  0.00     0.016 A 
ATOM     32  C   UNL A   1      41.892  23.101  26.072  1.00  0.00     0.010 A 
ATOM     33  C   UNL A   1      41.963  22.402  28.408  1.00  0.00     0.010 A 
ATOM     34  C   UNL A   1      42.074  23.397  27.429  1.00  0.00    -0.014 A 
BRANCH  34  35
ATOM     35  C   UNL A   1      42.626  24.704  27.813  1.00  0.00     0.031 A 
ATOM     36  C   UNL A   1      41.655  25.786  28.186  1.00  0.00     0.074 A 
ATOM     37  C   UNL A   1      43.953  24.892  27.836  1.00  0.00     0.049 A 
ATOM     38  N   UNL A   1      41.886  27.019  28.541  1.00  0.00    -0.248 NA
ATOM     39  C   UNL A   1      40.224  25.431  28.139  1.00  0.00     0.031 C 
ATOM     40  C   UNL A   1      44.955  23.882  27.498  1.00  0.00     0.029 A 
ATOM     41  N   UNL A   1      44.680  26.003  28.155  1.00  0.00    -0.354 N 
ATOM     42  C   UNL A   1      40.635  27.584  28.759  1.00  0.00     0.074 A 
ATOM     43  C   UNL A   1      39.646  26.582  28.443  1.00  0.00     0.031 C 
ATOM     44  C   UNL A   1      46.177  24.424  27.634  1.00  0.00     0.029 A 
ATOM     45  C   UNL A   1      46.034  25.820  28.039  1.00  0.00     0.049 A 
ATOM     46  H   UNL A   1      44.271  26.852  28.442  1.00  0.00     0.167 HD
ATOM     47  C   UNL A   1      40.345  28.828  29.203  1.00  0.00     0.037 A 
ATOM     48  C   UNL A   1      47.032  26.698  28.232  1.00  0.00     0.037 A 
ATOM     49  C   UNL A   1      41.351  29.809  29.503  1.00  0.00     0.049 A 
ATOM     50  C   UNL A   1      46.681  28.093  28.674  1.00  0.00     0.074 A 
ATOM     51  C   UNL A   1      41.191  31.099  29.969  1.00  0.00     0.029 A 
ATOM     52  N   UNL A   1      42.716  29.597  29.356  1.00  0.00    -0.354 N 
ATOM     53  N   UNL A   1      45.500  28.614  28.913  1.00  0.00    -0.248 NA
ATOM     54  C   UNL A   1      47.800  29.019  28.883  1.00  0.00     0.031 C 
ATOM     55  C   UNL A   1      42.457  31.686  30.054  1.00  0.00     0.029 A 
ATOM     56  C   UNL A   1      43.411  30.742  29.701  1.00  0.00     0.049 A 
ATOM     57  H   UNL A   1      43.129  28.756  29.053  1.00  0.00     0.167 HD
ATOM     58  C   UNL A   1      45.732  29.918  29.328  1.00  0.00     0.074 A 
ATOM     59  C   UNL A   1      47.171  30.101  29.323  1.00  0.00     0.031 C 
ATOM     60  C   UNL A   1      44.846  30.881  29.684  1.00  0.00     0.037 A 
BRANCH  47  61
ATOM     61  C   UNL A   1      38.896  29.186  29.364  1.00  0.00     0.057 A 
ATOM     62  C   UNL A   1      38.122  29.651  28.291  1.00  0.00     0.134 A 
ATOM     63  C   UNL A   1      38.262  29.061  30.606  1.00  0.00     0.134 A 
ATOM     64  F   UNL A   1      38.671  29.815  27.077  1.00  0.00    -0.206 F 
ATOM     65  C   UNL A   1      36.780  30.003  28.454  1.00  0.00     0.040 A 
ATOM     66  C   UNL A   1      36.914  29.382  30.775  1.00  0.00     0.040 A 
ATOM     67  F   UNL A   1      38.942  28.626  31.678  1.00  0.00    -0.206 F 
ATOM     68  C   UNL A   1      36.171  29.860  29.698  1.00  0.00     0.006 A 
ENDBRANCH  47  61
BRANCH  48  69
ATOM     69  C   UNL A   1      48.441  26.279  28.027  1.00  0.00     0.057 A 
ATOM     70  C   UNL A   1      49.072  26.441  26.788  1.00  0.00     0.134 A 
ATOM     71  C   UNL A   1      49.192  25.712  29.063  1.00  0.00     0.134 A 
ATOM     72  F   UNL A   1      48.402  26.967  25.753  1.00  0.00    -0.206 F 
ATOM     73  C   UNL A   1      50.391  26.035  26.582  1.00  0.00     0.040 A 
ATOM     74  C   UNL A   1      50.520  25.326  28.879  1.00  0.00     0.040 A 
ATOM     75  F   UNL A   1      48.651  25.541  30.279  1.00  0.00    -0.206 F 
ATOM     76  C   UNL A   1      51.121  25.479  27.631  1.00  0.00     0.006 A 
ENDBRANCH  48  69
BRANCH  60  77
ATOM     77  C   UNL A   1      45.414  32.196  30.130  1.00  0.00     0.057 A 
ATOM     78  C   UNL A   1      45.608  33.259  29.240  1.00  0.00     0.134 A 
ATOM     79  C   UNL A   1      45.734  32.409  31.477  1.00  0.00     0.134 A 
ATOM     80  F   UNL A   1      45.331  33.114  27.936  1.00  0.00    -0.206 F 
ATOM     81  C   UNL A   1      46.130  34.480  29.669  1.00  0.00     0.040 A 
ATOM     82  C   UNL A   1      46.225  33.635  31.923  1.00  0.00     0.040 A 
ATOM     83  F   UNL A   1      45.559  31.435  32.383  1.00  0.00    -0.206 F 
ATOM     84  C   UNL A   1      46.433  34.672  31.015  1.00  0.00     0.006 A 
ENDBRANCH  60  77
ENDBRANCH  34  35
ENDBRANCH  27  29
ENDBRANCH  26  27
ENDBRANCH  25  26
ENDBRANCH  24  25
ENDBRANCH  23  24
ENDBRANCH   1  23
TORSDOF 20
ENDMDL
MODEL 3
REMARK VINA RESULT:      -9.7      4.860      9.514
REMARK SMILES C#CCN(CC(=O)OCCOCCOC(=O)c1ccc(-c2c3nc(c(-c4c(F)cccc4F)c4ccc([nH]4)c(-c4c(F)cccc4F)c4nc(c(-c5c(F)cccc5F)c5ccc2[nH]5)C=C4)C=C3)cc1)C(=O)NCc1ccnc(C)n1
REMARK SMILES IDX 10 1 9 2 8 3 6 4 7 5 5 6 4 7 3 8 2 9 1 10 71 11 72 12 73 13
REMARK SMILES IDX 74 15 75 16 76 17 81 18 77 19 79 20 78 21 80 22 11 23 12 24
REMARK SMILES IDX 13 25 14 26 15 27 16 28 17 29 18 30 70 31 19 32 69 33 20 34
REMARK SMILES IDX 21 35 22 36 63 37 23 38 68 39 62 40 64 41 24 42 67 43 61 44
REMARK SMILES IDX 60 45 25 47 51 48 34 49 50 50 35 51 38 52 49 53 65 54 36 55
REMARK SMILES IDX 37 56 48 58 66 59 39 60 26 61 27 62 32 63 28 64 29 65 31 66
REMARK SMILES IDX 33 67 30 68 52 69 53 70 58 71 54 72 55 73 57 74 59 75 56 76
REMARK SMILES IDX 40 77 41 78 46 79 42 80 43 81 45 82 47 83 44 84
REMARK H PARENT 73 14 64 46 38 57
REMARK Flexibility Score: inf
ROOT
ATOM      1  C   UNL A   1      36.099  21.363  25.548  1.00  0.00     0.202 C 
ENDROOT
BRANCH   1   2
ATOM      2  C   UNL A   1      34.783  21.741  24.846  1.00  0.00     0.261 C 
BRANCH   2   3
ATOM      3  O   UNL A   1      34.570  23.168  24.855  1.00  0.00    -0.462 OA
BRANCH   3   4
ATOM      4  C   UNL A   1      34.691  23.783  23.647  1.00  0.00     0.325 C 
ATOM      5  O   UNL A   1      35.433  23.396  22.749  1.00  0.00    -0.250 OA
BRANCH   4   6
ATOM      6  C   UNL A   1      33.915  25.104  23.557  1.00  0.00     0.245 C 
BRANCH   6   7
ATOM      7  N   UNL A   1      32.728  25.179  22.698  1.00  0.00    -0.303 N 
BRANCH   7   8
ATOM      8  C   UNL A   1      31.534  24.355  23.111  1.00  0.00     0.211 C 
BRANCH   8   9
ATOM      9  C   UNL A   1      30.972  24.995  24.370  1.00  0.00    -0.085 C 
ATOM     10  C   UNL A   1      30.489  25.544  25.449  1.00  0.00     0.006 C 
ENDBRANCH   8   9
ENDBRANCH   7   8
BRANCH   7  11
ATOM     11  C   UNL A   1      32.559  26.042  21.646  1.00  0.00     0.319 C 
ATOM     12  O   UNL A   1      32.889  25.725  20.496  1.00  0.00    -0.249 OA
ATOM     13  N   UNL A   1      32.073  27.294  21.717  1.00  0.00    -0.332 N 
ATOM     14  H   UNL A   1      31.966  27.650  20.805  1.00  0.00     0.165 HD
BRANCH  13  15
ATOM     15  C   UNL A   1      31.647  28.314  22.683  1.00  0.00     0.174 C 
BRANCH  15  16
ATOM     16  C   UNL A   1      30.191  28.744  22.559  1.00  0.00     0.063 A 
ATOM     17  C   UNL A   1      29.161  28.023  23.141  1.00  0.00     0.046 A 
ATOM     18  N   UNL A   1      29.949  29.871  21.851  1.00  0.00    -0.236 NA
ATOM     19  C   UNL A   1      27.880  28.489  22.918  1.00  0.00     0.115 A 
ATOM     20  C   UNL A   1      28.660  30.257  21.713  1.00  0.00     0.125 A 
ATOM     21  N   UNL A   1      27.606  29.608  22.231  1.00  0.00    -0.242 NA
ATOM     22  C   UNL A   1      28.387  31.505  20.934  1.00  0.00     0.089 C 
ENDBRANCH  15  16
ENDBRANCH  13  15
ENDBRANCH   7  11
ENDBRANCH   6   7
ENDBRANCH   4   6
ENDBRANCH   3   4
ENDBRANCH   2   3
ENDBRANCH   1   2
BRANCH   1  23
ATOM     23  O   UNL A   1      37.257  21.269  24.714  1.00  0.00    -0.374 OA
BRANCH  23  24
ATOM     24  C   UNL A   1      38.486  21.264  25.443  1.00  0.00     0.202 C 
BRANCH  24  25
ATOM     25  C   UNL A   1      39.161  19.890  25.486  1.00  0.00     0.261 C 
BRANCH  25  26
ATOM     26  O   UNL A   1      39.960  19.801  26.658  1.00  0.00    -0.460 OA
BRANCH  26  27
ATOM     27  C   UNL A   1      41.255  19.583  26.350  1.00  0.00     0.338 C 
ATOM     28  O   UNL A   1      41.718  18.613  25.776  1.00  0.00    -0.246 OA
BRANCH  27  29
ATOM     29  C   UNL A   1      41.981  20.829  26.652  1.00  0.00     0.060 A 
ATOM     30  C   UNL A   1      42.214  21.136  27.995  1.00  0.00     0.016 A 
ATOM     31  C   UNL A   1      42.466  21.654  25.626  1.00  0.00     0.016 A 
ATOM     32  C   UNL A   1      42.830  22.333  28.320  1.00  0.00     0.010 A 
ATOM     33  C   UNL A   1      43.105  22.839  25.949  1.00  0.00     0.010 A 
ATOM     34  C   UNL A   1      43.216  23.207  27.296  1.00  0.00    -0.014 A 
BRANCH  34  35
ATOM     35  C   UNL A   1      43.507  24.611  27.619  1.00  0.00     0.031 A 
ATOM     36  C   UNL A   1      44.927  25.076  27.481  1.00  0.00     0.074 A 
ATOM     37  C   UNL A   1      42.519  25.430  28.007  1.00  0.00     0.049 A 
ATOM     38  N   UNL A   1      45.441  26.251  27.720  1.00  0.00    -0.248 NA
ATOM     39  C   UNL A   1      45.906  24.073  27.022  1.00  0.00     0.031 C 
ATOM     40  C   UNL A   1      41.114  25.050  28.152  1.00  0.00     0.029 A 
ATOM     41  N   UNL A   1      42.553  26.751  28.352  1.00  0.00    -0.354 N 
ATOM     42  C   UNL A   1      46.797  26.127  27.441  1.00  0.00     0.074 A 
ATOM     43  C   UNL A   1      47.040  24.754  27.070  1.00  0.00     0.031 C 
ATOM     44  C   UNL A   1      40.415  26.124  28.555  1.00  0.00     0.029 A 
ATOM     45  C   UNL A   1      41.330  27.250  28.721  1.00  0.00     0.049 A 
ATOM     46  H   UNL A   1      43.376  27.292  28.338  1.00  0.00     0.167 HD
ATOM     47  C   UNL A   1      47.748  27.087  27.476  1.00  0.00     0.037 A 
ATOM     48  C   UNL A   1      41.007  28.480  29.153  1.00  0.00     0.037 A 
ATOM     49  C   UNL A   1      47.479  28.446  27.856  1.00  0.00     0.049 A 
ATOM     50  C   UNL A   1      42.094  29.518  29.234  1.00  0.00     0.074 A 
ATOM     51  C   UNL A   1      48.350  29.516  27.923  1.00  0.00     0.029 A 
ATOM     52  N   UNL A   1      46.230  28.916  28.243  1.00  0.00    -0.354 N 
ATOM     53  N   UNL A   1      43.369  29.408  28.937  1.00  0.00    -0.248 NA
ATOM     54  C   UNL A   1      41.699  30.851  29.702  1.00  0.00     0.031 C 
ATOM     55  C   UNL A   1      47.639  30.622  28.400  1.00  0.00     0.029 A 
ATOM     56  C   UNL A   1      46.311  30.257  28.572  1.00  0.00     0.049 A 
ATOM     57  H   UNL A   1      45.408  28.375  28.277  1.00  0.00     0.167 HD
ATOM     58  C   UNL A   1      43.922  30.662  29.151  1.00  0.00     0.074 A 
ATOM     59  C   UNL A   1      42.839  31.520  29.590  1.00  0.00     0.031 C 
ATOM     60  C   UNL A   1      45.205  31.076  29.002  1.00  0.00     0.037 A 
BRANCH  47  61
ATOM     61  C   UNL A   1      49.150  26.687  27.114  1.00  0.00     0.057 A 
ATOM     62  C   UNL A   1      49.613  26.717  25.792  1.00  0.00     0.134 A 
ATOM     63  C   UNL A   1      50.050  26.269  28.102  1.00  0.00     0.134 A 
ATOM     64  F   UNL A   1      48.796  27.086  24.793  1.00  0.00    -0.206 F 
ATOM     65  C   UNL A   1      50.912  26.322  25.461  1.00  0.00     0.040 A 
ATOM     66  C   UNL A   1      51.360  25.900  27.788  1.00  0.00     0.040 A 
ATOM     67  F   UNL A   1      49.674  26.211  29.388  1.00  0.00    -0.206 F 
ATOM     68  C   UNL A   1      51.791  25.920  26.463  1.00  0.00     0.006 A 
ENDBRANCH  47  61
BRANCH  48  69
ATOM     69  C   UNL A   1      39.604  28.795  29.518  1.00  0.00     0.057 A 
ATOM     70  C   UNL A   1      38.687  29.240  28.559  1.00  0.00     0.134 A 
ATOM     71  C   UNL A   1      39.143  28.654  30.832  1.00  0.00     0.134 A 
ATOM     72  F   UNL A   1      39.072  29.408  27.285  1.00  0.00    -0.206 F 
ATOM     73  C   UNL A   1      37.371  29.554  28.896  1.00  0.00     0.040 A 
ATOM     74  C   UNL A   1      37.821  28.939  31.179  1.00  0.00     0.040 A 
ATOM     75  F   UNL A   1      39.966  28.219  31.798  1.00  0.00    -0.206 F 
ATOM     76  C   UNL A   1      36.933  29.399  30.210  1.00  0.00     0.006 A 
ENDBRANCH  48  69
BRANCH  60  77
ATOM     77  C   UNL A   1      45.489  32.523  29.278  1.00  0.00     0.057 A 
ATOM     78  C   UNL A   1      45.361  33.505  28.288  1.00  0.00     0.134 A 
ATOM     79  C   UNL A   1      45.857  32.940  30.563  1.00  0.00     0.134 A 
ATOM     80  F   UNL A   1      45.022  33.168  27.035  1.00  0.00    -0.206 F 
ATOM     81  C   UNL A   1      45.620  34.849  28.560  1.00  0.00     0.040 A 
ATOM     82  C   UNL A   1      46.087  34.284  30.855  1.00  0.00     0.040 A 
ATOM     83  F   UNL A   1      45.984  32.051  31.559  1.00  0.00    -0.206 F 
ATOM     84  C   UNL A   1      45.977  35.242  29.848  1.00  0.00     0.006 A 
ENDBRANCH  60  77
ENDBRANCH  34  35
ENDBRANCH  27  29
ENDBRANCH  26  27
ENDBRANCH  25  26
ENDBRANCH  24  25
ENDBRANCH  23  24
ENDBRANCH   1  23
TORSDOF 20
ENDMDL
