MODEL 1
REMARK VINA RESULT:     -11.2      0.000      0.000
REMARK SMILES Cc1cccc(Nc2ccccc2C(=O)OCCOCCOC(=O)c2ccc(-c3c4nc(c(-c5c(F)cccc5F)c5ccc([nH]5)c(-c5c(F)cccc5F)c5nc(c(-c6c(F)cccc6F)c6ccc3[nH]6)C=C5)C=C4)cc2)c1C
REMARK SMILES IDX 19 1 18 2 17 3 16 4 14 5 15 6 13 7 8 8 9 9 10 10 12 11 11 12
REMARK SMILES IDX 7 13 6 15 1 16 2 17 3 18 79 19 4 20 80 21 5 22 20 23 21 24
REMARK SMILES IDX 22 25 23 26 24 27 25 28 26 29 78 30 27 31 77 32 28 33 29 34
REMARK SMILES IDX 30 35 71 36 31 37 76 38 70 39 72 40 32 41 75 42 69 43 68 44
REMARK SMILES IDX 33 46 59 47 42 48 58 49 43 50 46 51 57 52 73 53 44 54 45 55
REMARK SMILES IDX 56 57 74 58 47 59 34 60 35 61 40 62 36 63 37 64 39 65 41 66
REMARK SMILES IDX 38 67 60 68 61 69 66 70 62 71 63 72 65 73 67 74 64 75 48 76
REMARK SMILES IDX 49 77 54 78 50 79 51 80 53 81 55 82 52 83
REMARK H PARENT 7 14 72 45 46 56
REMARK Flexibility Score: inf
ROOT
ATOM      1  O   UNL A   1      44.233  20.890  25.748  1.00  0.00    -0.374 OA
ENDROOT
BRANCH   1   2
ATOM      2  C   UNL A   1      43.767  19.622  25.297  1.00  0.00     0.202 C 
BRANCH   2   3
ATOM      3  C   UNL A   1      42.460  19.084  25.884  1.00  0.00     0.261 C 
BRANCH   3   4
ATOM      4  O   UNL A   1      41.657  20.101  26.503  1.00  0.00    -0.460 OA
BRANCH   4   5
ATOM      5  C   UNL A   1      40.367  20.133  26.082  1.00  0.00     0.340 C 
ATOM      6  O   UNL A   1      39.721  19.183  25.663  1.00  0.00    -0.246 OA
BRANCH   5   7
ATOM      7  C   UNL A   1      39.723  21.441  26.353  1.00  0.00     0.083 A 
ATOM      8  C   UNL A   1      38.537  21.916  25.763  1.00  0.00     0.053 A 
ATOM      9  C   UNL A   1      38.083  23.195  26.158  1.00  0.00     0.027 A 
ATOM     10  C   UNL A   1      38.762  23.963  27.109  1.00  0.00     0.002 A 
ATOM     11  C   UNL A   1      40.400  22.224  27.314  1.00  0.00     0.018 A 
ATOM     12  C   UNL A   1      39.922  23.474  27.691  1.00  0.00     0.001 A 
BRANCH   8  13
ATOM     13  N   UNL A   1      37.678  21.205  24.899  1.00  0.00    -0.355 N 
ATOM     14  H   UNL A   1      38.121  20.461  24.430  1.00  0.00     0.167 HD
BRANCH  13  15
ATOM     15  C   UNL A   1      36.316  21.343  24.572  1.00  0.00     0.042 A 
ATOM     16  C   UNL A   1      33.808  23.769  23.002  1.00  0.00     0.044 C 
ATOM     17  C   UNL A   1      34.395  22.570  23.696  1.00  0.00    -0.046 A 
ATOM     18  C   UNL A   1      33.534  21.680  24.352  1.00  0.00     0.004 A 
ATOM     19  C   UNL A   1      35.795  22.350  23.730  1.00  0.00    -0.025 A 
ATOM     20  C   UNL A   1      34.046  20.609  25.069  1.00  0.00     0.002 A 
ATOM     21  C   UNL A   1      36.684  23.162  22.820  1.00  0.00     0.047 C 
ATOM     22  C   UNL A   1      35.422  20.463  25.208  1.00  0.00     0.026 A 
ENDBRANCH  13  15
ENDBRANCH   8  13
ENDBRANCH   5   7
ENDBRANCH   4   5
ENDBRANCH   3   4
ENDBRANCH   2   3
ENDBRANCH   1   2
BRANCH   1  23
ATOM     23  C   UNL A   1      45.168  21.593  24.934  1.00  0.00     0.202 C 
BRANCH  23  24
ATOM     24  C   UNL A   1      44.627  22.649  23.960  1.00  0.00     0.261 C 
BRANCH  24  25
ATOM     25  O   UNL A   1      43.835  23.678  24.582  1.00  0.00    -0.460 OA
BRANCH  25  26
ATOM     26  C   UNL A   1      44.541  24.756  25.000  1.00  0.00     0.338 C 
ATOM     27  O   UNL A   1      45.670  25.084  24.661  1.00  0.00    -0.246 OA
BRANCH  26  28
ATOM     28  C   UNL A   1      43.719  25.615  25.869  1.00  0.00     0.060 A 
ATOM     29  C   UNL A   1      44.093  26.957  26.005  1.00  0.00     0.016 A 
ATOM     30  C   UNL A   1      42.698  25.078  26.654  1.00  0.00     0.016 A 
ATOM     31  C   UNL A   1      43.479  27.759  26.965  1.00  0.00     0.010 A 
ATOM     32  C   UNL A   1      42.088  25.881  27.623  1.00  0.00     0.010 A 
ATOM     33  C   UNL A   1      42.502  27.213  27.809  1.00  0.00    -0.014 A 
BRANCH  33  34
ATOM     34  C   UNL A   1      42.008  27.999  28.965  1.00  0.00     0.031 A 
ATOM     35  C   UNL A   1      42.739  27.925  30.275  1.00  0.00     0.074 A 
ATOM     36  C   UNL A   1      40.922  28.781  28.848  1.00  0.00     0.049 A 
ATOM     37  N   UNL A   1      42.459  28.506  31.413  1.00  0.00    -0.248 NA
ATOM     38  C   UNL A   1      43.945  27.084  30.305  1.00  0.00     0.031 C 
ATOM     39  C   UNL A   1      40.153  28.963  27.622  1.00  0.00     0.029 A 
ATOM     40  N   UNL A   1      40.270  29.556  29.773  1.00  0.00    -0.354 N 
ATOM     41  C   UNL A   1      43.451  28.102  32.296  1.00  0.00     0.074 A 
ATOM     42  C   UNL A   1      44.322  27.202  31.570  1.00  0.00     0.031 C 
ATOM     43  C   UNL A   1      39.108  29.768  27.874  1.00  0.00     0.029 A 
ATOM     44  C   UNL A   1      39.133  30.148  29.286  1.00  0.00     0.049 A 
ATOM     45  H   UNL A   1      40.587  29.674  30.698  1.00  0.00     0.167 HD
ATOM     46  C   UNL A   1      43.625  28.458  33.590  1.00  0.00     0.037 A 
ATOM     47  C   UNL A   1      38.207  30.900  29.911  1.00  0.00     0.037 A 
ATOM     48  C   UNL A   1      42.760  29.355  34.310  1.00  0.00     0.049 A 
ATOM     49  C   UNL A   1      38.386  31.235  31.365  1.00  0.00     0.074 A 
ATOM     50  C   UNL A   1      42.880  29.814  35.610  1.00  0.00     0.029 A 
ATOM     51  N   UNL A   1      41.603  29.920  33.792  1.00  0.00    -0.354 N 
ATOM     52  N   UNL A   1      39.354  30.886  32.178  1.00  0.00    -0.248 NA
ATOM     53  C   UNL A   1      37.352  32.075  31.986  1.00  0.00     0.031 C 
ATOM     54  C   UNL A   1      41.770  30.618  35.893  1.00  0.00     0.029 A 
ATOM     55  C   UNL A   1      40.981  30.696  34.756  1.00  0.00     0.049 A 
ATOM     56  H   UNL A   1      41.274  29.789  32.873  1.00  0.00     0.167 HD
ATOM     57  C   UNL A   1      39.059  31.478  33.399  1.00  0.00     0.074 A 
ATOM     58  C   UNL A   1      37.825  32.217  33.216  1.00  0.00     0.031 C 
ATOM     59  C   UNL A   1      39.750  31.418  34.564  1.00  0.00     0.037 A 
BRANCH  46  60
ATOM     60  C   UNL A   1      44.786  27.847  34.317  1.00  0.00     0.057 A 
ATOM     61  C   UNL A   1      46.045  28.462  34.351  1.00  0.00     0.134 A 
ATOM     62  C   UNL A   1      44.641  26.632  34.996  1.00  0.00     0.134 A 
ATOM     63  F   UNL A   1      46.254  29.621  33.708  1.00  0.00    -0.206 F 
ATOM     64  C   UNL A   1      47.124  27.875  35.014  1.00  0.00     0.040 A 
ATOM     65  C   UNL A   1      45.707  26.046  35.681  1.00  0.00     0.040 A 
ATOM     66  F   UNL A   1      43.461  25.993  35.004  1.00  0.00    -0.206 F 
ATOM     67  C   UNL A   1      46.955  26.665  35.684  1.00  0.00     0.006 A 
ENDBRANCH  46  60
BRANCH  47  68
ATOM     68  C   UNL A   1      37.022  31.378  29.157  1.00  0.00     0.057 A 
ATOM     69  C   UNL A   1      35.924  30.544  28.923  1.00  0.00     0.134 A 
ATOM     70  C   UNL A   1      36.959  32.688  28.667  1.00  0.00     0.134 A 
ATOM     71  F   UNL A   1      35.937  29.274  29.352  1.00  0.00    -0.206 F 
ATOM     72  C   UNL A   1      34.803  30.996  28.225  1.00  0.00     0.040 A 
ATOM     73  C   UNL A   1      35.836  33.158  27.984  1.00  0.00     0.040 A 
ATOM     74  F   UNL A   1      37.981  33.534  28.862  1.00  0.00    -0.206 F 
ATOM     75  C   UNL A   1      34.755  32.309  27.759  1.00  0.00     0.006 A 
ENDBRANCH  47  68
BRANCH  59  76
ATOM     76  C   UNL A   1      39.195  32.183  35.730  1.00  0.00     0.057 A 
ATOM     77  C   UNL A   1      39.472  33.542  35.918  1.00  0.00     0.134 A 
ATOM     78  C   UNL A   1      38.342  31.561  36.650  1.00  0.00     0.134 A 
ATOM     79  F   UNL A   1      40.293  34.191  35.078  1.00  0.00    -0.206 F 
ATOM     80  C   UNL A   1      38.934  34.253  36.992  1.00  0.00     0.040 A 
ATOM     81  C   UNL A   1      37.780  32.267  37.715  1.00  0.00     0.040 A 
ATOM     82  F   UNL A   1      38.031  30.263  36.522  1.00  0.00    -0.206 F 
ATOM     83  C   UNL A   1      38.079  33.616  37.891  1.00  0.00     0.006 A 
ENDBRANCH  59  76
ENDBRANCH  33  34
ENDBRANCH  26  28
ENDBRANCH  25  26
ENDBRANCH  24  25
ENDBRANCH  23  24
ENDBRANCH   1  23
TORSDOF 16
ENDMDL
MODEL 2
REMARK VINA RESULT:     -10.9      4.338      8.974
REMARK SMILES Cc1cccc(Nc2ccccc2C(=O)OCCOCCOC(=O)c2ccc(-c3c4nc(c(-c5c(F)cccc5F)c5ccc([nH]5)c(-c5c(F)cccc5F)c5nc(c(-c6c(F)cccc6F)c6ccc3[nH]6)C=C5)C=C4)cc2)c1C
REMARK SMILES IDX 19 1 18 2 17 3 16 4 14 5 15 6 13 7 8 8 9 9 10 10 12 11 11 12
REMARK SMILES IDX 7 13 6 15 1 16 2 17 3 18 79 19 4 20 80 21 5 22 20 23 21 24
REMARK SMILES IDX 22 25 23 26 24 27 25 28 26 29 78 30 27 31 77 32 28 33 29 34
REMARK SMILES IDX 30 35 71 36 31 37 76 38 70 39 72 40 32 41 75 42 69 43 68 44
REMARK SMILES IDX 33 46 59 47 42 48 58 49 43 50 46 51 57 52 73 53 44 54 45 55
REMARK SMILES IDX 56 57 74 58 47 59 34 60 35 61 40 62 36 63 37 64 39 65 41 66
REMARK SMILES IDX 38 67 60 68 61 69 66 70 62 71 63 72 65 73 67 74 64 75 48 76
REMARK SMILES IDX 49 77 54 78 50 79 51 80 53 81 55 82 52 83
REMARK H PARENT 7 14 72 45 46 56
REMARK Flexibility Score: inf
ROOT
ATOM      1  O   UNL A   1      32.659  29.939  26.032  1.00  0.00    -0.374 OA
ENDROOT
BRANCH   1   2
ATOM      2  C   UNL A   1      32.735  28.820  26.910  1.00  0.00     0.202 C 
BRANCH   2   3
ATOM      3  C   UNL A   1      31.531  27.876  26.979  1.00  0.00     0.261 C 
BRANCH   3   4
ATOM      4  O   UNL A   1      31.890  26.527  27.313  1.00  0.00    -0.460 OA
BRANCH   4   5
ATOM      5  C   UNL A   1      31.429  25.591  26.445  1.00  0.00     0.340 C 
ATOM      6  O   UNL A   1      30.279  25.181  26.369  1.00  0.00    -0.246 OA
BRANCH   5   7
ATOM      7  C   UNL A   1      32.445  25.220  25.430  1.00  0.00     0.083 A 
ATOM      8  C   UNL A   1      32.282  25.287  24.034  1.00  0.00     0.053 A 
ATOM      9  C   UNL A   1      33.376  24.889  23.234  1.00  0.00     0.027 A 
ATOM     10  C   UNL A   1      34.585  24.460  23.788  1.00  0.00     0.002 A 
ATOM     11  C   UNL A   1      33.671  24.787  25.981  1.00  0.00     0.018 A 
ATOM     12  C   UNL A   1      34.734  24.411  25.166  1.00  0.00     0.001 A 
BRANCH   8  13
ATOM     13  N   UNL A   1      31.179  25.824  23.336  1.00  0.00    -0.355 N 
ATOM     14  H   UNL A   1      30.661  25.147  22.843  1.00  0.00     0.167 HD
BRANCH  13  15
ATOM     15  C   UNL A   1      30.671  27.130  23.201  1.00  0.00     0.042 A 
ATOM     16  C   UNL A   1      27.405  29.087  22.829  1.00  0.00     0.044 C 
ATOM     17  C   UNL A   1      28.869  28.752  22.913  1.00  0.00    -0.046 A 
ATOM     18  C   UNL A   1      29.807  29.715  22.518  1.00  0.00     0.004 A 
ATOM     19  C   UNL A   1      29.310  27.476  23.345  1.00  0.00    -0.025 A 
ATOM     20  C   UNL A   1      31.161  29.413  22.507  1.00  0.00     0.002 A 
ATOM     21  C   UNL A   1      28.319  26.544  24.001  1.00  0.00     0.047 C 
ATOM     22  C   UNL A   1      31.585  28.124  22.810  1.00  0.00     0.026 A 
ENDBRANCH  13  15
ENDBRANCH   8  13
ENDBRANCH   5   7
ENDBRANCH   4   5
ENDBRANCH   3   4
ENDBRANCH   2   3
ENDBRANCH   1   2
BRANCH   1  23
ATOM     23  C   UNL A   1      31.470  30.724  26.042  1.00  0.00     0.202 C 
BRANCH  23  24
ATOM     24  C   UNL A   1      31.456  32.003  26.892  1.00  0.00     0.261 C 
BRANCH  24  25
ATOM     25  O   UNL A   1      32.540  32.909  26.616  1.00  0.00    -0.460 OA
BRANCH  25  26
ATOM     26  C   UNL A   1      33.069  33.504  27.712  1.00  0.00     0.338 C 
ATOM     27  O   UNL A   1      32.560  34.376  28.404  1.00  0.00    -0.246 OA
BRANCH  26  28
ATOM     28  C   UNL A   1      34.347  32.877  28.084  1.00  0.00     0.060 A 
ATOM     29  C   UNL A   1      34.324  31.543  28.510  1.00  0.00     0.016 A 
ATOM     30  C   UNL A   1      35.521  33.627  28.162  1.00  0.00     0.016 A 
ATOM     31  C   UNL A   1      35.465  30.966  29.064  1.00  0.00     0.010 A 
ATOM     32  C   UNL A   1      36.664  33.050  28.727  1.00  0.00     0.010 A 
ATOM     33  C   UNL A   1      36.630  31.730  29.214  1.00  0.00    -0.014 A 
BRANCH  33  34
ATOM     34  C   UNL A   1      37.767  31.189  29.997  1.00  0.00     0.031 A 
ATOM     35  C   UNL A   1      38.692  30.192  29.361  1.00  0.00     0.074 A 
ATOM     36  C   UNL A   1      37.980  31.589  31.261  1.00  0.00     0.049 A 
ATOM     37  N   UNL A   1      39.725  29.576  29.876  1.00  0.00    -0.248 NA
ATOM     38  C   UNL A   1      38.417  29.844  27.960  1.00  0.00     0.031 C 
ATOM     39  C   UNL A   1      37.175  32.576  31.971  1.00  0.00     0.029 A 
ATOM     40  N   UNL A   1      38.927  31.207  32.176  1.00  0.00    -0.354 N 
ATOM     41  C   UNL A   1      40.223  28.766  28.866  1.00  0.00     0.074 A 
ATOM     42  C   UNL A   1      39.361  28.946  27.716  1.00  0.00     0.031 C 
ATOM     43  C   UNL A   1      37.635  32.699  33.227  1.00  0.00     0.029 A 
ATOM     44  C   UNL A   1      38.764  31.788  33.408  1.00  0.00     0.049 A 
ATOM     45  H   UNL A   1      39.654  30.574  31.969  1.00  0.00     0.167 HD
ATOM     46  C   UNL A   1      41.307  27.955  28.890  1.00  0.00     0.037 A 
ATOM     47  C   UNL A   1      39.439  31.595  34.557  1.00  0.00     0.037 A 
ATOM     48  C   UNL A   1      42.164  27.779  30.032  1.00  0.00     0.049 A 
ATOM     49  C   UNL A   1      40.603  30.645  34.580  1.00  0.00     0.074 A 
ATOM     50  C   UNL A   1      43.314  27.017  30.140  1.00  0.00     0.029 A 
ATOM     51  N   UNL A   1      41.957  28.367  31.272  1.00  0.00    -0.354 N 
ATOM     52  N   UNL A   1      41.095  29.920  33.605  1.00  0.00    -0.248 NA
ATOM     53  C   UNL A   1      41.312  30.492  35.859  1.00  0.00     0.031 C 
ATOM     54  C   UNL A   1      43.774  27.104  31.459  1.00  0.00     0.029 A 
ATOM     55  C   UNL A   1      42.937  27.957  32.161  1.00  0.00     0.049 A 
ATOM     56  H   UNL A   1      41.221  28.985  31.488  1.00  0.00     0.167 HD
ATOM     57  C   UNL A   1      42.180  29.241  34.143  1.00  0.00     0.074 A 
ATOM     58  C   UNL A   1      42.280  29.649  35.530  1.00  0.00     0.031 C 
ATOM     59  C   UNL A   1      43.020  28.364  33.541  1.00  0.00     0.037 A 
BRANCH  46  60
ATOM     60  C   UNL A   1      41.605  27.174  27.645  1.00  0.00     0.057 A 
ATOM     61  C   UNL A   1      41.121  25.873  27.452  1.00  0.00     0.134 A 
ATOM     62  C   UNL A   1      42.380  27.734  26.622  1.00  0.00     0.134 A 
ATOM     63  F   UNL A   1      40.384  25.275  28.401  1.00  0.00    -0.206 F 
ATOM     64  C   UNL A   1      41.421  25.148  26.298  1.00  0.00     0.040 A 
ATOM     65  C   UNL A   1      42.668  27.027  25.454  1.00  0.00     0.040 A 
ATOM     66  F   UNL A   1      42.872  28.977  26.743  1.00  0.00    -0.206 F 
ATOM     67  C   UNL A   1      42.194  25.727  25.293  1.00  0.00     0.006 A 
ENDBRANCH  46  60
BRANCH  47  68
ATOM     68  C   UNL A   1      39.018  32.318  35.782  1.00  0.00     0.057 A 
ATOM     69  C   UNL A   1      39.405  33.641  36.015  1.00  0.00     0.134 A 
ATOM     70  C   UNL A   1      38.203  31.702  36.740  1.00  0.00     0.134 A 
ATOM     71  F   UNL A   1      40.201  34.275  35.142  1.00  0.00    -0.206 F 
ATOM     72  C   UNL A   1      39.000  34.328  37.161  1.00  0.00     0.040 A 
ATOM     73  C   UNL A   1      37.775  32.383  37.880  1.00  0.00     0.040 A 
ATOM     74  F   UNL A   1      37.798  30.435  36.570  1.00  0.00    -0.206 F 
ATOM     75  C   UNL A   1      38.177  33.700  38.094  1.00  0.00     0.006 A 
ENDBRANCH  47  68
BRANCH  59  76
ATOM     76  C   UNL A   1      44.129  27.794  34.375  1.00  0.00     0.057 A 
ATOM     77  C   UNL A   1      43.993  26.574  35.048  1.00  0.00     0.134 A 
ATOM     78  C   UNL A   1      45.360  28.455  34.473  1.00  0.00     0.134 A 
ATOM     79  F   UNL A   1      42.834  25.900  35.005  1.00  0.00    -0.206 F 
ATOM     80  C   UNL A   1      45.037  26.038  35.804  1.00  0.00     0.040 A 
ATOM     81  C   UNL A   1      46.419  27.919  35.208  1.00  0.00     0.040 A 
ATOM     82  F   UNL A   1      45.558  29.624  33.846  1.00  0.00    -0.206 F 
ATOM     83  C   UNL A   1      46.257  26.709  35.879  1.00  0.00     0.006 A 
ENDBRANCH  59  76
ENDBRANCH  33  34
ENDBRANCH  26  28
ENDBRANCH  25  26
ENDBRANCH  24  25
ENDBRANCH  23  24
ENDBRANCH   1  23
TORSDOF 16
ENDMDL
MODEL 3
REMARK VINA RESULT:     -10.9      5.261     10.270
REMARK SMILES Cc1cccc(Nc2ccccc2C(=O)OCCOCCOC(=O)c2ccc(-c3c4nc(c(-c5c(F)cccc5F)c5ccc([nH]5)c(-c5c(F)cccc5F)c5nc(c(-c6c(F)cccc6F)c6ccc3[nH]6)C=C5)C=C4)cc2)c1C
REMARK SMILES IDX 19 1 18 2 17 3 16 4 14 5 15 6 13 7 8 8 9 9 10 10 12 11 11 12
REMARK SMILES IDX 7 13 6 15 1 16 2 17 3 18 79 19 4 20 80 21 5 22 20 23 21 24
REMARK SMILES IDX 22 25 23 26 24 27 25 28 26 29 78 30 27 31 77 32 28 33 29 34
REMARK SMILES IDX 30 35 71 36 31 37 76 38 70 39 72 40 32 41 75 42 69 43 68 44
REMARK SMILES IDX 33 46 59 47 42 48 58 49 43 50 46 51 57 52 73 53 44 54 45 55
REMARK SMILES IDX 56 57 74 58 47 59 34 60 35 61 40 62 36 63 37 64 39 65 41 66
REMARK SMILES IDX 38 67 60 68 61 69 66 70 62 71 63 72 65 73 67 74 64 75 48 76
REMARK SMILES IDX 49 77 54 78 50 79 51 80 53 81 55 82 52 83
REMARK H PARENT 7 14 72 45 46 56
REMARK Flexibility Score: inf
ROOT
ATOM      1  O   UNL A   1      34.636  32.885  28.576  1.00  0.00    -0.374 OA
ENDROOT
BRANCH   1   2
ATOM      2  C   UNL A   1      33.601  32.363  27.749  1.00  0.00     0.202 C 
BRANCH   2   3
ATOM      3  C   UNL A   1      33.551  30.849  27.527  1.00  0.00     0.261 C 
BRANCH   3   4
ATOM      4  O   UNL A   1      32.387  30.422  26.802  1.00  0.00    -0.460 OA
BRANCH   4   5
ATOM      5  C   UNL A   1      32.094  29.103  26.936  1.00  0.00     0.340 C 
ATOM      6  O   UNL A   1      32.182  28.445  27.963  1.00  0.00    -0.246 OA
BRANCH   5   7
ATOM      7  C   UNL A   1      31.460  28.545  25.717  1.00  0.00     0.083 A 
ATOM      8  C   UNL A   1      31.191  27.185  25.474  1.00  0.00     0.053 A 
ATOM      9  C   UNL A   1      30.575  26.856  24.246  1.00  0.00     0.027 A 
ATOM     10  C   UNL A   1      30.223  27.829  23.306  1.00  0.00     0.002 A 
ATOM     11  C   UNL A   1      31.099  29.521  24.763  1.00  0.00     0.018 A 
ATOM     12  C   UNL A   1      30.483  29.166  23.567  1.00  0.00     0.001 A 
BRANCH   8  13
ATOM     13  N   UNL A   1      31.362  26.115  26.376  1.00  0.00    -0.355 N 
ATOM     14  H   UNL A   1      31.313  26.387  27.322  1.00  0.00     0.167 HD
BRANCH  13  15
ATOM     15  C   UNL A   1      31.589  24.737  26.199  1.00  0.00     0.042 A 
ATOM     16  C   UNL A   1      34.001  22.247  24.579  1.00  0.00     0.044 C 
ATOM     17  C   UNL A   1      32.819  22.824  25.310  1.00  0.00    -0.046 A 
ATOM     18  C   UNL A   1      31.709  22.004  25.556  1.00  0.00     0.004 A 
ATOM     19  C   UNL A   1      32.794  24.181  25.716  1.00  0.00    -0.025 A 
ATOM     20  C   UNL A   1      30.572  22.523  26.156  1.00  0.00     0.002 A 
ATOM     21  C   UNL A   1      34.076  24.979  25.676  1.00  0.00     0.047 C 
ATOM     22  C   UNL A   1      30.499  23.882  26.441  1.00  0.00     0.026 A 
ENDBRANCH  13  15
ENDBRANCH   8  13
ENDBRANCH   5   7
ENDBRANCH   4   5
ENDBRANCH   3   4
ENDBRANCH   2   3
ENDBRANCH   1   2
BRANCH   1  23
ATOM     23  C   UNL A   1      34.317  33.961  29.455  1.00  0.00     0.202 C 
BRANCH  23  24
ATOM     24  C   UNL A   1      34.422  33.713  30.967  1.00  0.00     0.261 C 
BRANCH  24  25
ATOM     25  O   UNL A   1      34.580  32.330  31.331  1.00  0.00    -0.460 OA
BRANCH  25  26
ATOM     26  C   UNL A   1      35.560  32.095  32.236  1.00  0.00     0.338 C 
ATOM     27  O   UNL A   1      35.582  32.428  33.414  1.00  0.00    -0.246 OA
BRANCH  26  28
ATOM     28  C   UNL A   1      36.612  31.241  31.660  1.00  0.00     0.060 A 
ATOM     29  C   UNL A   1      37.719  30.934  32.460  1.00  0.00     0.016 A 
ATOM     30  C   UNL A   1      36.587  30.879  30.312  1.00  0.00     0.016 A 
ATOM     31  C   UNL A   1      38.831  30.305  31.904  1.00  0.00     0.010 A 
ATOM     32  C   UNL A   1      37.707  30.256  29.752  1.00  0.00     0.010 A 
ATOM     33  C   UNL A   1      38.848  30.001  30.536  1.00  0.00    -0.014 A 
BRANCH  33  34
ATOM     34  C   UNL A   1      40.105  29.535  29.903  1.00  0.00     0.031 A 
ATOM     35  C   UNL A   1      41.243  30.497  29.724  1.00  0.00     0.074 A 
ATOM     36  C   UNL A   1      40.236  28.260  29.499  1.00  0.00     0.049 A 
ATOM     37  N   UNL A   1      42.412  30.303  29.172  1.00  0.00    -0.248 NA
ATOM     38  C   UNL A   1      41.035  31.859  30.237  1.00  0.00     0.031 C 
ATOM     39  C   UNL A   1      39.218  27.227  29.652  1.00  0.00     0.029 A 
ATOM     40  N   UNL A   1      41.272  27.622  28.866  1.00  0.00    -0.354 N 
ATOM     41  C   UNL A   1      43.080  31.515  29.267  1.00  0.00     0.074 A 
ATOM     42  C   UNL A   1      42.174  32.449  29.903  1.00  0.00     0.031 C 
ATOM     43  C   UNL A   1      39.661  26.088  29.094  1.00  0.00     0.029 A 
ATOM     44  C   UNL A   1      40.992  26.320  28.537  1.00  0.00     0.049 A 
ATOM     45  H   UNL A   1      42.133  28.056  28.666  1.00  0.00     0.167 HD
ATOM     46  C   UNL A   1      44.338  31.821  28.870  1.00  0.00     0.037 A 
ATOM     47  C   UNL A   1      41.720  25.420  27.849  1.00  0.00     0.037 A 
ATOM     48  C   UNL A   1      45.239  30.891  28.239  1.00  0.00     0.049 A 
ATOM     49  C   UNL A   1      43.092  25.797  27.363  1.00  0.00     0.074 A 
ATOM     50  C   UNL A   1      46.550  31.092  27.844  1.00  0.00     0.029 A 
ATOM     51  N   UNL A   1      44.915  29.586  27.900  1.00  0.00    -0.354 N 
ATOM     52  N   UNL A   1      43.733  26.932  27.502  1.00  0.00    -0.248 NA
ATOM     53  C   UNL A   1      43.846  24.766  26.636  1.00  0.00     0.031 C 
ATOM     54  C   UNL A   1      47.002  29.923  27.222  1.00  0.00     0.029 A 
ATOM     55  C   UNL A   1      45.989  28.979  27.270  1.00  0.00     0.049 A 
ATOM     56  H   UNL A   1      44.049  29.154  28.082  1.00  0.00     0.167 HD
ATOM     57  C   UNL A   1      44.970  26.749  26.898  1.00  0.00     0.074 A 
ATOM     58  C   UNL A   1      44.993  25.387  26.401  1.00  0.00     0.031 C 
ATOM     59  C   UNL A   1      45.995  27.627  26.772  1.00  0.00     0.037 A 
BRANCH  46  60
ATOM     60  C   UNL A   1      44.800  33.231  29.084  1.00  0.00     0.057 A 
ATOM     61  C   UNL A   1      45.464  33.625  30.254  1.00  0.00     0.134 A 
ATOM     62  C   UNL A   1      44.583  34.207  28.103  1.00  0.00     0.134 A 
ATOM     63  F   UNL A   1      45.689  32.741  31.237  1.00  0.00    -0.206 F 
ATOM     64  C   UNL A   1      45.871  34.945  30.451  1.00  0.00     0.040 A 
ATOM     65  C   UNL A   1      45.006  35.525  28.280  1.00  0.00     0.040 A 
ATOM     66  F   UNL A   1      43.955  33.895  26.959  1.00  0.00    -0.206 F 
ATOM     67  C   UNL A   1      45.645  35.899  29.460  1.00  0.00     0.006 A 
ENDBRANCH  46  60
BRANCH  47  68
ATOM     68  C   UNL A   1      41.155  24.077  27.575  1.00  0.00     0.057 A 
ATOM     69  C   UNL A   1      40.170  23.886  26.601  1.00  0.00     0.134 A 
ATOM     70  C   UNL A   1      41.603  22.949  28.275  1.00  0.00     0.134 A 
ATOM     71  F   UNL A   1      39.691  24.932  25.913  1.00  0.00    -0.206 F 
ATOM     72  C   UNL A   1      39.646  22.620  26.333  1.00  0.00     0.040 A 
ATOM     73  C   UNL A   1      41.100  21.676  28.004  1.00  0.00     0.040 A 
ATOM     74  F   UNL A   1      42.547  23.069  29.219  1.00  0.00    -0.206 F 
ATOM     75  C   UNL A   1      40.116  21.510  27.031  1.00  0.00     0.006 A 
ENDBRANCH  47  68
BRANCH  59  76
ATOM     76  C   UNL A   1      47.234  27.139  26.080  1.00  0.00     0.057 A 
ATOM     77  C   UNL A   1      47.420  27.302  24.702  1.00  0.00     0.134 A 
ATOM     78  C   UNL A   1      48.268  26.537  26.808  1.00  0.00     0.134 A 
ATOM     79  F   UNL A   1      46.461  27.859  23.947  1.00  0.00    -0.206 F 
ATOM     80  C   UNL A   1      48.585  26.867  24.068  1.00  0.00     0.040 A 
ATOM     81  C   UNL A   1      49.447  26.119  26.189  1.00  0.00     0.040 A 
ATOM     82  F   UNL A   1      48.155  26.359  28.132  1.00  0.00    -0.206 F 
ATOM     83  C   UNL A   1      49.606  26.279  24.814  1.00  0.00     0.006 A 
ENDBRANCH  59  76
ENDBRANCH  33  34
ENDBRANCH  26  28
ENDBRANCH  25  26
ENDBRANCH  24  25
ENDBRANCH  23  24
ENDBRANCH   1  23
TORSDOF 16
ENDMDL
