MODEL 1
REMARK VINA RESULT:     -10.6      0.000      0.000
REMARK SMILES C[C@@H](CC(=O)OCCOCCOC(=O)c1ccc(-c2c3nc(c(-c4c(F)cccc4F)c4ccc([nH]4)c(-c4c(F)cccc4F)c4nc(c(-c5c(F)cccc5F)c5ccc2[nH]5)C=C4)C=C3)cc1)Cc1nnc(C2C(C)(C)C2(C)C)o1
REMARK SMILES IDX 8 1 7 2 6 3 4 4 5 5 3 6 2 7 1 8 69 9 70 10 71 11 81 12 72 13
REMARK SMILES IDX 73 14 74 15 75 16 78 17 76 18 77 19 79 20 80 21 9 22 10 23
REMARK SMILES IDX 11 24 12 25 13 26 14 27 15 28 16 29 68 30 17 31 67 32 18 33
REMARK SMILES IDX 19 34 20 35 61 36 21 37 66 38 60 39 62 40 22 41 65 42 59 43
REMARK SMILES IDX 58 44 23 46 49 47 32 48 48 49 33 50 36 51 47 52 63 53 34 54
REMARK SMILES IDX 35 55 46 57 64 58 37 59 24 60 25 61 30 62 26 63 27 64 29 65
REMARK SMILES IDX 31 66 28 67 50 68 51 69 56 70 52 71 53 72 55 73 57 74 54 75
REMARK SMILES IDX 38 76 39 77 44 78 40 79 41 80 43 81 45 82 42 83
REMARK H PARENT 62 45 36 56
REMARK Flexibility Score: inf
ROOT
ATOM      1  C   UNL A   1      34.860  32.918  28.289  1.00  0.00     0.202 C 
ENDROOT
BRANCH   1   2
ATOM      2  C   UNL A   1      35.083  31.526  27.689  1.00  0.00     0.261 C 
BRANCH   2   3
ATOM      3  O   UNL A   1      33.873  30.762  27.493  1.00  0.00    -0.463 OA
BRANCH   3   4
ATOM      4  C   UNL A   1      34.059  29.433  27.299  1.00  0.00     0.306 C 
ATOM      5  O   UNL A   1      35.160  28.895  27.223  1.00  0.00    -0.252 OA
BRANCH   4   6
ATOM      6  C   UNL A   1      32.788  28.623  27.108  1.00  0.00     0.126 C 
BRANCH   6   7
ATOM      7  C   UNL A   1      32.681  27.406  26.158  1.00  0.00     0.006 C 
ATOM      8  C   UNL A   1      33.021  27.764  24.712  1.00  0.00     0.009 C 
BRANCH   7   9
ATOM      9  C   UNL A   1      31.341  26.663  26.304  1.00  0.00     0.103 C 
BRANCH   9  10
ATOM     10  C   UNL A   1      31.439  25.191  26.518  1.00  0.00     0.216 A 
ATOM     11  N   UNL A   1      30.491  24.285  26.609  1.00  0.00    -0.113 NA
ATOM     12  O   UNL A   1      32.679  24.636  26.412  1.00  0.00    -0.425 OA
ATOM     13  N   UNL A   1      31.123  23.051  26.527  1.00  0.00    -0.113 NA
ATOM     14  C   UNL A   1      32.413  23.289  26.382  1.00  0.00     0.220 A 
BRANCH  14  15
ATOM     15  C   UNL A   1      33.457  22.183  26.149  1.00  0.00     0.090 C 
ATOM     16  C   UNL A   1      33.646  21.545  24.761  1.00  0.00    -0.017 C 
ATOM     17  C   UNL A   1      34.731  22.455  25.334  1.00  0.00    -0.017 C 
ATOM     18  C   UNL A   1      33.920  20.057  24.660  1.00  0.00     0.012 C 
ATOM     19  C   UNL A   1      32.846  21.988  23.569  1.00  0.00     0.012 C 
ATOM     20  C   UNL A   1      34.990  23.832  24.758  1.00  0.00     0.012 C 
ATOM     21  C   UNL A   1      36.024  21.817  25.807  1.00  0.00     0.012 C 
ENDBRANCH  14  15
ENDBRANCH   9  10
ENDBRANCH   7   9
ENDBRANCH   6   7
ENDBRANCH   4   6
ENDBRANCH   3   4
ENDBRANCH   2   3
ENDBRANCH   1   2
BRANCH   1  22
ATOM     22  O   UNL A   1      34.149  33.009  29.518  1.00  0.00    -0.374 OA
BRANCH  22  23
ATOM     23  C   UNL A   1      34.365  34.150  30.345  1.00  0.00     0.202 C 
BRANCH  23  24
ATOM     24  C   UNL A   1      34.635  33.892  31.832  1.00  0.00     0.261 C 
BRANCH  24  25
ATOM     25  O   UNL A   1      34.778  32.486  32.111  1.00  0.00    -0.460 OA
BRANCH  25  26
ATOM     26  C   UNL A   1      35.861  32.171  32.864  1.00  0.00     0.338 C 
ATOM     27  O   UNL A   1      36.066  32.521  34.019  1.00  0.00    -0.246 OA
BRANCH  26  28
ATOM     28  C   UNL A   1      36.776  31.239  32.162  1.00  0.00     0.060 A 
ATOM     29  C   UNL A   1      37.836  30.700  32.899  1.00  0.00     0.016 A 
ATOM     30  C   UNL A   1      36.681  30.969  30.797  1.00  0.00     0.016 A 
ATOM     31  C   UNL A   1      38.885  30.052  32.251  1.00  0.00     0.010 A 
ATOM     32  C   UNL A   1      37.759  30.385  30.133  1.00  0.00     0.010 A 
ATOM     33  C   UNL A   1      38.892  29.983  30.854  1.00  0.00    -0.014 A 
BRANCH  33  34
ATOM     34  C   UNL A   1      40.116  29.577  30.136  1.00  0.00     0.031 A 
ATOM     35  C   UNL A   1      41.198  30.588  29.873  1.00  0.00     0.074 A 
ATOM     36  C   UNL A   1      40.225  28.322  29.676  1.00  0.00     0.049 A 
ATOM     37  N   UNL A   1      42.350  30.428  29.273  1.00  0.00    -0.248 NA
ATOM     38  C   UNL A   1      40.947  31.963  30.336  1.00  0.00     0.031 C 
ATOM     39  C   UNL A   1      39.223  27.273  29.858  1.00  0.00     0.029 A 
ATOM     40  N   UNL A   1      41.216  27.728  28.943  1.00  0.00    -0.354 N 
ATOM     41  C   UNL A   1      42.973  31.669  29.309  1.00  0.00     0.074 A 
ATOM     42  C   UNL A   1      42.055  32.584  29.953  1.00  0.00     0.031 C 
ATOM     43  C   UNL A   1      39.637  26.167  29.219  1.00  0.00     0.029 A 
ATOM     44  C   UNL A   1      40.926  26.436  28.586  1.00  0.00     0.049 A 
ATOM     45  H   UNL A   1      42.053  28.182  28.694  1.00  0.00     0.167 HD
ATOM     46  C   UNL A   1      44.203  32.007  28.850  1.00  0.00     0.037 A 
ATOM     47  C   UNL A   1      41.622  25.573  27.824  1.00  0.00     0.037 A 
ATOM     48  C   UNL A   1      45.086  31.093  28.170  1.00  0.00     0.049 A 
ATOM     49  C   UNL A   1      42.961  25.986  27.279  1.00  0.00     0.074 A 
ATOM     50  C   UNL A   1      46.370  31.320  27.705  1.00  0.00     0.029 A 
ATOM     51  N   UNL A   1      44.765  29.786  27.834  1.00  0.00    -0.354 N 
ATOM     52  N   UNL A   1      43.589  27.129  27.409  1.00  0.00    -0.248 NA
ATOM     53  C   UNL A   1      43.697  24.983  26.497  1.00  0.00     0.031 C 
ATOM     54  C   UNL A   1      46.800  30.174  27.032  1.00  0.00     0.029 A 
ATOM     55  C   UNL A   1      45.813  29.206  27.140  1.00  0.00     0.049 A 
ATOM     56  H   UNL A   1      43.917  29.338  28.057  1.00  0.00     0.167 HD
ATOM     57  C   UNL A   1      44.813  26.967  26.771  1.00  0.00     0.074 A 
ATOM     58  C   UNL A   1      44.834  25.618  26.247  1.00  0.00     0.031 C 
ATOM     59  C   UNL A   1      45.830  27.854  26.642  1.00  0.00     0.037 A 
BRANCH  46  60
ATOM     60  C   UNL A   1      44.670  33.420  29.055  1.00  0.00     0.057 A 
ATOM     61  C   UNL A   1      44.393  34.430  28.124  1.00  0.00     0.134 A 
ATOM     62  C   UNL A   1      45.335  33.795  30.230  1.00  0.00     0.134 A 
ATOM     63  F   UNL A   1      43.760  34.142  26.977  1.00  0.00    -0.206 F 
ATOM     64  C   UNL A   1      44.775  35.755  28.346  1.00  0.00     0.040 A 
ATOM     65  C   UNL A   1      45.699  35.120  30.476  1.00  0.00     0.040 A 
ATOM     66  F   UNL A   1      45.622  32.882  31.171  1.00  0.00    -0.206 F 
ATOM     67  C   UNL A   1      45.422  36.105  29.529  1.00  0.00     0.006 A 
ENDBRANCH  46  60
BRANCH  47  68
ATOM     68  C   UNL A   1      41.072  24.222  27.565  1.00  0.00     0.057 A 
ATOM     69  C   UNL A   1      40.054  24.025  26.626  1.00  0.00     0.134 A 
ATOM     70  C   UNL A   1      41.560  23.094  28.237  1.00  0.00     0.134 A 
ATOM     71  F   UNL A   1      39.543  25.070  25.957  1.00  0.00    -0.206 F 
ATOM     72  C   UNL A   1      39.523  22.760  26.380  1.00  0.00     0.040 A 
ATOM     73  C   UNL A   1      41.056  21.818  27.982  1.00  0.00     0.040 A 
ATOM     74  F   UNL A   1      42.548  23.216  29.135  1.00  0.00    -0.206 F 
ATOM     75  C   UNL A   1      40.028  21.650  27.056  1.00  0.00     0.006 A 
ENDBRANCH  47  68
BRANCH  59  76
ATOM     76  C   UNL A   1      47.084  27.384  25.963  1.00  0.00     0.057 A 
ATOM     77  C   UNL A   1      48.102  26.716  26.653  1.00  0.00     0.134 A 
ATOM     78  C   UNL A   1      47.234  27.537  24.578  1.00  0.00     0.134 A 
ATOM     79  F   UNL A   1      48.026  26.547  27.982  1.00  0.00    -0.206 F 
ATOM     80  C   UNL A   1      49.231  26.228  25.992  1.00  0.00     0.040 A 
ATOM     81  C   UNL A   1      48.344  27.029  23.902  1.00  0.00     0.040 A 
ATOM     82  F   UNL A   1      46.292  28.161  23.855  1.00  0.00    -0.206 F 
ATOM     83  C   UNL A   1      49.348  26.374  24.610  1.00  0.00     0.006 A 
ENDBRANCH  59  76
ENDBRANCH  33  34
ENDBRANCH  26  28
ENDBRANCH  25  26
ENDBRANCH  24  25
ENDBRANCH  23  24
ENDBRANCH  22  23
ENDBRANCH   1  22
TORSDOF 18
ENDMDL
MODEL 2
REMARK VINA RESULT:     -10.6      3.696      6.018
REMARK SMILES C[C@@H](CC(=O)OCCOCCOC(=O)c1ccc(-c2c3nc(c(-c4c(F)cccc4F)c4ccc([nH]4)c(-c4c(F)cccc4F)c4nc(c(-c5c(F)cccc5F)c5ccc2[nH]5)C=C4)C=C3)cc1)Cc1nnc(C2C(C)(C)C2(C)C)o1
REMARK SMILES IDX 8 1 7 2 6 3 4 4 5 5 3 6 2 7 1 8 69 9 70 10 71 11 81 12 72 13
REMARK SMILES IDX 73 14 74 15 75 16 78 17 76 18 77 19 79 20 80 21 9 22 10 23
REMARK SMILES IDX 11 24 12 25 13 26 14 27 15 28 16 29 68 30 17 31 67 32 18 33
REMARK SMILES IDX 19 34 20 35 61 36 21 37 66 38 60 39 62 40 22 41 65 42 59 43
REMARK SMILES IDX 58 44 23 46 49 47 32 48 48 49 33 50 36 51 47 52 63 53 34 54
REMARK SMILES IDX 35 55 46 57 64 58 37 59 24 60 25 61 30 62 26 63 27 64 29 65
REMARK SMILES IDX 31 66 28 67 50 68 51 69 56 70 52 71 53 72 55 73 57 74 54 75
REMARK SMILES IDX 38 76 39 77 44 78 40 79 41 80 43 81 45 82 42 83
REMARK H PARENT 62 45 36 56
REMARK Flexibility Score: inf
ROOT
ATOM      1  C   UNL A   1      32.373  29.741  27.157  1.00  0.00     0.202 C 
ENDROOT
BRANCH   1   2
ATOM      2  C   UNL A   1      32.896  28.471  26.476  1.00  0.00     0.261 C 
BRANCH   2   3
ATOM      3  O   UNL A   1      33.366  28.671  25.126  1.00  0.00    -0.463 OA
BRANCH   3   4
ATOM      4  C   UNL A   1      32.766  27.895  24.189  1.00  0.00     0.306 C 
ATOM      5  O   UNL A   1      33.354  27.378  23.244  1.00  0.00    -0.252 OA
BRANCH   4   6
ATOM      6  C   UNL A   1      31.261  27.748  24.337  1.00  0.00     0.126 C 
BRANCH   6   7
ATOM      7  C   UNL A   1      30.552  26.396  24.584  1.00  0.00     0.006 C 
ATOM      8  C   UNL A   1      29.167  26.338  23.939  1.00  0.00     0.009 C 
BRANCH   7   9
ATOM      9  C   UNL A   1      30.550  25.996  26.069  1.00  0.00     0.103 C 
BRANCH   9  10
ATOM     10  C   UNL A   1      31.453  24.867  26.435  1.00  0.00     0.216 A 
ATOM     11  N   UNL A   1      31.217  23.796  27.161  1.00  0.00    -0.113 NA
ATOM     12  O   UNL A   1      32.645  24.797  25.779  1.00  0.00    -0.425 OA
ATOM     13  N   UNL A   1      32.295  22.944  26.957  1.00  0.00    -0.113 NA
ATOM     14  C   UNL A   1      33.110  23.549  26.114  1.00  0.00     0.220 A 
BRANCH  14  15
ATOM     15  C   UNL A   1      34.380  22.892  25.546  1.00  0.00     0.090 C 
ATOM     16  C   UNL A   1      34.308  21.582  24.739  1.00  0.00    -0.017 C 
ATOM     17  C   UNL A   1      34.664  22.891  24.036  1.00  0.00    -0.017 C 
ATOM     18  C   UNL A   1      35.390  20.537  24.926  1.00  0.00     0.012 C 
ATOM     19  C   UNL A   1      33.001  20.904  24.445  1.00  0.00     0.012 C 
ATOM     20  C   UNL A   1      33.700  23.558  23.077  1.00  0.00     0.012 C 
ATOM     21  C   UNL A   1      36.099  23.094  23.585  1.00  0.00     0.012 C 
ENDBRANCH  14  15
ENDBRANCH   9  10
ENDBRANCH   7   9
ENDBRANCH   6   7
ENDBRANCH   4   6
ENDBRANCH   3   4
ENDBRANCH   2   3
ENDBRANCH   1   2
BRANCH   1  22
ATOM     22  O   UNL A   1      32.341  30.942  26.395  1.00  0.00    -0.374 OA
BRANCH  22  23
ATOM     23  C   UNL A   1      31.433  31.969  26.784  1.00  0.00     0.202 C 
BRANCH  23  24
ATOM     24  C   UNL A   1      31.985  33.398  26.859  1.00  0.00     0.261 C 
BRANCH  24  25
ATOM     25  O   UNL A   1      32.306  33.774  28.212  1.00  0.00    -0.460 OA
BRANCH  25  26
ATOM     26  C   UNL A   1      33.482  34.436  28.347  1.00  0.00     0.338 C 
ATOM     27  O   UNL A   1      33.623  35.649  28.432  1.00  0.00    -0.246 OA
BRANCH  26  28
ATOM     28  C   UNL A   1      34.632  33.510  28.483  1.00  0.00     0.060 A 
ATOM     29  C   UNL A   1      34.375  32.236  29.002  1.00  0.00     0.016 A 
ATOM     30  C   UNL A   1      35.946  33.890  28.214  1.00  0.00     0.016 A 
ATOM     31  C   UNL A   1      35.426  31.422  29.418  1.00  0.00     0.010 A 
ATOM     32  C   UNL A   1      37.001  33.112  28.693  1.00  0.00     0.010 A 
ATOM     33  C   UNL A   1      36.736  31.905  29.353  1.00  0.00    -0.014 A 
BRANCH  33  34
ATOM     34  C   UNL A   1      37.825  31.196  30.055  1.00  0.00     0.031 A 
ATOM     35  C   UNL A   1      38.133  31.532  31.488  1.00  0.00     0.074 A 
ATOM     36  C   UNL A   1      38.565  30.298  29.387  1.00  0.00     0.049 A 
ATOM     37  N   UNL A   1      39.036  31.015  32.282  1.00  0.00    -0.248 NA
ATOM     38  C   UNL A   1      37.325  32.596  32.109  1.00  0.00     0.031 C 
ATOM     39  C   UNL A   1      38.363  29.919  27.990  1.00  0.00     0.029 A 
ATOM     40  N   UNL A   1      39.648  29.565  29.790  1.00  0.00    -0.354 N 
ATOM     41  C   UNL A   1      38.891  31.668  33.500  1.00  0.00     0.074 A 
ATOM     42  C   UNL A   1      37.839  32.649  33.330  1.00  0.00     0.031 C 
ATOM     43  C   UNL A   1      39.319  29.044  27.640  1.00  0.00     0.029 A 
ATOM     44  C   UNL A   1      40.194  28.808  28.786  1.00  0.00     0.049 A 
ATOM     45  H   UNL A   1      40.001  29.580  30.709  1.00  0.00     0.167 HD
ATOM     46  C   UNL A   1      39.572  31.460  34.653  1.00  0.00     0.037 A 
ATOM     47  C   UNL A   1      41.286  28.022  28.792  1.00  0.00     0.037 A 
ATOM     48  C   UNL A   1      40.647  30.511  34.791  1.00  0.00     0.049 A 
ATOM     49  C   UNL A   1      42.059  27.846  30.069  1.00  0.00     0.074 A 
ATOM     50  C   UNL A   1      41.373  30.190  35.925  1.00  0.00     0.029 A 
ATOM     51  N   UNL A   1      41.170  29.751  33.754  1.00  0.00    -0.354 N 
ATOM     52  N   UNL A   1      41.849  28.388  31.244  1.00  0.00    -0.248 NA
ATOM     53  C   UNL A   1      43.212  26.935  30.026  1.00  0.00     0.031 C 
ATOM     54  C   UNL A   1      42.374  29.284  35.562  1.00  0.00     0.029 A 
ATOM     55  C   UNL A   1      42.228  28.986  34.216  1.00  0.00     0.049 A 
ATOM     56  H   UNL A   1      40.836  29.755  32.828  1.00  0.00     0.167 HD
ATOM     57  C   UNL A   1      42.808  27.846  32.092  1.00  0.00     0.074 A 
ATOM     58  C   UNL A   1      43.606  26.940  31.292  1.00  0.00     0.031 C 
ATOM     59  C   UNL A   1      43.000  28.072  33.414  1.00  0.00     0.037 A 
BRANCH  46  60
ATOM     60  C   UNL A   1      39.188  32.273  35.856  1.00  0.00     0.057 A 
ATOM     61  C   UNL A   1      38.317  31.774  36.835  1.00  0.00     0.134 A 
ATOM     62  C   UNL A   1      39.752  33.536  36.083  1.00  0.00     0.134 A 
ATOM     63  F   UNL A   1      37.740  30.573  36.682  1.00  0.00    -0.206 F 
ATOM     64  C   UNL A   1      38.009  32.507  37.984  1.00  0.00     0.040 A 
ATOM     65  C   UNL A   1      39.473  34.267  37.239  1.00  0.00     0.040 A 
ATOM     66  F   UNL A   1      40.603  34.071  35.194  1.00  0.00    -0.206 F 
ATOM     67  C   UNL A   1      38.595  33.754  38.192  1.00  0.00     0.006 A 
ENDBRANCH  46  60
BRANCH  47  68
ATOM     68  C   UNL A   1      41.685  27.319  27.551  1.00  0.00     0.057 A 
ATOM     69  C   UNL A   1      41.278  26.003  27.303  1.00  0.00     0.134 A 
ATOM     70  C   UNL A   1      42.469  27.948  26.576  1.00  0.00     0.134 A 
ATOM     71  F   UNL A   1      40.533  25.347  28.206  1.00  0.00    -0.206 F 
ATOM     72  C   UNL A   1      41.655  25.329  26.143  1.00  0.00     0.040 A 
ATOM     73  C   UNL A   1      42.832  27.295  25.398  1.00  0.00     0.040 A 
ATOM     74  F   UNL A   1      42.875  29.214  26.747  1.00  0.00    -0.206 F 
ATOM     75  C   UNL A   1      42.431  25.977  25.183  1.00  0.00     0.006 A 
ENDBRANCH  47  68
BRANCH  59  76
ATOM     76  C   UNL A   1      44.074  27.284  34.107  1.00  0.00     0.057 A 
ATOM     77  C   UNL A   1      43.838  26.017  34.652  1.00  0.00     0.134 A 
ATOM     78  C   UNL A   1      45.386  27.777  34.160  1.00  0.00     0.134 A 
ATOM     79  F   UNL A   1      42.603  25.493  34.646  1.00  0.00    -0.206 F 
ATOM     80  C   UNL A   1      44.865  25.271  35.234  1.00  0.00     0.040 A 
ATOM     81  C   UNL A   1      46.426  27.030  34.714  1.00  0.00     0.040 A 
ATOM     82  F   UNL A   1      45.682  28.981  33.650  1.00  0.00    -0.206 F 
ATOM     83  C   UNL A   1      46.166  25.773  35.255  1.00  0.00     0.006 A 
ENDBRANCH  59  76
ENDBRANCH  33  34
ENDBRANCH  26  28
ENDBRANCH  25  26
ENDBRANCH  24  25
ENDBRANCH  23  24
ENDBRANCH  22  23
ENDBRANCH   1  22
TORSDOF 18
ENDMDL
MODEL 3
REMARK VINA RESULT:     -10.4      4.400      9.557
REMARK SMILES C[C@@H](CC(=O)OCCOCCOC(=O)c1ccc(-c2c3nc(c(-c4c(F)cccc4F)c4ccc([nH]4)c(-c4c(F)cccc4F)c4nc(c(-c5c(F)cccc5F)c5ccc2[nH]5)C=C4)C=C3)cc1)Cc1nnc(C2C(C)(C)C2(C)C)o1
REMARK SMILES IDX 8 1 7 2 6 3 4 4 5 5 3 6 2 7 1 8 69 9 70 10 71 11 81 12 72 13
REMARK SMILES IDX 73 14 74 15 75 16 78 17 76 18 77 19 79 20 80 21 9 22 10 23
REMARK SMILES IDX 11 24 12 25 13 26 14 27 15 28 16 29 68 30 17 31 67 32 18 33
REMARK SMILES IDX 19 34 20 35 61 36 21 37 66 38 60 39 62 40 22 41 65 42 59 43
REMARK SMILES IDX 58 44 23 46 49 47 32 48 48 49 33 50 36 51 47 52 63 53 34 54
REMARK SMILES IDX 35 55 46 57 64 58 37 59 24 60 25 61 30 62 26 63 27 64 29 65
REMARK SMILES IDX 31 66 28 67 50 68 51 69 56 70 52 71 53 72 55 73 57 74 54 75
REMARK SMILES IDX 38 76 39 77 44 78 40 79 41 80 43 81 45 82 42 83
REMARK H PARENT 62 45 36 56
REMARK Flexibility Score: inf
ROOT
ATOM      1  C   UNL A   1      39.869  22.003  26.663  1.00  0.00     0.202 C 
ENDROOT
BRANCH   1   2
ATOM      2  C   UNL A   1      38.506  22.231  26.001  1.00  0.00     0.261 C 
BRANCH   2   3
ATOM      3  O   UNL A   1      38.191  21.293  24.950  1.00  0.00    -0.463 OA
BRANCH   3   4
ATOM      4  C   UNL A   1      37.015  20.634  25.102  1.00  0.00     0.306 C 
ATOM      5  O   UNL A   1      36.861  19.438  24.870  1.00  0.00    -0.252 OA
BRANCH   4   6
ATOM      6  C   UNL A   1      35.839  21.497  25.527  1.00  0.00     0.126 C 
BRANCH   6   7
ATOM      7  C   UNL A   1      34.420  20.942  25.792  1.00  0.00     0.006 C 
ATOM      8  C   UNL A   1      33.509  21.060  24.570  1.00  0.00     0.009 C 
BRANCH   7   9
ATOM      9  C   UNL A   1      33.795  21.516  27.076  1.00  0.00     0.103 C 
BRANCH   9  10
ATOM     10  C   UNL A   1      32.740  22.550  26.875  1.00  0.00     0.216 A 
ATOM     11  N   UNL A   1      31.855  23.031  27.720  1.00  0.00    -0.113 NA
ATOM     12  O   UNL A   1      32.797  23.269  25.719  1.00  0.00    -0.425 OA
ATOM     13  N   UNL A   1      31.308  24.154  27.112  1.00  0.00    -0.113 NA
ATOM     14  C   UNL A   1      31.904  24.288  25.943  1.00  0.00     0.220 A 
BRANCH  14  15
ATOM     15  C   UNL A   1      31.657  25.476  24.998  1.00  0.00     0.090 C 
ATOM     16  C   UNL A   1      32.290  26.854  25.266  1.00  0.00    -0.017 C 
ATOM     17  C   UNL A   1      32.775  26.010  24.088  1.00  0.00    -0.017 C 
ATOM     18  C   UNL A   1      31.485  28.107  24.984  1.00  0.00     0.012 C 
ATOM     19  C   UNL A   1      33.197  27.094  26.439  1.00  0.00     0.012 C 
ATOM     20  C   UNL A   1      34.142  25.359  24.094  1.00  0.00     0.012 C 
ATOM     21  C   UNL A   1      32.395  26.454  22.687  1.00  0.00     0.012 C 
ENDBRANCH  14  15
ENDBRANCH   9  10
ENDBRANCH   7   9
ENDBRANCH   6   7
ENDBRANCH   4   6
ENDBRANCH   3   4
ENDBRANCH   2   3
ENDBRANCH   1   2
BRANCH   1  22
ATOM     22  O   UNL A   1      40.909  21.438  25.874  1.00  0.00    -0.374 OA
BRANCH  22  23
ATOM     23  C   UNL A   1      42.237  21.446  26.392  1.00  0.00     0.202 C 
BRANCH  23  24
ATOM     24  C   UNL A   1      43.362  21.819  25.420  1.00  0.00     0.261 C 
BRANCH  24  25
ATOM     25  O   UNL A   1      43.018  22.969  24.624  1.00  0.00    -0.460 OA
BRANCH  25  26
ATOM     26  C   UNL A   1      43.793  24.060  24.849  1.00  0.00     0.338 C 
ATOM     27  O   UNL A   1      44.931  24.237  24.435  1.00  0.00    -0.246 OA
BRANCH  26  28
ATOM     28  C   UNL A   1      43.068  25.113  25.601  1.00  0.00     0.060 A 
ATOM     29  C   UNL A   1      43.767  26.288  25.898  1.00  0.00     0.016 A 
ATOM     30  C   UNL A   1      41.778  24.935  26.100  1.00  0.00     0.016 A 
ATOM     31  C   UNL A   1      43.258  27.191  26.829  1.00  0.00     0.010 A 
ATOM     32  C   UNL A   1      41.295  25.797  27.084  1.00  0.00     0.010 A 
ATOM     33  C   UNL A   1      42.066  26.893  27.495  1.00  0.00    -0.014 A 
BRANCH  33  34
ATOM     34  C   UNL A   1      41.664  27.670  28.684  1.00  0.00     0.031 A 
ATOM     35  C   UNL A   1      42.387  27.468  29.988  1.00  0.00     0.074 A 
ATOM     36  C   UNL A   1      40.620  28.508  28.603  1.00  0.00     0.049 A 
ATOM     37  N   UNL A   1      42.196  28.062  31.138  1.00  0.00    -0.248 NA
ATOM     38  C   UNL A   1      43.460  26.460  30.002  1.00  0.00     0.031 C 
ATOM     39  C   UNL A   1      39.839  28.757  27.393  1.00  0.00     0.029 A 
ATOM     40  N   UNL A   1      40.026  29.283  29.562  1.00  0.00    -0.354 N 
ATOM     41  C   UNL A   1      43.137  27.521  32.006  1.00  0.00     0.074 A 
ATOM     42  C   UNL A   1      43.873  26.522  31.261  1.00  0.00     0.031 C 
ATOM     43  C   UNL A   1      38.840  29.604  27.692  1.00  0.00     0.029 A 
ATOM     44  C   UNL A   1      38.916  29.949  29.110  1.00  0.00     0.049 A 
ATOM     45  H   UNL A   1      40.361  29.354  30.485  1.00  0.00     0.167 HD
ATOM     46  C   UNL A   1      43.365  27.838  33.304  1.00  0.00     0.037 A 
ATOM     47  C   UNL A   1      38.054  30.740  29.773  1.00  0.00     0.037 A 
ATOM     48  C   UNL A   1      42.593  28.804  34.043  1.00  0.00     0.049 A 
ATOM     49  C   UNL A   1      38.295  31.037  31.227  1.00  0.00     0.074 A 
ATOM     50  C   UNL A   1      42.769  29.232  35.348  1.00  0.00     0.029 A 
ATOM     51  N   UNL A   1      41.480  29.469  33.551  1.00  0.00    -0.354 N 
ATOM     52  N   UNL A   1      39.252  30.603  32.011  1.00  0.00    -0.248 NA
ATOM     53  C   UNL A   1      37.348  31.948  31.884  1.00  0.00     0.031 C 
ATOM     54  C   UNL A   1      41.727  30.107  35.665  1.00  0.00     0.029 A 
ATOM     55  C   UNL A   1      40.941  30.280  34.536  1.00  0.00     0.049 A 
ATOM     56  H   UNL A   1      41.126  29.379  32.637  1.00  0.00     0.167 HD
ATOM     57  C   UNL A   1      39.052  31.226  33.237  1.00  0.00     0.074 A 
ATOM     58  C   UNL A   1      37.878  32.061  33.094  1.00  0.00     0.031 C 
ATOM     59  C   UNL A   1      39.784  31.123  34.373  1.00  0.00     0.037 A 
BRANCH  46  60
ATOM     60  C   UNL A   1      44.487  27.135  34.016  1.00  0.00     0.057 A 
ATOM     61  C   UNL A   1      44.296  25.903  34.655  1.00  0.00     0.134 A 
ATOM     62  C   UNL A   1      45.788  27.655  33.998  1.00  0.00     0.134 A 
ATOM     63  F   UNL A   1      43.076  25.348  34.711  1.00  0.00    -0.206 F 
ATOM     64  C   UNL A   1      45.353  25.222  35.263  1.00  0.00     0.040 A 
ATOM     65  C   UNL A   1      46.858  26.971  34.579  1.00  0.00     0.040 A 
ATOM     66  F   UNL A   1      46.047  28.825  33.393  1.00  0.00    -0.206 F 
ATOM     67  C   UNL A   1      46.641  25.752  35.219  1.00  0.00     0.006 A 
ENDBRANCH  46  60
BRANCH  47  68
ATOM     68  C   UNL A   1      36.902  31.330  29.051  1.00  0.00     0.057 A 
ATOM     69  C   UNL A   1      36.930  32.657  28.610  1.00  0.00     0.134 A 
ATOM     70  C   UNL A   1      35.755  30.579  28.771  1.00  0.00     0.134 A 
ATOM     71  F   UNL A   1      38.001  33.428  28.857  1.00  0.00    -0.206 F 
ATOM     72  C   UNL A   1      35.849  33.225  27.937  1.00  0.00     0.040 A 
ATOM     73  C   UNL A   1      34.676  31.126  28.075  1.00  0.00     0.040 A 
ATOM     74  F   UNL A   1      35.675  29.296  29.151  1.00  0.00    -0.206 F 
ATOM     75  C   UNL A   1      34.719  32.457  27.664  1.00  0.00     0.006 A 
ENDBRANCH  47  68
BRANCH  59  76
ATOM     76  C   UNL A   1      39.384  31.979  35.540  1.00  0.00     0.057 A 
ATOM     77  C   UNL A   1      38.536  31.514  36.552  1.00  0.00     0.134 A 
ATOM     78  C   UNL A   1      39.921  33.265  35.687  1.00  0.00     0.134 A 
ATOM     79  F   UNL A   1      37.978  30.297  36.466  1.00  0.00    -0.206 F 
ATOM     80  C   UNL A   1      38.229  32.301  37.664  1.00  0.00     0.040 A 
ATOM     81  C   UNL A   1      39.644  34.051  36.807  1.00  0.00     0.040 A 
ATOM     82  F   UNL A   1      40.746  33.769  34.758  1.00  0.00    -0.206 F 
ATOM     83  C   UNL A   1      38.793  33.569  37.799  1.00  0.00     0.006 A 
ENDBRANCH  59  76
ENDBRANCH  33  34
ENDBRANCH  26  28
ENDBRANCH  25  26
ENDBRANCH  24  25
ENDBRANCH  23  24
ENDBRANCH  22  23
ENDBRANCH   1  22
TORSDOF 18
ENDMDL
