MODEL 1
REMARK VINA RESULT:      -9.9      0.000      0.000
REMARK SMILES O=C(C[NH+]1CC2(CCCC2)C1)OCCOCCOC(=O)c1ccc(-c2c3nc(c(-c4c(F)cccc4F)c4ccc([nH]4)c(-c4c(F)cccc4F)c4nc(c(-c5c(F)cccc5F)c5ccc2[nH]5)C=C4)C=C3)cc1
REMARK SMILES IDX 16 1 15 2 14 3 13 4 12 5 2 6 1 7 3 8 4 9 5 10 11 11 6 13
REMARK SMILES IDX 7 14 10 15 8 16 9 17 17 18 18 19 19 20 20 21 21 22 22 23
REMARK SMILES IDX 74 24 23 25 73 26 24 27 25 28 26 29 67 30 27 31 72 32 66 33
REMARK SMILES IDX 68 34 28 35 71 36 65 37 64 38 29 40 55 41 38 42 54 43 39 44
REMARK SMILES IDX 42 45 53 46 69 47 40 48 41 49 52 51 70 52 43 53 30 54 31 55
REMARK SMILES IDX 36 56 32 57 33 58 35 59 37 60 34 61 56 62 57 63 62 64 58 65
REMARK SMILES IDX 59 66 61 67 63 68 60 69 44 70 45 71 50 72 46 73 47 74 49 75
REMARK SMILES IDX 51 76 48 77
REMARK H PARENT 4 12 68 39 42 50
REMARK Flexibility Score: inf
ROOT
ATOM      1  C   UNL A   1      33.017  33.686  28.036  1.00  0.00     0.202 C 
ENDROOT
BRANCH   1   2
ATOM      2  O   UNL A   1      32.618  34.850  28.771  1.00  0.00    -0.374 OA
BRANCH   2   3
ATOM      3  C   UNL A   1      33.612  35.851  28.990  1.00  0.00     0.202 C 
BRANCH   3   4
ATOM      4  C   UNL A   1      33.304  36.964  29.988  1.00  0.00     0.261 C 
BRANCH   4   5
ATOM      5  O   UNL A   1      32.333  36.553  30.965  1.00  0.00    -0.459 OA
BRANCH   5   6
ATOM      6  C   UNL A   1      32.624  36.512  32.288  1.00  0.00     0.361 C 
ATOM      7  O   UNL A   1      31.809  36.918  33.115  1.00  0.00    -0.245 OA
BRANCH   6   8
ATOM      8  C   UNL A   1      33.995  36.010  32.702  1.00  0.00     0.386 C 
BRANCH   8   9
ATOM      9  N   UNL A   1      33.862  34.784  33.504  1.00  0.00    -0.324 N 
ATOM     10  C   UNL A   1      35.174  34.473  34.096  1.00  0.00     0.275 C 
ATOM     11  C   UNL A   1      33.969  33.554  32.675  1.00  0.00     0.275 C 
ATOM     12  H   UNL A   1      33.024  34.945  34.062  1.00  0.00     0.348 HD
ATOM     13  C   UNL A   1      35.515  33.599  32.845  1.00  0.00     0.068 C 
ATOM     14  C   UNL A   1      36.326  32.367  33.255  1.00  0.00     0.019 C 
ATOM     15  C   UNL A   1      36.193  34.169  31.580  1.00  0.00     0.019 C 
ATOM     16  C   UNL A   1      37.594  32.470  32.408  1.00  0.00     0.001 C 
ATOM     17  C   UNL A   1      37.077  33.030  31.098  1.00  0.00     0.001 C 
ENDBRANCH   8   9
ENDBRANCH   6   8
ENDBRANCH   5   6
ENDBRANCH   4   5
ENDBRANCH   3   4
ENDBRANCH   2   3
ENDBRANCH   1   2
BRANCH   1  18
ATOM     18  C   UNL A   1      34.439  33.170  28.285  1.00  0.00     0.261 C 
BRANCH  18  19
ATOM     19  O   UNL A   1      34.432  31.966  29.069  1.00  0.00    -0.460 OA
BRANCH  19  20
ATOM     20  C   UNL A   1      34.514  30.813  28.363  1.00  0.00     0.338 C 
ATOM     21  O   UNL A   1      33.706  30.378  27.556  1.00  0.00    -0.246 OA
BRANCH  20  22
ATOM     22  C   UNL A   1      35.883  30.278  28.511  1.00  0.00     0.060 A 
ATOM     23  C   UNL A   1      36.246  29.741  29.756  1.00  0.00     0.016 A 
ATOM     24  C   UNL A   1      36.773  30.249  27.437  1.00  0.00     0.016 A 
ATOM     25  C   UNL A   1      37.507  29.184  29.936  1.00  0.00     0.010 A 
ATOM     26  C   UNL A   1      38.048  29.719  27.627  1.00  0.00     0.010 A 
ATOM     27  C   UNL A   1      38.424  29.204  28.881  1.00  0.00    -0.014 A 
BRANCH  27  28
ATOM     28  C   UNL A   1      39.833  28.830  29.119  1.00  0.00     0.031 A 
ATOM     29  C   UNL A   1      40.756  29.868  29.688  1.00  0.00     0.074 A 
ATOM     30  C   UNL A   1      40.279  27.601  28.809  1.00  0.00     0.049 A 
ATOM     31  N   UNL A   1      42.049  29.820  29.864  1.00  0.00    -0.248 NA
ATOM     32  C   UNL A   1      40.135  31.136  30.111  1.00  0.00     0.031 C 
ATOM     33  C   UNL A   1      39.458  26.510  28.286  1.00  0.00     0.029 A 
ATOM     34  N   UNL A   1      41.544  27.074  28.864  1.00  0.00    -0.354 N 
ATOM     35  C   UNL A   1      42.400  31.054  30.397  1.00  0.00     0.074 A 
ATOM     36  C   UNL A   1      41.188  31.835  30.504  1.00  0.00     0.031 C 
ATOM     37  C   UNL A   1      40.248  25.450  28.037  1.00  0.00     0.029 A 
ATOM     38  C   UNL A   1      41.632  25.806  28.344  1.00  0.00     0.049 A 
ATOM     39  H   UNL A   1      42.314  27.558  29.241  1.00  0.00     0.167 HD
ATOM     40  C   UNL A   1      43.627  31.489  30.761  1.00  0.00     0.037 A 
ATOM     41  C   UNL A   1      42.716  25.044  28.103  1.00  0.00     0.037 A 
ATOM     42  C   UNL A   1      44.822  30.695  30.653  1.00  0.00     0.049 A 
ATOM     43  C   UNL A   1      44.079  25.586  28.449  1.00  0.00     0.074 A 
ATOM     44  C   UNL A   1      46.109  31.024  31.036  1.00  0.00     0.029 A 
ATOM     45  N   UNL A   1      44.875  29.421  30.110  1.00  0.00    -0.354 N 
ATOM     46  N   UNL A   1      44.400  26.734  28.999  1.00  0.00    -0.248 NA
ATOM     47  C   UNL A   1      45.233  24.729  28.138  1.00  0.00     0.031 C 
ATOM     48  C   UNL A   1      46.953  29.974  30.666  1.00  0.00     0.029 A 
ATOM     49  C   UNL A   1      46.182  28.965  30.108  1.00  0.00     0.049 A 
ATOM     50  H   UNL A   1      44.100  28.916  29.775  1.00  0.00     0.167 HD
ATOM     51  C   UNL A   1      45.784  26.726  29.117  1.00  0.00     0.074 A 
ATOM     52  C   UNL A   1      46.241  25.450  28.607  1.00  0.00     0.031 C 
ATOM     53  C   UNL A   1      46.610  27.689  29.599  1.00  0.00     0.037 A 
BRANCH  40  54
ATOM     54  C   UNL A   1      43.753  32.888  31.282  1.00  0.00     0.057 A 
ATOM     55  C   UNL A   1      43.832  33.995  30.428  1.00  0.00     0.134 A 
ATOM     56  C   UNL A   1      43.720  33.135  32.661  1.00  0.00     0.134 A 
ATOM     57  F   UNL A   1      43.885  33.825  29.098  1.00  0.00    -0.206 F 
ATOM     58  C   UNL A   1      43.877  35.297  30.927  1.00  0.00     0.040 A 
ATOM     59  C   UNL A   1      43.740  34.433  33.170  1.00  0.00     0.040 A 
ATOM     60  F   UNL A   1      43.646  32.118  33.533  1.00  0.00    -0.206 F 
ATOM     61  C   UNL A   1      43.819  35.520  32.302  1.00  0.00     0.006 A 
ENDBRANCH  40  54
BRANCH  41  62
ATOM     62  C   UNL A   1      42.576  23.714  27.455  1.00  0.00     0.057 A 
ATOM     63  C   UNL A   1      42.373  22.554  28.210  1.00  0.00     0.134 A 
ATOM     64  C   UNL A   1      42.694  23.563  26.067  1.00  0.00     0.134 A 
ATOM     65  F   UNL A   1      42.276  22.626  29.546  1.00  0.00    -0.206 F 
ATOM     66  C   UNL A   1      42.326  21.290  27.616  1.00  0.00     0.040 A 
ATOM     67  C   UNL A   1      42.616  22.311  25.456  1.00  0.00     0.040 A 
ATOM     68  F   UNL A   1      42.889  24.633  25.282  1.00  0.00    -0.206 F 
ATOM     69  C   UNL A   1      42.445  21.167  26.233  1.00  0.00     0.006 A 
ENDBRANCH  41  62
BRANCH  53  70
ATOM     70  C   UNL A   1      48.080  27.390  29.616  1.00  0.00     0.057 A 
ATOM     71  C   UNL A   1      48.923  27.771  28.565  1.00  0.00     0.134 A 
ATOM     72  C   UNL A   1      48.667  26.755  30.719  1.00  0.00     0.134 A 
ATOM     73  F   UNL A   1      48.421  28.372  27.475  1.00  0.00    -0.206 F 
ATOM     74  C   UNL A   1      50.294  27.514  28.599  1.00  0.00     0.040 A 
ATOM     75  C   UNL A   1      50.041  26.522  30.779  1.00  0.00     0.040 A 
ATOM     76  F   UNL A   1      47.918  26.375  31.765  1.00  0.00    -0.206 F 
ATOM     77  C   UNL A   1      50.857  26.895  29.713  1.00  0.00     0.006 A 
ENDBRANCH  53  70
ENDBRANCH  27  28
ENDBRANCH  20  22
ENDBRANCH  19  20
ENDBRANCH  18  19
ENDBRANCH   1  18
TORSDOF 15
ENDMDL
MODEL 2
REMARK VINA RESULT:      -9.6      2.656      7.230
REMARK SMILES O=C(C[NH+]1CC2(CCCC2)C1)OCCOCCOC(=O)c1ccc(-c2c3nc(c(-c4c(F)cccc4F)c4ccc([nH]4)c(-c4c(F)cccc4F)c4nc(c(-c5c(F)cccc5F)c5ccc2[nH]5)C=C4)C=C3)cc1
REMARK SMILES IDX 16 1 15 2 14 3 13 4 12 5 2 6 1 7 3 8 4 9 5 10 11 11 6 13
REMARK SMILES IDX 7 14 10 15 8 16 9 17 17 18 18 19 19 20 20 21 21 22 22 23
REMARK SMILES IDX 74 24 23 25 73 26 24 27 25 28 26 29 67 30 27 31 72 32 66 33
REMARK SMILES IDX 68 34 28 35 71 36 65 37 64 38 29 40 55 41 38 42 54 43 39 44
REMARK SMILES IDX 42 45 53 46 69 47 40 48 41 49 52 51 70 52 43 53 30 54 31 55
REMARK SMILES IDX 36 56 32 57 33 58 35 59 37 60 34 61 56 62 57 63 62 64 58 65
REMARK SMILES IDX 59 66 61 67 63 68 60 69 44 70 45 71 50 72 46 73 47 74 49 75
REMARK SMILES IDX 51 76 48 77
REMARK H PARENT 4 12 68 39 42 50
REMARK Flexibility Score: inf
ROOT
ATOM      1  C   UNL A   1      35.326  34.804  33.485  1.00  0.00     0.202 C 
ENDROOT
BRANCH   1   2
ATOM      2  O   UNL A   1      35.054  36.085  32.903  1.00  0.00    -0.374 OA
BRANCH   2   3
ATOM      3  C   UNL A   1      33.691  36.508  32.874  1.00  0.00     0.202 C 
BRANCH   3   4
ATOM      4  C   UNL A   1      32.945  36.437  31.545  1.00  0.00     0.261 C 
BRANCH   4   5
ATOM      5  O   UNL A   1      33.518  35.461  30.660  1.00  0.00    -0.459 OA
BRANCH   5   6
ATOM      6  C   UNL A   1      33.189  35.405  29.347  1.00  0.00     0.361 C 
ATOM      7  O   UNL A   1      32.385  36.207  28.874  1.00  0.00    -0.245 OA
BRANCH   6   8
ATOM      8  C   UNL A   1      33.794  34.296  28.507  1.00  0.00     0.386 C 
BRANCH   8   9
ATOM      9  N   UNL A   1      34.967  33.727  29.190  1.00  0.00    -0.324 N 
ATOM     10  C   UNL A   1      35.821  33.080  28.182  1.00  0.00     0.275 C 
ATOM     11  C   UNL A   1      34.682  32.390  29.777  1.00  0.00     0.275 C 
ATOM     12  H   UNL A   1      35.291  34.484  29.791  1.00  0.00     0.348 HD
ATOM     13  C   UNL A   1      35.053  31.737  28.414  1.00  0.00     0.068 C 
ATOM     14  C   UNL A   1      36.010  30.546  28.315  1.00  0.00     0.019 C 
ATOM     15  C   UNL A   1      33.784  31.346  27.625  1.00  0.00     0.019 C 
ATOM     16  C   UNL A   1      35.387  29.670  27.230  1.00  0.00     0.001 C 
ATOM     17  C   UNL A   1      33.902  29.838  27.475  1.00  0.00     0.001 C 
ENDBRANCH   8   9
ENDBRANCH   6   8
ENDBRANCH   5   6
ENDBRANCH   4   5
ENDBRANCH   3   4
ENDBRANCH   2   3
ENDBRANCH   1   2
BRANCH   1  18
ATOM     18  C   UNL A   1      36.449  33.982  32.841  1.00  0.00     0.261 C 
BRANCH  18  19
ATOM     19  O   UNL A   1      36.263  32.574  33.063  1.00  0.00    -0.460 OA
BRANCH  19  20
ATOM     20  C   UNL A   1      37.273  31.952  33.719  1.00  0.00     0.338 C 
ATOM     21  O   UNL A   1      37.312  31.644  34.900  1.00  0.00    -0.246 OA
BRANCH  20  22
ATOM     22  C   UNL A   1      38.230  31.444  32.715  1.00  0.00     0.060 A 
ATOM     23  C   UNL A   1      39.397  30.817  33.181  1.00  0.00     0.016 A 
ATOM     24  C   UNL A   1      37.965  31.527  31.348  1.00  0.00     0.016 A 
ATOM     25  C   UNL A   1      40.310  30.282  32.278  1.00  0.00     0.010 A 
ATOM     26  C   UNL A   1      38.895  31.018  30.444  1.00  0.00     0.010 A 
ATOM     27  C   UNL A   1      40.078  30.413  30.906  1.00  0.00    -0.014 A 
BRANCH  27  28
ATOM     28  C   UNL A   1      41.138  30.060  29.939  1.00  0.00     0.031 A 
ATOM     29  C   UNL A   1      41.136  28.676  29.360  1.00  0.00     0.074 A 
ATOM     30  C   UNL A   1      42.090  30.949  29.610  1.00  0.00     0.049 A 
ATOM     31  N   UNL A   1      42.024  28.095  28.600  1.00  0.00    -0.248 NA
ATOM     32  C   UNL A   1      39.976  27.829  29.689  1.00  0.00     0.031 C 
ATOM     33  C   UNL A   1      42.162  32.329  30.087  1.00  0.00     0.029 A 
ATOM     34  N   UNL A   1      43.199  30.809  28.814  1.00  0.00    -0.354 N 
ATOM     35  C   UNL A   1      41.543  26.811  28.377  1.00  0.00     0.074 A 
ATOM     36  C   UNL A   1      40.292  26.691  29.091  1.00  0.00     0.031 C 
ATOM     37  C   UNL A   1      43.277  32.902  29.599  1.00  0.00     0.029 A 
ATOM     38  C   UNL A   1      44.014  31.915  28.812  1.00  0.00     0.049 A 
ATOM     39  H   UNL A   1      43.391  29.996  28.294  1.00  0.00     0.167 HD
ATOM     40  C   UNL A   1      42.102  25.825  27.639  1.00  0.00     0.037 A 
ATOM     41  C   UNL A   1      45.237  32.086  28.274  1.00  0.00     0.037 A 
ATOM     42  C   UNL A   1      43.346  25.964  26.930  1.00  0.00     0.049 A 
ATOM     43  C   UNL A   1      45.869  30.943  27.522  1.00  0.00     0.074 A 
ATOM     44  C   UNL A   1      43.978  25.041  26.116  1.00  0.00     0.029 A 
ATOM     45  N   UNL A   1      44.150  27.091  26.962  1.00  0.00    -0.354 N 
ATOM     46  N   UNL A   1      45.387  29.748  27.272  1.00  0.00    -0.248 NA
ATOM     47  C   UNL A   1      47.216  31.169  26.981  1.00  0.00     0.031 C 
ATOM     48  C   UNL A   1      45.197  25.588  25.707  1.00  0.00     0.029 A 
ATOM     49  C   UNL A   1      45.296  26.874  26.215  1.00  0.00     0.049 A 
ATOM     50  H   UNL A   1      43.939  27.924  27.443  1.00  0.00     0.167 HD
ATOM     51  C   UNL A   1      46.361  29.092  26.530  1.00  0.00     0.074 A 
ATOM     52  C   UNL A   1      47.449  30.030  26.347  1.00  0.00     0.031 C 
ATOM     53  C   UNL A   1      46.362  27.825  26.045  1.00  0.00     0.037 A 
BRANCH  40  54
ATOM     54  C   UNL A   1      41.399  24.503  27.582  1.00  0.00     0.057 A 
ATOM     55  C   UNL A   1      40.312  24.276  26.729  1.00  0.00     0.134 A 
ATOM     56  C   UNL A   1      41.866  23.420  28.339  1.00  0.00     0.134 A 
ATOM     57  F   UNL A   1      39.806  25.276  25.991  1.00  0.00    -0.206 F 
ATOM     58  C   UNL A   1      39.711  23.020  26.633  1.00  0.00     0.040 A 
ATOM     59  C   UNL A   1      41.290  22.154  28.233  1.00  0.00     0.040 A 
ATOM     60  F   UNL A   1      42.903  23.571  29.176  1.00  0.00    -0.206 F 
ATOM     61  C   UNL A   1      40.208  21.951  27.378  1.00  0.00     0.006 A 
ENDBRANCH  40  54
BRANCH  41  62
ATOM     62  C   UNL A   1      45.974  33.362  28.465  1.00  0.00     0.057 A 
ATOM     63  C   UNL A   1      46.815  33.560  29.566  1.00  0.00     0.134 A 
ATOM     64  C   UNL A   1      45.814  34.436  27.579  1.00  0.00     0.134 A 
ATOM     65  F   UNL A   1      46.992  32.580  30.465  1.00  0.00    -0.206 F 
ATOM     66  C   UNL A   1      47.444  34.786  29.798  1.00  0.00     0.040 A 
ATOM     67  C   UNL A   1      46.462  35.656  27.781  1.00  0.00     0.040 A 
ATOM     68  F   UNL A   1      45.023  34.315  26.503  1.00  0.00    -0.206 F 
ATOM     69  C   UNL A   1      47.270  35.837  28.901  1.00  0.00     0.006 A 
ENDBRANCH  41  62
BRANCH  53  70
ATOM     70  C   UNL A   1      47.563  27.391  25.257  1.00  0.00     0.057 A 
ATOM     71  C   UNL A   1      47.667  27.629  23.881  1.00  0.00     0.134 A 
ATOM     72  C   UNL A   1      48.648  26.771  25.891  1.00  0.00     0.134 A 
ATOM     73  F   UNL A   1      46.659  28.208  23.212  1.00  0.00    -0.206 F 
ATOM     74  C   UNL A   1      48.799  27.247  23.159  1.00  0.00     0.040 A 
ATOM     75  C   UNL A   1      49.797  26.414  25.186  1.00  0.00     0.040 A 
ATOM     76  F   UNL A   1      48.617  26.525  27.210  1.00  0.00    -0.206 F 
ATOM     77  C   UNL A   1      49.872  26.645  23.815  1.00  0.00     0.006 A 
ENDBRANCH  53  70
ENDBRANCH  27  28
ENDBRANCH  20  22
ENDBRANCH  19  20
ENDBRANCH  18  19
ENDBRANCH   1  18
TORSDOF 15
ENDMDL
MODEL 3
REMARK VINA RESULT:      -9.5      5.174     11.129
REMARK SMILES O=C(C[NH+]1CC2(CCCC2)C1)OCCOCCOC(=O)c1ccc(-c2c3nc(c(-c4c(F)cccc4F)c4ccc([nH]4)c(-c4c(F)cccc4F)c4nc(c(-c5c(F)cccc5F)c5ccc2[nH]5)C=C4)C=C3)cc1
REMARK SMILES IDX 16 1 15 2 14 3 13 4 12 5 2 6 1 7 3 8 4 9 5 10 11 11 6 13
REMARK SMILES IDX 7 14 10 15 8 16 9 17 17 18 18 19 19 20 20 21 21 22 22 23
REMARK SMILES IDX 74 24 23 25 73 26 24 27 25 28 26 29 67 30 27 31 72 32 66 33
REMARK SMILES IDX 68 34 28 35 71 36 65 37 64 38 29 40 55 41 38 42 54 43 39 44
REMARK SMILES IDX 42 45 53 46 69 47 40 48 41 49 52 51 70 52 43 53 30 54 31 55
REMARK SMILES IDX 36 56 32 57 33 58 35 59 37 60 34 61 56 62 57 63 62 64 58 65
REMARK SMILES IDX 59 66 61 67 63 68 60 69 44 70 45 71 50 72 46 73 47 74 49 75
REMARK SMILES IDX 51 76 48 77
REMARK H PARENT 4 12 68 39 42 50
REMARK Flexibility Score: inf
ROOT
ATOM      1  C   UNL A   1      44.098  21.976  25.244  1.00  0.00     0.202 C 
ENDROOT
BRANCH   1   2
ATOM      2  O   UNL A   1      42.703  21.652  25.323  1.00  0.00    -0.374 OA
BRANCH   2   3
ATOM      3  C   UNL A   1      42.281  20.876  26.443  1.00  0.00     0.202 C 
BRANCH   3   4
ATOM      4  C   UNL A   1      41.414  21.553  27.501  1.00  0.00     0.261 C 
BRANCH   4   5
ATOM      5  O   UNL A   1      40.013  21.417  27.213  1.00  0.00    -0.459 OA
BRANCH   5   6
ATOM      6  C   UNL A   1      39.343  22.334  26.475  1.00  0.00     0.361 C 
ATOM      7  O   UNL A   1      39.599  23.532  26.590  1.00  0.00    -0.245 OA
BRANCH   6   8
ATOM      8  C   UNL A   1      38.240  21.842  25.556  1.00  0.00     0.386 C 
BRANCH   8   9
ATOM      9  N   UNL A   1      37.694  22.964  24.776  1.00  0.00    -0.324 N 
ATOM     10  C   UNL A   1      36.478  23.448  25.448  1.00  0.00     0.275 C 
ATOM     11  C   UNL A   1      36.856  22.503  23.636  1.00  0.00     0.275 C 
ATOM     12  H   UNL A   1      38.505  23.556  24.598  1.00  0.00     0.348 HD
ATOM     13  C   UNL A   1      35.626  22.456  24.588  1.00  0.00     0.068 C 
ATOM     14  C   UNL A   1      34.282  23.087  24.214  1.00  0.00     0.019 C 
ATOM     15  C   UNL A   1      35.323  21.007  25.029  1.00  0.00     0.019 C 
ATOM     16  C   UNL A   1      33.254  22.091  24.749  1.00  0.00     0.001 C 
ATOM     17  C   UNL A   1      33.921  20.754  24.500  1.00  0.00     0.001 C 
ENDBRANCH   8   9
ENDBRANCH   6   8
ENDBRANCH   5   6
ENDBRANCH   4   5
ENDBRANCH   3   4
ENDBRANCH   2   3
ENDBRANCH   1   2
BRANCH   1  18
ATOM     18  C   UNL A   1      44.482  23.133  24.314  1.00  0.00     0.261 C 
BRANCH  18  19
ATOM     19  O   UNL A   1      43.788  24.342  24.665  1.00  0.00    -0.460 OA
BRANCH  19  20
ATOM     20  C   UNL A   1      44.564  25.331  25.169  1.00  0.00     0.338 C 
ATOM     21  O   UNL A   1      45.579  25.802  24.679  1.00  0.00    -0.246 OA
BRANCH  20  22
ATOM     22  C   UNL A   1      43.838  25.959  26.292  1.00  0.00     0.060 A 
ATOM     23  C   UNL A   1      44.120  27.303  26.585  1.00  0.00     0.016 A 
ATOM     24  C   UNL A   1      42.859  25.266  27.005  1.00  0.00     0.016 A 
ATOM     25  C   UNL A   1      43.432  27.955  27.603  1.00  0.00     0.010 A 
ATOM     26  C   UNL A   1      42.192  25.911  28.045  1.00  0.00     0.010 A 
ATOM     27  C   UNL A   1      42.492  27.249  28.359  1.00  0.00    -0.014 A 
BRANCH  27  28
ATOM     28  C   UNL A   1      41.923  27.852  29.582  1.00  0.00     0.031 A 
ATOM     29  C   UNL A   1      40.676  28.676  29.453  1.00  0.00     0.074 A 
ATOM     30  C   UNL A   1      42.523  27.684  30.773  1.00  0.00     0.049 A 
ATOM     31  N   UNL A   1      40.067  29.404  30.349  1.00  0.00    -0.248 NA
ATOM     32  C   UNL A   1      40.032  28.685  28.128  1.00  0.00     0.031 C 
ATOM     33  C   UNL A   1      43.716  26.873  31.013  1.00  0.00     0.029 A 
ATOM     34  N   UNL A   1      42.223  28.214  32.002  1.00  0.00    -0.354 N 
ATOM     35  C   UNL A   1      38.982  29.973  29.695  1.00  0.00     0.074 A 
ATOM     36  C   UNL A   1      39.022  29.519  28.323  1.00  0.00     0.031 C 
ATOM     37  C   UNL A   1      44.067  26.986  32.307  1.00  0.00     0.029 A 
ATOM     38  C   UNL A   1      43.148  27.908  32.970  1.00  0.00     0.049 A 
ATOM     39  H   UNL A   1      41.422  28.761  32.173  1.00  0.00     0.167 HD
ATOM     40  C   UNL A   1      38.041  30.801  30.201  1.00  0.00     0.037 A 
ATOM     41  C   UNL A   1      43.258  28.363  34.233  1.00  0.00     0.037 A 
ATOM     42  C   UNL A   1      38.014  31.239  31.572  1.00  0.00     0.049 A 
ATOM     43  C   UNL A   1      42.237  29.345  34.747  1.00  0.00     0.074 A 
ATOM     44  C   UNL A   1      37.078  32.042  32.198  1.00  0.00     0.029 A 
ATOM     45  N   UNL A   1      38.972  30.920  32.520  1.00  0.00    -0.354 N 
ATOM     46  N   UNL A   1      41.185  29.842  34.139  1.00  0.00    -0.248 NA
ATOM     47  C   UNL A   1      42.420  29.835  36.121  1.00  0.00     0.031 C 
ATOM     48  C   UNL A   1      37.505  32.261  33.510  1.00  0.00     0.029 A 
ATOM     49  C   UNL A   1      38.674  31.545  33.718  1.00  0.00     0.049 A 
ATOM     50  H   UNL A   1      39.749  30.336  32.365  1.00  0.00     0.167 HD
ATOM     51  C   UNL A   1      40.574  30.682  35.061  1.00  0.00     0.074 A 
ATOM     52  C   UNL A   1      41.355  30.608  36.277  1.00  0.00     0.031 C 
ATOM     53  C   UNL A   1      39.466  31.452  34.916  1.00  0.00     0.037 A 
BRANCH  40  54
ATOM     54  C   UNL A   1      36.982  31.315  29.274  1.00  0.00     0.057 A 
ATOM     55  C   UNL A   1      35.880  30.535  28.899  1.00  0.00     0.134 A 
ATOM     56  C   UNL A   1      37.029  32.636  28.809  1.00  0.00     0.134 A 
ATOM     57  F   UNL A   1      35.784  29.258  29.298  1.00  0.00    -0.206 F 
ATOM     58  C   UNL A   1      34.865  31.050  28.093  1.00  0.00     0.040 A 
ATOM     59  C   UNL A   1      36.008  33.169  28.022  1.00  0.00     0.040 A 
ATOM     60  F   UNL A   1      38.057  33.434  29.130  1.00  0.00    -0.206 F 
ATOM     61  C   UNL A   1      34.921  32.375  27.661  1.00  0.00     0.006 A 
ENDBRANCH  40  54
BRANCH  41  62
ATOM     62  C   UNL A   1      44.400  27.946  35.089  1.00  0.00     0.057 A 
ATOM     63  C   UNL A   1      45.618  28.633  35.065  1.00  0.00     0.134 A 
ATOM     64  C   UNL A   1      44.318  26.815  35.912  1.00  0.00     0.134 A 
ATOM     65  F   UNL A   1      45.770  29.710  34.279  1.00  0.00    -0.206 F 
ATOM     66  C   UNL A   1      46.722  28.196  35.802  1.00  0.00     0.040 A 
ATOM     67  C   UNL A   1      45.403  26.385  36.679  1.00  0.00     0.040 A 
ATOM     68  F   UNL A   1      43.180  26.108  35.984  1.00  0.00    -0.206 F 
ATOM     69  C   UNL A   1      46.614  27.070  36.614  1.00  0.00     0.006 A 
ENDBRANCH  41  62
BRANCH  53  70
ATOM     70  C   UNL A   1      39.027  32.255  36.105  1.00  0.00     0.057 A 
ATOM     71  C   UNL A   1      39.420  33.587  36.282  1.00  0.00     0.134 A 
ATOM     72  C   UNL A   1      38.161  31.704  37.059  1.00  0.00     0.134 A 
ATOM     73  F   UNL A   1      40.257  34.171  35.411  1.00  0.00    -0.206 F 
ATOM     74  C   UNL A   1      38.986  34.337  37.376  1.00  0.00     0.040 A 
ATOM     75  C   UNL A   1      37.695  32.453  38.139  1.00  0.00     0.040 A 
ATOM     76  F   UNL A   1      37.736  30.437  36.943  1.00  0.00    -0.206 F 
ATOM     77  C   UNL A   1      38.113  33.771  38.304  1.00  0.00     0.006 A 
ENDBRANCH  53  70
ENDBRANCH  27  28
ENDBRANCH  20  22
ENDBRANCH  19  20
ENDBRANCH  18  19
ENDBRANCH   1  18
TORSDOF 15
ENDMDL
