MODEL 1
REMARK VINA RESULT:     -11.2      0.000      0.000
REMARK SMILES COc1ccc(CCc2nnc(NC(=O)[C@@H]3[C@@H](C(=O)OCCOCCOC(=O)c4ccc(-c5c6nc(c(-c7c(F)cccc7F)c7ccc([nH]7)c(-c7c(F)cccc7F)c7nc(c(-c8c(F)cccc8F)c8ccc5[nH]8)C=C7)C=C6)cc4)C3(C)C)s2)cc1
REMARK SMILES IDX 21 1 20 2 18 3 19 4 17 5 16 6 83 7 84 8 85 9 14 10 13 11
REMARK SMILES IDX 15 13 12 14 9 15 10 16 86 17 11 18 8 19 7 20 6 21 3 22 4 23
REMARK SMILES IDX 88 24 5 25 87 26 2 27 1 28 22 29 23 30 24 31 25 32 26 33
REMARK SMILES IDX 27 34 28 35 29 36 30 37 82 38 31 39 81 40 32 41 33 42 34 43
REMARK SMILES IDX 75 44 35 45 80 46 74 47 76 48 36 49 79 50 73 51 72 52 37 54
REMARK SMILES IDX 63 55 46 56 62 57 47 58 50 59 61 60 77 61 48 62 49 63 60 65
REMARK SMILES IDX 78 66 51 67 38 68 39 69 44 70 40 71 41 72 43 73 45 74 42 75
REMARK SMILES IDX 64 76 65 77 70 78 66 79 67 80 69 81 71 82 68 83 52 84 53 85
REMARK SMILES IDX 58 86 54 87 55 88 57 89 59 90 56 91
REMARK H PARENT 13 12 76 53 50 64
REMARK Flexibility Score: inf
ROOT
ATOM      1  C   UNL A   1      39.245  21.067  25.883  1.00  0.00     0.261 C 
ENDROOT
BRANCH   1   2
ATOM      2  O   UNL A   1      38.102  20.455  25.279  1.00  0.00    -0.463 OA
BRANCH   2   3
ATOM      3  C   UNL A   1      37.185  21.324  24.794  1.00  0.00     0.310 C 
ATOM      4  O   UNL A   1      37.342  22.095  23.859  1.00  0.00    -0.252 OA
BRANCH   3   5
ATOM      5  C   UNL A   1      35.856  21.133  25.420  1.00  0.00     0.118 C 
ATOM      6  C   UNL A   1      34.665  21.641  24.677  1.00  0.00     0.100 C 
ATOM      7  C   UNL A   1      34.996  22.237  26.044  1.00  0.00    -0.009 C 
ATOM      8  C   UNL A   1      35.508  23.658  26.091  1.00  0.00     0.013 C 
ATOM      9  C   UNL A   1      34.169  21.890  27.256  1.00  0.00     0.013 C 
BRANCH   6  10
ATOM     10  C   UNL A   1      33.414  20.931  24.301  1.00  0.00     0.230 C 
ATOM     11  N   UNL A   1      32.297  21.402  23.669  1.00  0.00    -0.300 N 
ATOM     12  H   UNL A   1      31.645  20.698  23.449  1.00  0.00     0.172 HD
ATOM     13  O   UNL A   1      33.402  19.717  24.530  1.00  0.00    -0.274 OA
BRANCH  11  14
ATOM     14  C   UNL A   1      31.903  22.641  23.282  1.00  0.00     0.212 A 
ATOM     15  C   UNL A   1      32.082  24.821  22.373  1.00  0.00     0.119 A 
ATOM     16  N   UNL A   1      31.029  24.690  23.154  1.00  0.00    -0.142 NA
ATOM     17  S   UNL A   1      32.902  23.335  22.072  1.00  0.00    -0.080 S 
ATOM     18  N   UNL A   1      30.939  23.423  23.687  1.00  0.00    -0.120 NA
BRANCH  15  19
ATOM     19  C   UNL A   1      32.599  26.127  21.853  1.00  0.00     0.074 C 
BRANCH  19  20
ATOM     20  C   UNL A   1      33.661  26.755  22.777  1.00  0.00     0.043 C 
BRANCH  20  21
ATOM     21  C   UNL A   1      33.154  27.781  23.773  1.00  0.00    -0.047 A 
ATOM     22  C   UNL A   1      32.165  29.624  25.671  1.00  0.00     0.118 A 
ATOM     23  C   UNL A   1      33.414  29.040  25.843  1.00  0.00     0.046 A 
ATOM     24  C   UNL A   1      31.407  29.301  24.547  1.00  0.00     0.046 A 
ATOM     25  C   UNL A   1      33.888  28.110  24.917  1.00  0.00     0.007 A 
ATOM     26  C   UNL A   1      31.900  28.385  23.605  1.00  0.00     0.007 A 
BRANCH  22  27
ATOM     27  O   UNL A   1      31.799  30.526  26.630  1.00  0.00    -0.497 OA
ATOM     28  C   UNL A   1      31.190  31.711  26.128  1.00  0.00     0.278 C 
ENDBRANCH  22  27
ENDBRANCH  20  21
ENDBRANCH  19  20
ENDBRANCH  15  19
ENDBRANCH  11  14
ENDBRANCH   6  10
ENDBRANCH   3   5
ENDBRANCH   2   3
ENDBRANCH   1   2
BRANCH   1  29
ATOM     29  C   UNL A   1      40.326  20.010  26.117  1.00  0.00     0.202 C 
BRANCH  29  30
ATOM     30  O   UNL A   1      41.068  20.137  27.330  1.00  0.00    -0.374 OA
BRANCH  30  31
ATOM     31  C   UNL A   1      42.486  20.296  27.240  1.00  0.00     0.202 C 
BRANCH  31  32
ATOM     32  C   UNL A   1      43.014  21.068  26.024  1.00  0.00     0.261 C 
BRANCH  32  33
ATOM     33  O   UNL A   1      43.639  22.315  26.383  1.00  0.00    -0.460 OA
BRANCH  33  34
ATOM     34  C   UNL A   1      43.353  23.354  25.562  1.00  0.00     0.338 C 
ATOM     35  O   UNL A   1      43.461  23.395  24.348  1.00  0.00    -0.246 OA
BRANCH  34  36
ATOM     36  C   UNL A   1      42.720  24.441  26.329  1.00  0.00     0.060 A 
ATOM     37  C   UNL A   1      43.324  25.705  26.297  1.00  0.00     0.016 A 
ATOM     38  C   UNL A   1      41.619  24.199  27.151  1.00  0.00     0.016 A 
ATOM     39  C   UNL A   1      42.855  26.725  27.122  1.00  0.00     0.010 A 
ATOM     40  C   UNL A   1      41.160  25.217  27.990  1.00  0.00     0.010 A 
ATOM     41  C   UNL A   1      41.799  26.471  28.005  1.00  0.00    -0.014 A 
BRANCH  41  42
ATOM     42  C   UNL A   1      41.466  27.445  29.072  1.00  0.00     0.031 A 
ATOM     43  C   UNL A   1      42.229  27.380  30.366  1.00  0.00     0.074 A 
ATOM     44  C   UNL A   1      40.494  28.357  28.903  1.00  0.00     0.049 A 
ATOM     45  N   UNL A   1      42.023  28.023  31.486  1.00  0.00    -0.248 NA
ATOM     46  C   UNL A   1      43.379  26.460  30.399  1.00  0.00     0.031 C 
ATOM     47  C   UNL A   1      39.725  28.556  27.677  1.00  0.00     0.029 A 
ATOM     48  N   UNL A   1      39.976  29.274  29.782  1.00  0.00    -0.354 N 
ATOM     49  C   UNL A   1      43.000  27.572  32.362  1.00  0.00     0.074 A 
ATOM     50  C   UNL A   1      43.794  26.593  31.650  1.00  0.00     0.031 C 
ATOM     51  C   UNL A   1      38.812  29.519  27.890  1.00  0.00     0.029 A 
ATOM     52  C   UNL A   1      38.908  29.972  29.277  1.00  0.00     0.049 A 
ATOM     53  H   UNL A   1      40.336  29.418  30.688  1.00  0.00     0.167 HD
ATOM     54  C   UNL A   1      43.216  27.940  33.647  1.00  0.00     0.037 A 
ATOM     55  C   UNL A   1      38.081  30.849  29.880  1.00  0.00     0.037 A 
ATOM     56  C   UNL A   1      42.428  28.916  34.350  1.00  0.00     0.049 A 
ATOM     57  C   UNL A   1      38.293  31.190  31.331  1.00  0.00     0.074 A 
ATOM     58  C   UNL A   1      42.567  29.362  35.653  1.00  0.00     0.029 A 
ATOM     59  N   UNL A   1      41.350  29.596  33.805  1.00  0.00    -0.354 N 
ATOM     60  N   UNL A   1      39.218  30.759  32.155  1.00  0.00    -0.248 NA
ATOM     61  C   UNL A   1      37.346  32.137  31.939  1.00  0.00     0.031 C 
ATOM     62  C   UNL A   1      41.548  30.285  35.908  1.00  0.00     0.029 A 
ATOM     63  C   UNL A   1      40.803  30.446  34.751  1.00  0.00     0.049 A 
ATOM     64  H   UNL A   1      41.021  29.489  32.884  1.00  0.00     0.167 HD
ATOM     65  C   UNL A   1      38.986  31.406  33.363  1.00  0.00     0.074 A 
ATOM     66  C   UNL A   1      37.832  32.258  33.167  1.00  0.00     0.031 C 
ATOM     67  C   UNL A   1      39.672  31.308  34.527  1.00  0.00     0.037 A 
BRANCH  54  68
ATOM     68  C   UNL A   1      44.330  27.260  34.384  1.00  0.00     0.057 A 
ATOM     69  C   UNL A   1      45.647  27.735  34.335  1.00  0.00     0.134 A 
ATOM     70  C   UNL A   1      44.077  26.131  35.173  1.00  0.00     0.134 A 
ATOM     71  F   UNL A   1      45.958  28.802  33.583  1.00  0.00    -0.206 F 
ATOM     72  C   UNL A   1      46.676  27.098  35.030  1.00  0.00     0.040 A 
ATOM     73  C   UNL A   1      45.094  25.500  35.891  1.00  0.00     0.040 A 
ATOM     74  F   UNL A   1      42.837  25.628  35.263  1.00  0.00    -0.206 F 
ATOM     75  C   UNL A   1      46.399  25.981  35.816  1.00  0.00     0.006 A 
ENDBRANCH  54  68
BRANCH  55  76
ATOM     76  C   UNL A   1      36.956  31.449  29.121  1.00  0.00     0.057 A 
ATOM     77  C   UNL A   1      37.000  32.780  28.690  1.00  0.00     0.134 A 
ATOM     78  C   UNL A   1      35.803  30.712  28.822  1.00  0.00     0.134 A 
ATOM     79  F   UNL A   1      38.067  33.542  28.968  1.00  0.00    -0.206 F 
ATOM     80  C   UNL A   1      35.934  33.360  28.002  1.00  0.00     0.040 A 
ATOM     81  C   UNL A   1      34.738  31.273  28.115  1.00  0.00     0.040 A 
ATOM     82  F   UNL A   1      35.698  29.432  29.209  1.00  0.00    -0.206 F 
ATOM     83  C   UNL A   1      34.801  32.605  27.708  1.00  0.00     0.006 A 
ENDBRANCH  55  76
BRANCH  67  84
ATOM     84  C   UNL A   1      39.239  32.182  35.665  1.00  0.00     0.057 A 
ATOM     85  C   UNL A   1      39.688  33.501  35.798  1.00  0.00     0.134 A 
ATOM     86  C   UNL A   1      38.297  31.719  36.593  1.00  0.00     0.134 A 
ATOM     87  F   UNL A   1      40.597  33.999  34.946  1.00  0.00    -0.206 F 
ATOM     88  C   UNL A   1      39.219  34.329  36.819  1.00  0.00     0.040 A 
ATOM     89  C   UNL A   1      37.805  32.543  37.605  1.00  0.00     0.040 A 
ATOM     90  F   UNL A   1      37.821  30.467  36.513  1.00  0.00    -0.206 F 
ATOM     91  C   UNL A   1      38.266  33.853  37.721  1.00  0.00     0.006 A 
ENDBRANCH  67  84
ENDBRANCH  41  42
ENDBRANCH  34  36
ENDBRANCH  33  34
ENDBRANCH  32  33
ENDBRANCH  31  32
ENDBRANCH  30  31
ENDBRANCH  29  30
ENDBRANCH   1  29
TORSDOF 20
ENDMDL
MODEL 2
REMARK VINA RESULT:     -10.9      3.837      8.102
REMARK SMILES COc1ccc(CCc2nnc(NC(=O)[C@@H]3[C@@H](C(=O)OCCOCCOC(=O)c4ccc(-c5c6nc(c(-c7c(F)cccc7F)c7ccc([nH]7)c(-c7c(F)cccc7F)c7nc(c(-c8c(F)cccc8F)c8ccc5[nH]8)C=C7)C=C6)cc4)C3(C)C)s2)cc1
REMARK SMILES IDX 21 1 20 2 18 3 19 4 17 5 16 6 83 7 84 8 85 9 14 10 13 11
REMARK SMILES IDX 15 13 12 14 9 15 10 16 86 17 11 18 8 19 7 20 6 21 3 22 4 23
REMARK SMILES IDX 88 24 5 25 87 26 2 27 1 28 22 29 23 30 24 31 25 32 26 33
REMARK SMILES IDX 27 34 28 35 29 36 30 37 82 38 31 39 81 40 32 41 33 42 34 43
REMARK SMILES IDX 75 44 35 45 80 46 74 47 76 48 36 49 79 50 73 51 72 52 37 54
REMARK SMILES IDX 63 55 46 56 62 57 47 58 50 59 61 60 77 61 48 62 49 63 60 65
REMARK SMILES IDX 78 66 51 67 38 68 39 69 44 70 40 71 41 72 43 73 45 74 42 75
REMARK SMILES IDX 64 76 65 77 70 78 66 79 67 80 69 81 71 82 68 83 52 84 53 85
REMARK SMILES IDX 58 86 54 87 55 88 57 89 59 90 56 91
REMARK H PARENT 13 12 76 53 50 64
REMARK Flexibility Score: inf
ROOT
ATOM      1  C   UNL A   1      34.026  25.881  22.800  1.00  0.00     0.261 C 
ENDROOT
BRANCH   1   2
ATOM      2  O   UNL A   1      33.456  24.757  23.479  1.00  0.00    -0.463 OA
BRANCH   2   3
ATOM      3  C   UNL A   1      33.913  23.554  23.060  1.00  0.00     0.310 C 
ATOM      4  O   UNL A   1      34.470  23.320  21.997  1.00  0.00    -0.252 OA
BRANCH   3   5
ATOM      5  C   UNL A   1      33.824  22.527  24.124  1.00  0.00     0.118 C 
ATOM      6  C   UNL A   1      34.246  22.922  25.500  1.00  0.00     0.100 C 
ATOM      7  C   UNL A   1      35.012  21.814  24.779  1.00  0.00    -0.009 C 
ATOM      8  C   UNL A   1      36.419  22.113  24.317  1.00  0.00     0.013 C 
ATOM      9  C   UNL A   1      34.839  20.372  25.180  1.00  0.00     0.013 C 
BRANCH   6  10
ATOM     10  C   UNL A   1      33.511  22.796  26.786  1.00  0.00     0.230 C 
ATOM     11  N   UNL A   1      32.336  23.370  27.182  1.00  0.00    -0.300 N 
ATOM     12  H   UNL A   1      32.014  23.043  28.053  1.00  0.00     0.172 HD
ATOM     13  O   UNL A   1      33.995  22.001  27.600  1.00  0.00    -0.274 OA
BRANCH  11  14
ATOM     14  C   UNL A   1      31.522  24.299  26.620  1.00  0.00     0.212 A 
ATOM     15  C   UNL A   1      30.199  25.345  24.956  1.00  0.00     0.119 A 
ATOM     16  N   UNL A   1      30.552  26.180  25.912  1.00  0.00    -0.142 NA
ATOM     17  S   UNL A   1      30.617  23.706  25.288  1.00  0.00    -0.080 S 
ATOM     18  N   UNL A   1      31.330  25.566  26.870  1.00  0.00    -0.120 NA
BRANCH  15  19
ATOM     19  C   UNL A   1      29.577  25.752  23.657  1.00  0.00     0.074 C 
BRANCH  19  20
ATOM     20  C   UNL A   1      28.374  26.698  23.846  1.00  0.00     0.043 C 
BRANCH  20  21
ATOM     21  C   UNL A   1      28.532  28.097  23.281  1.00  0.00    -0.047 A 
ATOM     22  C   UNL A   1      28.802  30.670  22.148  1.00  0.00     0.118 A 
ATOM     23  C   UNL A   1      27.608  30.287  22.745  1.00  0.00     0.046 A 
ATOM     24  C   UNL A   1      29.871  29.776  22.121  1.00  0.00     0.046 A 
ATOM     25  C   UNL A   1      27.469  29.006  23.281  1.00  0.00     0.007 A 
ATOM     26  C   UNL A   1      29.735  28.499  22.685  1.00  0.00     0.007 A 
BRANCH  22  27
ATOM     27  O   UNL A   1      28.835  31.947  21.661  1.00  0.00    -0.497 OA
ATOM     28  C   UNL A   1      28.766  32.962  22.657  1.00  0.00     0.278 C 
ENDBRANCH  22  27
ENDBRANCH  20  21
ENDBRANCH  19  20
ENDBRANCH  15  19
ENDBRANCH  11  14
ENDBRANCH   6  10
ENDBRANCH   3   5
ENDBRANCH   2   3
ENDBRANCH   1   2
BRANCH   1  29
ATOM     29  C   UNL A   1      32.983  26.995  22.696  1.00  0.00     0.202 C 
BRANCH  29  30
ATOM     30  O   UNL A   1      33.171  28.106  23.573  1.00  0.00    -0.374 OA
BRANCH  30  31
ATOM     31  C   UNL A   1      33.684  27.852  24.884  1.00  0.00     0.202 C 
BRANCH  31  32
ATOM     32  C   UNL A   1      33.597  29.005  25.891  1.00  0.00     0.261 C 
BRANCH  32  33
ATOM     33  O   UNL A   1      34.416  28.791  27.056  1.00  0.00    -0.460 OA
BRANCH  33  34
ATOM     34  C   UNL A   1      34.763  29.917  27.725  1.00  0.00     0.338 C 
ATOM     35  O   UNL A   1      34.045  30.854  28.030  1.00  0.00    -0.246 OA
BRANCH  34  36
ATOM     36  C   UNL A   1      36.155  29.810  28.199  1.00  0.00     0.060 A 
ATOM     37  C   UNL A   1      37.182  30.033  27.273  1.00  0.00     0.016 A 
ATOM     38  C   UNL A   1      36.445  29.395  29.498  1.00  0.00     0.016 A 
ATOM     39  C   UNL A   1      38.509  29.797  27.630  1.00  0.00     0.010 A 
ATOM     40  C   UNL A   1      37.774  29.142  29.850  1.00  0.00     0.010 A 
ATOM     41  C   UNL A   1      38.805  29.307  28.907  1.00  0.00    -0.014 A 
BRANCH  41  42
ATOM     42  C   UNL A   1      40.162  28.796  29.215  1.00  0.00     0.031 A 
ATOM     43  C   UNL A   1      41.124  29.701  29.932  1.00  0.00     0.074 A 
ATOM     44  C   UNL A   1      40.538  27.559  28.851  1.00  0.00     0.049 A 
ATOM     45  N   UNL A   1      42.397  29.534  30.179  1.00  0.00    -0.248 NA
ATOM     46  C   UNL A   1      40.573  30.973  30.433  1.00  0.00     0.031 C 
ATOM     47  C   UNL A   1      39.680  26.570  28.204  1.00  0.00     0.029 A 
ATOM     48  N   UNL A   1      41.756  26.935  28.957  1.00  0.00    -0.354 N 
ATOM     49  C   UNL A   1      42.805  30.682  30.844  1.00  0.00     0.074 A 
ATOM     50  C   UNL A   1      41.649  31.545  30.953  1.00  0.00     0.031 C 
ATOM     51  C   UNL A   1      40.406  25.468  27.946  1.00  0.00     0.029 A 
ATOM     52  C   UNL A   1      41.786  25.694  28.372  1.00  0.00     0.049 A 
ATOM     53  H   UNL A   1      42.532  27.339  29.409  1.00  0.00     0.167 HD
ATOM     54  C   UNL A   1      44.034  30.989  31.321  1.00  0.00     0.037 A 
ATOM     55  C   UNL A   1      42.821  24.854  28.174  1.00  0.00     0.037 A 
ATOM     56  C   UNL A   1      45.180  30.127  31.215  1.00  0.00     0.049 A 
ATOM     57  C   UNL A   1      44.196  25.246  28.646  1.00  0.00     0.074 A 
ATOM     58  C   UNL A   1      46.469  30.345  31.667  1.00  0.00     0.029 A 
ATOM     59  N   UNL A   1      45.171  28.880  30.609  1.00  0.00    -0.354 N 
ATOM     60  N   UNL A   1      44.575  26.335  29.272  1.00  0.00    -0.248 NA
ATOM     61  C   UNL A   1      45.288  24.298  28.382  1.00  0.00     0.031 C 
ATOM     62  C   UNL A   1      47.250  29.244  31.302  1.00  0.00     0.029 A 
ATOM     63  C   UNL A   1      46.437  28.323  30.661  1.00  0.00     0.049 A 
ATOM     64  H   UNL A   1      44.383  28.454  30.201  1.00  0.00     0.167 HD
ATOM     65  C   UNL A   1      45.937  26.185  29.508  1.00  0.00     0.074 A 
ATOM     66  C   UNL A   1      46.319  24.904  28.954  1.00  0.00     0.031 C 
ATOM     67  C   UNL A   1      46.791  27.032  30.131  1.00  0.00     0.037 A 
BRANCH  54  68
ATOM     68  C   UNL A   1      44.209  32.328  31.972  1.00  0.00     0.057 A 
ATOM     69  C   UNL A   1      44.571  33.465  31.238  1.00  0.00     0.134 A 
ATOM     70  C   UNL A   1      43.986  32.487  33.345  1.00  0.00     0.134 A 
ATOM     71  F   UNL A   1      44.815  33.376  29.922  1.00  0.00    -0.206 F 
ATOM     72  C   UNL A   1      44.723  34.709  31.853  1.00  0.00     0.040 A 
ATOM     73  C   UNL A   1      44.113  33.730  33.966  1.00  0.00     0.040 A 
ATOM     74  F   UNL A   1      43.635  31.438  34.104  1.00  0.00    -0.206 F 
ATOM     75  C   UNL A   1      44.488  34.845  33.219  1.00  0.00     0.006 A 
ENDBRANCH  54  68
BRANCH  55  76
ATOM     76  C   UNL A   1      42.606  23.565  27.470  1.00  0.00     0.057 A 
ATOM     77  C   UNL A   1      42.286  22.399  28.174  1.00  0.00     0.134 A 
ATOM     78  C   UNL A   1      42.729  23.465  26.079  1.00  0.00     0.134 A 
ATOM     79  F   UNL A   1      42.177  22.428  29.510  1.00  0.00    -0.206 F 
ATOM     80  C   UNL A   1      42.110  21.178  27.523  1.00  0.00     0.040 A 
ATOM     81  C   UNL A   1      42.534  22.254  25.412  1.00  0.00     0.040 A 
ATOM     82  F   UNL A   1      43.036  24.546  25.346  1.00  0.00    -0.206 F 
ATOM     83  C   UNL A   1      42.229  21.104  26.137  1.00  0.00     0.006 A 
ENDBRANCH  55  76
BRANCH  67  84
ATOM     84  C   UNL A   1      48.210  26.583  30.308  1.00  0.00     0.057 A 
ATOM     85  C   UNL A   1      49.213  26.920  29.392  1.00  0.00     0.134 A 
ATOM     86  C   UNL A   1      48.588  25.873  31.455  1.00  0.00     0.134 A 
ATOM     87  F   UNL A   1      48.913  27.589  28.270  1.00  0.00    -0.206 F 
ATOM     88  C   UNL A   1      50.545  26.560  29.609  1.00  0.00     0.040 A 
ATOM     89  C   UNL A   1      49.918  25.527  31.693  1.00  0.00     0.040 A 
ATOM     90  F   UNL A   1      47.674  25.530  32.375  1.00  0.00    -0.206 F 
ATOM     91  C   UNL A   1      50.901  25.870  30.768  1.00  0.00     0.006 A 
ENDBRANCH  67  84
ENDBRANCH  41  42
ENDBRANCH  34  36
ENDBRANCH  33  34
ENDBRANCH  32  33
ENDBRANCH  31  32
ENDBRANCH  30  31
ENDBRANCH  29  30
ENDBRANCH   1  29
TORSDOF 20
ENDMDL
MODEL 3
REMARK VINA RESULT:     -10.6      1.652      6.298
REMARK SMILES COc1ccc(CCc2nnc(NC(=O)[C@@H]3[C@@H](C(=O)OCCOCCOC(=O)c4ccc(-c5c6nc(c(-c7c(F)cccc7F)c7ccc([nH]7)c(-c7c(F)cccc7F)c7nc(c(-c8c(F)cccc8F)c8ccc5[nH]8)C=C7)C=C6)cc4)C3(C)C)s2)cc1
REMARK SMILES IDX 21 1 20 2 18 3 19 4 17 5 16 6 83 7 84 8 85 9 14 10 13 11
REMARK SMILES IDX 15 13 12 14 9 15 10 16 86 17 11 18 8 19 7 20 6 21 3 22 4 23
REMARK SMILES IDX 88 24 5 25 87 26 2 27 1 28 22 29 23 30 24 31 25 32 26 33
REMARK SMILES IDX 27 34 28 35 29 36 30 37 82 38 31 39 81 40 32 41 33 42 34 43
REMARK SMILES IDX 75 44 35 45 80 46 74 47 76 48 36 49 79 50 73 51 72 52 37 54
REMARK SMILES IDX 63 55 46 56 62 57 47 58 50 59 61 60 77 61 48 62 49 63 60 65
REMARK SMILES IDX 78 66 51 67 38 68 39 69 44 70 40 71 41 72 43 73 45 74 42 75
REMARK SMILES IDX 64 76 65 77 70 78 66 79 67 80 69 81 71 82 68 83 52 84 53 85
REMARK SMILES IDX 58 86 54 87 55 88 57 89 59 90 56 91
REMARK H PARENT 13 12 76 53 50 64
REMARK Flexibility Score: inf
ROOT
ATOM      1  C   UNL A   1      38.994  21.559  25.969  1.00  0.00     0.261 C 
ENDROOT
BRANCH   1   2
ATOM      2  O   UNL A   1      38.026  20.708  25.347  1.00  0.00    -0.463 OA
BRANCH   2   3
ATOM      3  C   UNL A   1      37.008  21.360  24.737  1.00  0.00     0.310 C 
ATOM      4  O   UNL A   1      37.086  22.032  23.720  1.00  0.00    -0.252 OA
BRANCH   3   5
ATOM      5  C   UNL A   1      35.699  21.037  25.349  1.00  0.00     0.118 C 
ATOM      6  C   UNL A   1      34.478  21.610  24.708  1.00  0.00     0.100 C 
ATOM      7  C   UNL A   1      34.819  22.008  26.144  1.00  0.00    -0.009 C 
ATOM      8  C   UNL A   1      35.290  23.422  26.392  1.00  0.00     0.013 C 
ATOM      9  C   UNL A   1      34.028  21.460  27.303  1.00  0.00     0.013 C 
BRANCH   6  10
ATOM     10  C   UNL A   1      33.241  20.924  24.251  1.00  0.00     0.230 C 
ATOM     11  N   UNL A   1      32.155  21.427  23.590  1.00  0.00    -0.300 N 
ATOM     12  H   UNL A   1      31.510  20.736  23.315  1.00  0.00     0.172 HD
ATOM     13  O   UNL A   1      33.213  19.702  24.431  1.00  0.00    -0.274 OA
BRANCH  11  14
ATOM     14  C   UNL A   1      31.785  22.683  23.236  1.00  0.00     0.212 A 
ATOM     15  C   UNL A   1      32.025  24.917  22.484  1.00  0.00     0.119 A 
ATOM     16  N   UNL A   1      30.894  24.726  23.131  1.00  0.00    -0.142 NA
ATOM     17  S   UNL A   1      32.900  23.461  22.190  1.00  0.00    -0.080 S 
ATOM     18  N   UNL A   1      30.767  23.428  23.575  1.00  0.00    -0.120 NA
BRANCH  15  19
ATOM     19  C   UNL A   1      32.574  26.257  22.104  1.00  0.00     0.074 C 
BRANCH  19  20
ATOM     20  C   UNL A   1      32.637  27.232  23.297  1.00  0.00     0.043 C 
BRANCH  20  21
ATOM     21  C   UNL A   1      31.532  28.270  23.366  1.00  0.00    -0.047 A 
ATOM     22  C   UNL A   1      29.530  30.261  23.449  1.00  0.00     0.118 A 
ATOM     23  C   UNL A   1      29.541  29.318  22.429  1.00  0.00     0.046 A 
ATOM     24  C   UNL A   1      30.510  30.210  24.439  1.00  0.00     0.046 A 
ATOM     25  C   UNL A   1      30.547  28.352  22.376  1.00  0.00     0.007 A 
ATOM     26  C   UNL A   1      31.504  29.221  24.396  1.00  0.00     0.007 A 
BRANCH  22  27
ATOM     27  O   UNL A   1      28.499  31.157  23.412  1.00  0.00    -0.497 OA
ATOM     28  C   UNL A   1      28.360  31.850  22.177  1.00  0.00     0.278 C 
ENDBRANCH  22  27
ENDBRANCH  20  21
ENDBRANCH  19  20
ENDBRANCH  15  19
ENDBRANCH  11  14
ENDBRANCH   6  10
ENDBRANCH   3   5
ENDBRANCH   2   3
ENDBRANCH   1   2
BRANCH   1  29
ATOM     29  C   UNL A   1      40.264  20.758  26.259  1.00  0.00     0.202 C 
BRANCH  29  30
ATOM     30  O   UNL A   1      40.950  21.096  27.466  1.00  0.00    -0.374 OA
BRANCH  30  31
ATOM     31  C   UNL A   1      42.154  21.860  27.366  1.00  0.00     0.202 C 
BRANCH  31  32
ATOM     32  C   UNL A   1      42.167  22.989  26.327  1.00  0.00     0.261 C 
BRANCH  32  33
ATOM     33  O   UNL A   1      42.663  24.232  26.860  1.00  0.00    -0.460 OA
BRANCH  33  34
ATOM     34  C   UNL A   1      42.241  25.341  26.207  1.00  0.00     0.338 C 
ATOM     35  O   UNL A   1      42.217  25.534  25.004  1.00  0.00    -0.246 OA
BRANCH  34  36
ATOM     36  C   UNL A   1      41.642  26.289  27.164  1.00  0.00     0.060 A 
ATOM     37  C   UNL A   1      42.158  27.591  27.207  1.00  0.00     0.016 A 
ATOM     38  C   UNL A   1      40.669  25.878  28.075  1.00  0.00     0.016 A 
ATOM     39  C   UNL A   1      41.732  28.479  28.194  1.00  0.00     0.010 A 
ATOM     40  C   UNL A   1      40.255  26.763  29.074  1.00  0.00     0.010 A 
ATOM     41  C   UNL A   1      40.812  28.053  29.159  1.00  0.00    -0.014 A 
BRANCH  41  42
ATOM     42  C   UNL A   1      40.554  28.879  30.362  1.00  0.00     0.031 A 
ATOM     43  C   UNL A   1      39.463  29.910  30.305  1.00  0.00     0.074 A 
ATOM     44  C   UNL A   1      41.286  28.728  31.479  1.00  0.00     0.049 A 
ATOM     45  N   UNL A   1      39.150  30.840  31.169  1.00  0.00    -0.248 NA
ATOM     46  C   UNL A   1      38.611  29.892  29.103  1.00  0.00     0.031 C 
ATOM     47  C   UNL A   1      42.331  27.726  31.677  1.00  0.00     0.029 A 
ATOM     48  N   UNL A   1      41.272  29.440  32.652  1.00  0.00    -0.354 N 
ATOM     49  C   UNL A   1      38.083  31.529  30.610  1.00  0.00     0.074 A 
ATOM     50  C   UNL A   1      37.806  30.920  29.327  1.00  0.00     0.031 C 
ATOM     51  C   UNL A   1      42.878  27.904  32.892  1.00  0.00     0.029 A 
ATOM     52  C   UNL A   1      42.249  29.056  33.536  1.00  0.00     0.049 A 
ATOM     53  H   UNL A   1      40.623  30.157  32.840  1.00  0.00     0.167 HD
ATOM     54  C   UNL A   1      37.395  32.577  31.121  1.00  0.00     0.037 A 
ATOM     55  C   UNL A   1      42.614  29.598  34.714  1.00  0.00     0.037 A 
ATOM     56  C   UNL A   1      37.670  33.177  32.399  1.00  0.00     0.049 A 
ATOM     57  C   UNL A   1      41.883  30.810  35.231  1.00  0.00     0.074 A 
ATOM     58  C   UNL A   1      37.029  34.242  33.008  1.00  0.00     0.029 A 
ATOM     59  N   UNL A   1      38.672  32.764  33.262  1.00  0.00    -0.354 N 
ATOM     60  N   UNL A   1      40.876  31.458  34.696  1.00  0.00    -0.248 NA
ATOM     61  C   UNL A   1      42.341  31.368  36.512  1.00  0.00     0.031 C 
ATOM     62  C   UNL A   1      37.669  34.496  34.225  1.00  0.00     0.029 A 
ATOM     63  C   UNL A   1      38.679  33.562  34.393  1.00  0.00     0.049 A 
ATOM     64  H   UNL A   1      39.289  32.014  33.096  1.00  0.00     0.167 HD
ATOM     65  C   UNL A   1      40.558  32.474  35.590  1.00  0.00     0.074 A 
ATOM     66  C   UNL A   1      41.481  32.360  36.699  1.00  0.00     0.031 C 
ATOM     67  C   UNL A   1      39.587  33.413  35.500  1.00  0.00     0.037 A 
BRANCH  54  68
ATOM     68  C   UNL A   1      36.300  33.161  30.281  1.00  0.00     0.057 A 
ATOM     69  C   UNL A   1      36.567  34.047  29.230  1.00  0.00     0.134 A 
ATOM     70  C   UNL A   1      34.963  32.811  30.511  1.00  0.00     0.134 A 
ATOM     71  F   UNL A   1      37.825  34.435  28.970  1.00  0.00    -0.206 F 
ATOM     72  C   UNL A   1      35.540  34.580  28.448  1.00  0.00     0.040 A 
ATOM     73  C   UNL A   1      33.930  33.319  29.721  1.00  0.00     0.040 A 
ATOM     74  F   UNL A   1      34.640  31.966  31.500  1.00  0.00    -0.206 F 
ATOM     75  C   UNL A   1      34.218  34.210  28.689  1.00  0.00     0.006 A 
ENDBRANCH  54  68
BRANCH  55  76
ATOM     76  C   UNL A   1      43.745  29.018  35.479  1.00  0.00     0.057 A 
ATOM     77  C   UNL A   1      45.065  29.412  35.233  1.00  0.00     0.134 A 
ATOM     78  C   UNL A   1      43.536  28.044  36.464  1.00  0.00     0.134 A 
ATOM     79  F   UNL A   1      45.330  30.323  34.285  1.00  0.00    -0.206 F 
ATOM     80  C   UNL A   1      46.137  28.850  35.928  1.00  0.00     0.040 A 
ATOM     81  C   UNL A   1      44.596  27.489  37.182  1.00  0.00     0.040 A 
ATOM     82  F   UNL A   1      42.294  27.622  36.746  1.00  0.00    -0.206 F 
ATOM     83  C   UNL A   1      45.903  27.889  36.909  1.00  0.00     0.006 A 
ENDBRANCH  55  76
BRANCH  67  84
ATOM     84  C   UNL A   1      39.422  34.357  36.654  1.00  0.00     0.057 A 
ATOM     85  C   UNL A   1      38.678  34.015  37.789  1.00  0.00     0.134 A 
ATOM     86  C   UNL A   1      40.086  35.590  36.658  1.00  0.00     0.134 A 
ATOM     87  F   UNL A   1      38.011  32.853  37.841  1.00  0.00    -0.206 F 
ATOM     88  C   UNL A   1      38.595  34.872  38.888  1.00  0.00     0.040 A 
ATOM     89  C   UNL A   1      40.029  36.445  37.758  1.00  0.00     0.040 A 
ATOM     90  F   UNL A   1      40.823  35.970  35.603  1.00  0.00    -0.206 F 
ATOM     91  C   UNL A   1      39.281  36.087  38.878  1.00  0.00     0.006 A 
ENDBRANCH  67  84
ENDBRANCH  41  42
ENDBRANCH  34  36
ENDBRANCH  33  34
ENDBRANCH  32  33
ENDBRANCH  31  32
ENDBRANCH  30  31
ENDBRANCH  29  30
ENDBRANCH   1  29
TORSDOF 20
ENDMDL
