MODEL 1
REMARK VINA RESULT:     -12.1      0.000      0.000
REMARK SMILES NS(=O)(=O)c1ccc(-n2nc(C(F)(F)F)cc2-c2ccc(CC(=O)OCCOCCOC(=O)c3ccc(-c4c5nc(c(-c6c(F)cccc6F)c6ccc([nH]6)c(-c6c(F)cccc6F)c6nc(c(-c7c(F)cccc7F)c7ccc4[nH]7)C=C6)C=C5)cc3)cc2)cc1
REMARK SMILES IDX 26 1 25 2 23 3 24 4 22 5 21 6 18 7 19 8 89 9 20 10 88 11
REMARK SMILES IDX 17 12 9 13 10 14 11 15 16 16 8 17 5 18 6 19 91 20 7 21 90 22
REMARK SMILES IDX 2 23 3 24 4 25 1 26 12 29 13 30 14 31 15 32 27 33 28 34
REMARK SMILES IDX 29 35 30 36 31 37 32 38 33 39 34 40 35 41 87 42 36 43 86 44
REMARK SMILES IDX 37 45 38 46 39 47 80 48 40 49 85 50 79 51 81 52 41 53 84 54
REMARK SMILES IDX 78 55 77 56 42 58 68 59 51 60 67 61 52 62 55 63 66 64 82 65
REMARK SMILES IDX 53 66 54 67 65 69 83 70 56 71 43 72 44 73 49 74 45 75 46 76
REMARK SMILES IDX 48 77 50 78 47 79 69 80 70 81 75 82 71 83 72 84 74 85 76 86
REMARK SMILES IDX 73 87 57 88 58 89 63 90 59 91 60 92 62 93 64 94 61 95
REMARK H PARENT 1 27 1 28 81 57 55 68
REMARK Flexibility Score: inf
ROOT
ATOM      1  C   UNL A   1      33.682  33.397  28.640  1.00  0.00     0.261 C 
ENDROOT
BRANCH   1   2
ATOM      2  O   UNL A   1      33.429  32.250  27.805  1.00  0.00    -0.463 OA
BRANCH   2   3
ATOM      3  C   UNL A   1      34.478  31.386  27.712  1.00  0.00     0.310 C 
ATOM      4  O   UNL A   1      35.572  31.678  27.237  1.00  0.00    -0.252 OA
BRANCH   3   5
ATOM      5  C   UNL A   1      34.181  29.973  28.143  1.00  0.00     0.158 C 
BRANCH   5   6
ATOM      6  C   UNL A   1      33.622  28.969  27.160  1.00  0.00    -0.037 A 
ATOM      7  C   UNL A   1      32.801  26.797  25.539  1.00  0.00     0.000 A 
ATOM      8  C   UNL A   1      32.060  27.179  26.668  1.00  0.00     0.010 A 
ATOM      9  C   UNL A   1      33.951  27.526  25.220  1.00  0.00     0.010 A 
ATOM     10  C   UNL A   1      32.454  28.261  27.460  1.00  0.00     0.005 A 
ATOM     11  C   UNL A   1      34.354  28.604  26.020  1.00  0.00     0.005 A 
BRANCH   7  12
ATOM     12  C   UNL A   1      32.383  25.644  24.728  1.00  0.00     0.075 A 
ATOM     13  N   UNL A   1      31.266  25.604  23.890  1.00  0.00    -0.233 N 
ATOM     14  N   UNL A   1      30.946  24.331  23.543  1.00  0.00    -0.163 NA
ATOM     15  C   UNL A   1      32.007  23.592  23.919  1.00  0.00     0.167 A 
ATOM     16  C   UNL A   1      32.906  24.366  24.694  1.00  0.00     0.064 A 
BRANCH  13  17
ATOM     17  C   UNL A   1      30.500  26.712  23.431  1.00  0.00     0.065 A 
ATOM     18  C   UNL A   1      29.120  29.035  22.681  1.00  0.00     0.082 A 
ATOM     19  C   UNL A   1      30.432  28.825  22.270  1.00  0.00     0.024 A 
ATOM     20  C   UNL A   1      28.473  28.055  23.435  1.00  0.00     0.024 A 
ATOM     21  C   UNL A   1      31.118  27.671  22.628  1.00  0.00     0.030 A 
ATOM     22  C   UNL A   1      29.160  26.882  23.801  1.00  0.00     0.030 A 
BRANCH  18  23
ATOM     23  S   UNL A   1      28.240  30.456  22.064  1.00  0.00     0.238 S 
ATOM     24  O   UNL A   1      27.235  30.799  23.006  1.00  0.00    -0.207 OA
ATOM     25  O   UNL A   1      27.978  30.238  20.647  1.00  0.00    -0.207 OA
BRANCH  23  26
ATOM     26  N   UNL A   1      29.380  31.696  22.094  1.00  0.00    -0.225 NA
ATOM     27  H   UNL A   1      30.310  31.306  21.939  1.00  0.00     0.137 HD
ATOM     28  H   UNL A   1      29.353  32.161  23.001  1.00  0.00     0.137 HD
ENDBRANCH  23  26
ENDBRANCH  18  23
ENDBRANCH  13  17
BRANCH  15  29
ATOM     29  C   UNL A   1      32.169  22.134  23.579  1.00  0.00     0.435 C 
ATOM     30  F   UNL A   1      31.592  21.781  22.400  1.00  0.00    -0.164 F 
ATOM     31  F   UNL A   1      33.481  21.777  23.498  1.00  0.00    -0.164 F 
ATOM     32  F   UNL A   1      31.618  21.332  24.533  1.00  0.00    -0.164 F 
ENDBRANCH  15  29
ENDBRANCH   7  12
ENDBRANCH   5   6
ENDBRANCH   3   5
ENDBRANCH   2   3
ENDBRANCH   1   2
BRANCH   1  33
ATOM     33  C   UNL A   1      34.429  34.562  27.979  1.00  0.00     0.202 C 
BRANCH  33  34
ATOM     34  O   UNL A   1      34.435  35.818  28.641  1.00  0.00    -0.374 OA
BRANCH  34  35
ATOM     35  C   UNL A   1      33.182  36.402  28.973  1.00  0.00     0.202 C 
BRANCH  35  36
ATOM     36  C   UNL A   1      32.973  36.822  30.419  1.00  0.00     0.261 C 
BRANCH  36  37
ATOM     37  O   UNL A   1      33.804  36.096  31.341  1.00  0.00    -0.460 OA
BRANCH  37  38
ATOM     38  C   UNL A   1      33.145  35.261  32.192  1.00  0.00     0.338 C 
ATOM     39  O   UNL A   1      31.963  35.318  32.490  1.00  0.00    -0.246 OA
BRANCH  38  40
ATOM     40  C   UNL A   1      34.134  34.484  32.977  1.00  0.00     0.060 A 
ATOM     41  C   UNL A   1      35.276  35.209  33.335  1.00  0.00     0.016 A 
ATOM     42  C   UNL A   1      34.174  33.093  32.851  1.00  0.00     0.016 A 
ATOM     43  C   UNL A   1      36.512  34.606  33.187  1.00  0.00     0.010 A 
ATOM     44  C   UNL A   1      35.415  32.500  32.693  1.00  0.00     0.010 A 
ATOM     45  C   UNL A   1      36.571  33.289  32.729  1.00  0.00    -0.014 A 
BRANCH  45  46
ATOM     46  C   UNL A   1      37.873  32.675  32.485  1.00  0.00     0.031 A 
ATOM     47  C   UNL A   1      38.697  32.709  33.687  1.00  0.00     0.074 A 
ATOM     48  C   UNL A   1      38.325  32.118  31.340  1.00  0.00     0.049 A 
ATOM     49  N   UNL A   1      39.707  33.492  33.850  1.00  0.00    -0.248 NA
ATOM     50  C   UNL A   1      38.267  31.987  34.890  1.00  0.00     0.031 C 
ATOM     51  C   UNL A   1      37.606  32.039  30.088  1.00  0.00     0.029 A 
ATOM     52  N   UNL A   1      39.482  31.445  31.042  1.00  0.00    -0.354 N 
ATOM     53  C   UNL A   1      40.225  33.118  35.068  1.00  0.00     0.074 A 
ATOM     54  C   UNL A   1      39.187  32.400  35.764  1.00  0.00     0.031 C 
ATOM     55  C   UNL A   1      38.176  31.145  29.256  1.00  0.00     0.029 A 
ATOM     56  C   UNL A   1      39.417  30.706  29.854  1.00  0.00     0.049 A 
ATOM     57  H   UNL A   1      40.285  31.478  31.611  1.00  0.00     0.167 HD
ATOM     58  C   UNL A   1      41.571  33.056  35.212  1.00  0.00     0.037 A 
ATOM     59  C   UNL A   1      40.320  29.844  29.320  1.00  0.00     0.037 A 
ATOM     60  C   UNL A   1      42.268  33.837  34.218  1.00  0.00     0.049 A 
ATOM     61  C   UNL A   1      41.638  30.268  29.822  1.00  0.00     0.074 A 
ATOM     62  C   UNL A   1      42.212  35.152  33.800  1.00  0.00     0.029 A 
ATOM     63  N   UNL A   1      42.933  33.144  33.238  1.00  0.00    -0.354 N 
ATOM     64  N   UNL A   1      42.247  31.343  29.410  1.00  0.00    -0.248 NA
ATOM     65  C   UNL A   1      42.139  29.698  31.062  1.00  0.00     0.031 C 
ATOM     66  C   UNL A   1      42.562  35.141  32.419  1.00  0.00     0.029 A 
ATOM     67  C   UNL A   1      42.852  33.829  32.053  1.00  0.00     0.049 A 
ATOM     68  H   UNL A   1      43.397  32.286  33.367  1.00  0.00     0.167 HD
ATOM     69  C   UNL A   1      42.834  31.845  30.554  1.00  0.00     0.074 A 
ATOM     70  C   UNL A   1      42.898  30.716  31.473  1.00  0.00     0.031 C 
ATOM     71  C   UNL A   1      42.901  33.192  30.754  1.00  0.00     0.037 A 
BRANCH  58  72
ATOM     72  C   UNL A   1      42.204  31.922  35.958  1.00  0.00     0.057 A 
ATOM     73  C   UNL A   1      43.106  32.198  36.986  1.00  0.00     0.134 A 
ATOM     74  C   UNL A   1      42.142  30.575  35.536  1.00  0.00     0.134 A 
ATOM     75  F   UNL A   1      43.301  33.458  37.403  1.00  0.00    -0.206 F 
ATOM     76  C   UNL A   1      43.889  31.196  37.567  1.00  0.00     0.040 A 
ATOM     77  C   UNL A   1      42.865  29.557  36.153  1.00  0.00     0.040 A 
ATOM     78  F   UNL A   1      41.461  30.195  34.446  1.00  0.00    -0.206 F 
ATOM     79  C   UNL A   1      43.758  29.870  37.162  1.00  0.00     0.006 A 
ENDBRANCH  58  72
BRANCH  59  80
ATOM     80  C   UNL A   1      40.152  28.672  28.421  1.00  0.00     0.057 A 
ATOM     81  C   UNL A   1      40.855  28.561  27.210  1.00  0.00     0.134 A 
ATOM     82  C   UNL A   1      39.515  27.501  28.857  1.00  0.00     0.134 A 
ATOM     83  F   UNL A   1      41.523  29.609  26.706  1.00  0.00    -0.206 F 
ATOM     84  C   UNL A   1      40.962  27.350  26.510  1.00  0.00     0.040 A 
ATOM     85  C   UNL A   1      39.603  26.286  28.164  1.00  0.00     0.040 A 
ATOM     86  F   UNL A   1      38.853  27.479  30.019  1.00  0.00    -0.206 F 
ATOM     87  C   UNL A   1      40.350  26.201  26.997  1.00  0.00     0.006 A 
ENDBRANCH  59  80
BRANCH  71  88
ATOM     88  C   UNL A   1      42.791  34.080  29.545  1.00  0.00     0.057 A 
ATOM     89  C   UNL A   1      41.618  34.727  29.125  1.00  0.00     0.134 A 
ATOM     90  C   UNL A   1      43.964  34.377  28.840  1.00  0.00     0.134 A 
ATOM     91  F   UNL A   1      40.463  34.571  29.786  1.00  0.00    -0.206 F 
ATOM     92  C   UNL A   1      41.613  35.601  28.032  1.00  0.00     0.040 A 
ATOM     93  C   UNL A   1      43.977  35.274  27.769  1.00  0.00     0.040 A 
ATOM     94  F   UNL A   1      45.131  33.828  29.210  1.00  0.00    -0.206 F 
ATOM     95  C   UNL A   1      42.797  35.883  27.356  1.00  0.00     0.006 A 
ENDBRANCH  71  88
ENDBRANCH  45  46
ENDBRANCH  38  40
ENDBRANCH  37  38
ENDBRANCH  36  37
ENDBRANCH  35  36
ENDBRANCH  34  35
ENDBRANCH  33  34
ENDBRANCH   1  33
TORSDOF 20
ENDMDL
MODEL 2
REMARK VINA RESULT:     -11.7      6.039     10.577
REMARK SMILES NS(=O)(=O)c1ccc(-n2nc(C(F)(F)F)cc2-c2ccc(CC(=O)OCCOCCOC(=O)c3ccc(-c4c5nc(c(-c6c(F)cccc6F)c6ccc([nH]6)c(-c6c(F)cccc6F)c6nc(c(-c7c(F)cccc7F)c7ccc4[nH]7)C=C6)C=C5)cc3)cc2)cc1
REMARK SMILES IDX 26 1 25 2 23 3 24 4 22 5 21 6 18 7 19 8 89 9 20 10 88 11
REMARK SMILES IDX 17 12 9 13 10 14 11 15 16 16 8 17 5 18 6 19 91 20 7 21 90 22
REMARK SMILES IDX 2 23 3 24 4 25 1 26 12 29 13 30 14 31 15 32 27 33 28 34
REMARK SMILES IDX 29 35 30 36 31 37 32 38 33 39 34 40 35 41 87 42 36 43 86 44
REMARK SMILES IDX 37 45 38 46 39 47 80 48 40 49 85 50 79 51 81 52 41 53 84 54
REMARK SMILES IDX 78 55 77 56 42 58 68 59 51 60 67 61 52 62 55 63 66 64 82 65
REMARK SMILES IDX 53 66 54 67 65 69 83 70 56 71 43 72 44 73 49 74 45 75 46 76
REMARK SMILES IDX 48 77 50 78 47 79 69 80 70 81 75 82 71 83 72 84 74 85 76 86
REMARK SMILES IDX 73 87 57 88 58 89 63 90 59 91 60 92 62 93 64 94 61 95
REMARK H PARENT 1 27 1 28 81 57 55 68
REMARK Flexibility Score: inf
ROOT
ATOM      1  C   UNL A   1      40.728  21.434  27.429  1.00  0.00     0.261 C 
ENDROOT
BRANCH   1   2
ATOM      2  O   UNL A   1      40.370  22.230  26.282  1.00  0.00    -0.463 OA
BRANCH   2   3
ATOM      3  C   UNL A   1      39.048  22.178  25.959  1.00  0.00     0.310 C 
ATOM      4  O   UNL A   1      38.482  21.175  25.532  1.00  0.00    -0.252 OA
BRANCH   3   5
ATOM      5  C   UNL A   1      38.314  23.490  26.057  1.00  0.00     0.158 C 
BRANCH   5   6
ATOM      6  C   UNL A   1      36.863  23.595  25.648  1.00  0.00    -0.037 A 
ATOM      7  C   UNL A   1      34.203  24.216  24.900  1.00  0.00     0.000 A 
ATOM      8  C   UNL A   1      35.206  24.046  23.933  1.00  0.00     0.010 A 
ATOM      9  C   UNL A   1      34.542  24.056  26.246  1.00  0.00     0.010 A 
ATOM     10  C   UNL A   1      36.516  23.723  24.298  1.00  0.00     0.005 A 
ATOM     11  C   UNL A   1      35.858  23.744  26.616  1.00  0.00     0.005 A 
BRANCH   7  12
ATOM     12  C   UNL A   1      32.835  24.575  24.497  1.00  0.00     0.075 A 
ATOM     13  N   UNL A   1      31.939  23.736  23.828  1.00  0.00    -0.233 N 
ATOM     14  N   UNL A   1      30.901  24.432  23.299  1.00  0.00    -0.163 NA
ATOM     15  C   UNL A   1      30.981  25.653  23.862  1.00  0.00     0.167 A 
ATOM     16  C   UNL A   1      32.191  25.793  24.584  1.00  0.00     0.064 A 
BRANCH  13  17
ATOM     17  C   UNL A   1      32.045  22.326  23.667  1.00  0.00     0.065 A 
ATOM     18  C   UNL A   1      32.494  19.573  23.384  1.00  0.00     0.082 A 
ATOM     19  C   UNL A   1      32.559  20.178  24.635  1.00  0.00     0.024 A 
ATOM     20  C   UNL A   1      32.157  20.340  22.269  1.00  0.00     0.024 A 
ATOM     21  C   UNL A   1      32.326  21.539  24.784  1.00  0.00     0.030 A 
ATOM     22  C   UNL A   1      31.918  21.720  22.411  1.00  0.00     0.030 A 
BRANCH  18  23
ATOM     23  S   UNL A   1      32.648  17.801  23.274  1.00  0.00     0.238 S 
ATOM     24  O   UNL A   1      34.017  17.463  23.438  1.00  0.00    -0.207 OA
ATOM     25  O   UNL A   1      31.834  17.352  22.151  1.00  0.00    -0.207 OA
BRANCH  23  26
ATOM     26  N   UNL A   1      31.837  17.228  24.635  1.00  0.00    -0.225 NA
ATOM     27  H   UNL A   1      31.116  16.566  24.347  1.00  0.00     0.137 HD
ATOM     28  H   UNL A   1      31.405  18.009  25.128  1.00  0.00     0.137 HD
ENDBRANCH  23  26
ENDBRANCH  18  23
ENDBRANCH  13  17
BRANCH  15  29
ATOM     29  C   UNL A   1      29.927  26.717  23.697  1.00  0.00     0.435 C 
ATOM     30  F   UNL A   1      29.996  27.374  22.509  1.00  0.00    -0.164 F 
ATOM     31  F   UNL A   1      28.670  26.201  23.788  1.00  0.00    -0.164 F 
ATOM     32  F   UNL A   1      30.016  27.667  24.669  1.00  0.00    -0.164 F 
ENDBRANCH  15  29
ENDBRANCH   7  12
ENDBRANCH   5   6
ENDBRANCH   3   5
ENDBRANCH   2   3
ENDBRANCH   1   2
BRANCH   1  33
ATOM     33  C   UNL A   1      42.223  21.145  27.609  1.00  0.00     0.202 C 
BRANCH  33  34
ATOM     34  O   UNL A   1      42.661  19.797  27.532  1.00  0.00    -0.374 OA
BRANCH  34  35
ATOM     35  C   UNL A   1      42.335  19.056  26.364  1.00  0.00     0.202 C 
BRANCH  35  36
ATOM     36  C   UNL A   1      43.413  18.926  25.300  1.00  0.00     0.261 C 
BRANCH  36  37
ATOM     37  O   UNL A   1      43.678  20.161  24.614  1.00  0.00    -0.460 OA
BRANCH  37  38
ATOM     38  C   UNL A   1      44.988  20.525  24.545  1.00  0.00     0.338 C 
ATOM     39  O   UNL A   1      45.946  19.838  24.860  1.00  0.00    -0.246 OA
BRANCH  38  40
ATOM     40  C   UNL A   1      45.079  21.993  24.364  1.00  0.00     0.060 A 
ATOM     41  C   UNL A   1      46.188  22.578  24.985  1.00  0.00     0.016 A 
ATOM     42  C   UNL A   1      43.917  22.731  24.121  1.00  0.00     0.016 A 
ATOM     43  C   UNL A   1      46.002  23.749  25.697  1.00  0.00     0.010 A 
ATOM     44  C   UNL A   1      43.736  23.897  24.845  1.00  0.00     0.010 A 
ATOM     45  C   UNL A   1      44.731  24.324  25.732  1.00  0.00    -0.014 A 
BRANCH  45  46
ATOM     46  C   UNL A   1      44.506  25.510  26.554  1.00  0.00     0.031 A 
ATOM     47  C   UNL A   1      45.594  26.467  26.394  1.00  0.00     0.074 A 
ATOM     48  C   UNL A   1      43.457  25.770  27.364  1.00  0.00     0.049 A 
ATOM     49  N   UNL A   1      46.498  26.691  27.285  1.00  0.00    -0.248 NA
ATOM     50  C   UNL A   1      45.847  27.076  25.083  1.00  0.00     0.031 C 
ATOM     51  C   UNL A   1      42.332  24.895  27.611  1.00  0.00     0.029 A 
ATOM     52  N   UNL A   1      43.116  26.879  28.096  1.00  0.00    -0.354 N 
ATOM     53  C   UNL A   1      47.246  27.715  26.751  1.00  0.00     0.074 A 
ATOM     54  C   UNL A   1      46.981  27.734  25.334  1.00  0.00     0.031 C 
ATOM     55  C   UNL A   1      41.313  25.565  28.184  1.00  0.00     0.029 A 
ATOM     56  C   UNL A   1      41.778  26.896  28.508  1.00  0.00     0.049 A 
ATOM     57  H   UNL A   1      43.754  27.597  28.313  1.00  0.00     0.167 HD
ATOM     58  C   UNL A   1      47.669  28.708  27.569  1.00  0.00     0.037 A 
ATOM     59  C   UNL A   1      41.078  27.873  29.139  1.00  0.00     0.037 A 
ATOM     60  C   UNL A   1      47.674  28.313  28.958  1.00  0.00     0.049 A 
ATOM     61  C   UNL A   1      42.065  28.658  29.900  1.00  0.00     0.074 A 
ATOM     62  C   UNL A   1      48.232  27.270  29.671  1.00  0.00     0.029 A 
ATOM     63  N   UNL A   1      46.709  28.862  29.763  1.00  0.00    -0.354 N 
ATOM     64  N   UNL A   1      42.649  28.219  30.978  1.00  0.00    -0.248 NA
ATOM     65  C   UNL A   1      42.695  29.806  29.267  1.00  0.00     0.031 C 
ATOM     66  C   UNL A   1      47.350  27.021  30.761  1.00  0.00     0.029 A 
ATOM     67  C   UNL A   1      46.306  27.941  30.696  1.00  0.00     0.049 A 
ATOM     68  H   UNL A   1      46.359  29.779  29.683  1.00  0.00     0.167 HD
ATOM     69  C   UNL A   1      43.941  28.691  30.866  1.00  0.00     0.074 A 
ATOM     70  C   UNL A   1      43.860  29.796  29.919  1.00  0.00     0.031 C 
ATOM     71  C   UNL A   1      44.988  27.928  31.294  1.00  0.00     0.037 A 
BRANCH  58  72
ATOM     72  C   UNL A   1      47.615  30.135  27.122  1.00  0.00     0.057 A 
ATOM     73  C   UNL A   1      48.763  30.925  27.214  1.00  0.00     0.134 A 
ATOM     74  C   UNL A   1      46.414  30.823  26.835  1.00  0.00     0.134 A 
ATOM     75  F   UNL A   1      49.938  30.382  27.564  1.00  0.00    -0.206 F 
ATOM     76  C   UNL A   1      48.721  32.309  27.022  1.00  0.00     0.040 A 
ATOM     77  C   UNL A   1      46.371  32.189  26.572  1.00  0.00     0.040 A 
ATOM     78  F   UNL A   1      45.216  30.227  26.894  1.00  0.00    -0.206 F 
ATOM     79  C   UNL A   1      47.527  32.942  26.684  1.00  0.00     0.006 A 
ENDBRANCH  58  72
BRANCH  59  80
ATOM     80  C   UNL A   1      39.629  28.205  29.140  1.00  0.00     0.057 A 
ATOM     81  C   UNL A   1      38.853  28.138  30.309  1.00  0.00     0.134 A 
ATOM     82  C   UNL A   1      39.031  28.868  28.058  1.00  0.00     0.134 A 
ATOM     83  F   UNL A   1      39.331  27.549  31.415  1.00  0.00    -0.206 F 
ATOM     84  C   UNL A   1      37.590  28.739  30.410  1.00  0.00     0.040 A 
ATOM     85  C   UNL A   1      37.765  29.465  28.139  1.00  0.00     0.040 A 
ATOM     86  F   UNL A   1      39.695  29.031  26.909  1.00  0.00    -0.206 F 
ATOM     87  C   UNL A   1      37.049  29.423  29.327  1.00  0.00     0.006 A 
ENDBRANCH  59  80
BRANCH  71  88
ATOM     88  C   UNL A   1      44.695  26.847  32.297  1.00  0.00     0.057 A 
ATOM     89  C   UNL A   1      44.437  25.504  31.981  1.00  0.00     0.134 A 
ATOM     90  C   UNL A   1      44.789  27.170  33.656  1.00  0.00     0.134 A 
ATOM     91  F   UNL A   1      44.410  25.081  30.710  1.00  0.00    -0.206 F 
ATOM     92  C   UNL A   1      44.249  24.538  32.977  1.00  0.00     0.040 A 
ATOM     93  C   UNL A   1      44.637  26.208  34.658  1.00  0.00     0.040 A 
ATOM     94  F   UNL A   1      45.073  28.426  34.033  1.00  0.00    -0.206 F 
ATOM     95  C   UNL A   1      44.358  24.888  34.320  1.00  0.00     0.006 A 
ENDBRANCH  71  88
ENDBRANCH  45  46
ENDBRANCH  38  40
ENDBRANCH  37  38
ENDBRANCH  36  37
ENDBRANCH  35  36
ENDBRANCH  34  35
ENDBRANCH  33  34
ENDBRANCH   1  33
TORSDOF 20
ENDMDL
MODEL 3
REMARK VINA RESULT:     -11.5      1.818      5.502
REMARK SMILES NS(=O)(=O)c1ccc(-n2nc(C(F)(F)F)cc2-c2ccc(CC(=O)OCCOCCOC(=O)c3ccc(-c4c5nc(c(-c6c(F)cccc6F)c6ccc([nH]6)c(-c6c(F)cccc6F)c6nc(c(-c7c(F)cccc7F)c7ccc4[nH]7)C=C6)C=C5)cc3)cc2)cc1
REMARK SMILES IDX 26 1 25 2 23 3 24 4 22 5 21 6 18 7 19 8 89 9 20 10 88 11
REMARK SMILES IDX 17 12 9 13 10 14 11 15 16 16 8 17 5 18 6 19 91 20 7 21 90 22
REMARK SMILES IDX 2 23 3 24 4 25 1 26 12 29 13 30 14 31 15 32 27 33 28 34
REMARK SMILES IDX 29 35 30 36 31 37 32 38 33 39 34 40 35 41 87 42 36 43 86 44
REMARK SMILES IDX 37 45 38 46 39 47 80 48 40 49 85 50 79 51 81 52 41 53 84 54
REMARK SMILES IDX 78 55 77 56 42 58 68 59 51 60 67 61 52 62 55 63 66 64 82 65
REMARK SMILES IDX 53 66 54 67 65 69 83 70 56 71 43 72 44 73 49 74 45 75 46 76
REMARK SMILES IDX 48 77 50 78 47 79 69 80 70 81 75 82 71 83 72 84 74 85 76 86
REMARK SMILES IDX 73 87 57 88 58 89 63 90 59 91 60 92 62 93 64 94 61 95
REMARK H PARENT 1 27 1 28 81 57 55 68
REMARK Flexibility Score: inf
ROOT
ATOM      1  C   UNL A   1      33.929  34.118  28.001  1.00  0.00     0.261 C 
ENDROOT
BRANCH   1   2
ATOM      2  O   UNL A   1      33.411  32.774  28.032  1.00  0.00    -0.463 OA
BRANCH   2   3
ATOM      3  C   UNL A   1      34.350  31.810  27.819  1.00  0.00     0.310 C 
ATOM      4  O   UNL A   1      35.414  32.001  27.237  1.00  0.00    -0.252 OA
BRANCH   3   5
ATOM      5  C   UNL A   1      33.953  30.425  28.258  1.00  0.00     0.158 C 
BRANCH   5   6
ATOM      6  C   UNL A   1      33.514  29.391  27.246  1.00  0.00    -0.037 A 
ATOM      7  C   UNL A   1      32.818  27.165  25.639  1.00  0.00     0.000 A 
ATOM      8  C   UNL A   1      31.888  27.743  26.518  1.00  0.00     0.010 A 
ATOM      9  C   UNL A   1      34.096  27.725  25.560  1.00  0.00     0.010 A 
ATOM     10  C   UNL A   1      32.224  28.851  27.300  1.00  0.00     0.005 A 
ATOM     11  C   UNL A   1      34.438  28.830  26.352  1.00  0.00     0.005 A 
BRANCH   7  12
ATOM     12  C   UNL A   1      32.452  25.987  24.839  1.00  0.00     0.075 A 
ATOM     13  N   UNL A   1      31.359  25.901  23.972  1.00  0.00    -0.233 N 
ATOM     14  N   UNL A   1      31.084  24.614  23.640  1.00  0.00    -0.163 NA
ATOM     15  C   UNL A   1      32.155  23.912  24.057  1.00  0.00     0.167 A 
ATOM     16  C   UNL A   1      33.011  24.724  24.840  1.00  0.00     0.064 A 
BRANCH  13  17
ATOM     17  C   UNL A   1      30.576  26.979  23.474  1.00  0.00     0.065 A 
ATOM     18  C   UNL A   1      29.130  29.243  22.667  1.00  0.00     0.082 A 
ATOM     19  C   UNL A   1      30.494  29.143  22.411  1.00  0.00     0.024 A 
ATOM     20  C   UNL A   1      28.471  28.183  23.291  1.00  0.00     0.024 A 
ATOM     21  C   UNL A   1      31.214  28.019  22.797  1.00  0.00     0.030 A 
ATOM     22  C   UNL A   1      29.193  27.040  23.685  1.00  0.00     0.030 A 
BRANCH  18  23
ATOM     23  S   UNL A   1      28.229  30.633  22.013  1.00  0.00     0.238 S 
ATOM     24  O   UNL A   1      27.273  31.039  22.981  1.00  0.00    -0.207 OA
ATOM     25  O   UNL A   1      27.897  30.337  20.625  1.00  0.00    -0.207 OA
BRANCH  23  26
ATOM     26  N   UNL A   1      29.377  31.863  21.916  1.00  0.00    -0.225 NA
ATOM     27  H   UNL A   1      28.911  32.769  21.987  1.00  0.00     0.137 HD
ATOM     28  H   UNL A   1      29.866  31.802  21.023  1.00  0.00     0.137 HD
ENDBRANCH  23  26
ENDBRANCH  18  23
ENDBRANCH  13  17
BRANCH  15  29
ATOM     29  C   UNL A   1      32.366  22.453  23.747  1.00  0.00     0.435 C 
ATOM     30  F   UNL A   1      31.923  22.087  22.516  1.00  0.00    -0.164 F 
ATOM     31  F   UNL A   1      33.683  22.109  23.810  1.00  0.00    -0.164 F 
ATOM     32  F   UNL A   1      31.723  21.652  24.641  1.00  0.00    -0.164 F 
ENDBRANCH  15  29
ENDBRANCH   7  12
ENDBRANCH   5   6
ENDBRANCH   3   5
ENDBRANCH   2   3
ENDBRANCH   1   2
BRANCH   1  33
ATOM     33  C   UNL A   1      33.136  35.165  28.792  1.00  0.00     0.202 C 
BRANCH  33  34
ATOM     34  O   UNL A   1      32.734  34.844  30.116  1.00  0.00    -0.374 OA
BRANCH  34  35
ATOM     35  C   UNL A   1      32.837  35.857  31.108  1.00  0.00     0.202 C 
BRANCH  35  36
ATOM     36  C   UNL A   1      33.349  35.439  32.477  1.00  0.00     0.261 C 
BRANCH  36  37
ATOM     37  O   UNL A   1      33.456  34.013  32.627  1.00  0.00    -0.460 OA
BRANCH  37  38
ATOM     38  C   UNL A   1      34.551  33.576  33.306  1.00  0.00     0.338 C 
ATOM     39  O   UNL A   1      35.064  34.113  34.275  1.00  0.00    -0.246 OA
BRANCH  38  40
ATOM     40  C   UNL A   1      35.246  32.544  32.501  1.00  0.00     0.060 A 
ATOM     41  C   UNL A   1      36.216  31.823  33.208  1.00  0.00     0.016 A 
ATOM     42  C   UNL A   1      35.330  32.694  31.114  1.00  0.00     0.016 A 
ATOM     43  C   UNL A   1      37.438  31.595  32.603  1.00  0.00     0.010 A 
ATOM     44  C   UNL A   1      36.561  32.472  30.519  1.00  0.00     0.010 A 
ATOM     45  C   UNL A   1      37.644  32.051  31.300  1.00  0.00    -0.014 A 
BRANCH  45  46
ATOM     46  C   UNL A   1      38.959  31.893  30.687  1.00  0.00     0.031 A 
ATOM     47  C   UNL A   1      39.114  30.556  30.126  1.00  0.00     0.074 A 
ATOM     48  C   UNL A   1      39.946  32.811  30.596  1.00  0.00     0.049 A 
ATOM     49  N   UNL A   1      39.850  29.635  30.646  1.00  0.00    -0.248 NA
ATOM     50  C   UNL A   1      38.240  30.115  29.034  1.00  0.00     0.031 C 
ATOM     51  C   UNL A   1      39.912  34.157  31.124  1.00  0.00     0.029 A 
ATOM     52  N   UNL A   1      41.166  32.787  29.969  1.00  0.00    -0.354 N 
ATOM     53  C   UNL A   1      39.767  28.597  29.747  1.00  0.00     0.074 A 
ATOM     54  C   UNL A   1      38.598  28.833  28.939  1.00  0.00     0.031 C 
ATOM     55  C   UNL A   1      40.887  34.914  30.586  1.00  0.00     0.029 A 
ATOM     56  C   UNL A   1      41.738  34.053  29.794  1.00  0.00     0.049 A 
ATOM     57  H   UNL A   1      41.600  31.956  29.669  1.00  0.00     0.167 HD
ATOM     58  C   UNL A   1      40.887  27.886  29.469  1.00  0.00     0.037 A 
ATOM     59  C   UNL A   1      42.863  34.411  29.123  1.00  0.00     0.037 A 
ATOM     60  C   UNL A   1      41.891  28.016  30.498  1.00  0.00     0.049 A 
ATOM     61  C   UNL A   1      43.743  33.231  29.142  1.00  0.00     0.074 A 
ATOM     62  C   UNL A   1      41.915  27.822  31.865  1.00  0.00     0.029 A 
ATOM     63  N   UNL A   1      43.001  28.762  30.191  1.00  0.00    -0.354 N 
ATOM     64  N   UNL A   1      44.369  32.824  30.209  1.00  0.00    -0.248 NA
ATOM     65  C   UNL A   1      43.654  32.264  28.059  1.00  0.00     0.031 C 
ATOM     66  C   UNL A   1      42.871  28.745  32.377  1.00  0.00     0.029 A 
ATOM     67  C   UNL A   1      43.422  29.442  31.304  1.00  0.00     0.049 A 
ATOM     68  H   UNL A   1      43.430  28.802  29.306  1.00  0.00     0.167 HD
ATOM     69  C   UNL A   1      44.299  31.448  30.125  1.00  0.00     0.074 A 
ATOM     70  C   UNL A   1      44.030  31.167  28.720  1.00  0.00     0.031 C 
ATOM     71  C   UNL A   1      44.136  30.700  31.254  1.00  0.00     0.037 A 
BRANCH  58  72
ATOM     72  C   UNL A   1      41.199  27.480  28.062  1.00  0.00     0.057 A 
ATOM     73  C   UNL A   1      41.409  26.131  27.770  1.00  0.00     0.134 A 
ATOM     74  C   UNL A   1      41.541  28.394  27.040  1.00  0.00     0.134 A 
ATOM     75  F   UNL A   1      41.196  25.190  28.701  1.00  0.00    -0.206 F 
ATOM     76  C   UNL A   1      41.916  25.718  26.534  1.00  0.00     0.040 A 
ATOM     77  C   UNL A   1      41.979  27.990  25.782  1.00  0.00     0.040 A 
ATOM     78  F   UNL A   1      41.563  29.719  27.241  1.00  0.00    -0.206 F 
ATOM     79  C   UNL A   1      42.187  26.645  25.532  1.00  0.00     0.006 A 
ENDBRANCH  58  72
BRANCH  59  80
ATOM     80  C   UNL A   1      43.249  35.679  28.451  1.00  0.00     0.057 A 
ATOM     81  C   UNL A   1      42.538  36.179  27.347  1.00  0.00     0.134 A 
ATOM     82  C   UNL A   1      44.147  36.577  29.046  1.00  0.00     0.134 A 
ATOM     83  F   UNL A   1      41.635  35.418  26.713  1.00  0.00    -0.206 F 
ATOM     84  C   UNL A   1      42.673  37.502  26.901  1.00  0.00     0.040 A 
ATOM     85  C   UNL A   1      44.302  37.899  28.606  1.00  0.00     0.040 A 
ATOM     86  F   UNL A   1      44.844  36.224  30.131  1.00  0.00    -0.206 F 
ATOM     87  C   UNL A   1      43.545  38.374  27.543  1.00  0.00     0.006 A 
ENDBRANCH  59  80
BRANCH  71  88
ATOM     88  C   UNL A   1      44.523  31.328  32.564  1.00  0.00     0.057 A 
ATOM     89  C   UNL A   1      45.820  31.336  33.101  1.00  0.00     0.134 A 
ATOM     90  C   UNL A   1      43.547  32.055  33.257  1.00  0.00     0.134 A 
ATOM     91  F   UNL A   1      46.839  30.739  32.469  1.00  0.00    -0.206 F 
ATOM     92  C   UNL A   1      46.117  32.010  34.292  1.00  0.00     0.040 A 
ATOM     93  C   UNL A   1      43.839  32.758  34.428  1.00  0.00     0.040 A 
ATOM     94  F   UNL A   1      42.294  32.126  32.781  1.00  0.00    -0.206 F 
ATOM     95  C   UNL A   1      45.127  32.730  34.954  1.00  0.00     0.006 A 
ENDBRANCH  71  88
ENDBRANCH  45  46
ENDBRANCH  38  40
ENDBRANCH  37  38
ENDBRANCH  36  37
ENDBRANCH  35  36
ENDBRANCH  34  35
ENDBRANCH  33  34
ENDBRANCH   1  33
TORSDOF 20
ENDMDL
