MODEL 1
REMARK VINA RESULT:      -9.2      0.000      0.000
REMARK SMILES O=C(OCCOCCOC(=O)c1cc(-c2ccoc2)n[nH]1)c1ccc(-c2c3nc(c(-c4c(F)cccc4F)c4ccc([nH]4)c(-c4c(F)cccc4F)c4nc(c(-c5c(F)cccc5F)c5ccc2[nH]5)C=C4)C=C3)cc1
REMARK SMILES IDX 5 1 4 2 3 3 2 4 1 5 22 6 23 7 75 8 24 9 74 10 25 11 26 12
REMARK SMILES IDX 27 13 68 14 28 15 73 16 67 17 69 18 29 19 72 20 66 21 65 22
REMARK SMILES IDX 30 24 56 25 39 26 55 27 40 28 43 29 54 30 70 31 41 32 42 33
REMARK SMILES IDX 53 35 71 36 44 37 31 38 32 39 37 40 33 41 34 42 36 43 38 44
REMARK SMILES IDX 35 45 57 46 58 47 63 48 59 49 60 50 62 51 64 52 61 53 45 54
REMARK SMILES IDX 46 55 51 56 47 57 48 58 50 59 52 60 49 61 6 62 7 63 8 64
REMARK SMILES IDX 9 65 10 66 11 67 12 68 13 69 21 70 14 71 20 72 15 74 16 75
REMARK SMILES IDX 19 76 17 77 18 78
REMARK H PARENT 69 23 43 34 21 73
REMARK Flexibility Score: inf
ROOT
ATOM      1  C   UNL A   1      44.681  18.836  24.344  1.00  0.00     0.202 C 
ENDROOT
BRANCH   1   2
ATOM      2  C   UNL A   1      43.946  18.903  25.686  1.00  0.00     0.261 C 
BRANCH   2   3
ATOM      3  O   UNL A   1      42.524  18.837  25.478  1.00  0.00    -0.460 OA
BRANCH   3   4
ATOM      4  C   UNL A   1      41.559  19.686  25.902  1.00  0.00     0.338 C 
ATOM      5  O   UNL A   1      40.384  19.340  25.786  1.00  0.00    -0.246 OA
BRANCH   4   6
ATOM      6  C   UNL A   1      41.829  21.029  26.504  1.00  0.00     0.060 A 
ATOM      7  C   UNL A   1      42.125  22.186  25.784  1.00  0.00     0.016 A 
ATOM      8  C   UNL A   1      41.677  21.146  27.898  1.00  0.00     0.016 A 
ATOM      9  C   UNL A   1      42.341  23.402  26.422  1.00  0.00     0.010 A 
ATOM     10  C   UNL A   1      41.839  22.377  28.545  1.00  0.00     0.010 A 
ATOM     11  C   UNL A   1      42.193  23.509  27.805  1.00  0.00    -0.014 A 
BRANCH  11  12
ATOM     12  C   UNL A   1      42.476  24.816  28.427  1.00  0.00     0.031 A 
ATOM     13  C   UNL A   1      43.896  25.183  28.731  1.00  0.00     0.074 A 
ATOM     14  C   UNL A   1      41.479  25.709  28.559  1.00  0.00     0.049 A 
ATOM     15  N   UNL A   1      44.376  26.303  29.202  1.00  0.00    -0.248 NA
ATOM     16  C   UNL A   1      44.916  24.159  28.448  1.00  0.00     0.031 C 
ATOM     17  C   UNL A   1      40.078  25.462  28.207  1.00  0.00     0.029 A 
ATOM     18  N   UNL A   1      41.492  27.012  28.979  1.00  0.00    -0.354 N 
ATOM     19  C   UNL A   1      45.752  26.121  29.268  1.00  0.00     0.074 A 
ATOM     20  C   UNL A   1      46.028  24.777  28.814  1.00  0.00     0.031 C 
ATOM     21  C   UNL A   1      39.375  26.590  28.388  1.00  0.00     0.029 A 
ATOM     22  C   UNL A   1      40.261  27.621  28.917  1.00  0.00     0.049 A 
ATOM     23  H   UNL A   1      42.305  27.469  29.294  1.00  0.00     0.167 HD
ATOM     24  C   UNL A   1      46.694  27.004  29.670  1.00  0.00     0.037 A 
ATOM     25  C   UNL A   1      39.897  28.870  29.262  1.00  0.00     0.037 A 
ATOM     26  C   UNL A   1      46.397  28.329  30.139  1.00  0.00     0.049 A 
ATOM     27  C   UNL A   1      40.956  29.804  29.779  1.00  0.00     0.074 A 
ATOM     28  C   UNL A   1      47.255  29.277  30.666  1.00  0.00     0.029 A 
ATOM     29  N   UNL A   1      45.128  28.894  30.131  1.00  0.00    -0.354 N 
ATOM     30  N   UNL A   1      42.248  29.600  29.901  1.00  0.00    -0.248 NA
ATOM     31  C   UNL A   1      40.513  31.132  30.217  1.00  0.00     0.031 C 
ATOM     32  C   UNL A   1      46.498  30.407  31.002  1.00  0.00     0.029 A 
ATOM     33  C   UNL A   1      45.177  30.176  30.650  1.00  0.00     0.049 A 
ATOM     34  H   UNL A   1      44.313  28.447  29.805  1.00  0.00     0.167 HD
ATOM     35  C   UNL A   1      42.771  30.773  30.425  1.00  0.00     0.074 A 
ATOM     36  C   UNL A   1      41.661  31.695  30.565  1.00  0.00     0.031 C 
ATOM     37  C   UNL A   1      44.048  31.062  30.774  1.00  0.00     0.037 A 
BRANCH  24  38
ATOM     38  C   UNL A   1      48.115  26.528  29.658  1.00  0.00     0.057 A 
ATOM     39  C   UNL A   1      48.982  26.821  28.596  1.00  0.00     0.134 A 
ATOM     40  C   UNL A   1      48.614  25.739  30.701  1.00  0.00     0.134 A 
ATOM     41  F   UNL A   1      48.557  27.549  27.552  1.00  0.00    -0.206 F 
ATOM     42  C   UNL A   1      50.288  26.326  28.563  1.00  0.00     0.040 A 
ATOM     43  C   UNL A   1      49.923  25.254  30.688  1.00  0.00     0.040 A 
ATOM     44  F   UNL A   1      47.832  25.415  31.742  1.00  0.00    -0.206 F 
ATOM     45  C   UNL A   1      50.762  25.542  29.613  1.00  0.00     0.006 A 
ENDBRANCH  24  38
BRANCH  25  46
ATOM     46  C   UNL A   1      38.474  29.291  29.170  1.00  0.00     0.057 A 
ATOM     47  C   UNL A   1      37.618  29.232  30.275  1.00  0.00     0.134 A 
ATOM     48  C   UNL A   1      37.931  29.743  27.961  1.00  0.00     0.134 A 
ATOM     49  F   UNL A   1      38.069  28.789  31.458  1.00  0.00    -0.206 F 
ATOM     50  C   UNL A   1      36.270  29.590  30.177  1.00  0.00     0.040 A 
ATOM     51  C   UNL A   1      36.595  30.131  27.854  1.00  0.00     0.040 A 
ATOM     52  F   UNL A   1      38.697  29.824  26.862  1.00  0.00    -0.206 F 
ATOM     53  C   UNL A   1      35.757  30.046  28.964  1.00  0.00     0.006 A 
ENDBRANCH  25  46
BRANCH  37  54
ATOM     54  C   UNL A   1      44.298  32.430  31.329  1.00  0.00     0.057 A 
ATOM     55  C   UNL A   1      44.567  33.521  30.492  1.00  0.00     0.134 A 
ATOM     56  C   UNL A   1      44.244  32.664  32.708  1.00  0.00     0.134 A 
ATOM     57  F   UNL A   1      44.646  33.355  29.163  1.00  0.00    -0.206 F 
ATOM     58  C   UNL A   1      44.796  34.795  31.012  1.00  0.00     0.040 A 
ATOM     59  C   UNL A   1      44.448  33.937  33.237  1.00  0.00     0.040 A 
ATOM     60  F   UNL A   1      43.985  31.659  33.559  1.00  0.00    -0.206 F 
ATOM     61  C   UNL A   1      44.731  35.006  32.388  1.00  0.00     0.006 A 
ENDBRANCH  37  54
ENDBRANCH  11  12
ENDBRANCH   4   6
ENDBRANCH   3   4
ENDBRANCH   2   3
ENDBRANCH   1   2
BRANCH   1  62
ATOM     62  O   UNL A   1      45.899  19.582  24.316  1.00  0.00    -0.374 OA
BRANCH  62  63
ATOM     63  C   UNL A   1      46.003  20.631  25.288  1.00  0.00     0.202 C 
BRANCH  63  64
ATOM     64  C   UNL A   1      45.552  21.956  24.660  1.00  0.00     0.261 C 
BRANCH  64  65
ATOM     65  O   UNL A   1      46.075  23.038  25.448  1.00  0.00    -0.459 OA
BRANCH  65  66
ATOM     66  C   UNL A   1      46.620  24.042  24.708  1.00  0.00     0.356 C 
ATOM     67  O   UNL A   1      47.401  23.909  23.774  1.00  0.00    -0.244 OA
BRANCH  66  68
ATOM     68  C   UNL A   1      46.012  25.279  25.080  1.00  0.00     0.144 A 
ATOM     69  C   UNL A   1      44.714  25.736  24.995  1.00  0.00     0.066 A 
ATOM     70  N   UNL A   1      46.731  26.317  25.603  1.00  0.00    -0.271 N 
ATOM     71  C   UNL A   1      44.759  27.039  25.528  1.00  0.00     0.096 A 
ATOM     72  N   UNL A   1      46.003  27.426  25.822  1.00  0.00    -0.175 NA
ATOM     73  H   UNL A   1      47.695  26.258  25.801  1.00  0.00     0.190 HD
BRANCH  71  74
ATOM     74  C   UNL A   1      43.582  27.838  25.808  1.00  0.00     0.040 A 
ATOM     75  C   UNL A   1      42.312  27.609  25.225  1.00  0.00     0.052 A 
ATOM     76  C   UNL A   1      43.432  28.885  26.684  1.00  0.00     0.205 A 
ATOM     77  C   UNL A   1      41.467  28.534  25.790  1.00  0.00     0.195 A 
ATOM     78  O   UNL A   1      42.142  29.324  26.667  1.00  0.00    -0.472 OA
ENDBRANCH  71  74
ENDBRANCH  66  68
ENDBRANCH  65  66
ENDBRANCH  64  65
ENDBRANCH  63  64
ENDBRANCH  62  63
ENDBRANCH   1  62
TORSDOF 15
ENDMDL
MODEL 2
REMARK VINA RESULT:      -8.9      3.839      5.768
REMARK SMILES O=C(OCCOCCOC(=O)c1cc(-c2ccoc2)n[nH]1)c1ccc(-c2c3nc(c(-c4c(F)cccc4F)c4ccc([nH]4)c(-c4c(F)cccc4F)c4nc(c(-c5c(F)cccc5F)c5ccc2[nH]5)C=C4)C=C3)cc1
REMARK SMILES IDX 5 1 4 2 3 3 2 4 1 5 22 6 23 7 75 8 24 9 74 10 25 11 26 12
REMARK SMILES IDX 27 13 68 14 28 15 73 16 67 17 69 18 29 19 72 20 66 21 65 22
REMARK SMILES IDX 30 24 56 25 39 26 55 27 40 28 43 29 54 30 70 31 41 32 42 33
REMARK SMILES IDX 53 35 71 36 44 37 31 38 32 39 37 40 33 41 34 42 36 43 38 44
REMARK SMILES IDX 35 45 57 46 58 47 63 48 59 49 60 50 62 51 64 52 61 53 45 54
REMARK SMILES IDX 46 55 51 56 47 57 48 58 50 59 52 60 49 61 6 62 7 63 8 64
REMARK SMILES IDX 9 65 10 66 11 67 12 68 13 69 21 70 14 71 20 72 15 74 16 75
REMARK SMILES IDX 19 76 17 77 18 78
REMARK H PARENT 69 23 43 34 21 73
REMARK Flexibility Score: inf
ROOT
ATOM      1  C   UNL A   1      46.216  23.218  26.255  1.00  0.00     0.202 C 
ENDROOT
BRANCH   1   2
ATOM      2  C   UNL A   1      46.412  23.997  24.952  1.00  0.00     0.261 C 
BRANCH   2   3
ATOM      3  O   UNL A   1      45.217  24.728  24.625  1.00  0.00    -0.460 OA
BRANCH   3   4
ATOM      4  C   UNL A   1      43.957  24.554  25.085  1.00  0.00     0.338 C 
ATOM      5  O   UNL A   1      43.227  23.753  24.503  1.00  0.00    -0.246 OA
BRANCH   4   6
ATOM      6  C   UNL A   1      43.385  25.280  26.263  1.00  0.00     0.060 A 
ATOM      7  C   UNL A   1      42.693  24.682  27.315  1.00  0.00     0.016 A 
ATOM      8  C   UNL A   1      43.654  26.658  26.354  1.00  0.00     0.016 A 
ATOM      9  C   UNL A   1      42.213  25.430  28.384  1.00  0.00     0.010 A 
ATOM     10  C   UNL A   1      43.223  27.410  27.453  1.00  0.00     0.010 A 
ATOM     11  C   UNL A   1      42.480  26.796  28.466  1.00  0.00    -0.014 A 
BRANCH  11  12
ATOM     12  C   UNL A   1      41.909  27.542  29.603  1.00  0.00     0.031 A 
ATOM     13  C   UNL A   1      42.645  27.552  30.908  1.00  0.00     0.074 A 
ATOM     14  C   UNL A   1      40.833  28.323  29.401  1.00  0.00     0.049 A 
ATOM     15  N   UNL A   1      42.367  28.200  32.007  1.00  0.00    -0.248 NA
ATOM     16  C   UNL A   1      43.870  26.738  30.978  1.00  0.00     0.031 C 
ATOM     17  C   UNL A   1      40.104  28.438  28.135  1.00  0.00     0.029 A 
ATOM     18  N   UNL A   1      40.191  29.199  30.235  1.00  0.00    -0.354 N 
ATOM     19  C   UNL A   1      43.382  27.876  32.898  1.00  0.00     0.074 A 
ATOM     20  C   UNL A   1      44.268  26.956  32.222  1.00  0.00     0.031 C 
ATOM     21  C   UNL A   1      39.141  29.363  28.266  1.00  0.00     0.029 A 
ATOM     22  C   UNL A   1      39.150  29.866  29.635  1.00  0.00     0.049 A 
ATOM     23  H   UNL A   1      40.451  29.338  31.175  1.00  0.00     0.167 HD
ATOM     24  C   UNL A   1      43.555  28.316  34.166  1.00  0.00     0.037 A 
ATOM     25  C   UNL A   1      38.295  30.772  30.145  1.00  0.00     0.037 A 
ATOM     26  C   UNL A   1      42.650  29.215  34.828  1.00  0.00     0.049 A 
ATOM     27  C   UNL A   1      38.468  31.183  31.582  1.00  0.00     0.074 A 
ATOM     28  C   UNL A   1      42.664  29.651  36.140  1.00  0.00     0.029 A 
ATOM     29  N   UNL A   1      41.562  29.820  34.214  1.00  0.00    -0.354 N 
ATOM     30  N   UNL A   1      39.394  30.820  32.438  1.00  0.00    -0.248 NA
ATOM     31  C   UNL A   1      37.475  32.115  32.128  1.00  0.00     0.031 C 
ATOM     32  C   UNL A   1      41.567  30.501  36.325  1.00  0.00     0.029 A 
ATOM     33  C   UNL A   1      40.892  30.622  35.120  1.00  0.00     0.049 A 
ATOM     34  H   UNL A   1      41.304  29.695  33.271  1.00  0.00     0.167 HD
ATOM     35  C   UNL A   1      39.098  31.481  33.622  1.00  0.00     0.074 A 
ATOM     36  C   UNL A   1      37.926  32.293  33.361  1.00  0.00     0.031 C 
ATOM     37  C   UNL A   1      39.726  31.414  34.821  1.00  0.00     0.037 A 
BRANCH  24  38
ATOM     38  C   UNL A   1      44.740  27.782  34.911  1.00  0.00     0.057 A 
ATOM     39  C   UNL A   1      44.712  26.531  35.543  1.00  0.00     0.134 A 
ATOM     40  C   UNL A   1      45.911  28.541  35.029  1.00  0.00     0.134 A 
ATOM     41  F   UNL A   1      43.610  25.769  35.492  1.00  0.00    -0.206 F 
ATOM     42  C   UNL A   1      45.800  26.065  36.285  1.00  0.00     0.040 A 
ATOM     43  C   UNL A   1      47.011  28.077  35.752  1.00  0.00     0.040 A 
ATOM     44  F   UNL A   1      45.998  29.750  34.455  1.00  0.00    -0.206 F 
ATOM     45  C   UNL A   1      46.955  26.838  36.388  1.00  0.00     0.006 A 
ENDBRANCH  24  38
BRANCH  25  46
ATOM     46  C   UNL A   1      37.190  31.315  29.314  1.00  0.00     0.057 A 
ATOM     47  C   UNL A   1      37.250  32.598  28.758  1.00  0.00     0.134 A 
ATOM     48  C   UNL A   1      36.031  30.566  29.073  1.00  0.00     0.134 A 
ATOM     49  F   UNL A   1      38.323  33.375  28.967  1.00  0.00    -0.206 F 
ATOM     50  C   UNL A   1      36.193  33.123  28.009  1.00  0.00     0.040 A 
ATOM     51  C   UNL A   1      34.979  31.065  28.304  1.00  0.00     0.040 A 
ATOM     52  F   UNL A   1      35.907  29.328  29.576  1.00  0.00    -0.206 F 
ATOM     53  C   UNL A   1      35.055  32.352  27.776  1.00  0.00     0.006 A 
ENDBRANCH  25  46
BRANCH  37  54
ATOM     54  C   UNL A   1      39.154  32.250  35.924  1.00  0.00     0.057 A 
ATOM     55  C   UNL A   1      38.217  31.729  36.826  1.00  0.00     0.134 A 
ATOM     56  C   UNL A   1      39.563  33.577  36.102  1.00  0.00     0.134 A 
ATOM     57  F   UNL A   1      37.778  30.469  36.697  1.00  0.00    -0.206 F 
ATOM     58  C   UNL A   1      37.690  32.509  37.855  1.00  0.00     0.040 A 
ATOM     59  C   UNL A   1      39.059  34.359  37.140  1.00  0.00     0.040 A 
ATOM     60  F   UNL A   1      40.462  34.130  35.273  1.00  0.00    -0.206 F 
ATOM     61  C   UNL A   1      38.116  33.827  38.017  1.00  0.00     0.006 A 
ENDBRANCH  37  54
ENDBRANCH  11  12
ENDBRANCH   4   6
ENDBRANCH   3   4
ENDBRANCH   2   3
ENDBRANCH   1   2
BRANCH   1  62
ATOM     62  O   UNL A   1      46.027  21.814  26.066  1.00  0.00    -0.374 OA
BRANCH  62  63
ATOM     63  C   UNL A   1      45.973  21.377  24.701  1.00  0.00     0.202 C 
BRANCH  63  64
ATOM     64  C   UNL A   1      45.593  19.891  24.656  1.00  0.00     0.261 C 
BRANCH  64  65
ATOM     65  O   UNL A   1      44.161  19.786  24.615  1.00  0.00    -0.459 OA
BRANCH  65  66
ATOM     66  C   UNL A   1      43.635  19.044  25.627  1.00  0.00     0.356 C 
ATOM     67  O   UNL A   1      44.141  18.048  26.129  1.00  0.00    -0.244 OA
BRANCH  66  68
ATOM     68  C   UNL A   1      42.473  19.700  26.134  1.00  0.00     0.144 A 
ATOM     69  C   UNL A   1      41.808  20.843  25.740  1.00  0.00     0.066 A 
ATOM     70  N   UNL A   1      41.801  19.248  27.234  1.00  0.00    -0.271 N 
ATOM     71  C   UNL A   1      40.735  20.960  26.645  1.00  0.00     0.096 A 
ATOM     72  N   UNL A   1      40.778  20.036  27.608  1.00  0.00    -0.175 NA
ATOM     73  H   UNL A   1      42.044  18.420  27.710  1.00  0.00     0.190 HD
BRANCH  71  74
ATOM     74  C   UNL A   1      39.659  21.920  26.500  1.00  0.00     0.040 A 
ATOM     75  C   UNL A   1      39.654  23.202  27.100  1.00  0.00     0.052 A 
ATOM     76  C   UNL A   1      38.509  21.829  25.753  1.00  0.00     0.205 A 
ATOM     77  C   UNL A   1      38.499  23.813  26.674  1.00  0.00     0.195 A 
ATOM     78  O   UNL A   1      37.789  22.980  25.867  1.00  0.00    -0.472 OA
ENDBRANCH  71  74
ENDBRANCH  66  68
ENDBRANCH  65  66
ENDBRANCH  64  65
ENDBRANCH  63  64
ENDBRANCH  62  63
ENDBRANCH   1  62
TORSDOF 15
ENDMDL
MODEL 3
REMARK VINA RESULT:      -8.7      4.693     10.828
REMARK SMILES O=C(OCCOCCOC(=O)c1cc(-c2ccoc2)n[nH]1)c1ccc(-c2c3nc(c(-c4c(F)cccc4F)c4ccc([nH]4)c(-c4c(F)cccc4F)c4nc(c(-c5c(F)cccc5F)c5ccc2[nH]5)C=C4)C=C3)cc1
REMARK SMILES IDX 5 1 4 2 3 3 2 4 1 5 22 6 23 7 75 8 24 9 74 10 25 11 26 12
REMARK SMILES IDX 27 13 68 14 28 15 73 16 67 17 69 18 29 19 72 20 66 21 65 22
REMARK SMILES IDX 30 24 56 25 39 26 55 27 40 28 43 29 54 30 70 31 41 32 42 33
REMARK SMILES IDX 53 35 71 36 44 37 31 38 32 39 37 40 33 41 34 42 36 43 38 44
REMARK SMILES IDX 35 45 57 46 58 47 63 48 59 49 60 50 62 51 64 52 61 53 45 54
REMARK SMILES IDX 46 55 51 56 47 57 48 58 50 59 52 60 49 61 6 62 7 63 8 64
REMARK SMILES IDX 9 65 10 66 11 67 12 68 13 69 21 70 14 71 20 72 15 74 16 75
REMARK SMILES IDX 19 76 17 77 18 78
REMARK H PARENT 69 23 43 34 21 73
REMARK Flexibility Score: inf
ROOT
ATOM      1  C   UNL A   1      35.388  35.136  33.262  1.00  0.00     0.202 C 
ENDROOT
BRANCH   1   2
ATOM      2  C   UNL A   1      34.451  33.955  32.993  1.00  0.00     0.261 C 
BRANCH   2   3
ATOM      3  O   UNL A   1      35.181  32.864  32.403  1.00  0.00    -0.460 OA
BRANCH   3   4
ATOM      4  C   UNL A   1      36.270  32.213  32.872  1.00  0.00     0.338 C 
ATOM      5  O   UNL A   1      36.339  31.984  34.079  1.00  0.00    -0.246 OA
BRANCH   4   6
ATOM      6  C   UNL A   1      37.407  31.753  32.015  1.00  0.00     0.060 A 
ATOM      7  C   UNL A   1      37.546  32.023  30.654  1.00  0.00     0.016 A 
ATOM      8  C   UNL A   1      38.460  31.078  32.659  1.00  0.00     0.016 A 
ATOM      9  C   UNL A   1      38.648  31.575  29.934  1.00  0.00     0.010 A 
ATOM     10  C   UNL A   1      39.600  30.672  31.955  1.00  0.00     0.010 A 
ATOM     11  C   UNL A   1      39.686  30.903  30.580  1.00  0.00    -0.014 A 
BRANCH  11  12
ATOM     12  C   UNL A   1      40.808  30.418  29.755  1.00  0.00     0.031 A 
ATOM     13  C   UNL A   1      42.002  31.302  29.560  1.00  0.00     0.074 A 
ATOM     14  C   UNL A   1      40.806  29.141  29.332  1.00  0.00     0.049 A 
ATOM     15  N   UNL A   1      43.124  31.048  28.943  1.00  0.00    -0.248 NA
ATOM     16  C   UNL A   1      41.929  32.645  30.158  1.00  0.00     0.031 C 
ATOM     17  C   UNL A   1      39.718  28.184  29.553  1.00  0.00     0.029 A 
ATOM     18  N   UNL A   1      41.760  28.413  28.673  1.00  0.00    -0.354 N 
ATOM     19  C   UNL A   1      43.894  32.196  29.080  1.00  0.00     0.074 A 
ATOM     20  C   UNL A   1      43.103  33.156  29.816  1.00  0.00     0.031 C 
ATOM     21  C   UNL A   1      40.084  26.985  29.073  1.00  0.00     0.029 A 
ATOM     22  C   UNL A   1      41.406  27.102  28.466  1.00  0.00     0.049 A 
ATOM     23  H   UNL A   1      42.619  28.794  28.376  1.00  0.00     0.167 HD
ATOM     24  C   UNL A   1      45.150  32.420  28.632  1.00  0.00     0.037 A 
ATOM     25  C   UNL A   1      42.075  26.113  27.843  1.00  0.00     0.037 A 
ATOM     26  C   UNL A   1      45.912  31.460  27.882  1.00  0.00     0.049 A 
ATOM     27  C   UNL A   1      43.439  26.417  27.288  1.00  0.00     0.074 A 
ATOM     28  C   UNL A   1      47.153  31.607  27.290  1.00  0.00     0.029 A 
ATOM     29  N   UNL A   1      45.495  30.160  27.627  1.00  0.00    -0.354 N 
ATOM     30  N   UNL A   1      44.133  27.529  27.365  1.00  0.00    -0.248 NA
ATOM     31  C   UNL A   1      44.109  25.339  26.551  1.00  0.00     0.031 C 
ATOM     32  C   UNL A   1      47.474  30.402  26.652  1.00  0.00     0.029 A 
ATOM     33  C   UNL A   1      46.451  29.495  26.880  1.00  0.00     0.049 A 
ATOM     34  H   UNL A   1      44.644  29.770  27.932  1.00  0.00     0.167 HD
ATOM     35  C   UNL A   1      45.320  27.284  26.691  1.00  0.00     0.074 A 
ATOM     36  C   UNL A   1      45.266  25.907  26.241  1.00  0.00     0.031 C 
ATOM     37  C   UNL A   1      46.358  28.122  26.450  1.00  0.00     0.037 A 
BRANCH  24  38
ATOM     38  C   UNL A   1      45.736  33.771  28.908  1.00  0.00     0.057 A 
ATOM     39  C   UNL A   1      46.501  34.023  30.056  1.00  0.00     0.134 A 
ATOM     40  C   UNL A   1      45.504  34.842  28.038  1.00  0.00     0.134 A 
ATOM     41  F   UNL A   1      46.734  33.046  30.945  1.00  0.00    -0.206 F 
ATOM     42  C   UNL A   1      46.994  35.299  30.337  1.00  0.00     0.040 A 
ATOM     43  C   UNL A   1      46.008  36.118  28.298  1.00  0.00     0.040 A 
ATOM     44  F   UNL A   1      44.772  34.670  26.927  1.00  0.00    -0.206 F 
ATOM     45  C   UNL A   1      46.750  36.350  29.454  1.00  0.00     0.006 A 
ENDBRANCH  24  38
BRANCH  25  46
ATOM     46  C   UNL A   1      41.454  24.773  27.679  1.00  0.00     0.057 A 
ATOM     47  C   UNL A   1      40.443  24.541  26.739  1.00  0.00     0.134 A 
ATOM     48  C   UNL A   1      41.845  23.692  28.479  1.00  0.00     0.134 A 
ATOM     49  F   UNL A   1      40.008  25.538  25.955  1.00  0.00    -0.206 F 
ATOM     50  C   UNL A   1      39.833  23.290  26.613  1.00  0.00     0.040 A 
ATOM     51  C   UNL A   1      41.265  22.430  28.346  1.00  0.00     0.040 A 
ATOM     52  F   UNL A   1      42.809  23.845  29.401  1.00  0.00    -0.206 F 
ATOM     53  C   UNL A   1      40.248  22.229  27.415  1.00  0.00     0.006 A 
ENDBRANCH  25  46
BRANCH  37  54
ATOM     54  C   UNL A   1      47.509  27.559  25.675  1.00  0.00     0.057 A 
ATOM     55  C   UNL A   1      47.548  27.620  24.276  1.00  0.00     0.134 A 
ATOM     56  C   UNL A   1      48.596  26.975  26.334  1.00  0.00     0.134 A 
ATOM     57  F   UNL A   1      46.527  28.156  23.590  1.00  0.00    -0.206 F 
ATOM     58  C   UNL A   1      48.623  27.098  23.558  1.00  0.00     0.040 A 
ATOM     59  C   UNL A   1      49.687  26.470  25.626  1.00  0.00     0.040 A 
ATOM     60  F   UNL A   1      48.618  26.892  27.673  1.00  0.00    -0.206 F 
ATOM     61  C   UNL A   1      49.700  26.526  24.234  1.00  0.00     0.006 A 
ENDBRANCH  37  54
ENDBRANCH  11  12
ENDBRANCH   4   6
ENDBRANCH   3   4
ENDBRANCH   2   3
ENDBRANCH   1   2
BRANCH   1  62
ATOM     62  O   UNL A   1      34.746  36.410  33.188  1.00  0.00    -0.374 OA
BRANCH  62  63
ATOM     63  C   UNL A   1      33.355  36.381  32.841  1.00  0.00     0.202 C 
BRANCH  63  64
ATOM     64  C   UNL A   1      33.172  36.923  31.418  1.00  0.00     0.261 C 
BRANCH  64  65
ATOM     65  O   UNL A   1      32.923  35.817  30.535  1.00  0.00    -0.459 OA
BRANCH  65  66
ATOM     66  C   UNL A   1      33.272  36.058  29.241  1.00  0.00     0.356 C 
ATOM     67  O   UNL A   1      33.211  37.137  28.666  1.00  0.00    -0.244 OA
BRANCH  66  68
ATOM     68  C   UNL A   1      33.883  34.888  28.697  1.00  0.00     0.144 A 
ATOM     69  C   UNL A   1      33.570  33.548  28.792  1.00  0.00     0.066 A 
ATOM     70  N   UNL A   1      35.022  34.943  27.943  1.00  0.00    -0.271 N 
ATOM     71  C   UNL A   1      34.558  32.895  28.030  1.00  0.00     0.096 A 
ATOM     72  N   UNL A   1      35.493  33.737  27.580  1.00  0.00    -0.175 NA
ATOM     73  H   UNL A   1      35.458  35.789  27.688  1.00  0.00     0.190 HD
BRANCH  71  74
ATOM     74  C   UNL A   1      34.520  31.485  27.697  1.00  0.00     0.040 A 
ATOM     75  C   UNL A   1      35.617  30.604  27.854  1.00  0.00     0.052 A 
ATOM     76  C   UNL A   1      33.467  30.729  27.241  1.00  0.00     0.205 A 
ATOM     77  C   UNL A   1      35.157  29.362  27.485  1.00  0.00     0.195 A 
ATOM     78  O   UNL A   1      33.856  29.431  27.097  1.00  0.00    -0.472 OA
ENDBRANCH  71  74
ENDBRANCH  66  68
ENDBRANCH  65  66
ENDBRANCH  64  65
ENDBRANCH  63  64
ENDBRANCH  62  63
ENDBRANCH   1  62
TORSDOF 15
ENDMDL
