MODEL 1
REMARK VINA RESULT:     -15.3      0.000      0.000
REMARK SMILES CCc1cccc(C)c1Nc1ccccc1CC(=O)OCCOCCOC(=O)c1ccc(-c2c3nc(c(-c4c(F)cccc4F)c4ccc([nH]4)c(-c4c(F)cccc4F)c4nc(c(-c5c(F)cccc5F)c5ccc2[nH]5)C=C4)C=C3)cc1
REMARK SMILES IDX 22 1 21 2 20 3 18 4 19 5 17 6 16 7 11 8 12 9 13 10 15 11
REMARK SMILES IDX 14 12 10 13 9 15 3 16 4 17 5 18 7 19 6 20 8 21 2 22 1 23
REMARK SMILES IDX 23 24 24 25 25 26 26 27 27 28 28 29 29 30 30 31 82 32 31 33
REMARK SMILES IDX 81 34 32 35 33 36 34 37 75 38 35 39 80 40 74 41 76 42 36 43
REMARK SMILES IDX 79 44 73 45 72 46 37 48 63 49 46 50 62 51 47 52 50 53 61 54
REMARK SMILES IDX 77 55 48 56 49 57 60 59 78 60 51 61 38 62 39 63 44 64 40 65
REMARK SMILES IDX 41 66 43 67 45 68 42 69 64 70 65 71 70 72 66 73 67 74 69 75
REMARK SMILES IDX 71 76 68 77 52 78 53 79 58 80 54 81 55 82 57 83 59 84 56 85
REMARK H PARENT 10 14 76 47 50 58
REMARK Flexibility Score: inf
ROOT
ATOM      1  C   UNL A   1      32.720  30.257  27.071  1.00  0.00     0.202 C 
ENDROOT
BRANCH   1   2
ATOM      2  C   UNL A   1      31.571  30.460  25.508  1.00  0.00     0.261 C 
BRANCH   2   3
ATOM      3  O   UNL A   1      31.159  29.197  24.294  1.00  0.00    -0.463 OA
BRANCH   3   4
ATOM      4  C   UNL A   1      30.089  28.681  23.543  1.00  0.00     0.310 C 
ATOM      5  O   UNL A   1      29.283  29.446  22.995  1.00  0.00    -0.252 OA
BRANCH   4   6
ATOM      6  C   UNL A   1      29.842  27.154  23.260  1.00  0.00     0.160 C 
BRANCH   6   7
ATOM      7  C   UNL A   1      30.255  25.805  24.062  1.00  0.00    -0.013 A 
ATOM      8  C   UNL A   1      30.660  24.316  23.732  1.00  0.00     0.042 A 
ATOM      9  C   UNL A   1      30.692  23.431  24.837  1.00  0.00     0.026 A 
ATOM     10  C   UNL A   1      30.514  23.905  26.157  1.00  0.00     0.002 A 
ATOM     11  C   UNL A   1      30.007  26.138  25.432  1.00  0.00     0.006 A 
ATOM     12  C   UNL A   1      30.193  25.228  26.455  1.00  0.00     0.000 A 
BRANCH   8  13
ATOM     13  N   UNL A   1      31.771  23.665  22.584  1.00  0.00    -0.355 N 
ATOM     14  H   UNL A   1      31.389  23.451  21.703  1.00  0.00     0.167 HD
BRANCH  13  15
ATOM     15  C   UNL A   1      33.632  23.300  22.776  1.00  0.00     0.045 A 
ATOM     16  C   UNL A   1      34.111  24.825  23.606  1.00  0.00    -0.024 A 
ATOM     17  C   UNL A   1      34.621  24.798  25.236  1.00  0.00     0.006 A 
ATOM     18  C   UNL A   1      34.552  23.563  26.217  1.00  0.00     0.001 A 
ATOM     19  C   UNL A   1      33.644  21.592  23.895  1.00  0.00    -0.027 A 
ATOM     20  C   UNL A   1      34.040  22.084  25.708  1.00  0.00     0.005 A 
ATOM     21  C   UNL A   1      32.598  20.015  23.590  1.00  0.00     0.046 C 
BRANCH  16  22
ATOM     22  C   UNL A   1      33.663  26.267  23.441  1.00  0.00     0.034 C 
ATOM     23  C   UNL A   1      33.468  26.719  22.003  1.00  0.00     0.009 C 
ENDBRANCH  16  22
ENDBRANCH  13  15
ENDBRANCH   8  13
ENDBRANCH   6   7
ENDBRANCH   4   6
ENDBRANCH   3   4
ENDBRANCH   2   3
ENDBRANCH   1   2
BRANCH   1  24
ATOM     24  O   UNL A   1      33.329  31.668  27.633  1.00  0.00    -0.374 OA
BRANCH  24  25
ATOM     25  C   UNL A   1      32.299  33.429  27.426  1.00  0.00     0.202 C 
BRANCH  25  26
ATOM     26  C   UNL A   1      33.765  34.560  28.605  1.00  0.00     0.261 C 
BRANCH  26  27
ATOM     27  O   UNL A   1      35.268  33.595  29.301  1.00  0.00    -0.460 OA
BRANCH  27  28
ATOM     28  C   UNL A   1      36.291  32.399  29.637  1.00  0.00     0.338 C 
ATOM     29  O   UNL A   1      37.422  32.824  29.931  1.00  0.00    -0.246 OA
BRANCH  28  30
ATOM     30  C   UNL A   1      36.366  30.579  29.577  1.00  0.00     0.060 A 
ATOM     31  C   UNL A   1      36.678  29.728  30.648  1.00  0.00     0.016 A 
ATOM     32  C   UNL A   1      36.391  29.691  28.496  1.00  0.00     0.016 A 
ATOM     33  C   UNL A   1      37.678  28.607  30.569  1.00  0.00     0.010 A 
ATOM     34  C   UNL A   1      37.509  28.708  28.374  1.00  0.00     0.010 A 
ATOM     35  C   UNL A   1      38.382  28.325  29.411  1.00  0.00    -0.014 A 
BRANCH  35  36
ATOM     36  C   UNL A   1      40.046  28.341  29.206  1.00  0.00     0.031 A 
ATOM     37  C   UNL A   1      40.632  27.108  28.531  1.00  0.00     0.074 A 
ATOM     38  C   UNL A   1      40.912  29.448  29.365  1.00  0.00     0.049 A 
ATOM     39  N   UNL A   1      41.682  26.489  28.956  1.00  0.00    -0.248 NA
ATOM     40  C   UNL A   1      40.045  26.350  27.407  1.00  0.00     0.031 C 
ATOM     41  C   UNL A   1      42.367  29.722  29.035  1.00  0.00     0.029 A 
ATOM     42  N   UNL A   1      40.565  30.755  29.801  1.00  0.00    -0.354 N 
ATOM     43  C   UNL A   1      42.030  25.538  27.998  1.00  0.00     0.074 A 
ATOM     44  C   UNL A   1      40.832  25.279  27.290  1.00  0.00     0.031 C 
ATOM     45  C   UNL A   1      42.806  30.898  29.564  1.00  0.00     0.029 A 
ATOM     46  C   UNL A   1      41.699  31.458  30.297  1.00  0.00     0.049 A 
ATOM     47  H   UNL A   1      39.655  31.127  29.764  1.00  0.00     0.167 HD
ATOM     48  C   UNL A   1      43.338  25.275  27.710  1.00  0.00     0.037 A 
ATOM     49  C   UNL A   1      41.691  31.795  31.615  1.00  0.00     0.037 A 
ATOM     50  C   UNL A   1      44.154  26.226  28.467  1.00  0.00     0.049 A 
ATOM     51  C   UNL A   1      42.430  30.645  32.292  1.00  0.00     0.074 A 
ATOM     52  C   UNL A   1      44.882  27.348  28.124  1.00  0.00     0.029 A 
ATOM     53  N   UNL A   1      43.941  26.312  29.835  1.00  0.00    -0.354 N 
ATOM     54  N   UNL A   1      42.598  29.465  31.734  1.00  0.00    -0.248 NA
ATOM     55  C   UNL A   1      43.263  30.809  33.477  1.00  0.00     0.031 C 
ATOM     56  C   UNL A   1      45.066  28.118  29.326  1.00  0.00     0.029 A 
ATOM     57  C   UNL A   1      44.408  27.487  30.378  1.00  0.00     0.049 A 
ATOM     58  H   UNL A   1      43.500  25.606  30.361  1.00  0.00     0.167 HD
ATOM     59  C   UNL A   1      43.658  28.828  32.301  1.00  0.00     0.074 A 
ATOM     60  C   UNL A   1      44.005  29.687  33.423  1.00  0.00     0.031 C 
ATOM     61  C   UNL A   1      44.257  27.693  31.823  1.00  0.00     0.037 A 
BRANCH  48  62
ATOM     62  C   UNL A   1      43.923  24.343  26.644  1.00  0.00     0.057 A 
ATOM     63  C   UNL A   1      44.876  23.377  27.041  1.00  0.00     0.134 A 
ATOM     64  C   UNL A   1      43.617  24.281  25.265  1.00  0.00     0.134 A 
ATOM     65  F   UNL A   1      45.270  23.275  28.318  1.00  0.00    -0.206 F 
ATOM     66  C   UNL A   1      45.459  22.445  26.163  1.00  0.00     0.040 A 
ATOM     67  C   UNL A   1      44.179  23.338  24.379  1.00  0.00     0.040 A 
ATOM     68  F   UNL A   1      42.771  25.125  24.671  1.00  0.00    -0.206 F 
ATOM     69  C   UNL A   1      45.104  22.413  24.826  1.00  0.00     0.006 A 
ENDBRANCH  48  62
BRANCH  49  70
ATOM     70  C   UNL A   1      40.346  32.433  31.852  1.00  0.00     0.057 A 
ATOM     71  C   UNL A   1      39.463  31.720  32.717  1.00  0.00     0.134 A 
ATOM     72  C   UNL A   1      40.207  33.820  31.852  1.00  0.00     0.134 A 
ATOM     73  F   UNL A   1      39.503  30.378  32.758  1.00  0.00    -0.206 F 
ATOM     74  C   UNL A   1      38.693  32.358  33.703  1.00  0.00     0.040 A 
ATOM     75  C   UNL A   1      39.365  34.452  32.780  1.00  0.00     0.040 A 
ATOM     76  F   UNL A   1      41.060  34.589  31.159  1.00  0.00    -0.206 F 
ATOM     77  C   UNL A   1      38.691  33.739  33.773  1.00  0.00     0.006 A 
ENDBRANCH  49  70
BRANCH  61  78
ATOM     78  C   UNL A   1      44.790  26.641  32.774  1.00  0.00     0.057 A 
ATOM     79  C   UNL A   1      44.009  26.049  33.775  1.00  0.00     0.134 A 
ATOM     80  C   UNL A   1      46.079  26.071  32.632  1.00  0.00     0.134 A 
ATOM     81  F   UNL A   1      42.694  26.276  33.891  1.00  0.00    -0.206 F 
ATOM     82  C   UNL A   1      44.524  25.131  34.689  1.00  0.00     0.040 A 
ATOM     83  C   UNL A   1      46.560  25.059  33.459  1.00  0.00     0.040 A 
ATOM     84  F   UNL A   1      46.942  26.424  31.672  1.00  0.00    -0.206 F 
ATOM     85  C   UNL A   1      45.805  24.630  34.532  1.00  0.00     0.006 A 
ENDBRANCH  61  78
ENDBRANCH  35  36
ENDBRANCH  28  30
ENDBRANCH  27  28
ENDBRANCH  26  27
ENDBRANCH  25  26
ENDBRANCH  24  25
ENDBRANCH   1  24
TORSDOF 18
ENDMDL
MODEL 2
REMARK VINA RESULT:     -15.3      1.122      2.125
REMARK SMILES CCc1cccc(C)c1Nc1ccccc1CC(=O)OCCOCCOC(=O)c1ccc(-c2c3nc(c(-c4c(F)cccc4F)c4ccc([nH]4)c(-c4c(F)cccc4F)c4nc(c(-c5c(F)cccc5F)c5ccc2[nH]5)C=C4)C=C3)cc1
REMARK SMILES IDX 22 1 21 2 20 3 18 4 19 5 17 6 16 7 11 8 12 9 13 10 15 11
REMARK SMILES IDX 14 12 10 13 9 15 3 16 4 17 5 18 7 19 6 20 8 21 2 22 1 23
REMARK SMILES IDX 23 24 24 25 25 26 26 27 27 28 28 29 29 30 30 31 82 32 31 33
REMARK SMILES IDX 81 34 32 35 33 36 34 37 75 38 35 39 80 40 74 41 76 42 36 43
REMARK SMILES IDX 79 44 73 45 72 46 37 48 63 49 46 50 62 51 47 52 50 53 61 54
REMARK SMILES IDX 77 55 48 56 49 57 60 59 78 60 51 61 38 62 39 63 44 64 40 65
REMARK SMILES IDX 41 66 43 67 45 68 42 69 64 70 65 71 70 72 66 73 67 74 69 75
REMARK SMILES IDX 71 76 68 77 52 78 53 79 58 80 54 81 55 82 57 83 59 84 56 85
REMARK H PARENT 10 14 76 47 50 58
REMARK Flexibility Score: inf
ROOT
ATOM      1  C   UNL A   1      33.820  31.784  27.951  1.00  0.00     0.202 C 
ENDROOT
BRANCH   1   2
ATOM      2  C   UNL A   1      32.265  31.156  26.953  1.00  0.00     0.261 C 
BRANCH   2   3
ATOM      3  O   UNL A   1      31.920  29.468  26.434  1.00  0.00    -0.463 OA
BRANCH   3   4
ATOM      4  C   UNL A   1      31.861  28.147  26.910  1.00  0.00     0.310 C 
ATOM      5  O   UNL A   1      31.343  27.900  28.009  1.00  0.00    -0.252 OA
BRANCH   4   6
ATOM      6  C   UNL A   1      32.350  26.881  26.116  1.00  0.00     0.160 C 
BRANCH   6   7
ATOM      7  C   UNL A   1      32.388  26.522  24.534  1.00  0.00    -0.013 A 
ATOM      8  C   UNL A   1      33.405  25.923  23.486  1.00  0.00     0.042 A 
ATOM      9  C   UNL A   1      33.025  26.040  22.127  1.00  0.00     0.026 A 
ATOM     10  C   UNL A   1      31.750  26.532  21.766  1.00  0.00     0.002 A 
ATOM     11  C   UNL A   1      31.169  27.080  24.031  1.00  0.00     0.006 A 
ATOM     12  C   UNL A   1      30.834  27.028  22.693  1.00  0.00     0.000 A 
BRANCH   8  13
ATOM     13  N   UNL A   1      34.437  24.542  23.561  1.00  0.00    -0.355 N 
ATOM     14  H   UNL A   1      35.345  24.677  23.208  1.00  0.00     0.167 HD
BRANCH  13  15
ATOM     15  C   UNL A   1      34.072  22.795  24.230  1.00  0.00     0.045 A 
ATOM     16  C   UNL A   1      35.078  22.873  25.722  1.00  0.00    -0.024 A 
ATOM     17  C   UNL A   1      34.340  22.889  27.261  1.00  0.00     0.006 A 
ATOM     18  C   UNL A   1      32.795  23.033  27.557  1.00  0.00     0.001 A 
ATOM     19  C   UNL A   1      32.045  22.821  24.476  1.00  0.00    -0.027 A 
ATOM     20  C   UNL A   1      31.686  23.092  26.342  1.00  0.00     0.005 A 
ATOM     21  C   UNL A   1      30.744  23.425  23.204  1.00  0.00     0.046 C 
BRANCH  16  22
ATOM     22  C   UNL A   1      36.430  23.499  26.015  1.00  0.00     0.034 C 
ATOM     23  C   UNL A   1      37.586  22.948  25.194  1.00  0.00     0.009 C 
ENDBRANCH  16  22
ENDBRANCH  13  15
ENDBRANCH   8  13
ENDBRANCH   6   7
ENDBRANCH   4   6
ENDBRANCH   3   4
ENDBRANCH   2   3
ENDBRANCH   1   2
BRANCH   1  24
ATOM     24  O   UNL A   1      34.135  33.377  27.751  1.00  0.00    -0.374 OA
BRANCH  24  25
ATOM     25  C   UNL A   1      33.004  34.811  28.681  1.00  0.00     0.202 C 
BRANCH  25  26
ATOM     26  C   UNL A   1      34.144  34.665  30.550  1.00  0.00     0.261 C 
BRANCH  26  27
ATOM     27  O   UNL A   1      35.716  33.567  30.540  1.00  0.00    -0.460 OA
BRANCH  27  28
ATOM     28  C   UNL A   1      36.748  32.383  30.188  1.00  0.00     0.338 C 
ATOM     29  O   UNL A   1      37.892  32.816  29.961  1.00  0.00    -0.246 OA
BRANCH  28  30
ATOM     30  C   UNL A   1      36.744  30.590  29.863  1.00  0.00     0.060 A 
ATOM     31  C   UNL A   1      37.018  29.579  30.797  1.00  0.00     0.016 A 
ATOM     32  C   UNL A   1      36.733  29.869  28.664  1.00  0.00     0.016 A 
ATOM     33  C   UNL A   1      37.968  28.440  30.551  1.00  0.00     0.010 A 
ATOM     34  C   UNL A   1      37.808  28.867  28.395  1.00  0.00     0.010 A 
ATOM     35  C   UNL A   1      38.662  28.300  29.362  1.00  0.00    -0.014 A 
BRANCH  35  36
ATOM     36  C   UNL A   1      40.325  28.273  29.154  1.00  0.00     0.031 A 
ATOM     37  C   UNL A   1      40.878  27.030  28.471  1.00  0.00     0.074 A 
ATOM     38  C   UNL A   1      41.219  29.357  29.319  1.00  0.00     0.049 A 
ATOM     39  N   UNL A   1      41.912  26.382  28.889  1.00  0.00    -0.248 NA
ATOM     40  C   UNL A   1      40.270  26.295  27.342  1.00  0.00     0.031 C 
ATOM     41  C   UNL A   1      42.681  29.595  28.988  1.00  0.00     0.029 A 
ATOM     42  N   UNL A   1      40.908  30.670  29.764  1.00  0.00    -0.354 N 
ATOM     43  C   UNL A   1      42.234  25.428  27.925  1.00  0.00     0.074 A 
ATOM     44  C   UNL A   1      41.029  25.205  27.217  1.00  0.00     0.031 C 
ATOM     45  C   UNL A   1      43.151  30.756  29.524  1.00  0.00     0.029 A 
ATOM     46  C   UNL A   1      42.060  31.339  30.263  1.00  0.00     0.049 A 
ATOM     47  H   UNL A   1      40.007  31.066  29.731  1.00  0.00     0.167 HD
ATOM     48  C   UNL A   1      43.534  25.133  27.633  1.00  0.00     0.037 A 
ATOM     49  C   UNL A   1      42.063  31.668  31.583  1.00  0.00     0.037 A 
ATOM     50  C   UNL A   1      44.375  26.058  28.395  1.00  0.00     0.049 A 
ATOM     51  C   UNL A   1      42.773  30.495  32.252  1.00  0.00     0.074 A 
ATOM     52  C   UNL A   1      45.132  27.163  28.058  1.00  0.00     0.029 A 
ATOM     53  N   UNL A   1      44.167  26.140  29.763  1.00  0.00    -0.354 N 
ATOM     54  N   UNL A   1      42.910  29.315  31.686  1.00  0.00    -0.248 NA
ATOM     55  C   UNL A   1      43.612  30.630  33.436  1.00  0.00     0.031 C 
ATOM     56  C   UNL A   1      45.338  27.920  29.264  1.00  0.00     0.029 A 
ATOM     57  C   UNL A   1      44.666  27.299  30.314  1.00  0.00     0.049 A 
ATOM     58  H   UNL A   1      43.709  25.443  30.286  1.00  0.00     0.167 HD
ATOM     59  C   UNL A   1      43.953  28.647  32.247  1.00  0.00     0.074 A 
ATOM     60  C   UNL A   1      44.324  29.490  33.374  1.00  0.00     0.031 C 
ATOM     61  C   UNL A   1      44.522  27.500  31.760  1.00  0.00     0.037 A 
BRANCH  48  62
ATOM     62  C   UNL A   1      44.094  24.193  26.560  1.00  0.00     0.057 A 
ATOM     63  C   UNL A   1      44.943  23.138  26.963  1.00  0.00     0.134 A 
ATOM     64  C   UNL A   1      43.852  24.205  25.167  1.00  0.00     0.134 A 
ATOM     65  F   UNL A   1      45.264  22.959  28.252  1.00  0.00    -0.206 F 
ATOM     66  C   UNL A   1      45.492  22.192  26.078  1.00  0.00     0.040 A 
ATOM     67  C   UNL A   1      44.378  23.250  24.272  1.00  0.00     0.040 A 
ATOM     68  F   UNL A   1      43.109  25.137  24.567  1.00  0.00    -0.206 F 
ATOM     69  C   UNL A   1      45.202  22.236  24.726  1.00  0.00     0.006 A 
ENDBRANCH  48  62
BRANCH  49  70
ATOM     70  C   UNL A   1      40.735  32.339  31.826  1.00  0.00     0.057 A 
ATOM     71  C   UNL A   1      39.822  31.628  32.661  1.00  0.00     0.134 A 
ATOM     72  C   UNL A   1      40.638  33.729  31.867  1.00  0.00     0.134 A 
ATOM     73  F   UNL A   1      39.822  30.285  32.663  1.00  0.00    -0.206 F 
ATOM     74  C   UNL A   1      39.062  32.260  33.658  1.00  0.00     0.040 A 
ATOM     75  C   UNL A   1      39.805  34.358  32.804  1.00  0.00     0.040 A 
ATOM     76  F   UNL A   1      41.520  34.492  31.204  1.00  0.00    -0.206 F 
ATOM     77  C   UNL A   1      39.100  33.638  33.769  1.00  0.00     0.006 A 
ENDBRANCH  49  70
BRANCH  61  78
ATOM     78  C   UNL A   1      45.029  26.428  32.704  1.00  0.00     0.057 A 
ATOM     79  C   UNL A   1      46.369  26.022  32.750  1.00  0.00     0.134 A 
ATOM     80  C   UNL A   1      44.215  25.855  33.711  1.00  0.00     0.134 A 
ATOM     81  F   UNL A   1      47.332  26.637  32.051  1.00  0.00    -0.206 F 
ATOM     82  C   UNL A   1      46.815  24.990  33.574  1.00  0.00     0.040 A 
ATOM     83  C   UNL A   1      44.683  24.916  34.627  1.00  0.00     0.040 A 
ATOM     84  F   UNL A   1      42.932  26.185  33.902  1.00  0.00    -0.206 F 
ATOM     85  C   UNL A   1      45.971  24.433  34.519  1.00  0.00     0.006 A 
ENDBRANCH  61  78
ENDBRANCH  35  36
ENDBRANCH  28  30
ENDBRANCH  27  28
ENDBRANCH  26  27
ENDBRANCH  25  26
ENDBRANCH  24  25
ENDBRANCH   1  24
TORSDOF 18
ENDMDL
MODEL 3
REMARK VINA RESULT:     -15.1      3.576      8.781
REMARK SMILES CCc1cccc(C)c1Nc1ccccc1CC(=O)OCCOCCOC(=O)c1ccc(-c2c3nc(c(-c4c(F)cccc4F)c4ccc([nH]4)c(-c4c(F)cccc4F)c4nc(c(-c5c(F)cccc5F)c5ccc2[nH]5)C=C4)C=C3)cc1
REMARK SMILES IDX 22 1 21 2 20 3 18 4 19 5 17 6 16 7 11 8 12 9 13 10 15 11
REMARK SMILES IDX 14 12 10 13 9 15 3 16 4 17 5 18 7 19 6 20 8 21 2 22 1 23
REMARK SMILES IDX 23 24 24 25 25 26 26 27 27 28 28 29 29 30 30 31 82 32 31 33
REMARK SMILES IDX 81 34 32 35 33 36 34 37 75 38 35 39 80 40 74 41 76 42 36 43
REMARK SMILES IDX 79 44 73 45 72 46 37 48 63 49 46 50 62 51 47 52 50 53 61 54
REMARK SMILES IDX 77 55 48 56 49 57 60 59 78 60 51 61 38 62 39 63 44 64 40 65
REMARK SMILES IDX 41 66 43 67 45 68 42 69 64 70 65 71 70 72 66 73 67 74 69 75
REMARK SMILES IDX 71 76 68 77 52 78 53 79 58 80 54 81 55 82 57 83 59 84 56 85
REMARK H PARENT 10 14 76 47 50 58
REMARK Flexibility Score: inf
ROOT
ATOM      1  C   UNL A   1      37.342  21.819  25.660  1.00  0.00     0.202 C 
ENDROOT
BRANCH   1   2
ATOM      2  C   UNL A   1      35.971  20.589  25.016  1.00  0.00     0.261 C 
BRANCH   2   3
ATOM      3  O   UNL A   1      34.210  20.641  25.381  1.00  0.00    -0.463 OA
BRANCH   3   4
ATOM      4  C   UNL A   1      32.956  20.254  24.878  1.00  0.00     0.310 C 
ATOM      5  O   UNL A   1      32.350  19.296  25.379  1.00  0.00    -0.252 OA
BRANCH   4   6
ATOM      6  C   UNL A   1      32.178  20.996  23.731  1.00  0.00     0.160 C 
BRANCH   6   7
ATOM      7  C   UNL A   1      32.128  22.549  23.262  1.00  0.00    -0.013 A 
ATOM      8  C   UNL A   1      31.149  23.781  23.372  1.00  0.00     0.042 A 
ATOM      9  C   UNL A   1      31.469  24.894  22.557  1.00  0.00     0.026 A 
ATOM     10  C   UNL A   1      32.671  24.931  21.814  1.00  0.00     0.002 A 
ATOM     11  C   UNL A   1      33.262  22.678  22.398  1.00  0.00     0.006 A 
ATOM     12  C   UNL A   1      33.558  23.857  21.744  1.00  0.00     0.000 A 
BRANCH   8  13
ATOM     13  N   UNL A   1      30.276  24.426  24.713  1.00  0.00    -0.355 N 
ATOM     14  H   UNL A   1      29.426  23.975  24.918  1.00  0.00     0.167 HD
BRANCH  13  15
ATOM     15  C   UNL A   1      30.719  25.887  25.855  1.00  0.00     0.045 A 
ATOM     16  C   UNL A   1      32.409  25.403  26.250  1.00  0.00    -0.024 A 
ATOM     17  C   UNL A   1      33.728  26.323  25.674  1.00  0.00     0.006 A 
ATOM     18  C   UNL A   1      33.658  27.507  24.632  1.00  0.00     0.001 A 
ATOM     19  C   UNL A   1      30.480  27.505  24.631  1.00  0.00    -0.027 A 
ATOM     20  C   UNL A   1      32.222  28.055  24.042  1.00  0.00     0.005 A 
ATOM     21  C   UNL A   1      28.981  27.869  23.495  1.00  0.00     0.046 C 
BRANCH  16  22
ATOM     22  C   UNL A   1      33.056  24.054  26.507  1.00  0.00     0.034 C 
ATOM     23  C   UNL A   1      32.167  23.037  27.206  1.00  0.00     0.009 C 
ENDBRANCH  16  22
ENDBRANCH  13  15
ENDBRANCH   8  13
ENDBRANCH   6   7
ENDBRANCH   4   6
ENDBRANCH   3   4
ENDBRANCH   2   3
ENDBRANCH   1   2
BRANCH   1  24
ATOM     24  O   UNL A   1      38.869  21.260  25.481  1.00  0.00    -0.374 OA
BRANCH  24  25
ATOM     25  C   UNL A   1      39.296  19.262  25.638  1.00  0.00     0.202 C 
BRANCH  25  26
ATOM     26  C   UNL A   1      41.393  19.632  26.170  1.00  0.00     0.261 C 
BRANCH  26  27
ATOM     27  O   UNL A   1      41.889  21.436  26.593  1.00  0.00    -0.460 OA
BRANCH  27  28
ATOM     28  C   UNL A   1      41.799  23.019  26.867  1.00  0.00     0.338 C 
ATOM     29  O   UNL A   1      42.680  23.406  27.654  1.00  0.00    -0.246 OA
BRANCH  28  30
ATOM     30  C   UNL A   1      40.704  24.429  26.503  1.00  0.00     0.060 A 
ATOM     31  C   UNL A   1      41.038  25.562  25.744  1.00  0.00     0.016 A 
ATOM     32  C   UNL A   1      39.479  24.814  27.057  1.00  0.00     0.016 A 
ATOM     33  C   UNL A   1      40.779  26.976  26.183  1.00  0.00     0.010 A 
ATOM     34  C   UNL A   1      39.329  26.182  27.640  1.00  0.00     0.010 A 
ATOM     35  C   UNL A   1      40.182  27.276  27.395  1.00  0.00    -0.014 A 
BRANCH  35  36
ATOM     36  C   UNL A   1      40.829  28.180  28.650  1.00  0.00     0.031 A 
ATOM     37  C   UNL A   1      39.906  29.237  29.238  1.00  0.00     0.074 A 
ATOM     38  C   UNL A   1      42.020  27.910  29.365  1.00  0.00     0.049 A 
ATOM     39  N   UNL A   1      40.272  30.449  29.492  1.00  0.00    -0.248 NA
ATOM     40  C   UNL A   1      38.453  29.111  29.475  1.00  0.00     0.031 C 
ATOM     41  C   UNL A   1      42.654  28.460  30.629  1.00  0.00     0.029 A 
ATOM     42  N   UNL A   1      42.951  26.864  29.123  1.00  0.00    -0.354 N 
ATOM     43  C   UNL A   1      39.235  31.068  30.187  1.00  0.00     0.074 A 
ATOM     44  C   UNL A   1      38.074  30.338  29.837  1.00  0.00     0.031 C 
ATOM     45  C   UNL A   1      43.924  28.002  30.813  1.00  0.00     0.029 A 
ATOM     46  C   UNL A   1      44.225  27.159  29.684  1.00  0.00     0.049 A 
ATOM     47  H   UNL A   1      42.739  26.039  28.630  1.00  0.00     0.167 HD
ATOM     48  C   UNL A   1      39.492  31.945  31.201  1.00  0.00     0.037 A 
ATOM     49  C   UNL A   1      45.263  27.310  28.818  1.00  0.00     0.037 A 
ATOM     50  C   UNL A   1      40.940  31.947  31.422  1.00  0.00     0.049 A 
ATOM     51  C   UNL A   1      45.314  28.813  28.564  1.00  0.00     0.074 A 
ATOM     52  C   UNL A   1      41.759  31.431  32.405  1.00  0.00     0.029 A 
ATOM     53  N   UNL A   1      41.758  32.181  30.326  1.00  0.00    -0.354 N 
ATOM     54  N   UNL A   1      44.304  29.621  28.803  1.00  0.00    -0.248 NA
ATOM     55  C   UNL A   1      46.548  29.546  28.312  1.00  0.00     0.031 C 
ATOM     56  C   UNL A   1      43.083  31.335  31.849  1.00  0.00     0.029 A 
ATOM     57  C   UNL A   1      43.049  31.746  30.518  1.00  0.00     0.049 A 
ATOM     58  H   UNL A   1      41.446  32.612  29.497  1.00  0.00     0.167 HD
ATOM     59  C   UNL A   1      44.753  30.895  28.957  1.00  0.00     0.074 A 
ATOM     60  C   UNL A   1      46.157  30.804  28.586  1.00  0.00     0.031 C 
ATOM     61  C   UNL A   1      44.019  31.949  29.437  1.00  0.00     0.037 A 
BRANCH  48  62
ATOM     62  C   UNL A   1      38.508  32.657  32.135  1.00  0.00     0.057 A 
ATOM     63  C   UNL A   1      37.917  31.918  33.184  1.00  0.00     0.134 A 
ATOM     64  C   UNL A   1      38.108  34.014  32.123  1.00  0.00     0.134 A 
ATOM     65  F   UNL A   1      38.199  30.619  33.363  1.00  0.00    -0.206 F 
ATOM     66  C   UNL A   1      37.027  32.466  34.125  1.00  0.00     0.040 A 
ATOM     67  C   UNL A   1      37.234  34.581  33.073  1.00  0.00     0.040 A 
ATOM     68  F   UNL A   1      38.517  34.882  31.196  1.00  0.00    -0.206 F 
ATOM     69  C   UNL A   1      36.688  33.807  34.081  1.00  0.00     0.006 A 
ENDBRANCH  48  62
BRANCH  49  70
ATOM     70  C   UNL A   1      45.190  26.115  27.901  1.00  0.00     0.057 A 
ATOM     71  C   UNL A   1      44.874  26.395  26.538  1.00  0.00     0.134 A 
ATOM     72  C   UNL A   1      45.998  25.001  28.120  1.00  0.00     0.134 A 
ATOM     73  F   UNL A   1      44.074  27.430  26.234  1.00  0.00    -0.206 F 
ATOM     74  C   UNL A   1      45.535  25.773  25.467  1.00  0.00     0.040 A 
ATOM     75  C   UNL A   1      46.585  24.323  27.041  1.00  0.00     0.040 A 
ATOM     76  F   UNL A   1      46.443  24.715  29.353  1.00  0.00    -0.206 F 
ATOM     77  C   UNL A   1      46.446  24.766  25.725  1.00  0.00     0.006 A 
ENDBRANCH  49  70
BRANCH  61  78
ATOM     78  C   UNL A   1      44.209  33.343  28.873  1.00  0.00     0.057 A 
ATOM     79  C   UNL A   1      44.660  34.424  29.643  1.00  0.00     0.134 A 
ATOM     80  C   UNL A   1      44.084  33.628  27.492  1.00  0.00     0.134 A 
ATOM     81  F   UNL A   1      45.076  34.283  30.908  1.00  0.00    -0.206 F 
ATOM     82  C   UNL A   1      44.769  35.716  29.134  1.00  0.00     0.040 A 
ATOM     83  C   UNL A   1      44.317  34.889  26.950  1.00  0.00     0.040 A 
ATOM     84  F   UNL A   1      43.764  32.709  26.573  1.00  0.00    -0.206 F 
ATOM     85  C   UNL A   1      44.598  35.954  27.782  1.00  0.00     0.006 A 
ENDBRANCH  61  78
ENDBRANCH  35  36
ENDBRANCH  28  30
ENDBRANCH  27  28
ENDBRANCH  26  27
ENDBRANCH  25  26
ENDBRANCH  24  25
ENDBRANCH   1  24
TORSDOF 18
ENDMDL
