MODEL 1
REMARK VINA RESULT:      -9.6      0.000      0.000
REMARK SMILES O=C(OCCOCCOC(=O)[C@H]1CS[C@H](c2cc(F)ccc2F)[NH2+]1)c1ccc(-c2c3nc(c(-c4c(F)cccc4F)c4ccc([nH]4)c(-c4c(F)cccc4F)c4nc(c(-c5c(F)cccc5F)c5ccc2[nH]5)C=C4)C=C3)cc1
REMARK SMILES IDX 5 1 4 2 3 3 2 4 1 5 25 6 26 7 78 8 27 9 77 10 28 11 29 12
REMARK SMILES IDX 30 13 71 14 31 15 76 16 70 17 72 18 32 19 75 20 69 21 68 22
REMARK SMILES IDX 33 24 59 25 42 26 58 27 43 28 46 29 57 30 73 31 44 32 45 33
REMARK SMILES IDX 56 35 74 36 47 37 34 38 35 39 40 40 36 41 37 42 39 43 41 44
REMARK SMILES IDX 38 45 60 46 61 47 66 48 62 49 63 50 65 51 67 52 64 53 48 54
REMARK SMILES IDX 49 55 54 56 50 57 51 58 53 59 55 60 52 61 6 62 7 63 8 64
REMARK SMILES IDX 9 65 10 66 11 67 12 68 13 69 24 70 14 71 15 72 16 75 17 76
REMARK SMILES IDX 22 77 18 78 21 79 23 80 19 81 20 82
REMARK H PARENT 72 23 46 34 24 73 24 74
REMARK Flexibility Score: inf
ROOT
ATOM      1  C   UNL A   1      33.646  34.188  28.826  1.00  0.00     0.202 C 
ENDROOT
BRANCH   1   2
ATOM      2  C   UNL A   1      34.585  33.075  28.346  1.00  0.00     0.261 C 
BRANCH   2   3
ATOM      3  O   UNL A   1      33.959  31.791  28.456  1.00  0.00    -0.460 OA
BRANCH   3   4
ATOM      4  C   UNL A   1      34.438  30.604  28.020  1.00  0.00     0.338 C 
ATOM      5  O   UNL A   1      33.691  29.861  27.388  1.00  0.00    -0.246 OA
BRANCH   4   6
ATOM      6  C   UNL A   1      35.830  30.134  28.291  1.00  0.00     0.060 A 
ATOM      7  C   UNL A   1      36.280  29.613  29.509  1.00  0.00     0.016 A 
ATOM      8  C   UNL A   1      36.717  30.132  27.206  1.00  0.00     0.016 A 
ATOM      9  C   UNL A   1      37.562  29.137  29.677  1.00  0.00     0.010 A 
ATOM     10  C   UNL A   1      38.015  29.644  27.355  1.00  0.00     0.010 A 
ATOM     11  C   UNL A   1      38.432  29.162  28.599  1.00  0.00    -0.014 A 
BRANCH  11  12
ATOM     12  C   UNL A   1      39.831  28.839  28.871  1.00  0.00     0.031 A 
ATOM     13  C   UNL A   1      40.652  29.887  29.536  1.00  0.00     0.074 A 
ATOM     14  C   UNL A   1      40.283  27.602  28.624  1.00  0.00     0.049 A 
ATOM     15  N   UNL A   1      41.935  29.916  29.755  1.00  0.00    -0.248 NA
ATOM     16  C   UNL A   1      39.922  31.068  30.030  1.00  0.00     0.031 C 
ATOM     17  C   UNL A   1      39.470  26.487  28.132  1.00  0.00     0.029 A 
ATOM     18  N   UNL A   1      41.536  27.077  28.755  1.00  0.00    -0.354 N 
ATOM     19  C   UNL A   1      42.174  31.139  30.362  1.00  0.00     0.074 A 
ATOM     20  C   UNL A   1      40.907  31.820  30.490  1.00  0.00     0.031 C 
ATOM     21  C   UNL A   1      40.258  25.412  27.975  1.00  0.00     0.029 A 
ATOM     22  C   UNL A   1      41.632  25.793  28.282  1.00  0.00     0.049 A 
ATOM     23  H   UNL A   1      42.292  27.569  29.149  1.00  0.00     0.167 HD
ATOM     24  C   UNL A   1      43.367  31.644  30.747  1.00  0.00     0.037 A 
ATOM     25  C   UNL A   1      42.730  25.050  28.062  1.00  0.00     0.037 A 
ATOM     26  C   UNL A   1      44.596  30.922  30.574  1.00  0.00     0.049 A 
ATOM     27  C   UNL A   1      44.060  25.666  28.397  1.00  0.00     0.074 A 
ATOM     28  C   UNL A   1      45.886  31.320  30.860  1.00  0.00     0.029 A 
ATOM     29  N   UNL A   1      44.673  29.634  30.052  1.00  0.00    -0.354 N 
ATOM     30  N   UNL A   1      44.313  26.854  28.899  1.00  0.00    -0.248 NA
ATOM     31  C   UNL A   1      45.254  24.857  28.129  1.00  0.00     0.031 C 
ATOM     32  C   UNL A   1      46.747  30.294  30.455  1.00  0.00     0.029 A 
ATOM     33  C   UNL A   1      45.992  29.229  29.982  1.00  0.00     0.049 A 
ATOM     34  H   UNL A   1      43.900  29.091  29.772  1.00  0.00     0.167 HD
ATOM     35  C   UNL A   1      45.691  26.929  29.034  1.00  0.00     0.074 A 
ATOM     36  C   UNL A   1      46.218  25.663  28.557  1.00  0.00     0.031 C 
ATOM     37  C   UNL A   1      46.455  27.944  29.511  1.00  0.00     0.037 A 
BRANCH  24  38
ATOM     38  C   UNL A   1      43.368  33.054  31.259  1.00  0.00     0.057 A 
ATOM     39  C   UNL A   1      43.223  33.365  32.618  1.00  0.00     0.134 A 
ATOM     40  C   UNL A   1      43.420  34.125  30.357  1.00  0.00     0.134 A 
ATOM     41  F   UNL A   1      43.130  32.388  33.533  1.00  0.00    -0.206 F 
ATOM     42  C   UNL A   1      43.079  34.684  33.055  1.00  0.00     0.040 A 
ATOM     43  C   UNL A   1      43.309  35.449  30.785  1.00  0.00     0.040 A 
ATOM     44  F   UNL A   1      43.547  33.902  29.041  1.00  0.00    -0.206 F 
ATOM     45  C   UNL A   1      43.122  35.731  32.136  1.00  0.00     0.006 A 
ENDBRANCH  24  38
BRANCH  25  46
ATOM     46  C   UNL A   1      42.597  23.707  27.447  1.00  0.00     0.057 A 
ATOM     47  C   UNL A   1      42.684  23.523  26.064  1.00  0.00     0.134 A 
ATOM     48  C   UNL A   1      42.433  22.560  28.238  1.00  0.00     0.134 A 
ATOM     49  F   UNL A   1      42.830  24.579  25.251  1.00  0.00    -0.206 F 
ATOM     50  C   UNL A   1      42.615  22.252  25.490  1.00  0.00     0.040 A 
ATOM     51  C   UNL A   1      42.387  21.281  27.681  1.00  0.00     0.040 A 
ATOM     52  F   UNL A   1      42.350  22.664  29.574  1.00  0.00    -0.206 F 
ATOM     53  C   UNL A   1      42.476  21.125  26.300  1.00  0.00     0.006 A 
ENDBRANCH  25  46
BRANCH  37  54
ATOM     54  C   UNL A   1      47.930  27.704  29.595  1.00  0.00     0.057 A 
ATOM     55  C   UNL A   1      48.802  28.084  28.570  1.00  0.00     0.134 A 
ATOM     56  C   UNL A   1      48.487  27.185  30.772  1.00  0.00     0.134 A 
ATOM     57  F   UNL A   1      48.324  28.575  27.417  1.00  0.00    -0.206 F 
ATOM     58  C   UNL A   1      50.184  27.957  28.712  1.00  0.00     0.040 A 
ATOM     59  C   UNL A   1      49.866  27.079  30.936  1.00  0.00     0.040 A 
ATOM     60  F   UNL A   1      47.699  26.814  31.792  1.00  0.00    -0.206 F 
ATOM     61  C   UNL A   1      50.718  27.466  29.903  1.00  0.00     0.006 A 
ENDBRANCH  37  54
ENDBRANCH  11  12
ENDBRANCH   4   6
ENDBRANCH   3   4
ENDBRANCH   2   3
ENDBRANCH   1   2
BRANCH   1  62
ATOM     62  O   UNL A   1      34.223  35.356  29.418  1.00  0.00    -0.374 OA
BRANCH  62  63
ATOM     63  C   UNL A   1      33.417  36.542  29.478  1.00  0.00     0.202 C 
BRANCH  63  64
ATOM     64  C   UNL A   1      33.214  36.974  30.934  1.00  0.00     0.261 C 
BRANCH  64  65
ATOM     65  O   UNL A   1      33.422  35.825  31.763  1.00  0.00    -0.459 OA
BRANCH  65  66
ATOM     66  C   UNL A   1      34.256  36.060  32.813  1.00  0.00     0.365 C 
ATOM     67  O   UNL A   1      34.227  37.066  33.506  1.00  0.00    -0.245 OA
BRANCH  66  68
ATOM     68  C   UNL A   1      35.224  34.889  33.024  1.00  0.00     0.304 C 
ATOM     69  C   UNL A   1      34.550  33.547  33.355  1.00  0.00     0.153 C 
ATOM     70  N   UNL A   1      36.139  34.770  31.855  1.00  0.00    -0.319 N 
ATOM     71  S   UNL A   1      34.981  32.452  32.004  1.00  0.00    -0.087 SA
ATOM     72  C   UNL A   1      36.508  33.369  31.690  1.00  0.00     0.277 C 
ATOM     73  H   UNL A   1      36.977  35.330  32.017  1.00  0.00     0.348 HD
ATOM     74  H   UNL A   1      35.673  35.109  31.013  1.00  0.00     0.348 HD
BRANCH  72  75
ATOM     75  C   UNL A   1      37.662  32.856  32.532  1.00  0.00     0.059 A 
ATOM     76  C   UNL A   1      37.669  31.488  32.875  1.00  0.00     0.053 A 
ATOM     77  C   UNL A   1      38.746  33.629  32.979  1.00  0.00     0.133 A 
ATOM     78  C   UNL A   1      38.707  30.940  33.623  1.00  0.00     0.123 A 
ATOM     79  C   UNL A   1      39.784  33.075  33.735  1.00  0.00     0.043 A 
ATOM     80  F   UNL A   1      38.840  34.936  32.709  1.00  0.00    -0.206 F 
ATOM     81  F   UNL A   1      38.683  29.636  33.924  1.00  0.00    -0.207 F 
ATOM     82  C   UNL A   1      39.769  31.722  34.055  1.00  0.00     0.042 A 
ENDBRANCH  72  75
ENDBRANCH  66  68
ENDBRANCH  65  66
ENDBRANCH  64  65
ENDBRANCH  63  64
ENDBRANCH  62  63
ENDBRANCH   1  62
TORSDOF 15
ENDMDL
MODEL 2
REMARK VINA RESULT:      -9.6      4.371     11.182
REMARK SMILES O=C(OCCOCCOC(=O)[C@H]1CS[C@H](c2cc(F)ccc2F)[NH2+]1)c1ccc(-c2c3nc(c(-c4c(F)cccc4F)c4ccc([nH]4)c(-c4c(F)cccc4F)c4nc(c(-c5c(F)cccc5F)c5ccc2[nH]5)C=C4)C=C3)cc1
REMARK SMILES IDX 5 1 4 2 3 3 2 4 1 5 25 6 26 7 78 8 27 9 77 10 28 11 29 12
REMARK SMILES IDX 30 13 71 14 31 15 76 16 70 17 72 18 32 19 75 20 69 21 68 22
REMARK SMILES IDX 33 24 59 25 42 26 58 27 43 28 46 29 57 30 73 31 44 32 45 33
REMARK SMILES IDX 56 35 74 36 47 37 34 38 35 39 40 40 36 41 37 42 39 43 41 44
REMARK SMILES IDX 38 45 60 46 61 47 66 48 62 49 63 50 65 51 67 52 64 53 48 54
REMARK SMILES IDX 49 55 54 56 50 57 51 58 53 59 55 60 52 61 6 62 7 63 8 64
REMARK SMILES IDX 9 65 10 66 11 67 12 68 13 69 24 70 14 71 15 72 16 75 17 76
REMARK SMILES IDX 22 77 18 78 21 79 23 80 19 81 20 82
REMARK H PARENT 72 23 46 34 24 73 24 74
REMARK Flexibility Score: inf
ROOT
ATOM      1  C   UNL A   1      41.091  19.811  26.767  1.00  0.00     0.202 C 
ENDROOT
BRANCH   1   2
ATOM      2  C   UNL A   1      39.976  20.542  26.010  1.00  0.00     0.261 C 
BRANCH   2   3
ATOM      3  O   UNL A   1      39.395  21.572  26.819  1.00  0.00    -0.460 OA
BRANCH   3   4
ATOM      4  C   UNL A   1      38.928  22.773  26.408  1.00  0.00     0.338 C 
ATOM      5  O   UNL A   1      38.045  22.803  25.554  1.00  0.00    -0.246 OA
BRANCH   4   6
ATOM      6  C   UNL A   1      39.454  24.074  26.920  1.00  0.00     0.060 A 
ATOM      7  C   UNL A   1      39.558  24.424  28.270  1.00  0.00     0.016 A 
ATOM      8  C   UNL A   1      39.970  24.964  25.967  1.00  0.00     0.016 A 
ATOM      9  C   UNL A   1      40.112  25.617  28.680  1.00  0.00     0.010 A 
ATOM     10  C   UNL A   1      40.543  26.170  26.365  1.00  0.00     0.010 A 
ATOM     11  C   UNL A   1      40.596  26.494  27.724  1.00  0.00    -0.014 A 
BRANCH  11  12
ATOM     12  C   UNL A   1      40.989  27.824  28.184  1.00  0.00     0.031 A 
ATOM     13  C   UNL A   1      42.444  28.140  28.182  1.00  0.00     0.074 A 
ATOM     14  C   UNL A   1      40.045  28.729  28.475  1.00  0.00     0.049 A 
ATOM     15  N   UNL A   1      43.066  29.173  28.671  1.00  0.00    -0.248 NA
ATOM     16  C   UNL A   1      43.322  27.151  27.532  1.00  0.00     0.031 C 
ATOM     17  C   UNL A   1      38.602  28.522  28.326  1.00  0.00     0.029 A 
ATOM     18  N   UNL A   1      40.158  30.002  28.952  1.00  0.00    -0.354 N 
ATOM     19  C   UNL A   1      44.411  28.935  28.437  1.00  0.00     0.074 A 
ATOM     20  C   UNL A   1      44.518  27.669  27.752  1.00  0.00     0.031 C 
ATOM     21  C   UNL A   1      37.961  29.628  28.736  1.00  0.00     0.029 A 
ATOM     22  C   UNL A   1      38.947  30.576  29.242  1.00  0.00     0.049 A 
ATOM     23  H   UNL A   1      41.020  30.461  29.076  1.00  0.00     0.167 HD
ATOM     24  C   UNL A   1      45.456  29.712  28.797  1.00  0.00     0.037 A 
ATOM     25  C   UNL A   1      38.685  31.714  29.908  1.00  0.00     0.037 A 
ATOM     26  C   UNL A   1      45.282  30.955  29.494  1.00  0.00     0.049 A 
ATOM     27  C   UNL A   1      39.859  32.515  30.396  1.00  0.00     0.074 A 
ATOM     28  C   UNL A   1      46.240  31.823  29.976  1.00  0.00     0.029 A 
ATOM     29  N   UNL A   1      44.041  31.499  29.815  1.00  0.00    -0.354 N 
ATOM     30  N   UNL A   1      41.142  32.266  30.253  1.00  0.00    -0.248 NA
ATOM     31  C   UNL A   1      39.563  33.741  31.145  1.00  0.00     0.031 C 
ATOM     32  C   UNL A   1      45.578  32.862  30.640  1.00  0.00     0.029 A 
ATOM     33  C   UNL A   1      44.206  32.680  30.511  1.00  0.00     0.049 A 
ATOM     34  H   UNL A   1      43.172  31.099  29.580  1.00  0.00     0.167 HD
ATOM     35  C   UNL A   1      41.809  33.314  30.868  1.00  0.00     0.074 A 
ATOM     36  C   UNL A   1      40.784  34.201  31.387  1.00  0.00     0.031 C 
ATOM     37  C   UNL A   1      43.143  33.532  30.991  1.00  0.00     0.037 A 
BRANCH  24  38
ATOM     38  C   UNL A   1      46.827  29.159  28.541  1.00  0.00     0.057 A 
ATOM     39  C   UNL A   1      47.540  29.419  27.363  1.00  0.00     0.134 A 
ATOM     40  C   UNL A   1      47.402  28.267  29.456  1.00  0.00     0.134 A 
ATOM     41  F   UNL A   1      47.031  30.234  26.426  1.00  0.00    -0.206 F 
ATOM     42  C   UNL A   1      48.748  28.776  27.082  1.00  0.00     0.040 A 
ATOM     43  C   UNL A   1      48.624  27.643  29.201  1.00  0.00     0.040 A 
ATOM     44  F   UNL A   1      46.771  27.963  30.600  1.00  0.00    -0.206 F 
ATOM     45  C   UNL A   1      49.293  27.885  28.003  1.00  0.00     0.006 A 
ENDBRANCH  24  38
BRANCH  25  46
ATOM     46  C   UNL A   1      37.279  32.092  30.189  1.00  0.00     0.057 A 
ATOM     47  C   UNL A   1      36.618  31.650  31.339  1.00  0.00     0.134 A 
ATOM     48  C   UNL A   1      36.576  32.958  29.338  1.00  0.00     0.134 A 
ATOM     49  F   UNL A   1      37.229  30.812  32.188  1.00  0.00    -0.206 F 
ATOM     50  C   UNL A   1      35.313  32.052  31.632  1.00  0.00     0.040 A 
ATOM     51  C   UNL A   1      35.281  33.389  29.631  1.00  0.00     0.040 A 
ATOM     52  F   UNL A   1      37.155  33.428  28.222  1.00  0.00    -0.206 F 
ATOM     53  C   UNL A   1      34.644  32.932  30.782  1.00  0.00     0.006 A 
ENDBRANCH  25  46
BRANCH  37  54
ATOM     54  C   UNL A   1      43.566  34.802  31.660  1.00  0.00     0.057 A 
ATOM     55  C   UNL A   1      43.752  35.989  30.944  1.00  0.00     0.134 A 
ATOM     56  C   UNL A   1      43.679  34.852  33.056  1.00  0.00     0.134 A 
ATOM     57  F   UNL A   1      43.668  35.998  29.606  1.00  0.00    -0.206 F 
ATOM     58  C   UNL A   1      44.036  37.189  31.597  1.00  0.00     0.040 A 
ATOM     59  C   UNL A   1      43.933  36.049  33.720  1.00  0.00     0.040 A 
ATOM     60  F   UNL A   1      43.500  33.746  33.793  1.00  0.00    -0.206 F 
ATOM     61  C   UNL A   1      44.113  37.222  32.990  1.00  0.00     0.006 A 
ENDBRANCH  37  54
ENDBRANCH  11  12
ENDBRANCH   4   6
ENDBRANCH   3   4
ENDBRANCH   2   3
ENDBRANCH   1   2
BRANCH   1  62
ATOM     62  O   UNL A   1      41.880  18.853  26.056  1.00  0.00    -0.374 OA
BRANCH  62  63
ATOM     63  C   UNL A   1      42.848  18.099  26.801  1.00  0.00     0.202 C 
BRANCH  63  64
ATOM     64  C   UNL A   1      44.205  18.124  26.088  1.00  0.00     0.261 C 
BRANCH  64  65
ATOM     65  O   UNL A   1      43.960  18.320  24.690  1.00  0.00    -0.459 OA
BRANCH  65  66
ATOM     66  C   UNL A   1      44.824  19.196  24.108  1.00  0.00     0.365 C 
ATOM     67  O   UNL A   1      45.349  19.026  23.018  1.00  0.00    -0.245 OA
BRANCH  66  68
ATOM     68  C   UNL A   1      45.037  20.432  24.990  1.00  0.00     0.304 C 
ATOM     69  C   UNL A   1      46.325  21.221  24.697  1.00  0.00     0.153 C 
ATOM     70  N   UNL A   1      43.833  21.307  24.936  1.00  0.00    -0.319 N 
ATOM     71  S   UNL A   1      45.778  22.841  24.160  1.00  0.00    -0.087 SA
ATOM     72  C   UNL A   1      44.252  22.692  25.120  1.00  0.00     0.277 C 
ATOM     73  H   UNL A   1      43.183  21.043  25.677  1.00  0.00     0.348 HD
ATOM     74  H   UNL A   1      43.367  21.201  24.035  1.00  0.00     0.348 HD
BRANCH  72  75
ATOM     75  C   UNL A   1      44.428  23.175  26.548  1.00  0.00     0.059 A 
ATOM     76  C   UNL A   1      45.675  23.729  26.905  1.00  0.00     0.053 A 
ATOM     77  C   UNL A   1      43.438  23.143  27.543  1.00  0.00     0.133 A 
ATOM     78  C   UNL A   1      45.903  24.217  28.188  1.00  0.00     0.123 A 
ATOM     79  C   UNL A   1      43.674  23.629  28.832  1.00  0.00     0.043 A 
ATOM     80  F   UNL A   1      42.220  22.640  27.310  1.00  0.00    -0.206 F 
ATOM     81  F   UNL A   1      47.098  24.742  28.489  1.00  0.00    -0.207 F 
ATOM     82  C   UNL A   1      44.911  24.175  29.157  1.00  0.00     0.042 A 
ENDBRANCH  72  75
ENDBRANCH  66  68
ENDBRANCH  65  66
ENDBRANCH  64  65
ENDBRANCH  63  64
ENDBRANCH  62  63
ENDBRANCH   1  62
TORSDOF 15
ENDMDL
MODEL 3
REMARK VINA RESULT:      -9.5      4.349     11.187
REMARK SMILES O=C(OCCOCCOC(=O)[C@H]1CS[C@H](c2cc(F)ccc2F)[NH2+]1)c1ccc(-c2c3nc(c(-c4c(F)cccc4F)c4ccc([nH]4)c(-c4c(F)cccc4F)c4nc(c(-c5c(F)cccc5F)c5ccc2[nH]5)C=C4)C=C3)cc1
REMARK SMILES IDX 5 1 4 2 3 3 2 4 1 5 25 6 26 7 78 8 27 9 77 10 28 11 29 12
REMARK SMILES IDX 30 13 71 14 31 15 76 16 70 17 72 18 32 19 75 20 69 21 68 22
REMARK SMILES IDX 33 24 59 25 42 26 58 27 43 28 46 29 57 30 73 31 44 32 45 33
REMARK SMILES IDX 56 35 74 36 47 37 34 38 35 39 40 40 36 41 37 42 39 43 41 44
REMARK SMILES IDX 38 45 60 46 61 47 66 48 62 49 63 50 65 51 67 52 64 53 48 54
REMARK SMILES IDX 49 55 54 56 50 57 51 58 53 59 55 60 52 61 6 62 7 63 8 64
REMARK SMILES IDX 9 65 10 66 11 67 12 68 13 69 24 70 14 71 15 72 16 75 17 76
REMARK SMILES IDX 22 77 18 78 21 79 23 80 19 81 20 82
REMARK H PARENT 72 23 46 34 24 73 24 74
REMARK Flexibility Score: inf
ROOT
ATOM      1  C   UNL A   1      40.881  19.665  26.221  1.00  0.00     0.202 C 
ENDROOT
BRANCH   1   2
ATOM      2  C   UNL A   1      41.053  21.100  26.732  1.00  0.00     0.261 C 
BRANCH   2   3
ATOM      3  O   UNL A   1      39.786  21.685  27.055  1.00  0.00    -0.460 OA
BRANCH   3   4
ATOM      4  C   UNL A   1      39.258  22.827  26.557  1.00  0.00     0.338 C 
ATOM      5  O   UNL A   1      38.491  22.754  25.599  1.00  0.00    -0.246 OA
BRANCH   4   6
ATOM      6  C   UNL A   1      39.582  24.182  27.095  1.00  0.00     0.060 A 
ATOM      7  C   UNL A   1      40.198  25.209  26.372  1.00  0.00     0.016 A 
ATOM      8  C   UNL A   1      39.142  24.464  28.396  1.00  0.00     0.016 A 
ATOM      9  C   UNL A   1      40.412  26.460  26.909  1.00  0.00     0.010 A 
ATOM     10  C   UNL A   1      39.341  25.728  28.950  1.00  0.00     0.010 A 
ATOM     11  C   UNL A   1      39.991  26.714  28.203  1.00  0.00    -0.014 A 
BRANCH  11  12
ATOM     12  C   UNL A   1      40.414  27.979  28.799  1.00  0.00     0.031 A 
ATOM     13  C   UNL A   1      41.849  28.104  29.176  1.00  0.00     0.074 A 
ATOM     14  C   UNL A   1      39.546  28.997  28.878  1.00  0.00     0.049 A 
ATOM     15  N   UNL A   1      42.448  29.046  29.846  1.00  0.00    -0.248 NA
ATOM     16  C   UNL A   1      42.735  27.015  28.729  1.00  0.00     0.031 C 
ATOM     17  C   UNL A   1      38.174  28.979  28.364  1.00  0.00     0.029 A 
ATOM     18  N   UNL A   1      39.690  30.241  29.419  1.00  0.00    -0.354 N 
ATOM     19  C   UNL A   1      43.769  28.638  29.948  1.00  0.00     0.074 A 
ATOM     20  C   UNL A   1      43.890  27.372  29.262  1.00  0.00     0.031 C 
ATOM     21  C   UNL A   1      37.592  30.156  28.642  1.00  0.00     0.029 A 
ATOM     22  C   UNL A   1      38.525  30.965  29.416  1.00  0.00     0.049 A 
ATOM     23  H   UNL A   1      40.543  30.584  29.773  1.00  0.00     0.167 HD
ATOM     24  C   UNL A   1      44.776  29.270  30.589  1.00  0.00     0.037 A 
ATOM     25  C   UNL A   1      38.245  32.123  30.039  1.00  0.00     0.037 A 
ATOM     26  C   UNL A   1      44.585  30.521  31.269  1.00  0.00     0.049 A 
ATOM     27  C   UNL A   1      39.346  32.763  30.838  1.00  0.00     0.074 A 
ATOM     28  C   UNL A   1      45.488  31.255  32.010  1.00  0.00     0.029 A 
ATOM     29  N   UNL A   1      43.380  31.218  31.288  1.00  0.00    -0.354 N 
ATOM     30  N   UNL A   1      40.582  32.351  31.013  1.00  0.00    -0.248 NA
ATOM     31  C   UNL A   1      39.023  34.012  31.536  1.00  0.00     0.031 C 
ATOM     32  C   UNL A   1      44.812  32.366  32.525  1.00  0.00     0.029 A 
ATOM     33  C   UNL A   1      43.507  32.363  32.049  1.00  0.00     0.049 A 
ATOM     34  H   UNL A   1      42.557  30.935  30.826  1.00  0.00     0.167 HD
ATOM     35  C   UNL A   1      41.195  33.300  31.816  1.00  0.00     0.074 A 
ATOM     36  C   UNL A   1      40.189  34.309  32.095  1.00  0.00     0.031 C 
ATOM     37  C   UNL A   1      42.470  33.343  32.279  1.00  0.00     0.037 A 
BRANCH  24  38
ATOM     38  C   UNL A   1      46.088  28.546  30.665  1.00  0.00     0.057 A 
ATOM     39  C   UNL A   1      47.121  28.754  29.741  1.00  0.00     0.134 A 
ATOM     40  C   UNL A   1      46.280  27.549  31.629  1.00  0.00     0.134 A 
ATOM     41  F   UNL A   1      46.989  29.668  28.768  1.00  0.00    -0.206 F 
ATOM     42  C   UNL A   1      48.273  27.965  29.743  1.00  0.00     0.040 A 
ATOM     43  C   UNL A   1      47.441  26.774  31.661  1.00  0.00     0.040 A 
ATOM     44  F   UNL A   1      45.329  27.287  32.539  1.00  0.00    -0.206 F 
ATOM     45  C   UNL A   1      48.435  26.971  30.706  1.00  0.00     0.006 A 
ENDBRANCH  24  38
BRANCH  25  46
ATOM     46  C   UNL A   1      36.872  32.678  29.973  1.00  0.00     0.057 A 
ATOM     47  C   UNL A   1      35.910  32.371  30.940  1.00  0.00     0.134 A 
ATOM     48  C   UNL A   1      36.501  33.580  28.964  1.00  0.00     0.134 A 
ATOM     49  F   UNL A   1      36.196  31.507  31.924  1.00  0.00    -0.206 F 
ATOM     50  C   UNL A   1      34.634  32.939  30.909  1.00  0.00     0.040 A 
ATOM     51  C   UNL A   1      35.239  34.175  28.934  1.00  0.00     0.040 A 
ATOM     52  F   UNL A   1      37.379  33.926  28.009  1.00  0.00    -0.206 F 
ATOM     53  C   UNL A   1      34.299  33.851  29.908  1.00  0.00     0.006 A 
ENDBRANCH  25  46
BRANCH  37  54
ATOM     54  C   UNL A   1      42.862  34.543  33.082  1.00  0.00     0.057 A 
ATOM     55  C   UNL A   1      43.295  35.728  32.479  1.00  0.00     0.134 A 
ATOM     56  C   UNL A   1      42.695  34.537  34.473  1.00  0.00     0.134 A 
ATOM     57  F   UNL A   1      43.483  35.788  31.152  1.00  0.00    -0.206 F 
ATOM     58  C   UNL A   1      43.548  36.873  33.235  1.00  0.00     0.040 A 
ATOM     59  C   UNL A   1      42.918  35.681  35.235  1.00  0.00     0.040 A 
ATOM     60  F   UNL A   1      42.272  33.431  35.104  1.00  0.00    -0.206 F 
ATOM     61  C   UNL A   1      43.345  36.854  34.615  1.00  0.00     0.006 A 
ENDBRANCH  37  54
ENDBRANCH  11  12
ENDBRANCH   4   6
ENDBRANCH   3   4
ENDBRANCH   2   3
ENDBRANCH   1   2
BRANCH   1  62
ATOM     62  O   UNL A   1      41.878  19.132  25.344  1.00  0.00    -0.374 OA
BRANCH  62  63
ATOM     63  C   UNL A   1      43.122  18.712  25.923  1.00  0.00     0.202 C 
BRANCH  63  64
ATOM     64  C   UNL A   1      44.272  18.940  24.937  1.00  0.00     0.261 C 
BRANCH  64  65
ATOM     65  O   UNL A   1      45.355  19.537  25.659  1.00  0.00    -0.459 OA
BRANCH  65  66
ATOM     66  C   UNL A   1      46.183  20.280  24.873  1.00  0.00     0.365 C 
ATOM     67  O   UNL A   1      47.047  19.814  24.147  1.00  0.00    -0.245 OA
BRANCH  66  68
ATOM     68  C   UNL A   1      45.874  21.777  25.004  1.00  0.00     0.304 C 
ATOM     69  C   UNL A   1      44.963  22.346  23.903  1.00  0.00     0.153 C 
ATOM     70  N   UNL A   1      45.341  22.067  26.363  1.00  0.00    -0.319 N 
ATOM     71  S   UNL A   1      43.490  22.913  24.751  1.00  0.00    -0.087 SA
ATOM     72  C   UNL A   1      44.424  23.198  26.274  1.00  0.00     0.277 C 
ATOM     73  H   UNL A   1      46.111  22.298  26.992  1.00  0.00     0.348 HD
ATOM     74  H   UNL A   1      44.851  21.250  26.727  1.00  0.00     0.348 HD
BRANCH  72  75
ATOM     75  C   UNL A   1      45.035  24.587  26.315  1.00  0.00     0.059 A 
ATOM     76  C   UNL A   1      44.372  25.618  25.616  1.00  0.00     0.053 A 
ATOM     77  C   UNL A   1      46.198  24.941  27.017  1.00  0.00     0.133 A 
ATOM     78  C   UNL A   1      44.858  26.922  25.629  1.00  0.00     0.123 A 
ATOM     79  C   UNL A   1      46.686  26.251  27.021  1.00  0.00     0.043 A 
ATOM     80  F   UNL A   1      46.903  24.041  27.713  1.00  0.00    -0.206 F 
ATOM     81  F   UNL A   1      44.199  27.876  24.960  1.00  0.00    -0.207 F 
ATOM     82  C   UNL A   1      46.010  27.250  26.329  1.00  0.00     0.042 A 
ENDBRANCH  72  75
ENDBRANCH  66  68
ENDBRANCH  65  66
ENDBRANCH  64  65
ENDBRANCH  63  64
ENDBRANCH  62  63
ENDBRANCH   1  62
TORSDOF 15
ENDMDL
