MODEL 1
REMARK VINA RESULT:     -11.1      0.000      0.000
REMARK SMILES NS(=O)(=O)c1ccc(-n2nc(C(=O)OCCOCCOC(=O)c3ccc(-c4c5nc(c(-c6c(F)cccc6F)c6ccc([nH]6)c(-c6c(F)cccc6F)c6nc(c(-c7c(F)cccc7F)c7ccc4[nH]7)C=C6)C=C5)cc3)cc2-c2ccc(Cl)s2)cc1
REMARK SMILES IDX 16 1 15 2 14 3 12 4 13 5 11 6 9 7 10 8 78 9 77 10 8 11 5 12
REMARK SMILES IDX 6 13 86 14 7 15 85 16 2 17 3 18 4 19 1 20 79 23 80 24 84 25
REMARK SMILES IDX 81 26 82 27 83 28 17 29 18 30 19 31 20 32 21 33 22 34 23 35
REMARK SMILES IDX 24 36 76 37 25 38 75 39 26 40 27 41 28 42 69 43 29 44 74 45
REMARK SMILES IDX 68 46 70 47 30 48 73 49 67 50 66 51 31 53 57 54 40 55 56 56
REMARK SMILES IDX 41 57 44 58 55 59 71 60 42 61 43 62 54 64 72 65 45 66 32 67
REMARK SMILES IDX 33 68 38 69 34 70 35 71 37 72 39 73 36 74 58 75 59 76 64 77
REMARK SMILES IDX 60 78 61 79 63 80 65 81 62 82 46 83 47 84 52 85 48 86 49 87
REMARK SMILES IDX 51 88 53 89 50 90
REMARK H PARENT 1 21 1 22 70 52 44 63
REMARK Flexibility Score: inf
ROOT
ATOM      1  C   UNL A   1      31.846  28.611  24.587  1.00  0.00     0.202 C 
ENDROOT
BRANCH   1   2
ATOM      2  C   UNL A   1      30.812  27.514  24.850  1.00  0.00     0.261 C 
BRANCH   2   3
ATOM      3  O   UNL A   1      30.999  26.874  26.120  1.00  0.00    -0.458 OA
BRANCH   3   4
ATOM      4  C   UNL A   1      30.627  25.557  26.159  1.00  0.00     0.358 C 
ATOM      5  O   UNL A   1      29.515  25.161  26.488  1.00  0.00    -0.244 OA
BRANCH   4   6
ATOM      6  C   UNL A   1      31.692  24.673  25.671  1.00  0.00     0.171 A 
ATOM      7  N   UNL A   1      32.645  22.855  25.079  1.00  0.00    -0.231 N 
ATOM      8  N   UNL A   1      31.431  23.426  25.233  1.00  0.00    -0.160 NA
ATOM      9  C   UNL A   1      33.671  23.775  25.214  1.00  0.00     0.085 A 
ATOM     10  C   UNL A   1      33.072  24.968  25.551  1.00  0.00     0.068 A 
BRANCH   7  11
ATOM     11  C   UNL A   1      32.744  21.448  24.989  1.00  0.00     0.065 A 
ATOM     12  C   UNL A   1      32.986  18.689  24.828  1.00  0.00     0.082 A 
ATOM     13  C   UNL A   1      33.285  19.336  26.030  1.00  0.00     0.024 A 
ATOM     14  C   UNL A   1      32.554  19.412  23.709  1.00  0.00     0.024 A 
ATOM     15  C   UNL A   1      33.181  20.722  26.105  1.00  0.00     0.030 A 
ATOM     16  C   UNL A   1      32.397  20.798  23.798  1.00  0.00     0.030 A 
BRANCH  12  17
ATOM     17  S   UNL A   1      33.184  16.936  24.710  1.00  0.00     0.238 S 
ATOM     18  O   UNL A   1      32.081  16.293  25.399  1.00  0.00    -0.207 OA
ATOM     19  O   UNL A   1      34.561  16.611  24.958  1.00  0.00    -0.207 OA
BRANCH  17  20
ATOM     20  N   UNL A   1      32.913  16.620  23.078  1.00  0.00    -0.225 NA
ATOM     21  H   UNL A   1      31.910  16.531  22.912  1.00  0.00     0.137 HD
ATOM     22  H   UNL A   1      33.379  15.752  22.817  1.00  0.00     0.137 HD
ENDBRANCH  17  20
ENDBRANCH  12  17
ENDBRANCH   7  11
BRANCH   9  23
ATOM     23  C   UNL A   1      35.064  23.483  25.058  1.00  0.00     0.054 A 
ATOM     24  C   UNL A   1      35.747  23.384  23.861  1.00  0.00     0.024 A 
ATOM     25  S   UNL A   1      36.101  23.230  26.401  1.00  0.00    -0.122 S 
ATOM     26  C   UNL A   1      37.143  23.170  24.055  1.00  0.00     0.033 A 
ATOM     27  C   UNL A   1      37.447  23.076  25.388  1.00  0.00     0.094 A 
ATOM     28  Cl  UNL A   1      39.004  22.830  26.068  1.00  0.00    -0.072 Cl
ENDBRANCH   9  23
ENDBRANCH   4   6
ENDBRANCH   3   4
ENDBRANCH   2   3
ENDBRANCH   1   2
BRANCH   1  29
ATOM     29  O   UNL A   1      32.588  29.121  25.693  1.00  0.00    -0.374 OA
BRANCH  29  30
ATOM     30  C   UNL A   1      32.349  30.436  26.179  1.00  0.00     0.202 C 
BRANCH  30  31
ATOM     31  C   UNL A   1      33.163  30.942  27.359  1.00  0.00     0.261 C 
BRANCH  31  32
ATOM     32  O   UNL A   1      34.555  30.713  27.199  1.00  0.00    -0.460 OA
BRANCH  32  33
ATOM     33  C   UNL A   1      35.324  31.646  27.804  1.00  0.00     0.338 C 
ATOM     34  O   UNL A   1      35.329  32.848  27.602  1.00  0.00    -0.246 OA
BRANCH  33  35
ATOM     35  C   UNL A   1      36.326  30.958  28.621  1.00  0.00     0.060 A 
ATOM     36  C   UNL A   1      37.355  31.758  29.117  1.00  0.00     0.016 A 
ATOM     37  C   UNL A   1      36.420  29.559  28.577  1.00  0.00     0.016 A 
ATOM     38  C   UNL A   1      38.578  31.172  29.331  1.00  0.00     0.010 A 
ATOM     39  C   UNL A   1      37.646  28.977  28.775  1.00  0.00     0.010 A 
ATOM     40  C   UNL A   1      38.727  29.806  29.058  1.00  0.00    -0.014 A 
BRANCH  40  41
ATOM     41  C   UNL A   1      40.031  29.216  29.266  1.00  0.00     0.031 A 
ATOM     42  C   UNL A   1      40.366  29.196  30.706  1.00  0.00     0.074 A 
ATOM     43  C   UNL A   1      40.773  28.692  28.271  1.00  0.00     0.049 A 
ATOM     44  N   UNL A   1      41.228  29.943  31.310  1.00  0.00    -0.248 NA
ATOM     45  C   UNL A   1      39.471  28.456  31.614  1.00  0.00     0.031 C 
ATOM     46  C   UNL A   1      40.397  28.467  26.874  1.00  0.00     0.029 A 
ATOM     47  N   UNL A   1      42.025  28.161  28.337  1.00  0.00    -0.354 N 
ATOM     48  C   UNL A   1      41.155  29.571  32.647  1.00  0.00     0.074 A 
ATOM     49  C   UNL A   1      39.919  28.858  32.804  1.00  0.00     0.031 C 
ATOM     50  C   UNL A   1      41.301  27.641  26.294  1.00  0.00     0.029 A 
ATOM     51  C   UNL A   1      42.382  27.391  27.229  1.00  0.00     0.049 A 
ATOM     52  H   UNL A   1      42.628  28.308  29.101  1.00  0.00     0.167 HD
ATOM     53  C   UNL A   1      42.277  29.591  33.416  1.00  0.00     0.037 A 
ATOM     54  C   UNL A   1      43.459  26.561  27.163  1.00  0.00     0.037 A 
ATOM     55  C   UNL A   1      43.277  30.453  32.830  1.00  0.00     0.049 A 
ATOM     56  C   UNL A   1      44.401  26.980  28.235  1.00  0.00     0.074 A 
ATOM     57  C   UNL A   1      43.326  31.790  32.482  1.00  0.00     0.029 A 
ATOM     58  N   UNL A   1      44.302  29.848  32.144  1.00  0.00    -0.354 N 
ATOM     59  N   UNL A   1      45.059  28.106  28.214  1.00  0.00    -0.248 NA
ATOM     60  C   UNL A   1      44.218  26.384  29.550  1.00  0.00     0.031 C 
ATOM     61  C   UNL A   1      44.062  31.830  31.261  1.00  0.00     0.029 A 
ATOM     62  C   UNL A   1      44.498  30.536  30.976  1.00  0.00     0.049 A 
ATOM     63  H   UNL A   1      44.808  29.057  32.440  1.00  0.00     0.167 HD
ATOM     64  C   UNL A   1      44.971  28.583  29.513  1.00  0.00     0.074 A 
ATOM     65  C   UNL A   1      44.489  27.451  30.305  1.00  0.00     0.031 C 
ATOM     66  C   UNL A   1      45.001  29.923  29.771  1.00  0.00     0.037 A 
BRANCH  53  67
ATOM     67  C   UNL A   1      42.630  28.488  34.387  1.00  0.00     0.057 A 
ATOM     68  C   UNL A   1      42.792  27.185  33.884  1.00  0.00     0.134 A 
ATOM     69  C   UNL A   1      42.510  28.572  35.792  1.00  0.00     0.134 A 
ATOM     70  F   UNL A   1      42.919  26.966  32.567  1.00  0.00    -0.206 F 
ATOM     71  C   UNL A   1      42.727  26.052  34.702  1.00  0.00     0.040 A 
ATOM     72  C   UNL A   1      42.493  27.449  36.622  1.00  0.00     0.040 A 
ATOM     73  F   UNL A   1      42.302  29.720  36.443  1.00  0.00    -0.206 F 
ATOM     74  C   UNL A   1      42.563  26.182  36.075  1.00  0.00     0.006 A 
ENDBRANCH  53  67
BRANCH  54  75
ATOM     75  C   UNL A   1      43.594  25.238  26.502  1.00  0.00     0.057 A 
ATOM     76  C   UNL A   1      42.634  24.230  26.700  1.00  0.00     0.134 A 
ATOM     77  C   UNL A   1      44.477  25.037  25.428  1.00  0.00     0.134 A 
ATOM     78  F   UNL A   1      41.718  24.344  27.673  1.00  0.00    -0.206 F 
ATOM     79  C   UNL A   1      42.534  23.113  25.859  1.00  0.00     0.040 A 
ATOM     80  C   UNL A   1      44.392  23.923  24.583  1.00  0.00     0.040 A 
ATOM     81  F   UNL A   1      45.393  25.960  25.102  1.00  0.00    -0.206 F 
ATOM     82  C   UNL A   1      43.406  22.964  24.786  1.00  0.00     0.006 A 
ENDBRANCH  54  75
BRANCH  66  83
ATOM     83  C   UNL A   1      45.397  30.849  28.655  1.00  0.00     0.057 A 
ATOM     84  C   UNL A   1      44.521  31.338  27.675  1.00  0.00     0.134 A 
ATOM     85  C   UNL A   1      46.690  31.383  28.673  1.00  0.00     0.134 A 
ATOM     86  F   UNL A   1      43.237  30.956  27.636  1.00  0.00    -0.206 F 
ATOM     87  C   UNL A   1      44.930  32.290  26.733  1.00  0.00     0.040 A 
ATOM     88  C   UNL A   1      47.099  32.358  27.764  1.00  0.00     0.040 A 
ATOM     89  F   UNL A   1      47.565  30.997  29.615  1.00  0.00    -0.206 F 
ATOM     90  C   UNL A   1      46.221  32.808  26.782  1.00  0.00     0.006 A 
ENDBRANCH  66  83
ENDBRANCH  40  41
ENDBRANCH  33  35
ENDBRANCH  32  33
ENDBRANCH  31  32
ENDBRANCH  30  31
ENDBRANCH  29  30
ENDBRANCH   1  29
TORSDOF 18
ENDMDL
MODEL 2
REMARK VINA RESULT:     -11.0      1.960      5.997
REMARK SMILES NS(=O)(=O)c1ccc(-n2nc(C(=O)OCCOCCOC(=O)c3ccc(-c4c5nc(c(-c6c(F)cccc6F)c6ccc([nH]6)c(-c6c(F)cccc6F)c6nc(c(-c7c(F)cccc7F)c7ccc4[nH]7)C=C6)C=C5)cc3)cc2-c2ccc(Cl)s2)cc1
REMARK SMILES IDX 16 1 15 2 14 3 12 4 13 5 11 6 9 7 10 8 78 9 77 10 8 11 5 12
REMARK SMILES IDX 6 13 86 14 7 15 85 16 2 17 3 18 4 19 1 20 79 23 80 24 84 25
REMARK SMILES IDX 81 26 82 27 83 28 17 29 18 30 19 31 20 32 21 33 22 34 23 35
REMARK SMILES IDX 24 36 76 37 25 38 75 39 26 40 27 41 28 42 69 43 29 44 74 45
REMARK SMILES IDX 68 46 70 47 30 48 73 49 67 50 66 51 31 53 57 54 40 55 56 56
REMARK SMILES IDX 41 57 44 58 55 59 71 60 42 61 43 62 54 64 72 65 45 66 32 67
REMARK SMILES IDX 33 68 38 69 34 70 35 71 37 72 39 73 36 74 58 75 59 76 64 77
REMARK SMILES IDX 60 78 61 79 63 80 65 81 62 82 46 83 47 84 52 85 48 86 49 87
REMARK SMILES IDX 51 88 53 89 50 90
REMARK H PARENT 1 21 1 22 70 52 44 63
REMARK Flexibility Score: inf
ROOT
ATOM      1  C   UNL A   1      32.945  29.254  26.853  1.00  0.00     0.202 C 
ENDROOT
BRANCH   1   2
ATOM      2  C   UNL A   1      31.722  28.360  27.077  1.00  0.00     0.261 C 
BRANCH   2   3
ATOM      3  O   UNL A   1      31.341  27.644  25.894  1.00  0.00    -0.458 OA
BRANCH   3   4
ATOM      4  C   UNL A   1      30.990  26.337  26.104  1.00  0.00     0.358 C 
ATOM      5  O   UNL A   1      29.919  25.975  26.576  1.00  0.00    -0.244 OA
BRANCH   4   6
ATOM      6  C   UNL A   1      32.016  25.409  25.613  1.00  0.00     0.171 A 
ATOM      7  N   UNL A   1      32.857  23.583  24.892  1.00  0.00    -0.231 N 
ATOM      8  N   UNL A   1      31.691  24.255  25.000  1.00  0.00    -0.160 NA
ATOM      9  C   UNL A   1      33.943  24.369  25.238  1.00  0.00     0.085 A 
ATOM     10  C   UNL A   1      33.422  25.571  25.664  1.00  0.00     0.068 A 
BRANCH   7  11
ATOM     11  C   UNL A   1      32.836  22.193  24.636  1.00  0.00     0.065 A 
ATOM     12  C   UNL A   1      32.748  19.469  24.115  1.00  0.00     0.082 A 
ATOM     13  C   UNL A   1      32.496  20.375  23.081  1.00  0.00     0.024 A 
ATOM     14  C   UNL A   1      33.057  19.917  25.406  1.00  0.00     0.024 A 
ATOM     15  C   UNL A   1      32.523  21.741  23.347  1.00  0.00     0.030 A 
ATOM     16  C   UNL A   1      33.137  21.288  25.662  1.00  0.00     0.030 A 
BRANCH  12  17
ATOM     17  S   UNL A   1      32.647  17.733  23.795  1.00  0.00     0.238 S 
ATOM     18  O   UNL A   1      31.717  17.138  24.736  1.00  0.00    -0.207 OA
ATOM     19  O   UNL A   1      33.974  17.228  23.576  1.00  0.00    -0.207 OA
BRANCH  17  20
ATOM     20  N   UNL A   1      31.862  17.655  22.307  1.00  0.00    -0.225 NA
ATOM     21  H   UNL A   1      31.325  18.510  22.161  1.00  0.00     0.137 HD
ATOM     22  H   UNL A   1      31.232  16.853  22.296  1.00  0.00     0.137 HD
ENDBRANCH  17  20
ENDBRANCH  12  17
ENDBRANCH   7  11
BRANCH   9  23
ATOM     23  C   UNL A   1      35.312  23.954  25.181  1.00  0.00     0.054 A 
ATOM     24  C   UNL A   1      36.015  23.622  24.039  1.00  0.00     0.024 A 
ATOM     25  S   UNL A   1      36.291  23.836  26.584  1.00  0.00    -0.122 S 
ATOM     26  C   UNL A   1      37.385  23.337  24.316  1.00  0.00     0.033 A 
ATOM     27  C   UNL A   1      37.646  23.427  25.658  1.00  0.00     0.094 A 
ATOM     28  Cl  UNL A   1      39.161  23.175  26.425  1.00  0.00    -0.072 Cl
ENDBRANCH   9  23
ENDBRANCH   4   6
ENDBRANCH   3   4
ENDBRANCH   2   3
ENDBRANCH   1   2
BRANCH   1  29
ATOM     29  O   UNL A   1      33.118  30.389  27.699  1.00  0.00    -0.374 OA
BRANCH  29  30
ATOM     30  C   UNL A   1      34.050  31.408  27.358  1.00  0.00     0.202 C 
BRANCH  30  31
ATOM     31  C   UNL A   1      35.420  31.400  28.018  1.00  0.00     0.261 C 
BRANCH  31  32
ATOM     32  O   UNL A   1      36.140  30.204  27.764  1.00  0.00    -0.460 OA
BRANCH  32  33
ATOM     33  C   UNL A   1      36.743  29.699  28.864  1.00  0.00     0.338 C 
ATOM     34  O   UNL A   1      36.499  29.961  30.030  1.00  0.00    -0.246 OA
BRANCH  33  35
ATOM     35  C   UNL A   1      37.905  28.917  28.436  1.00  0.00     0.060 A 
ATOM     36  C   UNL A   1      38.430  28.043  29.386  1.00  0.00     0.016 A 
ATOM     37  C   UNL A   1      38.626  29.310  27.298  1.00  0.00     0.016 A 
ATOM     38  C   UNL A   1      39.774  27.764  29.329  1.00  0.00     0.010 A 
ATOM     39  C   UNL A   1      39.971  29.043  27.251  1.00  0.00     0.010 A 
ATOM     40  C   UNL A   1      40.541  28.353  28.316  1.00  0.00    -0.014 A 
BRANCH  40  41
ATOM     41  C   UNL A   1      41.958  28.065  28.291  1.00  0.00     0.031 A 
ATOM     42  C   UNL A   1      42.211  26.774  27.616  1.00  0.00     0.074 A 
ATOM     43  C   UNL A   1      42.894  28.915  28.754  1.00  0.00     0.049 A 
ATOM     44  N   UNL A   1      42.566  25.665  28.172  1.00  0.00    -0.248 NA
ATOM     45  C   UNL A   1      41.775  26.629  26.214  1.00  0.00     0.031 C 
ATOM     46  C   UNL A   1      42.726  30.296  29.210  1.00  0.00     0.029 A 
ATOM     47  N   UNL A   1      44.242  28.733  28.829  1.00  0.00    -0.354 N 
ATOM     48  C   UNL A   1      42.645  24.747  27.133  1.00  0.00     0.074 A 
ATOM     49  C   UNL A   1      41.924  25.317  26.031  1.00  0.00     0.031 C 
ATOM     50  C   UNL A   1      43.939  30.893  29.288  1.00  0.00     0.029 A 
ATOM     51  C   UNL A   1      44.971  29.908  29.021  1.00  0.00     0.049 A 
ATOM     52  H   UNL A   1      44.666  27.849  28.756  1.00  0.00     0.167 HD
ATOM     53  C   UNL A   1      43.582  23.762  27.172  1.00  0.00     0.037 A 
ATOM     54  C   UNL A   1      46.319  30.028  28.880  1.00  0.00     0.037 A 
ATOM     55  C   UNL A   1      44.039  23.550  28.526  1.00  0.00     0.049 A 
ATOM     56  C   UNL A   1      46.891  28.658  28.972  1.00  0.00     0.074 A 
ATOM     57  C   UNL A   1      43.427  23.202  29.715  1.00  0.00     0.029 A 
ATOM     58  N   UNL A   1      45.250  24.097  28.872  1.00  0.00    -0.354 N 
ATOM     59  N   UNL A   1      46.902  27.955  30.070  1.00  0.00    -0.248 NA
ATOM     60  C   UNL A   1      46.987  27.896  27.736  1.00  0.00     0.031 C 
ATOM     61  C   UNL A   1      44.084  23.981  30.713  1.00  0.00     0.029 A 
ATOM     62  C   UNL A   1      45.115  24.691  30.098  1.00  0.00     0.049 A 
ATOM     63  H   UNL A   1      46.073  24.067  28.332  1.00  0.00     0.167 HD
ATOM     64  C   UNL A   1      46.546  26.677  29.666  1.00  0.00     0.074 A 
ATOM     65  C   UNL A   1      46.666  26.688  28.208  1.00  0.00     0.031 C 
ATOM     66  C   UNL A   1      45.896  25.830  30.516  1.00  0.00     0.037 A 
BRANCH  53  67
ATOM     67  C   UNL A   1      44.406  23.360  25.969  1.00  0.00     0.057 A 
ATOM     68  C   UNL A   1      44.502  21.994  25.655  1.00  0.00     0.134 A 
ATOM     69  C   UNL A   1      45.344  24.188  25.313  1.00  0.00     0.134 A 
ATOM     70  F   UNL A   1      43.669  21.099  26.209  1.00  0.00    -0.206 F 
ATOM     71  C   UNL A   1      45.517  21.480  24.840  1.00  0.00     0.040 A 
ATOM     72  C   UNL A   1      46.330  23.691  24.460  1.00  0.00     0.040 A 
ATOM     73  F   UNL A   1      45.435  25.505  25.525  1.00  0.00    -0.206 F 
ATOM     74  C   UNL A   1      46.445  22.329  24.251  1.00  0.00     0.006 A 
ENDBRANCH  53  67
BRANCH  54  75
ATOM     75  C   UNL A   1      47.116  31.155  28.332  1.00  0.00     0.057 A 
ATOM     76  C   UNL A   1      46.896  31.626  27.026  1.00  0.00     0.134 A 
ATOM     77  C   UNL A   1      47.879  31.991  29.162  1.00  0.00     0.134 A 
ATOM     78  F   UNL A   1      46.147  30.922  26.164  1.00  0.00    -0.206 F 
ATOM     79  C   UNL A   1      47.371  32.870  26.587  1.00  0.00     0.040 A 
ATOM     80  C   UNL A   1      48.364  33.234  28.736  1.00  0.00     0.040 A 
ATOM     81  F   UNL A   1      48.100  31.678  30.447  1.00  0.00    -0.206 F 
ATOM     82  C   UNL A   1      48.096  33.686  27.449  1.00  0.00     0.006 A 
ENDBRANCH  54  75
BRANCH  66  83
ATOM     83  C   UNL A   1      45.814  26.210  31.968  1.00  0.00     0.057 A 
ATOM     84  C   UNL A   1      44.719  26.853  32.565  1.00  0.00     0.134 A 
ATOM     85  C   UNL A   1      46.829  25.763  32.822  1.00  0.00     0.134 A 
ATOM     86  F   UNL A   1      43.657  27.234  31.841  1.00  0.00    -0.206 F 
ATOM     87  C   UNL A   1      44.659  27.073  33.946  1.00  0.00     0.040 A 
ATOM     88  C   UNL A   1      46.764  25.944  34.203  1.00  0.00     0.040 A 
ATOM     89  F   UNL A   1      47.882  25.095  32.325  1.00  0.00    -0.206 F 
ATOM     90  C   UNL A   1      45.682  26.610  34.770  1.00  0.00     0.006 A 
ENDBRANCH  66  83
ENDBRANCH  40  41
ENDBRANCH  33  35
ENDBRANCH  32  33
ENDBRANCH  31  32
ENDBRANCH  30  31
ENDBRANCH  29  30
ENDBRANCH   1  29
TORSDOF 18
ENDMDL
MODEL 3
REMARK VINA RESULT:     -10.6      4.098      7.911
REMARK SMILES NS(=O)(=O)c1ccc(-n2nc(C(=O)OCCOCCOC(=O)c3ccc(-c4c5nc(c(-c6c(F)cccc6F)c6ccc([nH]6)c(-c6c(F)cccc6F)c6nc(c(-c7c(F)cccc7F)c7ccc4[nH]7)C=C6)C=C5)cc3)cc2-c2ccc(Cl)s2)cc1
REMARK SMILES IDX 16 1 15 2 14 3 12 4 13 5 11 6 9 7 10 8 78 9 77 10 8 11 5 12
REMARK SMILES IDX 6 13 86 14 7 15 85 16 2 17 3 18 4 19 1 20 79 23 80 24 84 25
REMARK SMILES IDX 81 26 82 27 83 28 17 29 18 30 19 31 20 32 21 33 22 34 23 35
REMARK SMILES IDX 24 36 76 37 25 38 75 39 26 40 27 41 28 42 69 43 29 44 74 45
REMARK SMILES IDX 68 46 70 47 30 48 73 49 67 50 66 51 31 53 57 54 40 55 56 56
REMARK SMILES IDX 41 57 44 58 55 59 71 60 42 61 43 62 54 64 72 65 45 66 32 67
REMARK SMILES IDX 33 68 38 69 34 70 35 71 37 72 39 73 36 74 58 75 59 76 64 77
REMARK SMILES IDX 60 78 61 79 63 80 65 81 62 82 46 83 47 84 52 85 48 86 49 87
REMARK SMILES IDX 51 88 53 89 50 90
REMARK H PARENT 1 21 1 22 70 52 44 63
REMARK Flexibility Score: inf
ROOT
ATOM      1  C   UNL A   1      37.013  23.642  24.867  1.00  0.00     0.202 C 
ENDROOT
BRANCH   1   2
ATOM      2  C   UNL A   1      36.078  22.695  24.110  1.00  0.00     0.261 C 
BRANCH   2   3
ATOM      3  O   UNL A   1      35.402  23.343  23.023  1.00  0.00    -0.458 OA
BRANCH   3   4
ATOM      4  C   UNL A   1      34.039  23.220  23.043  1.00  0.00     0.358 C 
ATOM      5  O   UNL A   1      33.424  22.249  22.618  1.00  0.00    -0.244 OA
BRANCH   4   6
ATOM      6  C   UNL A   1      33.397  24.354  23.717  1.00  0.00     0.171 A 
ATOM      7  N   UNL A   1      32.026  25.965  24.021  1.00  0.00    -0.231 N 
ATOM      8  N   UNL A   1      32.188  24.811  23.339  1.00  0.00    -0.160 NA
ATOM      9  C   UNL A   1      33.014  26.146  24.975  1.00  0.00     0.085 A 
ATOM     10  C   UNL A   1      33.885  25.089  24.825  1.00  0.00     0.068 A 
BRANCH   7  11
ATOM     11  C   UNL A   1      31.047  26.892  23.597  1.00  0.00     0.065 A 
ATOM     12  C   UNL A   1      29.152  28.748  22.786  1.00  0.00     0.082 A 
ATOM     13  C   UNL A   1      30.489  28.930  22.426  1.00  0.00     0.024 A 
ATOM     14  C   UNL A   1      28.753  27.636  23.539  1.00  0.00     0.024 A 
ATOM     15  C   UNL A   1      31.443  28.008  22.848  1.00  0.00     0.030 A 
ATOM     16  C   UNL A   1      29.700  26.681  23.918  1.00  0.00     0.030 A 
BRANCH  12  17
ATOM     17  S   UNL A   1      27.950  29.954  22.309  1.00  0.00     0.238 S 
ATOM     18  O   UNL A   1      26.693  29.647  22.964  1.00  0.00    -0.207 OA
ATOM     19  O   UNL A   1      28.063  30.182  20.895  1.00  0.00    -0.207 OA
BRANCH  17  20
ATOM     20  N   UNL A   1      28.491  31.363  23.057  1.00  0.00    -0.225 NA
ATOM     21  H   UNL A   1      29.173  31.826  22.457  1.00  0.00     0.137 HD
ATOM     22  H   UNL A   1      28.927  31.129  23.949  1.00  0.00     0.137 HD
ENDBRANCH  17  20
ENDBRANCH  12  17
ENDBRANCH   7  11
BRANCH   9  23
ATOM     23  C   UNL A   1      33.088  27.247  25.886  1.00  0.00     0.054 A 
ATOM     24  C   UNL A   1      32.286  27.443  26.994  1.00  0.00     0.024 A 
ATOM     25  S   UNL A   1      34.245  28.500  25.713  1.00  0.00    -0.122 S 
ATOM     26  C   UNL A   1      32.675  28.592  27.743  1.00  0.00     0.033 A 
ATOM     27  C   UNL A   1      33.727  29.237  27.145  1.00  0.00     0.094 A 
ATOM     28  Cl  UNL A   1      34.513  30.654  27.711  1.00  0.00    -0.072 Cl
ENDBRANCH   9  23
ENDBRANCH   4   6
ENDBRANCH   3   4
ENDBRANCH   2   3
ENDBRANCH   1   2
BRANCH   1  29
ATOM     29  O   UNL A   1      37.538  23.215  26.122  1.00  0.00    -0.374 OA
BRANCH  29  30
ATOM     30  C   UNL A   1      38.734  22.447  26.182  1.00  0.00     0.202 C 
BRANCH  30  31
ATOM     31  C   UNL A   1      40.035  23.141  26.551  1.00  0.00     0.261 C 
BRANCH  31  32
ATOM     32  O   UNL A   1      39.830  24.283  27.370  1.00  0.00    -0.460 OA
BRANCH  32  33
ATOM     33  C   UNL A   1      40.126  25.447  26.748  1.00  0.00     0.338 C 
ATOM     34  O   UNL A   1      40.776  25.599  25.728  1.00  0.00    -0.246 OA
BRANCH  33  35
ATOM     35  C   UNL A   1      39.710  26.551  27.615  1.00  0.00     0.060 A 
ATOM     36  C   UNL A   1      40.032  27.830  27.163  1.00  0.00     0.016 A 
ATOM     37  C   UNL A   1      39.356  26.294  28.948  1.00  0.00     0.016 A 
ATOM     38  C   UNL A   1      40.250  28.808  28.103  1.00  0.00     0.010 A 
ATOM     39  C   UNL A   1      39.589  27.267  29.888  1.00  0.00     0.010 A 
ATOM     40  C   UNL A   1      40.121  28.479  29.459  1.00  0.00    -0.014 A 
BRANCH  40  41
ATOM     41  C   UNL A   1      40.381  29.517  30.431  1.00  0.00     0.031 A 
ATOM     42  C   UNL A   1      39.153  30.298  30.694  1.00  0.00     0.074 A 
ATOM     43  C   UNL A   1      41.566  29.670  31.052  1.00  0.00     0.049 A 
ATOM     44  N   UNL A   1      38.903  31.503  30.305  1.00  0.00    -0.248 NA
ATOM     45  C   UNL A   1      37.975  29.580  31.217  1.00  0.00     0.031 C 
ATOM     46  C   UNL A   1      42.736  28.791  31.014  1.00  0.00     0.029 A 
ATOM     47  N   UNL A   1      41.940  30.633  31.939  1.00  0.00    -0.354 N 
ATOM     48  C   UNL A   1      37.623  31.776  30.769  1.00  0.00     0.074 A 
ATOM     49  C   UNL A   1      37.027  30.509  31.089  1.00  0.00     0.031 C 
ATOM     50  C   UNL A   1      43.587  29.133  32.011  1.00  0.00     0.029 A 
ATOM     51  C   UNL A   1      43.092  30.329  32.667  1.00  0.00     0.049 A 
ATOM     52  H   UNL A   1      41.442  31.473  32.057  1.00  0.00     0.167 HD
ATOM     53  C   UNL A   1      37.301  33.036  31.163  1.00  0.00     0.037 A 
ATOM     54  C   UNL A   1      43.523  30.996  33.771  1.00  0.00     0.037 A 
ATOM     55  C   UNL A   1      38.216  33.996  30.589  1.00  0.00     0.049 A 
ATOM     56  C   UNL A   1      42.861  32.328  33.763  1.00  0.00     0.074 A 
ATOM     57  C   UNL A   1      38.577  34.344  29.301  1.00  0.00     0.029 A 
ATOM     58  N   UNL A   1      39.211  34.478  31.402  1.00  0.00    -0.354 N 
ATOM     59  N   UNL A   1      43.129  33.260  32.892  1.00  0.00    -0.248 NA
ATOM     60  C   UNL A   1      41.558  32.424  34.405  1.00  0.00     0.031 C 
ATOM     61  C   UNL A   1      39.980  34.593  29.363  1.00  0.00     0.029 A 
ATOM     62  C   UNL A   1      40.383  34.472  30.693  1.00  0.00     0.049 A 
ATOM     63  H   UNL A   1      39.102  34.776  32.334  1.00  0.00     0.167 HD
ATOM     64  C   UNL A   1      41.890  33.775  32.542  1.00  0.00     0.074 A 
ATOM     65  C   UNL A   1      40.963  33.260  33.549  1.00  0.00     0.031 C 
ATOM     66  C   UNL A   1      41.679  34.313  31.306  1.00  0.00     0.037 A 
BRANCH  53  67
ATOM     67  C   UNL A   1      36.502  33.331  32.413  1.00  0.00     0.057 A 
ATOM     68  C   UNL A   1      35.450  34.259  32.326  1.00  0.00     0.134 A 
ATOM     69  C   UNL A   1      36.900  33.005  33.728  1.00  0.00     0.134 A 
ATOM     70  F   UNL A   1      34.976  34.655  31.135  1.00  0.00    -0.206 F 
ATOM     71  C   UNL A   1      34.914  34.893  33.453  1.00  0.00     0.040 A 
ATOM     72  C   UNL A   1      36.337  33.595  34.861  1.00  0.00     0.040 A 
ATOM     73  F   UNL A   1      37.914  32.178  34.004  1.00  0.00    -0.206 F 
ATOM     74  C   UNL A   1      35.368  34.571  34.726  1.00  0.00     0.006 A 
ENDBRANCH  53  67
BRANCH  54  75
ATOM     75  C   UNL A   1      44.171  30.472  35.001  1.00  0.00     0.057 A 
ATOM     76  C   UNL A   1      45.405  30.981  35.439  1.00  0.00     0.134 A 
ATOM     77  C   UNL A   1      43.462  29.700  35.935  1.00  0.00     0.134 A 
ATOM     78  F   UNL A   1      46.143  31.763  34.639  1.00  0.00    -0.206 F 
ATOM     79  C   UNL A   1      45.886  30.768  36.740  1.00  0.00     0.040 A 
ATOM     80  C   UNL A   1      43.932  29.475  37.235  1.00  0.00     0.040 A 
ATOM     81  F   UNL A   1      42.244  29.216  35.653  1.00  0.00    -0.206 F 
ATOM     82  C   UNL A   1      45.140  30.025  37.648  1.00  0.00     0.006 A 
ENDBRANCH  54  75
BRANCH  66  83
ATOM     83  C   UNL A   1      42.876  34.578  30.436  1.00  0.00     0.057 A 
ATOM     84  C   UNL A   1      43.334  33.718  29.426  1.00  0.00     0.134 A 
ATOM     85  C   UNL A   1      43.492  35.830  30.530  1.00  0.00     0.134 A 
ATOM     86  F   UNL A   1      42.745  32.536  29.198  1.00  0.00    -0.206 F 
ATOM     87  C   UNL A   1      44.385  34.080  28.574  1.00  0.00     0.040 A 
ATOM     88  C   UNL A   1      44.515  36.216  29.664  1.00  0.00     0.040 A 
ATOM     89  F   UNL A   1      43.070  36.722  31.440  1.00  0.00    -0.206 F 
ATOM     90  C   UNL A   1      44.973  35.336  28.689  1.00  0.00     0.006 A 
ENDBRANCH  66  83
ENDBRANCH  40  41
ENDBRANCH  33  35
ENDBRANCH  32  33
ENDBRANCH  31  32
ENDBRANCH  30  31
ENDBRANCH  29  30
ENDBRANCH   1  29
TORSDOF 18
ENDMDL
