MODEL 1
REMARK VINA RESULT:     -11.3      0.000      0.000
REMARK SMILES C[C@@H](C(=O)OCCOCCOC(=O)c1ccc(-c2c3nc(c(-c4c(F)cccc4F)c4ccc([nH]4)c(-c4c(F)cccc4F)c4nc(c(-c5c(F)cccc5F)c5ccc2[nH]5)C=C4)C=C3)cc1)c1cc(C(=O)c2ccccc2)ccc1O
REMARK SMILES IDX 7 1 6 2 5 3 3 4 4 5 2 6 1 7 68 8 69 9 81 10 70 11 80 12
REMARK SMILES IDX 79 13 82 14 71 16 72 17 73 18 74 19 78 20 75 21 77 22 76 23
REMARK SMILES IDX 8 24 9 25 10 26 11 27 12 28 13 29 14 30 15 31 67 32 16 33
REMARK SMILES IDX 66 34 17 35 18 36 19 37 60 38 20 39 65 40 59 41 61 42 21 43
REMARK SMILES IDX 64 44 58 45 57 46 22 48 48 49 31 50 47 51 32 52 35 53 46 54
REMARK SMILES IDX 62 55 33 56 34 57 45 59 63 60 36 61 23 62 24 63 29 64 25 65
REMARK SMILES IDX 26 66 28 67 30 68 27 69 49 70 50 71 55 72 51 73 52 74 54 75
REMARK SMILES IDX 56 76 53 77 37 78 38 79 43 80 39 81 40 82 42 83 44 84 41 85
REMARK H PARENT 82 15 61 47 35 58
REMARK Flexibility Score: inf
ROOT
ATOM      1  C   UNL A   1      40.768  20.466  26.405  1.00  0.00     0.202 C 
ENDROOT
BRANCH   1   2
ATOM      2  C   UNL A   1      40.027  21.782  26.142  1.00  0.00     0.261 C 
BRANCH   2   3
ATOM      3  O   UNL A   1      38.695  21.528  25.644  1.00  0.00    -0.463 OA
BRANCH   3   4
ATOM      4  C   UNL A   1      37.815  22.567  25.724  1.00  0.00     0.313 C 
ATOM      5  O   UNL A   1      37.977  23.546  26.443  1.00  0.00    -0.252 OA
BRANCH   4   6
ATOM      6  C   UNL A   1      36.570  22.357  24.848  1.00  0.00     0.130 C 
ATOM      7  C   UNL A   1      36.784  22.556  23.346  1.00  0.00     0.025 C 
BRANCH   6   8
ATOM      8  C   UNL A   1      35.391  23.156  25.400  1.00  0.00     0.009 A 
ATOM      9  C   UNL A   1      35.022  24.349  24.754  1.00  0.00     0.020 A 
ATOM     10  C   UNL A   1      34.569  22.710  26.441  1.00  0.00     0.119 A 
ATOM     11  C   UNL A   1      33.846  25.027  25.108  1.00  0.00     0.023 A 
ATOM     12  C   UNL A   1      33.351  23.316  26.734  1.00  0.00     0.047 A 
ATOM     13  C   UNL A   1      32.976  24.464  26.047  1.00  0.00     0.016 A 
BRANCH  10  14
ATOM     14  O   UNL A   1      34.929  21.678  27.248  1.00  0.00    -0.508 OA
ATOM     15  H   UNL A   1      35.800  21.336  27.211  1.00  0.00     0.293 HD
ENDBRANCH  10  14
BRANCH  11  16
ATOM     16  C   UNL A   1      33.548  26.332  24.456  1.00  0.00     0.193 C 
ATOM     17  O   UNL A   1      33.739  26.481  23.252  1.00  0.00    -0.289 OA
BRANCH  16  18
ATOM     18  C   UNL A   1      33.027  27.470  25.251  1.00  0.00     0.022 A 
ATOM     19  C   UNL A   1      31.960  28.208  24.735  1.00  0.00     0.012 A 
ATOM     20  C   UNL A   1      33.570  27.795  26.501  1.00  0.00     0.012 A 
ATOM     21  C   UNL A   1      31.398  29.233  25.495  1.00  0.00     0.001 A 
ATOM     22  C   UNL A   1      32.999  28.815  27.261  1.00  0.00     0.001 A 
ATOM     23  C   UNL A   1      31.909  29.526  26.762  1.00  0.00     0.000 A 
ENDBRANCH  16  18
ENDBRANCH  11  16
ENDBRANCH   6   8
ENDBRANCH   4   6
ENDBRANCH   3   4
ENDBRANCH   2   3
ENDBRANCH   1   2
BRANCH   1  24
ATOM     24  O   UNL A   1      42.050  20.322  25.783  1.00  0.00    -0.374 OA
BRANCH  24  25
ATOM     25  C   UNL A   1      43.055  21.247  26.191  1.00  0.00     0.202 C 
BRANCH  25  26
ATOM     26  C   UNL A   1      43.790  21.982  25.064  1.00  0.00     0.261 C 
BRANCH  26  27
ATOM     27  O   UNL A   1      43.168  23.237  24.748  1.00  0.00    -0.460 OA
BRANCH  27  28
ATOM     28  C   UNL A   1      43.914  24.314  25.078  1.00  0.00     0.338 C 
ATOM     29  O   UNL A   1      45.009  24.630  24.629  1.00  0.00    -0.246 OA
BRANCH  28  30
ATOM     30  C   UNL A   1      43.149  25.201  25.968  1.00  0.00     0.060 A 
ATOM     31  C   UNL A   1      43.689  26.468  26.216  1.00  0.00     0.016 A 
ATOM     32  C   UNL A   1      41.970  24.789  26.594  1.00  0.00     0.016 A 
ATOM     33  C   UNL A   1      43.087  27.308  27.144  1.00  0.00     0.010 A 
ATOM     34  C   UNL A   1      41.370  25.633  27.533  1.00  0.00     0.010 A 
ATOM     35  C   UNL A   1      41.951  26.876  27.841  1.00  0.00    -0.014 A 
BRANCH  35  36
ATOM     36  C   UNL A   1      41.489  27.659  29.010  1.00  0.00     0.031 A 
ATOM     37  C   UNL A   1      42.231  27.518  30.311  1.00  0.00     0.074 A 
ATOM     38  C   UNL A   1      40.468  28.523  28.896  1.00  0.00     0.049 A 
ATOM     39  N   UNL A   1      42.017  28.109  31.457  1.00  0.00    -0.248 NA
ATOM     40  C   UNL A   1      43.369  26.584  30.319  1.00  0.00     0.031 C 
ATOM     41  C   UNL A   1      39.708  28.775  27.673  1.00  0.00     0.029 A 
ATOM     42  N   UNL A   1      39.899  29.356  29.825  1.00  0.00    -0.354 N 
ATOM     43  C   UNL A   1      42.986  27.618  32.322  1.00  0.00     0.074 A 
ATOM     44  C   UNL A   1      43.770  26.656  31.580  1.00  0.00     0.031 C 
ATOM     45  C   UNL A   1      38.767  29.701  27.930  1.00  0.00     0.029 A 
ATOM     46  C   UNL A   1      38.843  30.084  29.338  1.00  0.00     0.049 A 
ATOM     47  H   UNL A   1      40.218  29.424  30.755  1.00  0.00     0.167 HD
ATOM     48  C   UNL A   1      43.209  27.948  33.616  1.00  0.00     0.037 A 
ATOM     49  C   UNL A   1      38.025  30.950  29.964  1.00  0.00     0.037 A 
ATOM     50  C   UNL A   1      42.428  28.910  34.347  1.00  0.00     0.049 A 
ATOM     51  C   UNL A   1      38.250  31.248  31.423  1.00  0.00     0.074 A 
ATOM     52  C   UNL A   1      42.584  29.333  35.655  1.00  0.00     0.029 A 
ATOM     53  N   UNL A   1      41.339  29.597  33.831  1.00  0.00    -0.354 N 
ATOM     54  N   UNL A   1      39.185  30.797  32.225  1.00  0.00    -0.248 NA
ATOM     55  C   UNL A   1      37.308  32.177  32.062  1.00  0.00     0.031 C 
ATOM     56  C   UNL A   1      41.556  30.237  35.946  1.00  0.00     0.029 A 
ATOM     57  C   UNL A   1      40.793  30.418  34.802  1.00  0.00     0.049 A 
ATOM     58  H   UNL A   1      41.003  29.512  32.909  1.00  0.00     0.167 HD
ATOM     59  C   UNL A   1      38.963  31.409  33.453  1.00  0.00     0.074 A 
ATOM     60  C   UNL A   1      37.810  32.271  33.286  1.00  0.00     0.031 C 
ATOM     61  C   UNL A   1      39.650  31.272  34.613  1.00  0.00     0.037 A 
BRANCH  48  62
ATOM     62  C   UNL A   1      44.322  27.238  34.329  1.00  0.00     0.057 A 
ATOM     63  C   UNL A   1      45.616  27.772  34.405  1.00  0.00     0.134 A 
ATOM     64  C   UNL A   1      44.089  26.014  34.970  1.00  0.00     0.134 A 
ATOM     65  F   UNL A   1      45.909  28.932  33.800  1.00  0.00    -0.206 F 
ATOM     66  C   UNL A   1      46.642  27.102  35.074  1.00  0.00     0.040 A 
ATOM     67  C   UNL A   1      45.102  25.348  35.663  1.00  0.00     0.040 A 
ATOM     68  F   UNL A   1      42.874  25.448  34.937  1.00  0.00    -0.206 F 
ATOM     69  C   UNL A   1      46.385  25.890  35.712  1.00  0.00     0.006 A 
ENDBRANCH  48  62
BRANCH  49  70
ATOM     70  C   UNL A   1      36.911  31.593  29.222  1.00  0.00     0.057 A 
ATOM     71  C   UNL A   1      35.704  30.921  28.997  1.00  0.00     0.134 A 
ATOM     72  C   UNL A   1      37.032  32.890  28.707  1.00  0.00     0.134 A 
ATOM     73  F   UNL A   1      35.535  29.667  29.446  1.00  0.00    -0.206 F 
ATOM     74  C   UNL A   1      34.666  31.507  28.271  1.00  0.00     0.040 A 
ATOM     75  C   UNL A   1      35.992  33.497  28.002  1.00  0.00     0.040 A 
ATOM     76  F   UNL A   1      38.163  33.588  28.890  1.00  0.00    -0.206 F 
ATOM     77  C   UNL A   1      34.806  32.802  27.777  1.00  0.00     0.006 A 
ENDBRANCH  49  70
BRANCH  61  78
ATOM     78  C   UNL A   1      39.196  32.099  35.782  1.00  0.00     0.057 A 
ATOM     79  C   UNL A   1      38.303  31.600  36.739  1.00  0.00     0.134 A 
ATOM     80  C   UNL A   1      39.694  33.394  35.973  1.00  0.00     0.134 A 
ATOM     81  F   UNL A   1      37.781  30.371  36.607  1.00  0.00    -0.206 F 
ATOM     82  C   UNL A   1      37.904  32.369  37.832  1.00  0.00     0.040 A 
ATOM     83  C   UNL A   1      39.323  34.163  37.076  1.00  0.00     0.040 A 
ATOM     84  F   UNL A   1      40.561  33.927  35.099  1.00  0.00    -0.206 F 
ATOM     85  C   UNL A   1      38.419  33.653  38.007  1.00  0.00     0.006 A 
ENDBRANCH  61  78
ENDBRANCH  35  36
ENDBRANCH  28  30
ENDBRANCH  27  28
ENDBRANCH  26  27
ENDBRANCH  25  26
ENDBRANCH  24  25
ENDBRANCH   1  24
TORSDOF 18
ENDMDL
MODEL 2
REMARK VINA RESULT:     -11.0      1.844      3.711
REMARK SMILES C[C@@H](C(=O)OCCOCCOC(=O)c1ccc(-c2c3nc(c(-c4c(F)cccc4F)c4ccc([nH]4)c(-c4c(F)cccc4F)c4nc(c(-c5c(F)cccc5F)c5ccc2[nH]5)C=C4)C=C3)cc1)c1cc(C(=O)c2ccccc2)ccc1O
REMARK SMILES IDX 7 1 6 2 5 3 3 4 4 5 2 6 1 7 68 8 69 9 81 10 70 11 80 12
REMARK SMILES IDX 79 13 82 14 71 16 72 17 73 18 74 19 78 20 75 21 77 22 76 23
REMARK SMILES IDX 8 24 9 25 10 26 11 27 12 28 13 29 14 30 15 31 67 32 16 33
REMARK SMILES IDX 66 34 17 35 18 36 19 37 60 38 20 39 65 40 59 41 61 42 21 43
REMARK SMILES IDX 64 44 58 45 57 46 22 48 48 49 31 50 47 51 32 52 35 53 46 54
REMARK SMILES IDX 62 55 33 56 34 57 45 59 63 60 36 61 23 62 24 63 29 64 25 65
REMARK SMILES IDX 26 66 28 67 30 68 27 69 49 70 50 71 55 72 51 73 52 74 54 75
REMARK SMILES IDX 56 76 53 77 37 78 38 79 43 80 39 81 40 82 42 83 44 84 41 85
REMARK H PARENT 82 15 61 47 35 58
REMARK Flexibility Score: inf
ROOT
ATOM      1  C   UNL A   1      41.117  20.169  26.257  1.00  0.00     0.202 C 
ENDROOT
BRANCH   1   2
ATOM      2  C   UNL A   1      40.317  21.468  26.107  1.00  0.00     0.261 C 
BRANCH   2   3
ATOM      3  O   UNL A   1      38.930  21.259  26.453  1.00  0.00    -0.463 OA
BRANCH   3   4
ATOM      4  C   UNL A   1      38.056  21.179  25.408  1.00  0.00     0.313 C 
ATOM      5  O   UNL A   1      37.882  20.169  24.737  1.00  0.00    -0.252 OA
BRANCH   4   6
ATOM      6  C   UNL A   1      37.341  22.512  25.132  1.00  0.00     0.130 C 
ATOM      7  C   UNL A   1      37.187  23.436  26.342  1.00  0.00     0.025 C 
BRANCH   6   8
ATOM      8  C   UNL A   1      36.029  22.267  24.389  1.00  0.00     0.009 A 
ATOM      9  C   UNL A   1      35.082  21.399  24.959  1.00  0.00     0.020 A 
ATOM     10  C   UNL A   1      35.654  22.953  23.229  1.00  0.00     0.119 A 
ATOM     11  C   UNL A   1      33.796  21.275  24.412  1.00  0.00     0.023 A 
ATOM     12  C   UNL A   1      34.353  22.917  22.736  1.00  0.00     0.047 A 
ATOM     13  C   UNL A   1      33.414  22.094  23.345  1.00  0.00     0.016 A 
BRANCH  10  14
ATOM     14  O   UNL A   1      36.547  23.671  22.497  1.00  0.00    -0.508 OA
ATOM     15  H   UNL A   1      36.410  23.792  21.579  1.00  0.00     0.293 HD
ENDBRANCH  10  14
BRANCH  11  16
ATOM     16  C   UNL A   1      32.862  20.276  24.999  1.00  0.00     0.193 C 
ATOM     17  O   UNL A   1      31.873  20.646  25.625  1.00  0.00    -0.289 OA
BRANCH  16  18
ATOM     18  C   UNL A   1      33.118  18.824  24.845  1.00  0.00     0.022 A 
ATOM     19  C   UNL A   1      32.672  17.960  25.847  1.00  0.00     0.012 A 
ATOM     20  C   UNL A   1      33.775  18.315  23.716  1.00  0.00     0.012 A 
ATOM     21  C   UNL A   1      32.829  16.583  25.691  1.00  0.00     0.001 A 
ATOM     22  C   UNL A   1      33.921  16.938  23.561  1.00  0.00     0.001 A 
ATOM     23  C   UNL A   1      33.440  16.073  24.543  1.00  0.00     0.000 A 
ENDBRANCH  16  18
ENDBRANCH  11  16
ENDBRANCH   6   8
ENDBRANCH   4   6
ENDBRANCH   3   4
ENDBRANCH   2   3
ENDBRANCH   1   2
BRANCH   1  24
ATOM     24  O   UNL A   1      42.457  20.185  25.756  1.00  0.00    -0.374 OA
BRANCH  24  25
ATOM     25  C   UNL A   1      43.214  21.364  26.020  1.00  0.00     0.202 C 
BRANCH  25  26
ATOM     26  C   UNL A   1      43.895  22.013  24.809  1.00  0.00     0.261 C 
BRANCH  26  27
ATOM     27  O   UNL A   1      43.355  23.312  24.526  1.00  0.00    -0.460 OA
BRANCH  27  28
ATOM     28  C   UNL A   1      44.116  24.331  24.983  1.00  0.00     0.338 C 
ATOM     29  O   UNL A   1      45.252  24.629  24.637  1.00  0.00    -0.246 OA
BRANCH  28  30
ATOM     30  C   UNL A   1      43.322  25.188  25.876  1.00  0.00     0.060 A 
ATOM     31  C   UNL A   1      43.785  26.494  26.079  1.00  0.00     0.016 A 
ATOM     32  C   UNL A   1      42.191  24.718  26.548  1.00  0.00     0.016 A 
ATOM     33  C   UNL A   1      43.158  27.316  27.006  1.00  0.00     0.010 A 
ATOM     34  C   UNL A   1      41.565  25.543  27.486  1.00  0.00     0.010 A 
ATOM     35  C   UNL A   1      42.073  26.828  27.748  1.00  0.00    -0.014 A 
BRANCH  35  36
ATOM     36  C   UNL A   1      41.596  27.608  28.913  1.00  0.00     0.031 A 
ATOM     37  C   UNL A   1      42.344  27.493  30.212  1.00  0.00     0.074 A 
ATOM     38  C   UNL A   1      40.555  28.449  28.795  1.00  0.00     0.049 A 
ATOM     39  N   UNL A   1      42.119  28.087  31.355  1.00  0.00    -0.248 NA
ATOM     40  C   UNL A   1      43.503  26.586  30.224  1.00  0.00     0.031 C 
ATOM     41  C   UNL A   1      39.786  28.674  27.573  1.00  0.00     0.029 A 
ATOM     42  N   UNL A   1      39.970  29.274  29.720  1.00  0.00    -0.354 N 
ATOM     43  C   UNL A   1      43.101  27.623  32.221  1.00  0.00     0.074 A 
ATOM     44  C   UNL A   1      43.905  26.675  31.483  1.00  0.00     0.031 C 
ATOM     45  C   UNL A   1      38.826  29.580  27.825  1.00  0.00     0.029 A 
ATOM     46  C   UNL A   1      38.896  29.974  29.231  1.00  0.00     0.049 A 
ATOM     47  H   UNL A   1      40.288  29.355  30.649  1.00  0.00     0.167 HD
ATOM     48  C   UNL A   1      43.319  27.967  33.513  1.00  0.00     0.037 A 
ATOM     49  C   UNL A   1      38.059  30.826  29.854  1.00  0.00     0.037 A 
ATOM     50  C   UNL A   1      42.518  28.916  34.239  1.00  0.00     0.049 A 
ATOM     51  C   UNL A   1      38.281  31.138  31.310  1.00  0.00     0.074 A 
ATOM     52  C   UNL A   1      42.668  29.351  35.544  1.00  0.00     0.029 A 
ATOM     53  N   UNL A   1      41.413  29.574  33.721  1.00  0.00    -0.354 N 
ATOM     54  N   UNL A   1      39.228  30.715  32.113  1.00  0.00    -0.248 NA
ATOM     55  C   UNL A   1      37.319  32.050  31.945  1.00  0.00     0.031 C 
ATOM     56  C   UNL A   1      41.620  30.233  35.831  1.00  0.00     0.029 A 
ATOM     57  C   UNL A   1      40.851  30.389  34.689  1.00  0.00     0.049 A 
ATOM     58  H   UNL A   1      41.077  29.476  32.800  1.00  0.00     0.167 HD
ATOM     59  C   UNL A   1      38.994  31.329  33.337  1.00  0.00     0.074 A 
ATOM     60  C   UNL A   1      37.822  32.163  33.167  1.00  0.00     0.031 C 
ATOM     61  C   UNL A   1      39.687  31.216  34.496  1.00  0.00     0.037 A 
BRANCH  48  62
ATOM     62  C   UNL A   1      44.450  27.288  34.227  1.00  0.00     0.057 A 
ATOM     63  C   UNL A   1      44.287  26.060  34.881  1.00  0.00     0.134 A 
ATOM     64  C   UNL A   1      45.728  27.861  34.240  1.00  0.00     0.134 A 
ATOM     65  F   UNL A   1      43.084  25.466  34.921  1.00  0.00    -0.206 F 
ATOM     66  C   UNL A   1      45.348  25.438  35.541  1.00  0.00     0.040 A 
ATOM     67  C   UNL A   1      46.804  27.235  34.874  1.00  0.00     0.040 A 
ATOM     68  F   UNL A   1      45.955  29.035  33.632  1.00  0.00    -0.206 F 
ATOM     69  C   UNL A   1      46.614  26.022  35.532  1.00  0.00     0.006 A 
ENDBRANCH  48  62
BRANCH  49  70
ATOM     70  C   UNL A   1      36.930  31.438  29.110  1.00  0.00     0.057 A 
ATOM     71  C   UNL A   1      36.984  32.764  28.668  1.00  0.00     0.134 A 
ATOM     72  C   UNL A   1      35.761  30.714  28.836  1.00  0.00     0.134 A 
ATOM     73  F   UNL A   1      38.067  33.516  28.919  1.00  0.00    -0.206 F 
ATOM     74  C   UNL A   1      35.912  33.356  27.997  1.00  0.00     0.040 A 
ATOM     75  C   UNL A   1      34.692  31.285  28.144  1.00  0.00     0.040 A 
ATOM     76  F   UNL A   1      35.647  29.438  29.232  1.00  0.00    -0.206 F 
ATOM     77  C   UNL A   1      34.764  32.613  27.728  1.00  0.00     0.006 A 
ENDBRANCH  49  70
BRANCH  61  78
ATOM     78  C   UNL A   1      39.218  32.040  35.661  1.00  0.00     0.057 A 
ATOM     79  C   UNL A   1      38.359  31.518  36.637  1.00  0.00     0.134 A 
ATOM     80  C   UNL A   1      39.666  33.356  35.827  1.00  0.00     0.134 A 
ATOM     81  F   UNL A   1      37.885  30.268  36.529  1.00  0.00    -0.206 F 
ATOM     82  C   UNL A   1      37.945  32.286  37.726  1.00  0.00     0.040 A 
ATOM     83  C   UNL A   1      39.280  34.124  36.926  1.00  0.00     0.040 A 
ATOM     84  F   UNL A   1      40.498  33.911  34.934  1.00  0.00    -0.206 F 
ATOM     85  C   UNL A   1      38.410  33.592  37.877  1.00  0.00     0.006 A 
ENDBRANCH  61  78
ENDBRANCH  35  36
ENDBRANCH  28  30
ENDBRANCH  27  28
ENDBRANCH  26  27
ENDBRANCH  25  26
ENDBRANCH  24  25
ENDBRANCH   1  24
TORSDOF 18
ENDMDL
MODEL 3
REMARK VINA RESULT:     -11.0      3.105      8.342
REMARK SMILES C[C@@H](C(=O)OCCOCCOC(=O)c1ccc(-c2c3nc(c(-c4c(F)cccc4F)c4ccc([nH]4)c(-c4c(F)cccc4F)c4nc(c(-c5c(F)cccc5F)c5ccc2[nH]5)C=C4)C=C3)cc1)c1cc(C(=O)c2ccccc2)ccc1O
REMARK SMILES IDX 7 1 6 2 5 3 3 4 4 5 2 6 1 7 68 8 69 9 81 10 70 11 80 12
REMARK SMILES IDX 79 13 82 14 71 16 72 17 73 18 74 19 78 20 75 21 77 22 76 23
REMARK SMILES IDX 8 24 9 25 10 26 11 27 12 28 13 29 14 30 15 31 67 32 16 33
REMARK SMILES IDX 66 34 17 35 18 36 19 37 60 38 20 39 65 40 59 41 61 42 21 43
REMARK SMILES IDX 64 44 58 45 57 46 22 48 48 49 31 50 47 51 32 52 35 53 46 54
REMARK SMILES IDX 62 55 33 56 34 57 45 59 63 60 36 61 23 62 24 63 29 64 25 65
REMARK SMILES IDX 26 66 28 67 30 68 27 69 49 70 50 71 55 72 51 73 52 74 54 75
REMARK SMILES IDX 56 76 53 77 37 78 38 79 43 80 39 81 40 82 42 83 44 84 41 85
REMARK H PARENT 82 15 61 47 35 58
REMARK Flexibility Score: inf
ROOT
ATOM      1  C   UNL A   1      31.784  28.930  26.079  1.00  0.00     0.202 C 
ENDROOT
BRANCH   1   2
ATOM      2  C   UNL A   1      32.509  27.824  26.856  1.00  0.00     0.261 C 
BRANCH   2   3
ATOM      3  O   UNL A   1      31.646  26.681  27.046  1.00  0.00    -0.463 OA
BRANCH   3   4
ATOM      4  C   UNL A   1      31.935  25.579  26.296  1.00  0.00     0.313 C 
ATOM      5  O   UNL A   1      33.022  25.013  26.303  1.00  0.00    -0.252 OA
BRANCH   4   6
ATOM      6  C   UNL A   1      30.761  25.147  25.402  1.00  0.00     0.130 C 
ATOM      7  C   UNL A   1      30.744  23.667  25.012  1.00  0.00     0.025 C 
BRANCH   6   8
ATOM      8  C   UNL A   1      30.630  26.088  24.206  1.00  0.00     0.009 A 
ATOM      9  C   UNL A   1      29.492  26.909  24.115  1.00  0.00     0.020 A 
ATOM     10  C   UNL A   1      31.635  26.277  23.251  1.00  0.00     0.119 A 
ATOM     11  C   UNL A   1      29.403  27.912  23.139  1.00  0.00     0.023 A 
ATOM     12  C   UNL A   1      31.604  27.331  22.343  1.00  0.00     0.047 A 
ATOM     13  C   UNL A   1      30.496  28.167  22.304  1.00  0.00     0.016 A 
BRANCH  10  14
ATOM     14  O   UNL A   1      32.685  25.422  23.135  1.00  0.00    -0.508 OA
ATOM     15  H   UNL A   1      33.541  25.754  22.951  1.00  0.00     0.293 HD
ENDBRANCH  10  14
BRANCH  11  16
ATOM     16  C   UNL A   1      28.141  28.694  23.028  1.00  0.00     0.193 C 
ATOM     17  O   UNL A   1      27.065  28.174  23.310  1.00  0.00    -0.289 OA
BRANCH  16  18
ATOM     18  C   UNL A   1      28.165  30.103  22.568  1.00  0.00     0.022 A 
ATOM     19  C   UNL A   1      28.431  31.103  23.505  1.00  0.00     0.012 A 
ATOM     20  C   UNL A   1      27.948  30.435  21.224  1.00  0.00     0.012 A 
ATOM     21  C   UNL A   1      28.538  32.430  23.087  1.00  0.00     0.001 A 
ATOM     22  C   UNL A   1      28.065  31.761  20.810  1.00  0.00     0.001 A 
ATOM     23  C   UNL A   1      28.369  32.755  21.739  1.00  0.00     0.000 A 
ENDBRANCH  16  18
ENDBRANCH  11  16
ENDBRANCH   6   8
ENDBRANCH   4   6
ENDBRANCH   3   4
ENDBRANCH   2   3
ENDBRANCH   1   2
BRANCH   1  24
ATOM     24  O   UNL A   1      31.677  30.200  26.730  1.00  0.00    -0.374 OA
BRANCH  24  25
ATOM     25  C   UNL A   1      31.353  31.310  25.896  1.00  0.00     0.202 C 
BRANCH  25  26
ATOM     26  C   UNL A   1      31.441  32.693  26.551  1.00  0.00     0.261 C 
BRANCH  26  27
ATOM     27  O   UNL A   1      32.130  32.645  27.810  1.00  0.00    -0.460 OA
BRANCH  27  28
ATOM     28  C   UNL A   1      33.083  33.593  27.947  1.00  0.00     0.338 C 
ATOM     29  O   UNL A   1      32.932  34.807  27.975  1.00  0.00    -0.246 OA
BRANCH  28  30
ATOM     30  C   UNL A   1      34.380  32.961  28.238  1.00  0.00     0.060 A 
ATOM     31  C   UNL A   1      34.371  31.585  28.495  1.00  0.00     0.016 A 
ATOM     32  C   UNL A   1      35.564  33.697  28.318  1.00  0.00     0.016 A 
ATOM     33  C   UNL A   1      35.536  30.948  28.900  1.00  0.00     0.010 A 
ATOM     34  C   UNL A   1      36.735  33.056  28.733  1.00  0.00     0.010 A 
ATOM     35  C   UNL A   1      36.714  31.690  29.066  1.00  0.00    -0.014 A 
BRANCH  35  36
ATOM     36  C   UNL A   1      37.863  31.060  29.755  1.00  0.00     0.031 A 
ATOM     37  C   UNL A   1      38.100  31.383  31.205  1.00  0.00     0.074 A 
ATOM     38  C   UNL A   1      38.642  30.171  29.117  1.00  0.00     0.049 A 
ATOM     39  N   UNL A   1      39.031  30.944  32.012  1.00  0.00    -0.248 NA
ATOM     40  C   UNL A   1      37.160  32.328  31.828  1.00  0.00     0.031 C 
ATOM     41  C   UNL A   1      38.476  29.749  27.727  1.00  0.00     0.029 A 
ATOM     42  N   UNL A   1      39.726  29.459  29.560  1.00  0.00    -0.354 N 
ATOM     43  C   UNL A   1      38.792  31.561  33.233  1.00  0.00     0.074 A 
ATOM     44  C   UNL A   1      37.650  32.430  33.055  1.00  0.00     0.031 C 
ATOM     45  C   UNL A   1      39.430  28.849  27.431  1.00  0.00     0.029 A 
ATOM     46  C   UNL A   1      40.287  28.656  28.599  1.00  0.00     0.049 A 
ATOM     47  H   UNL A   1      40.072  29.519  30.481  1.00  0.00     0.167 HD
ATOM     48  C   UNL A   1      39.460  31.408  34.401  1.00  0.00     0.037 A 
ATOM     49  C   UNL A   1      41.376  27.867  28.656  1.00  0.00     0.037 A 
ATOM     50  C   UNL A   1      40.592  30.538  34.573  1.00  0.00     0.049 A 
ATOM     51  C   UNL A   1      42.143  27.767  29.948  1.00  0.00     0.074 A 
ATOM     52  C   UNL A   1      41.327  30.294  35.720  1.00  0.00     0.029 A 
ATOM     53  N   UNL A   1      41.157  29.772  33.564  1.00  0.00    -0.354 N 
ATOM     54  N   UNL A   1      41.895  28.335  31.104  1.00  0.00    -0.248 NA
ATOM     55  C   UNL A   1      43.340  26.915  29.943  1.00  0.00     0.031 C 
ATOM     56  C   UNL A   1      42.369  29.419  35.391  1.00  0.00     0.029 A 
ATOM     57  C   UNL A   1      42.250  29.077  34.053  1.00  0.00     0.049 A 
ATOM     58  H   UNL A   1      40.829  29.729  32.636  1.00  0.00     0.167 HD
ATOM     59  C   UNL A   1      42.884  27.886  31.971  1.00  0.00     0.074 A 
ATOM     60  C   UNL A   1      43.730  26.991  31.208  1.00  0.00     0.031 C 
ATOM     61  C   UNL A   1      43.075  28.186  33.278  1.00  0.00     0.037 A 
BRANCH  48  62
ATOM     62  C   UNL A   1      38.999  32.224  35.573  1.00  0.00     0.057 A 
ATOM     63  C   UNL A   1      38.183  31.687  36.578  1.00  0.00     0.134 A 
ATOM     64  C   UNL A   1      39.398  33.560  35.710  1.00  0.00     0.134 A 
ATOM     65  F   UNL A   1      37.753  30.419  36.499  1.00  0.00    -0.206 F 
ATOM     66  C   UNL A   1      37.763  32.456  37.665  1.00  0.00     0.040 A 
ATOM     67  C   UNL A   1      39.005  34.331  36.806  1.00  0.00     0.040 A 
ATOM     68  F   UNL A   1      40.179  34.136  34.785  1.00  0.00    -0.206 F 
ATOM     69  C   UNL A   1      38.180  33.781  37.785  1.00  0.00     0.006 A 
ENDBRANCH  48  62
BRANCH  49  70
ATOM     70  C   UNL A   1      41.814  27.114  27.454  1.00  0.00     0.057 A 
ATOM     71  C   UNL A   1      42.618  27.710  26.476  1.00  0.00     0.134 A 
ATOM     72  C   UNL A   1      41.427  25.783  27.247  1.00  0.00     0.134 A 
ATOM     73  F   UNL A   1      43.003  28.989  26.605  1.00  0.00    -0.206 F 
ATOM     74  C   UNL A   1      43.006  27.018  25.327  1.00  0.00     0.040 A 
ATOM     75  C   UNL A   1      41.829  25.072  26.116  1.00  0.00     0.040 A 
ATOM     76  F   UNL A   1      40.658  25.154  28.147  1.00  0.00    -0.206 F 
ATOM     77  C   UNL A   1      42.616  25.692  25.148  1.00  0.00     0.006 A 
ENDBRANCH  49  70
BRANCH  61  78
ATOM     78  C   UNL A   1      44.221  27.513  33.977  1.00  0.00     0.057 A 
ATOM     79  C   UNL A   1      45.487  28.108  34.065  1.00  0.00     0.134 A 
ATOM     80  C   UNL A   1      44.042  26.274  34.606  1.00  0.00     0.134 A 
ATOM     81  F   UNL A   1      45.725  29.289  33.474  1.00  0.00    -0.206 F 
ATOM     82  C   UNL A   1      46.539  27.484  34.734  1.00  0.00     0.040 A 
ATOM     83  C   UNL A   1      45.080  25.653  35.301  1.00  0.00     0.040 A 
ATOM     84  F   UNL A   1      42.853  25.657  34.569  1.00  0.00    -0.206 F 
ATOM     85  C   UNL A   1      46.336  26.255  35.361  1.00  0.00     0.006 A 
ENDBRANCH  61  78
ENDBRANCH  35  36
ENDBRANCH  28  30
ENDBRANCH  27  28
ENDBRANCH  26  27
ENDBRANCH  25  26
ENDBRANCH  24  25
ENDBRANCH   1  24
TORSDOF 18
ENDMDL
