MODEL 1
REMARK VINA RESULT:     -11.5      0.000      0.000
REMARK SMILES O=C(OCCOCCOC(=O)[C@@H]1[C@H](C(=O)NCc2ccncc2)[C@H]2C=C[C@@H]1O2)c1ccc(-c2c3nc(c(-c4c(F)cccc4F)c4ccc([nH]4)c(-c4c(F)cccc4F)c4nc(c(-c5c(F)cccc5F)c5ccc2[nH]5)C=C4)C=C3)cc1
REMARK SMILES IDX 7 1 6 2 5 3 4 4 3 5 2 6 1 7 29 8 30 9 82 10 31 11 81 12
REMARK SMILES IDX 32 13 33 14 34 15 75 16 35 17 80 18 74 19 76 20 36 21 79 22
REMARK SMILES IDX 73 23 72 24 37 26 63 27 46 28 62 29 47 30 50 31 61 32 77 33
REMARK SMILES IDX 48 34 49 35 60 37 78 38 51 39 38 40 39 41 44 42 40 43 41 44
REMARK SMILES IDX 43 45 45 46 42 47 64 48 65 49 70 50 66 51 67 52 69 53 71 54
REMARK SMILES IDX 68 55 52 56 53 57 58 58 54 59 55 60 57 61 59 62 56 63 8 64
REMARK SMILES IDX 9 65 10 66 11 67 12 68 13 69 27 70 24 71 26 72 28 73 25 74
REMARK SMILES IDX 14 75 15 76 16 77 17 79 18 80 19 81 23 82 20 83 22 84 21 85
REMARK H PARENT 76 25 50 36 16 78
REMARK Flexibility Score: inf
ROOT
ATOM      1  C   UNL A   1      38.793  21.541  25.646  1.00  0.00     0.202 C 
ENDROOT
BRANCH   1   2
ATOM      2  O   UNL A   1      39.818  21.480  26.628  1.00  0.00    -0.374 OA
BRANCH   2   3
ATOM      3  C   UNL A   1      40.782  20.469  26.360  1.00  0.00     0.202 C 
BRANCH   3   4
ATOM      4  C   UNL A   1      42.192  20.999  26.123  1.00  0.00     0.261 C 
BRANCH   4   5
ATOM      5  O   UNL A   1      42.126  22.193  25.310  1.00  0.00    -0.460 OA
BRANCH   5   6
ATOM      6  C   UNL A   1      42.875  23.307  25.490  1.00  0.00     0.338 C 
ATOM      7  O   UNL A   1      43.927  23.471  24.879  1.00  0.00    -0.246 OA
BRANCH   6   8
ATOM      8  C   UNL A   1      42.399  24.358  26.417  1.00  0.00     0.060 A 
ATOM      9  C   UNL A   1      42.778  25.682  26.247  1.00  0.00     0.016 A 
ATOM     10  C   UNL A   1      41.550  24.031  27.474  1.00  0.00     0.016 A 
ATOM     11  C   UNL A   1      42.538  26.619  27.231  1.00  0.00     0.010 A 
ATOM     12  C   UNL A   1      41.153  25.025  28.377  1.00  0.00     0.010 A 
ATOM     13  C   UNL A   1      41.685  26.325  28.290  1.00  0.00    -0.014 A 
BRANCH  13  14
ATOM     14  C   UNL A   1      41.398  27.366  29.310  1.00  0.00     0.031 A 
ATOM     15  C   UNL A   1      42.297  27.485  30.506  1.00  0.00     0.074 A 
ATOM     16  C   UNL A   1      40.386  28.242  29.146  1.00  0.00     0.049 A 
ATOM     17  N   UNL A   1      42.092  28.104  31.637  1.00  0.00    -0.248 NA
ATOM     18  C   UNL A   1      43.600  26.804  30.420  1.00  0.00     0.031 C 
ATOM     19  C   UNL A   1      39.513  28.334  27.971  1.00  0.00     0.029 A 
ATOM     20  N   UNL A   1      39.937  29.252  29.959  1.00  0.00    -0.354 N 
ATOM     21  C   UNL A   1      43.187  27.798  32.436  1.00  0.00     0.074 A 
ATOM     22  C   UNL A   1      44.074  26.973  31.646  1.00  0.00     0.031 C 
ATOM     23  C   UNL A   1      38.706  29.396  28.099  1.00  0.00     0.029 A 
ATOM     24  C   UNL A   1      38.880  29.955  29.429  1.00  0.00     0.049 A 
ATOM     25  H   UNL A   1      40.333  29.454  30.837  1.00  0.00     0.167 HD
ATOM     26  C   UNL A   1      43.400  28.154  33.724  1.00  0.00     0.037 A 
ATOM     27  C   UNL A   1      38.089  30.892  29.981  1.00  0.00     0.037 A 
ATOM     28  C   UNL A   1      42.525  29.034  34.456  1.00  0.00     0.049 A 
ATOM     29  C   UNL A   1      38.313  31.238  31.424  1.00  0.00     0.074 A 
ATOM     30  C   UNL A   1      42.604  29.435  35.778  1.00  0.00     0.029 A 
ATOM     31  N   UNL A   1      41.420  29.673  33.909  1.00  0.00    -0.354 N 
ATOM     32  N   UNL A   1      39.250  30.817  32.241  1.00  0.00    -0.248 NA
ATOM     33  C   UNL A   1      37.341  32.149  32.038  1.00  0.00     0.031 C 
ATOM     34  C   UNL A   1      41.524  30.286  36.039  1.00  0.00     0.029 A 
ATOM     35  C   UNL A   1      40.805  30.461  34.866  1.00  0.00     0.049 A 
ATOM     36  H   UNL A   1      41.118  29.579  32.976  1.00  0.00     0.167 HD
ATOM     37  C   UNL A   1      38.988  31.421  33.462  1.00  0.00     0.074 A 
ATOM     38  C   UNL A   1      37.819  32.255  33.270  1.00  0.00     0.031 C 
ATOM     39  C   UNL A   1      39.648  31.289  34.640  1.00  0.00     0.037 A 
BRANCH  26  40
ATOM     40  C   UNL A   1      44.557  27.515  34.435  1.00  0.00     0.057 A 
ATOM     41  C   UNL A   1      45.826  28.101  34.509  1.00  0.00     0.134 A 
ATOM     42  C   UNL A   1      44.390  26.264  35.048  1.00  0.00     0.134 A 
ATOM     43  F   UNL A   1      46.065  29.282  33.919  1.00  0.00    -0.206 F 
ATOM     44  C   UNL A   1      46.892  27.455  35.139  1.00  0.00     0.040 A 
ATOM     45  C   UNL A   1      45.439  25.622  35.705  1.00  0.00     0.040 A 
ATOM     46  F   UNL A   1      43.202  25.641  35.012  1.00  0.00    -0.206 F 
ATOM     47  C   UNL A   1      46.699  26.215  35.745  1.00  0.00     0.006 A 
ENDBRANCH  26  40
BRANCH  27  48
ATOM     48  C   UNL A   1      36.971  31.491  29.205  1.00  0.00     0.057 A 
ATOM     49  C   UNL A   1      35.809  30.762  28.927  1.00  0.00     0.134 A 
ATOM     50  C   UNL A   1      37.034  32.803  28.713  1.00  0.00     0.134 A 
ATOM     51  F   UNL A   1      35.693  29.491  29.341  1.00  0.00    -0.206 F 
ATOM     52  C   UNL A   1      34.758  31.310  28.186  1.00  0.00     0.040 A 
ATOM     53  C   UNL A   1      35.977  33.376  28.005  1.00  0.00     0.040 A 
ATOM     54  F   UNL A   1      38.120  33.560  28.933  1.00  0.00    -0.206 F 
ATOM     55  C   UNL A   1      34.837  32.625  27.732  1.00  0.00     0.006 A 
ENDBRANCH  27  48
BRANCH  39  56
ATOM     56  C   UNL A   1      39.143  32.113  35.785  1.00  0.00     0.057 A 
ATOM     57  C   UNL A   1      38.244  31.601  36.728  1.00  0.00     0.134 A 
ATOM     58  C   UNL A   1      39.579  33.433  35.950  1.00  0.00     0.134 A 
ATOM     59  F   UNL A   1      37.777  30.349  36.616  1.00  0.00    -0.206 F 
ATOM     60  C   UNL A   1      37.771  32.387  37.780  1.00  0.00     0.040 A 
ATOM     61  C   UNL A   1      39.137  34.218  37.014  1.00  0.00     0.040 A 
ATOM     62  F   UNL A   1      40.447  33.978  35.084  1.00  0.00    -0.206 F 
ATOM     63  C   UNL A   1      38.223  33.698  37.928  1.00  0.00     0.006 A 
ENDBRANCH  39  56
ENDBRANCH  13  14
ENDBRANCH   6   8
ENDBRANCH   5   6
ENDBRANCH   4   5
ENDBRANCH   3   4
ENDBRANCH   2   3
ENDBRANCH   1   2
BRANCH   1  64
ATOM     64  C   UNL A   1      38.002  22.851  25.681  1.00  0.00     0.261 C 
BRANCH  64  65
ATOM     65  O   UNL A   1      36.733  22.778  24.988  1.00  0.00    -0.463 OA
BRANCH  65  66
ATOM     66  C   UNL A   1      35.645  22.535  25.775  1.00  0.00     0.312 C 
ATOM     67  O   UNL A   1      35.327  21.423  26.180  1.00  0.00    -0.252 OA
BRANCH  66  68
ATOM     68  C   UNL A   1      34.753  23.751  25.873  1.00  0.00     0.147 C 
ATOM     69  C   UNL A   1      33.331  23.749  26.498  1.00  0.00     0.128 C 
ATOM     70  C   UNL A   1      34.464  24.365  24.483  1.00  0.00     0.157 C 
ATOM     71  C   UNL A   1      32.531  24.543  25.474  1.00  0.00     0.155 C 
ATOM     72  C   UNL A   1      34.220  25.834  24.658  1.00  0.00     0.004 C 
ATOM     73  O   UNL A   1      33.086  23.966  24.264  1.00  0.00    -0.365 OA
ATOM     74  C   UNL A   1      33.054  25.942  25.311  1.00  0.00     0.004 C 
BRANCH  69  75
ATOM     75  C   UNL A   1      32.601  22.485  26.925  1.00  0.00     0.227 C 
ATOM     76  O   UNL A   1      32.325  22.369  28.130  1.00  0.00    -0.275 OA
ATOM     77  N   UNL A   1      32.193  21.444  26.160  1.00  0.00    -0.352 N 
ATOM     78  H   UNL A   1      31.746  20.759  26.707  1.00  0.00     0.163 HD
BRANCH  77  79
ATOM     79  C   UNL A   1      32.226  21.048  24.753  1.00  0.00     0.151 C 
BRANCH  79  80
ATOM     80  C   UNL A   1      32.521  19.584  24.529  1.00  0.00    -0.026 A 
ATOM     81  C   UNL A   1      32.550  19.015  23.251  1.00  0.00     0.025 A 
ATOM     82  C   UNL A   1      32.853  18.753  25.598  1.00  0.00     0.025 A 
ATOM     83  C   UNL A   1      32.901  17.674  23.116  1.00  0.00     0.111 A 
ATOM     84  C   UNL A   1      33.145  17.415  25.378  1.00  0.00     0.111 A 
ATOM     85  N   UNL A   1      33.179  16.859  24.154  1.00  0.00    -0.265 NA
ENDBRANCH  79  80
ENDBRANCH  77  79
ENDBRANCH  69  75
ENDBRANCH  66  68
ENDBRANCH  65  66
ENDBRANCH  64  65
ENDBRANCH   1  64
TORSDOF 17
ENDMDL
MODEL 2
REMARK VINA RESULT:     -11.5      4.276      8.258
REMARK SMILES O=C(OCCOCCOC(=O)[C@@H]1[C@H](C(=O)NCc2ccncc2)[C@H]2C=C[C@@H]1O2)c1ccc(-c2c3nc(c(-c4c(F)cccc4F)c4ccc([nH]4)c(-c4c(F)cccc4F)c4nc(c(-c5c(F)cccc5F)c5ccc2[nH]5)C=C4)C=C3)cc1
REMARK SMILES IDX 7 1 6 2 5 3 4 4 3 5 2 6 1 7 29 8 30 9 82 10 31 11 81 12
REMARK SMILES IDX 32 13 33 14 34 15 75 16 35 17 80 18 74 19 76 20 36 21 79 22
REMARK SMILES IDX 73 23 72 24 37 26 63 27 46 28 62 29 47 30 50 31 61 32 77 33
REMARK SMILES IDX 48 34 49 35 60 37 78 38 51 39 38 40 39 41 44 42 40 43 41 44
REMARK SMILES IDX 43 45 45 46 42 47 64 48 65 49 70 50 66 51 67 52 69 53 71 54
REMARK SMILES IDX 68 55 52 56 53 57 58 58 54 59 55 60 57 61 59 62 56 63 8 64
REMARK SMILES IDX 9 65 10 66 11 67 12 68 13 69 27 70 24 71 26 72 28 73 25 74
REMARK SMILES IDX 14 75 15 76 16 77 17 79 18 80 19 81 23 82 20 83 22 84 21 85
REMARK H PARENT 76 25 50 36 16 78
REMARK Flexibility Score: inf
ROOT
ATOM      1  C   UNL A   1      33.570  22.753  25.050  1.00  0.00     0.202 C 
ENDROOT
BRANCH   1   2
ATOM      2  O   UNL A   1      33.468  21.469  25.649  1.00  0.00    -0.374 OA
BRANCH   2   3
ATOM      3  C   UNL A   1      34.387  20.530  25.105  1.00  0.00     0.202 C 
BRANCH   3   4
ATOM      4  C   UNL A   1      35.696  21.145  24.623  1.00  0.00     0.261 C 
BRANCH   4   5
ATOM      5  O   UNL A   1      36.600  21.288  25.742  1.00  0.00    -0.460 OA
BRANCH   5   6
ATOM      6  C   UNL A   1      37.953  21.298  25.662  1.00  0.00     0.338 C 
ATOM      7  O   UNL A   1      38.561  20.402  25.083  1.00  0.00    -0.246 OA
BRANCH   6   8
ATOM      8  C   UNL A   1      38.705  22.425  26.257  1.00  0.00     0.060 A 
ATOM      9  C   UNL A   1      38.236  23.727  26.152  1.00  0.00     0.016 A 
ATOM     10  C   UNL A   1      39.896  22.192  26.943  1.00  0.00     0.016 A 
ATOM     11  C   UNL A   1      39.038  24.799  26.488  1.00  0.00     0.010 A 
ATOM     12  C   UNL A   1      40.627  23.273  27.450  1.00  0.00     0.010 A 
ATOM     13  C   UNL A   1      40.225  24.596  27.184  1.00  0.00    -0.014 A 
BRANCH  13  14
ATOM     14  C   UNL A   1      41.049  25.766  27.584  1.00  0.00     0.031 A 
ATOM     15  C   UNL A   1      40.466  26.785  28.519  1.00  0.00     0.074 A 
ATOM     16  C   UNL A   1      42.327  25.891  27.173  1.00  0.00     0.049 A 
ATOM     17  N   UNL A   1      40.871  28.000  28.777  1.00  0.00    -0.248 NA
ATOM     18  C   UNL A   1      39.254  26.387  29.255  1.00  0.00     0.031 C 
ATOM     19  C   UNL A   1      43.071  24.912  26.374  1.00  0.00     0.029 A 
ATOM     20  N   UNL A   1      43.246  26.884  27.400  1.00  0.00    -0.354 N 
ATOM     21  C   UNL A   1      39.908  28.547  29.617  1.00  0.00     0.074 A 
ATOM     22  C   UNL A   1      38.921  27.518  29.859  1.00  0.00     0.031 C 
ATOM     23  C   UNL A   1      44.346  25.307  26.261  1.00  0.00     0.029 A 
ATOM     24  C   UNL A   1      44.472  26.640  26.827  1.00  0.00     0.049 A 
ATOM     25  H   UNL A   1      43.047  27.694  27.924  1.00  0.00     0.167 HD
ATOM     26  C   UNL A   1      39.851  29.808  30.104  1.00  0.00     0.037 A 
ATOM     27  C   UNL A   1      45.552  27.431  26.703  1.00  0.00     0.037 A 
ATOM     28  C   UNL A   1      40.891  30.783  29.895  1.00  0.00     0.049 A 
ATOM     29  C   UNL A   1      45.451  28.841  27.208  1.00  0.00     0.074 A 
ATOM     30  C   UNL A   1      40.933  32.106  30.296  1.00  0.00     0.029 A 
ATOM     31  N   UNL A   1      42.091  30.523  29.245  1.00  0.00    -0.354 N 
ATOM     32  N   UNL A   1      44.468  29.420  27.856  1.00  0.00    -0.248 NA
ATOM     33  C   UNL A   1      46.589  29.723  26.922  1.00  0.00     0.031 C 
ATOM     34  C   UNL A   1      42.142  32.657  29.855  1.00  0.00     0.029 A 
ATOM     35  C   UNL A   1      42.878  31.661  29.229  1.00  0.00     0.049 A 
ATOM     36  H   UNL A   1      42.343  29.656  28.854  1.00  0.00     0.167 HD
ATOM     37  C   UNL A   1      44.871  30.730  28.066  1.00  0.00     0.074 A 
ATOM     38  C   UNL A   1      46.198  30.852  27.497  1.00  0.00     0.031 C 
ATOM     39  C   UNL A   1      44.201  31.746  28.665  1.00  0.00     0.037 A 
BRANCH  26  40
ATOM     40  C   UNL A   1      38.594  30.218  30.813  1.00  0.00     0.057 A 
ATOM     41  C   UNL A   1      37.449  30.663  30.143  1.00  0.00     0.134 A 
ATOM     42  C   UNL A   1      38.544  30.179  32.215  1.00  0.00     0.134 A 
ATOM     43  F   UNL A   1      37.437  30.754  28.804  1.00  0.00    -0.206 F 
ATOM     44  C   UNL A   1      36.312  31.080  30.839  1.00  0.00     0.040 A 
ATOM     45  C   UNL A   1      37.405  30.566  32.920  1.00  0.00     0.040 A 
ATOM     46  F   UNL A   1      39.607  29.768  32.923  1.00  0.00    -0.206 F 
ATOM     47  C   UNL A   1      36.286  31.027  32.231  1.00  0.00     0.006 A 
ENDBRANCH  26  40
BRANCH  27  48
ATOM     48  C   UNL A   1      46.769  26.946  25.999  1.00  0.00     0.057 A 
ATOM     49  C   UNL A   1      46.955  27.174  24.631  1.00  0.00     0.134 A 
ATOM     50  C   UNL A   1      47.775  26.235  26.670  1.00  0.00     0.134 A 
ATOM     51  F   UNL A   1      46.020  27.821  23.920  1.00  0.00    -0.206 F 
ATOM     52  C   UNL A   1      48.088  26.709  23.957  1.00  0.00     0.040 A 
ATOM     53  C   UNL A   1      48.928  25.798  26.018  1.00  0.00     0.040 A 
ATOM     54  F   UNL A   1      47.662  25.972  27.981  1.00  0.00    -0.206 F 
ATOM     55  C   UNL A   1      49.084  26.028  24.654  1.00  0.00     0.006 A 
ENDBRANCH  27  48
BRANCH  39  56
ATOM     56  C   UNL A   1      44.926  33.052  28.778  1.00  0.00     0.057 A 
ATOM     57  C   UNL A   1      44.771  34.072  27.832  1.00  0.00     0.134 A 
ATOM     58  C   UNL A   1      45.780  33.293  29.861  1.00  0.00     0.134 A 
ATOM     59  F   UNL A   1      43.980  33.897  26.763  1.00  0.00    -0.206 F 
ATOM     60  C   UNL A   1      45.467  35.277  27.944  1.00  0.00     0.040 A 
ATOM     61  C   UNL A   1      46.457  34.503  29.999  1.00  0.00     0.040 A 
ATOM     62  F   UNL A   1      45.964  32.357  30.805  1.00  0.00    -0.206 F 
ATOM     63  C   UNL A   1      46.308  35.497  29.033  1.00  0.00     0.006 A 
ENDBRANCH  39  56
ENDBRANCH  13  14
ENDBRANCH   6   8
ENDBRANCH   5   6
ENDBRANCH   4   5
ENDBRANCH   3   4
ENDBRANCH   2   3
ENDBRANCH   1   2
BRANCH   1  64
ATOM     64  C   UNL A   1      33.677  23.889  26.071  1.00  0.00     0.261 C 
BRANCH  64  65
ATOM     65  O   UNL A   1      34.534  24.973  25.640  1.00  0.00    -0.463 OA
BRANCH  65  66
ATOM     66  C   UNL A   1      33.905  26.002  24.999  1.00  0.00     0.312 C 
ATOM     67  O   UNL A   1      33.919  26.161  23.784  1.00  0.00    -0.252 OA
BRANCH  66  68
ATOM     68  C   UNL A   1      33.411  27.042  25.977  1.00  0.00     0.147 C 
ATOM     69  C   UNL A   1      31.928  27.207  26.408  1.00  0.00     0.128 C 
ATOM     70  C   UNL A   1      33.743  28.477  25.506  1.00  0.00     0.157 C 
ATOM     71  C   UNL A   1      31.736  28.716  26.321  1.00  0.00     0.155 C 
ATOM     72  C   UNL A   1      33.887  29.350  26.717  1.00  0.00     0.004 C 
ATOM     73  O   UNL A   1      32.443  28.956  25.077  1.00  0.00    -0.365 OA
ATOM     74  C   UNL A   1      32.659  29.456  27.246  1.00  0.00     0.004 C 
BRANCH  69  75
ATOM     75  C   UNL A   1      30.775  26.455  25.762  1.00  0.00     0.227 C 
ATOM     76  O   UNL A   1      30.102  25.712  26.494  1.00  0.00    -0.275 OA
ATOM     77  N   UNL A   1      30.362  26.484  24.472  1.00  0.00    -0.352 N 
ATOM     78  H   UNL A   1      29.588  25.892  24.336  1.00  0.00     0.163 HD
BRANCH  77  79
ATOM     79  C   UNL A   1      30.739  27.147  23.224  1.00  0.00     0.151 C 
BRANCH  79  80
ATOM     80  C   UNL A   1      29.824  28.281  22.826  1.00  0.00    -0.026 A 
ATOM     81  C   UNL A   1      30.273  29.374  22.077  1.00  0.00     0.025 A 
ATOM     82  C   UNL A   1      28.465  28.241  23.132  1.00  0.00     0.025 A 
ATOM     83  C   UNL A   1      29.356  30.347  21.685  1.00  0.00     0.111 A 
ATOM     84  C   UNL A   1      27.630  29.276  22.741  1.00  0.00     0.111 A 
ATOM     85  N   UNL A   1      28.050  30.330  22.019  1.00  0.00    -0.265 NA
ENDBRANCH  79  80
ENDBRANCH  77  79
ENDBRANCH  69  75
ENDBRANCH  66  68
ENDBRANCH  65  66
ENDBRANCH  64  65
ENDBRANCH   1  64
TORSDOF 17
ENDMDL
MODEL 3
REMARK VINA RESULT:     -11.5      2.128      7.224
REMARK SMILES O=C(OCCOCCOC(=O)[C@@H]1[C@H](C(=O)NCc2ccncc2)[C@H]2C=C[C@@H]1O2)c1ccc(-c2c3nc(c(-c4c(F)cccc4F)c4ccc([nH]4)c(-c4c(F)cccc4F)c4nc(c(-c5c(F)cccc5F)c5ccc2[nH]5)C=C4)C=C3)cc1
REMARK SMILES IDX 7 1 6 2 5 3 4 4 3 5 2 6 1 7 29 8 30 9 82 10 31 11 81 12
REMARK SMILES IDX 32 13 33 14 34 15 75 16 35 17 80 18 74 19 76 20 36 21 79 22
REMARK SMILES IDX 73 23 72 24 37 26 63 27 46 28 62 29 47 30 50 31 61 32 77 33
REMARK SMILES IDX 48 34 49 35 60 37 78 38 51 39 38 40 39 41 44 42 40 43 41 44
REMARK SMILES IDX 43 45 45 46 42 47 64 48 65 49 70 50 66 51 67 52 69 53 71 54
REMARK SMILES IDX 68 55 52 56 53 57 58 58 54 59 55 60 57 61 59 62 56 63 8 64
REMARK SMILES IDX 9 65 10 66 11 67 12 68 13 69 27 70 24 71 26 72 28 73 25 74
REMARK SMILES IDX 14 75 15 76 16 77 17 79 18 80 19 81 23 82 20 83 22 84 21 85
REMARK H PARENT 76 25 50 36 16 78
REMARK Flexibility Score: inf
ROOT
ATOM      1  C   UNL A   1      30.750  25.583  24.787  1.00  0.00     0.202 C 
ENDROOT
BRANCH   1   2
ATOM      2  O   UNL A   1      30.500  26.923  25.187  1.00  0.00    -0.374 OA
BRANCH   2   3
ATOM      3  C   UNL A   1      31.692  27.649  25.465  1.00  0.00     0.202 C 
BRANCH   3   4
ATOM      4  C   UNL A   1      31.518  29.163  25.447  1.00  0.00     0.261 C 
BRANCH   4   5
ATOM      5  O   UNL A   1      31.850  29.701  26.748  1.00  0.00    -0.460 OA
BRANCH   5   6
ATOM      6  C   UNL A   1      32.570  30.827  26.971  1.00  0.00     0.338 C 
ATOM      7  O   UNL A   1      32.107  31.936  26.720  1.00  0.00    -0.246 OA
BRANCH   6   8
ATOM      8  C   UNL A   1      33.924  30.717  27.557  1.00  0.00     0.060 A 
ATOM      9  C   UNL A   1      34.561  29.487  27.649  1.00  0.00     0.016 A 
ATOM     10  C   UNL A   1      34.585  31.854  28.018  1.00  0.00     0.016 A 
ATOM     11  C   UNL A   1      35.708  29.338  28.402  1.00  0.00     0.010 A 
ATOM     12  C   UNL A   1      35.842  31.727  28.623  1.00  0.00     0.010 A 
ATOM     13  C   UNL A   1      36.396  30.455  28.863  1.00  0.00    -0.014 A 
BRANCH  13  14
ATOM     14  C   UNL A   1      37.658  30.275  29.627  1.00  0.00     0.031 A 
ATOM     15  C   UNL A   1      38.811  29.568  28.977  1.00  0.00     0.074 A 
ATOM     16  C   UNL A   1      37.803  30.792  30.863  1.00  0.00     0.049 A 
ATOM     17  N   UNL A   1      39.880  29.053  29.522  1.00  0.00    -0.248 NA
ATOM     18  C   UNL A   1      38.746  29.408  27.515  1.00  0.00     0.031 C 
ATOM     19  C   UNL A   1      36.819  31.619  31.569  1.00  0.00     0.029 A 
ATOM     20  N   UNL A   1      38.855  30.728  31.742  1.00  0.00    -0.354 N 
ATOM     21  C   UNL A   1      40.558  28.416  28.490  1.00  0.00     0.074 A 
ATOM     22  C   UNL A   1      39.802  28.644  27.279  1.00  0.00     0.031 C 
ATOM     23  C   UNL A   1      37.348  32.058  32.719  1.00  0.00     0.029 A 
ATOM     24  C   UNL A   1      38.635  31.411  32.914  1.00  0.00     0.049 A 
ATOM     25  H   UNL A   1      39.688  30.239  31.550  1.00  0.00     0.167 HD
ATOM     26  C   UNL A   1      41.691  27.680  28.571  1.00  0.00     0.037 A 
ATOM     27  C   UNL A   1      39.352  31.450  34.051  1.00  0.00     0.037 A 
ATOM     28  C   UNL A   1      42.452  27.532  29.786  1.00  0.00     0.049 A 
ATOM     29  C   UNL A   1      40.580  30.591  34.137  1.00  0.00     0.074 A 
ATOM     30  C   UNL A   1      43.590  26.779  30.011  1.00  0.00     0.029 A 
ATOM     31  N   UNL A   1      42.159  28.182  30.978  1.00  0.00    -0.354 N 
ATOM     32  N   UNL A   1      41.134  29.845  33.210  1.00  0.00    -0.248 NA
ATOM     33  C   UNL A   1      41.254  30.538  35.439  1.00  0.00     0.031 C 
ATOM     34  C   UNL A   1      43.963  26.943  31.350  1.00  0.00     0.029 A 
ATOM     35  C   UNL A   1      43.090  27.843  31.944  1.00  0.00     0.049 A 
ATOM     36  H   UNL A   1      41.400  28.794  31.115  1.00  0.00     0.167 HD
ATOM     37  C   UNL A   1      42.229  29.242  33.813  1.00  0.00     0.074 A 
ATOM     38  C   UNL A   1      42.272  29.730  35.177  1.00  0.00     0.031 C 
ATOM     39  C   UNL A   1      43.113  28.356  33.290  1.00  0.00     0.037 A 
BRANCH  26  40
ATOM     40  C   UNL A   1      42.105  26.913  27.350  1.00  0.00     0.057 A 
ATOM     41  C   UNL A   1      41.676  25.607  27.085  1.00  0.00     0.134 A 
ATOM     42  C   UNL A   1      42.976  27.504  26.422  1.00  0.00     0.134 A 
ATOM     43  F   UNL A   1      40.866  24.970  27.945  1.00  0.00    -0.206 F 
ATOM     44  C   UNL A   1      42.119  24.907  25.960  1.00  0.00     0.040 A 
ATOM     45  C   UNL A   1      43.403  26.826  25.281  1.00  0.00     0.040 A 
ATOM     46  F   UNL A   1      43.432  28.751  26.614  1.00  0.00    -0.206 F 
ATOM     47  C   UNL A   1      42.981  25.519  25.051  1.00  0.00     0.006 A 
ENDBRANCH  26  40
BRANCH  27  48
ATOM     48  C   UNL A   1      38.883  32.248  35.216  1.00  0.00     0.057 A 
ATOM     49  C   UNL A   1      39.145  33.619  35.308  1.00  0.00     0.134 A 
ATOM     50  C   UNL A   1      38.168  31.663  36.270  1.00  0.00     0.134 A 
ATOM     51  F   UNL A   1      39.850  34.239  34.349  1.00  0.00    -0.206 F 
ATOM     52  C   UNL A   1      38.721  34.375  36.404  1.00  0.00     0.040 A 
ATOM     53  C   UNL A   1      37.706  32.412  37.353  1.00  0.00     0.040 A 
ATOM     54  F   UNL A   1      37.886  30.351  36.255  1.00  0.00    -0.206 F 
ATOM     55  C   UNL A   1      37.990  33.773  37.426  1.00  0.00     0.006 A 
ENDBRANCH  27  48
BRANCH  39  56
ATOM     56  C   UNL A   1      44.226  27.912  34.189  1.00  0.00     0.057 A 
ATOM     57  C   UNL A   1      45.414  28.642  34.317  1.00  0.00     0.134 A 
ATOM     58  C   UNL A   1      44.096  26.743  34.948  1.00  0.00     0.134 A 
ATOM     59  F   UNL A   1      45.605  29.762  33.604  1.00  0.00    -0.206 F 
ATOM     60  C   UNL A   1      46.447  28.206  35.147  1.00  0.00     0.040 A 
ATOM     61  C   UNL A   1      45.110  26.314  35.802  1.00  0.00     0.040 A 
ATOM     62  F   UNL A   1      42.979  26.003  34.875  1.00  0.00    -0.206 F 
ATOM     63  C   UNL A   1      46.294  27.041  35.897  1.00  0.00     0.006 A 
ENDBRANCH  39  56
ENDBRANCH  13  14
ENDBRANCH   6   8
ENDBRANCH   5   6
ENDBRANCH   4   5
ENDBRANCH   3   4
ENDBRANCH   2   3
ENDBRANCH   1   2
BRANCH   1  64
ATOM     64  C   UNL A   1      30.611  24.576  25.932  1.00  0.00     0.261 C 
BRANCH  64  65
ATOM     65  O   UNL A   1      31.725  24.595  26.855  1.00  0.00    -0.463 OA
BRANCH  65  66
ATOM     66  C   UNL A   1      32.502  23.472  26.864  1.00  0.00     0.312 C 
ATOM     67  O   UNL A   1      32.408  22.581  27.700  1.00  0.00    -0.252 OA
BRANCH  66  68
ATOM     68  C   UNL A   1      33.643  23.583  25.879  1.00  0.00     0.147 C 
ATOM     69  C   UNL A   1      33.652  22.930  24.469  1.00  0.00     0.128 C 
ATOM     70  C   UNL A   1      34.965  23.035  26.467  1.00  0.00     0.157 C 
ATOM     71  C   UNL A   1      35.046  22.317  24.411  1.00  0.00     0.155 C 
ATOM     72  C   UNL A   1      36.106  23.760  25.818  1.00  0.00     0.004 C 
ATOM     73  O   UNL A   1      35.106  21.779  25.757  1.00  0.00    -0.365 OA
ATOM     74  C   UNL A   1      36.124  23.354  24.539  1.00  0.00     0.004 C 
BRANCH  69  75
ATOM     75  C   UNL A   1      32.588  21.958  23.985  1.00  0.00     0.227 C 
ATOM     76  O   UNL A   1      31.905  22.304  23.009  1.00  0.00    -0.275 OA
ATOM     77  N   UNL A   1      32.274  20.734  24.475  1.00  0.00    -0.352 N 
ATOM     78  H   UNL A   1      31.538  20.328  23.963  1.00  0.00     0.163 HD
BRANCH  77  79
ATOM     79  C   UNL A   1      32.720  19.843  25.546  1.00  0.00     0.151 C 
BRANCH  79  80
ATOM     80  C   UNL A   1      33.084  18.452  25.081  1.00  0.00    -0.026 A 
ATOM     81  C   UNL A   1      32.705  17.306  25.787  1.00  0.00     0.025 A 
ATOM     82  C   UNL A   1      33.758  18.258  23.876  1.00  0.00     0.025 A 
ATOM     83  C   UNL A   1      33.015  16.054  25.261  1.00  0.00     0.111 A 
ATOM     84  C   UNL A   1      34.066  16.976  23.448  1.00  0.00     0.111 A 
ATOM     85  N   UNL A   1      33.704  15.867  24.117  1.00  0.00    -0.265 NA
ENDBRANCH  79  80
ENDBRANCH  77  79
ENDBRANCH  69  75
ENDBRANCH  66  68
ENDBRANCH  65  66
ENDBRANCH  64  65
ENDBRANCH   1  64
TORSDOF 17
ENDMDL
