MODEL 1
REMARK VINA RESULT:     -12.0      0.000      0.000
REMARK SMILES Cc1cccc(-c2ccc(Cl)c(C(=O)OCCOCCOC(=O)c3ccc(-c4c5nc(c(-c6c(F)cccc6F)c6ccc([nH]6)c(-c6c(F)cccc6F)c6nc(c(-c7c(F)cccc7F)c7ccc4[nH]7)C=C6)C=C5)cc3)c2)c1
REMARK SMILES IDX 19 1 18 2 17 3 16 4 15 5 13 6 14 7 12 8 7 9 8 10 78 11 9 12
REMARK SMILES IDX 10 13 11 14 6 15 1 16 2 17 3 18 79 19 4 20 5 21 20 22 21 23
REMARK SMILES IDX 22 24 23 25 24 26 25 27 77 28 26 29 76 30 27 31 28 32 29 33
REMARK SMILES IDX 70 34 30 35 75 36 69 37 71 38 31 39 74 40 68 41 67 42 32 44
REMARK SMILES IDX 58 45 41 46 57 47 42 48 45 49 56 50 72 51 43 52 44 53 55 55
REMARK SMILES IDX 73 56 46 57 33 58 34 59 39 60 35 61 36 62 38 63 40 64 37 65
REMARK SMILES IDX 59 66 60 67 65 68 61 69 62 70 64 71 66 72 63 73 47 74 48 75
REMARK SMILES IDX 53 76 49 77 50 78 52 79 54 80 51 81
REMARK H PARENT 71 43 45 54
REMARK Flexibility Score: inf
ROOT
ATOM      1  C   UNL A   1      33.122  35.973  29.346  1.00  0.00     0.202 C 
ENDROOT
BRANCH   1   2
ATOM      2  O   UNL A   1      32.857  34.603  29.134  1.00  0.00    -0.374 OA
BRANCH   2   3
ATOM      3  C   UNL A   1      33.322  34.047  27.919  1.00  0.00     0.202 C 
BRANCH   3   4
ATOM      4  C   UNL A   1      34.099  32.811  28.285  1.00  0.00     0.261 C 
BRANCH   4   5
ATOM      5  O   UNL A   1      33.451  31.634  27.773  1.00  0.00    -0.460 OA
BRANCH   5   6
ATOM      6  C   UNL A   1      34.147  30.617  27.208  1.00  0.00     0.339 C 
ATOM      7  O   UNL A   1      35.262  30.240  27.485  1.00  0.00    -0.246 OA
BRANCH   6   8
ATOM      8  C   UNL A   1      33.254  29.880  26.284  1.00  0.00     0.079 A 
ATOM      9  C   UNL A   1      32.943  27.766  25.105  1.00  0.00    -0.017 A 
ATOM     10  C   UNL A   1      31.633  28.159  24.805  1.00  0.00     0.010 A 
ATOM     11  C   UNL A   1      33.745  28.629  25.855  1.00  0.00     0.026 A 
ATOM     12  C   UNL A   1      31.151  29.405  25.196  1.00  0.00     0.022 A 
ATOM     13  C   UNL A   1      31.962  30.282  25.915  1.00  0.00     0.055 A 
ATOM     14  Cl  UNL A   1      31.243  31.824  26.252  1.00  0.00    -0.083 Cl
BRANCH   9  15
ATOM     15  C   UNL A   1      33.455  26.499  24.587  1.00  0.00    -0.018 A 
ATOM     16  C   UNL A   1      35.428  23.547  25.966  1.00  0.00     0.044 C 
ATOM     17  C   UNL A   1      34.693  24.437  25.011  1.00  0.00    -0.051 A 
ATOM     18  C   UNL A   1      34.606  24.118  23.652  1.00  0.00     0.003 A 
ATOM     19  C   UNL A   1      34.114  25.624  25.465  1.00  0.00     0.012 A 
ATOM     20  C   UNL A   1      33.931  24.965  22.770  1.00  0.00     0.001 A 
ATOM     21  C   UNL A   1      33.353  26.148  23.235  1.00  0.00     0.009 A 
ENDBRANCH   9  15
ENDBRANCH   6   8
ENDBRANCH   5   6
ENDBRANCH   4   5
ENDBRANCH   3   4
ENDBRANCH   2   3
ENDBRANCH   1   2
BRANCH   1  22
ATOM     22  C   UNL A   1      32.738  36.425  30.759  1.00  0.00     0.261 C 
BRANCH  22  23
ATOM     23  O   UNL A   1      32.947  35.357  31.714  1.00  0.00    -0.460 OA
BRANCH  23  24
ATOM     24  C   UNL A   1      34.173  35.309  32.312  1.00  0.00     0.338 C 
ATOM     25  O   UNL A   1      34.715  36.245  32.878  1.00  0.00    -0.246 OA
BRANCH  24  26
ATOM     26  C   UNL A   1      34.874  34.043  31.940  1.00  0.00     0.060 A 
ATOM     27  C   UNL A   1      34.752  32.892  32.746  1.00  0.00     0.016 A 
ATOM     28  C   UNL A   1      35.918  34.142  31.031  1.00  0.00     0.016 A 
ATOM     29  C   UNL A   1      35.775  31.926  32.762  1.00  0.00     0.010 A 
ATOM     30  C   UNL A   1      36.988  33.295  31.188  1.00  0.00     0.010 A 
ATOM     31  C   UNL A   1      36.939  32.181  32.043  1.00  0.00    -0.014 A 
BRANCH  31  32
ATOM     32  C   UNL A   1      38.189  31.416  32.068  1.00  0.00     0.031 A 
ATOM     33  C   UNL A   1      38.276  30.232  31.173  1.00  0.00     0.074 A 
ATOM     34  C   UNL A   1      39.330  31.908  32.618  1.00  0.00     0.049 A 
ATOM     35  N   UNL A   1      39.203  29.341  31.246  1.00  0.00    -0.248 NA
ATOM     36  C   UNL A   1      37.281  29.903  30.151  1.00  0.00     0.031 C 
ATOM     37  C   UNL A   1      40.696  31.648  32.159  1.00  0.00     0.029 A 
ATOM     38  N   UNL A   1      39.521  32.802  33.674  1.00  0.00    -0.354 N 
ATOM     39  C   UNL A   1      39.145  28.587  30.095  1.00  0.00     0.074 A 
ATOM     40  C   UNL A   1      37.850  28.863  29.540  1.00  0.00     0.031 C 
ATOM     41  C   UNL A   1      41.579  32.160  33.032  1.00  0.00     0.029 A 
ATOM     42  C   UNL A   1      40.829  32.654  34.168  1.00  0.00     0.049 A 
ATOM     43  H   UNL A   1      38.848  33.435  34.017  1.00  0.00     0.167 HD
ATOM     44  C   UNL A   1      40.278  27.955  29.677  1.00  0.00     0.037 A 
ATOM     45  C   UNL A   1      41.075  32.406  35.484  1.00  0.00     0.037 A 
ATOM     46  C   UNL A   1      41.374  28.221  30.618  1.00  0.00     0.049 A 
ATOM     47  C   UNL A   1      41.694  31.049  35.617  1.00  0.00     0.074 A 
ATOM     48  C   UNL A   1      42.475  29.059  30.558  1.00  0.00     0.029 A 
ATOM     49  N   UNL A   1      41.256  27.822  31.946  1.00  0.00    -0.354 N 
ATOM     50  N   UNL A   1      41.562  30.145  34.686  1.00  0.00    -0.248 NA
ATOM     51  C   UNL A   1      42.546  30.602  36.713  1.00  0.00     0.031 C 
ATOM     52  C   UNL A   1      43.021  29.156  31.865  1.00  0.00     0.029 A 
ATOM     53  C   UNL A   1      42.262  28.367  32.715  1.00  0.00     0.049 A 
ATOM     54  H   UNL A   1      40.549  27.230  32.291  1.00  0.00     0.167 HD
ATOM     55  C   UNL A   1      42.320  29.060  34.990  1.00  0.00     0.074 A 
ATOM     56  C   UNL A   1      42.887  29.369  36.288  1.00  0.00     0.031 C 
ATOM     57  C   UNL A   1      42.411  28.015  34.122  1.00  0.00     0.037 A 
BRANCH  44  58
ATOM     58  C   UNL A   1      40.522  27.313  28.320  1.00  0.00     0.057 A 
ATOM     59  C   UNL A   1      39.953  26.053  28.029  1.00  0.00     0.134 A 
ATOM     60  C   UNL A   1      41.306  27.827  27.270  1.00  0.00     0.134 A 
ATOM     61  F   UNL A   1      39.113  25.444  28.875  1.00  0.00    -0.206 F 
ATOM     62  C   UNL A   1      40.202  25.346  26.843  1.00  0.00     0.040 A 
ATOM     63  C   UNL A   1      41.571  27.126  26.082  1.00  0.00     0.040 A 
ATOM     64  F   UNL A   1      41.837  29.049  27.293  1.00  0.00    -0.206 F 
ATOM     65  C   UNL A   1      41.027  25.875  25.868  1.00  0.00     0.006 A 
ENDBRANCH  44  58
BRANCH  45  66
ATOM     66  C   UNL A   1      40.080  33.066  36.374  1.00  0.00     0.057 A 
ATOM     67  C   UNL A   1      39.081  32.245  36.930  1.00  0.00     0.134 A 
ATOM     68  C   UNL A   1      40.419  34.225  37.087  1.00  0.00     0.134 A 
ATOM     69  F   UNL A   1      38.700  31.126  36.295  1.00  0.00    -0.206 F 
ATOM     70  C   UNL A   1      38.559  32.477  38.207  1.00  0.00     0.040 A 
ATOM     71  C   UNL A   1      39.922  34.450  38.378  1.00  0.00     0.040 A 
ATOM     72  F   UNL A   1      41.363  35.055  36.624  1.00  0.00    -0.206 F 
ATOM     73  C   UNL A   1      39.021  33.556  38.956  1.00  0.00     0.006 A 
ENDBRANCH  45  66
BRANCH  57  74
ATOM     74  C   UNL A   1      42.745  26.601  34.505  1.00  0.00     0.057 A 
ATOM     75  C   UNL A   1      41.877  25.765  35.223  1.00  0.00     0.134 A 
ATOM     76  C   UNL A   1      43.901  25.967  33.996  1.00  0.00     0.134 A 
ATOM     77  F   UNL A   1      40.681  26.186  35.654  1.00  0.00    -0.206 F 
ATOM     78  C   UNL A   1      42.174  24.424  35.484  1.00  0.00     0.040 A 
ATOM     79  C   UNL A   1      44.170  24.612  34.190  1.00  0.00     0.040 A 
ATOM     80  F   UNL A   1      44.806  26.617  33.252  1.00  0.00    -0.206 F 
ATOM     81  C   UNL A   1      43.318  23.841  34.958  1.00  0.00     0.006 A 
ENDBRANCH  57  74
ENDBRANCH  31  32
ENDBRANCH  24  26
ENDBRANCH  23  24
ENDBRANCH  22  23
ENDBRANCH   1  22
TORSDOF 15
ENDMDL
MODEL 2
REMARK VINA RESULT:     -11.5      2.359      4.294
REMARK SMILES Cc1cccc(-c2ccc(Cl)c(C(=O)OCCOCCOC(=O)c3ccc(-c4c5nc(c(-c6c(F)cccc6F)c6ccc([nH]6)c(-c6c(F)cccc6F)c6nc(c(-c7c(F)cccc7F)c7ccc4[nH]7)C=C6)C=C5)cc3)c2)c1
REMARK SMILES IDX 19 1 18 2 17 3 16 4 15 5 13 6 14 7 12 8 7 9 8 10 78 11 9 12
REMARK SMILES IDX 10 13 11 14 6 15 1 16 2 17 3 18 79 19 4 20 5 21 20 22 21 23
REMARK SMILES IDX 22 24 23 25 24 26 25 27 77 28 26 29 76 30 27 31 28 32 29 33
REMARK SMILES IDX 70 34 30 35 75 36 69 37 71 38 31 39 74 40 68 41 67 42 32 44
REMARK SMILES IDX 58 45 41 46 57 47 42 48 45 49 56 50 72 51 43 52 44 53 55 55
REMARK SMILES IDX 73 56 46 57 33 58 34 59 39 60 35 61 36 62 38 63 40 64 37 65
REMARK SMILES IDX 59 66 60 67 65 68 61 69 62 70 64 71 66 72 63 73 47 74 48 75
REMARK SMILES IDX 53 76 49 77 50 78 52 79 54 80 51 81
REMARK H PARENT 71 43 45 54
REMARK Flexibility Score: inf
ROOT
ATOM      1  C   UNL A   1      33.052  29.641  25.798  1.00  0.00     0.202 C 
ENDROOT
BRANCH   1   2
ATOM      2  O   UNL A   1      33.169  28.237  25.873  1.00  0.00    -0.374 OA
BRANCH   2   3
ATOM      3  C   UNL A   1      32.323  27.483  25.025  1.00  0.00     0.202 C 
BRANCH   3   4
ATOM      4  C   UNL A   1      32.745  26.046  25.169  1.00  0.00     0.261 C 
BRANCH   4   5
ATOM      5  O   UNL A   1      33.946  25.792  24.419  1.00  0.00    -0.460 OA
BRANCH   5   6
ATOM      6  C   UNL A   1      33.992  24.873  23.424  1.00  0.00     0.339 C 
ATOM      7  O   UNL A   1      33.724  25.033  22.255  1.00  0.00    -0.246 OA
BRANCH   6   8
ATOM      8  C   UNL A   1      34.613  23.633  23.944  1.00  0.00     0.079 A 
ATOM      9  C   UNL A   1      36.475  22.755  25.256  1.00  0.00    -0.017 A 
ATOM     10  C   UNL A   1      35.829  21.513  25.288  1.00  0.00     0.010 A 
ATOM     11  C   UNL A   1      35.854  23.814  24.589  1.00  0.00     0.026 A 
ATOM     12  C   UNL A   1      34.621  21.316  24.626  1.00  0.00     0.022 A 
ATOM     13  C   UNL A   1      34.017  22.363  23.931  1.00  0.00     0.055 A 
ATOM     14  Cl  UNL A   1      32.561  21.933  23.093  1.00  0.00    -0.083 Cl
BRANCH   9  15
ATOM     15  C   UNL A   1      37.795  22.901  25.866  1.00  0.00    -0.018 A 
ATOM     16  C   UNL A   1      40.803  20.655  26.509  1.00  0.00     0.044 C 
ATOM     17  C   UNL A   1      39.911  21.859  26.497  1.00  0.00    -0.051 A 
ATOM     18  C   UNL A   1      40.285  23.037  27.149  1.00  0.00     0.003 A 
ATOM     19  C   UNL A   1      38.669  21.803  25.860  1.00  0.00     0.012 A 
ATOM     20  C   UNL A   1      39.437  24.147  27.142  1.00  0.00     0.001 A 
ATOM     21  C   UNL A   1      38.199  24.082  26.499  1.00  0.00     0.009 A 
ENDBRANCH   9  15
ENDBRANCH   6   8
ENDBRANCH   5   6
ENDBRANCH   4   5
ENDBRANCH   3   4
ENDBRANCH   2   3
ENDBRANCH   1   2
BRANCH   1  22
ATOM     22  C   UNL A   1      33.149  30.304  27.177  1.00  0.00     0.261 C 
BRANCH  22  23
ATOM     23  O   UNL A   1      34.315  31.160  27.254  1.00  0.00    -0.460 OA
BRANCH  23  24
ATOM     24  C   UNL A   1      34.244  32.203  28.131  1.00  0.00     0.338 C 
ATOM     25  O   UNL A   1      33.444  33.123  28.064  1.00  0.00    -0.246 OA
BRANCH  24  26
ATOM     26  C   UNL A   1      35.446  32.210  29.016  1.00  0.00     0.060 A 
ATOM     27  C   UNL A   1      36.606  32.923  28.647  1.00  0.00     0.016 A 
ATOM     28  C   UNL A   1      35.525  31.218  29.984  1.00  0.00     0.016 A 
ATOM     29  C   UNL A   1      37.868  32.518  29.119  1.00  0.00     0.010 A 
ATOM     30  C   UNL A   1      36.768  30.719  30.292  1.00  0.00     0.010 A 
ATOM     31  C   UNL A   1      37.951  31.353  29.874  1.00  0.00    -0.014 A 
BRANCH  31  32
ATOM     32  C   UNL A   1      39.164  30.652  30.304  1.00  0.00     0.031 A 
ATOM     33  C   UNL A   1      39.523  29.409  29.571  1.00  0.00     0.074 A 
ATOM     34  C   UNL A   1      40.097  31.238  31.098  1.00  0.00     0.049 A 
ATOM     35  N   UNL A   1      40.416  28.571  29.969  1.00  0.00    -0.248 NA
ATOM     36  C   UNL A   1      38.856  28.957  28.349  1.00  0.00     0.031 C 
ATOM     37  C   UNL A   1      41.544  31.009  31.052  1.00  0.00     0.029 A 
ATOM     38  N   UNL A   1      39.969  32.218  32.086  1.00  0.00    -0.354 N 
ATOM     39  C   UNL A   1      40.696  27.730  28.915  1.00  0.00     0.074 A 
ATOM     40  C   UNL A   1      39.596  27.902  28.008  1.00  0.00     0.031 C 
ATOM     41  C   UNL A   1      42.140  31.627  32.085  1.00  0.00     0.029 A 
ATOM     42  C   UNL A   1      41.094  32.169  32.928  1.00  0.00     0.049 A 
ATOM     43  H   UNL A   1      39.213  32.842  32.177  1.00  0.00     0.167 HD
ATOM     44  C   UNL A   1      41.916  27.123  28.877  1.00  0.00     0.037 A 
ATOM     45  C   UNL A   1      40.975  32.034  34.277  1.00  0.00     0.037 A 
ATOM     46  C   UNL A   1      42.703  27.511  30.054  1.00  0.00     0.049 A 
ATOM     47  C   UNL A   1      41.567  30.722  34.690  1.00  0.00     0.074 A 
ATOM     48  C   UNL A   1      43.757  28.393  30.224  1.00  0.00     0.029 A 
ATOM     49  N   UNL A   1      42.235  27.209  31.329  1.00  0.00    -0.354 N 
ATOM     50  N   UNL A   1      41.718  29.745  33.839  1.00  0.00    -0.248 NA
ATOM     51  C   UNL A   1      42.096  30.400  36.010  1.00  0.00     0.031 C 
ATOM     52  C   UNL A   1      43.921  28.615  31.617  1.00  0.00     0.029 A 
ATOM     53  C   UNL A   1      42.977  27.857  32.293  1.00  0.00     0.049 A 
ATOM     54  H   UNL A   1      41.475  26.612  31.518  1.00  0.00     0.167 HD
ATOM     55  C   UNL A   1      42.390  28.723  34.429  1.00  0.00     0.074 A 
ATOM     56  C   UNL A   1      42.571  29.156  35.801  1.00  0.00     0.031 C 
ATOM     57  C   UNL A   1      42.742  27.620  33.713  1.00  0.00     0.037 A 
BRANCH  44  58
ATOM     58  C   UNL A   1      42.539  26.392  27.698  1.00  0.00     0.057 A 
ATOM     59  C   UNL A   1      43.075  25.097  27.880  1.00  0.00     0.134 A 
ATOM     60  C   UNL A   1      42.683  26.875  26.384  1.00  0.00     0.134 A 
ATOM     61  F   UNL A   1      42.960  24.442  29.042  1.00  0.00    -0.206 F 
ATOM     62  C   UNL A   1      43.751  24.390  26.875  1.00  0.00     0.040 A 
ATOM     63  C   UNL A   1      43.365  26.182  25.371  1.00  0.00     0.040 A 
ATOM     64  F   UNL A   1      42.145  28.022  25.971  1.00  0.00    -0.206 F 
ATOM     65  C   UNL A   1      43.912  24.938  25.616  1.00  0.00     0.006 A 
ENDBRANCH  44  58
BRANCH  45  66
ATOM     66  C   UNL A   1      39.758  32.712  34.803  1.00  0.00     0.057 A 
ATOM     67  C   UNL A   1      38.666  31.889  35.138  1.00  0.00     0.134 A 
ATOM     68  C   UNL A   1      39.859  33.938  35.476  1.00  0.00     0.134 A 
ATOM     69  F   UNL A   1      38.502  30.706  34.524  1.00  0.00    -0.206 F 
ATOM     70  C   UNL A   1      37.809  32.194  36.201  1.00  0.00     0.040 A 
ATOM     71  C   UNL A   1      39.022  34.239  36.559  1.00  0.00     0.040 A 
ATOM     72  F   UNL A   1      40.872  34.775  35.214  1.00  0.00    -0.206 F 
ATOM     73  C   UNL A   1      38.020  33.349  36.948  1.00  0.00     0.006 A 
ENDBRANCH  45  66
BRANCH  57  74
ATOM     74  C   UNL A   1      42.993  26.257  34.292  1.00  0.00     0.057 A 
ATOM     75  C   UNL A   1      42.012  25.501  34.951  1.00  0.00     0.134 A 
ATOM     76  C   UNL A   1      44.204  25.575  34.040  1.00  0.00     0.134 A 
ATOM     77  F   UNL A   1      40.770  25.962  35.143  1.00  0.00    -0.206 F 
ATOM     78  C   UNL A   1      42.246  24.197  35.397  1.00  0.00     0.040 A 
ATOM     79  C   UNL A   1      44.422  24.250  34.418  1.00  0.00     0.040 A 
ATOM     80  F   UNL A   1      45.224  26.144  33.380  1.00  0.00    -0.206 F 
ATOM     81  C   UNL A   1      43.450  23.564  35.122  1.00  0.00     0.006 A 
ENDBRANCH  57  74
ENDBRANCH  31  32
ENDBRANCH  24  26
ENDBRANCH  23  24
ENDBRANCH  22  23
ENDBRANCH   1  22
TORSDOF 15
ENDMDL
MODEL 3
REMARK VINA RESULT:     -11.5      5.676     10.619
REMARK SMILES Cc1cccc(-c2ccc(Cl)c(C(=O)OCCOCCOC(=O)c3ccc(-c4c5nc(c(-c6c(F)cccc6F)c6ccc([nH]6)c(-c6c(F)cccc6F)c6nc(c(-c7c(F)cccc7F)c7ccc4[nH]7)C=C6)C=C5)cc3)c2)c1
REMARK SMILES IDX 19 1 18 2 17 3 16 4 15 5 13 6 14 7 12 8 7 9 8 10 78 11 9 12
REMARK SMILES IDX 10 13 11 14 6 15 1 16 2 17 3 18 79 19 4 20 5 21 20 22 21 23
REMARK SMILES IDX 22 24 23 25 24 26 25 27 77 28 26 29 76 30 27 31 28 32 29 33
REMARK SMILES IDX 70 34 30 35 75 36 69 37 71 38 31 39 74 40 68 41 67 42 32 44
REMARK SMILES IDX 58 45 41 46 57 47 42 48 45 49 56 50 72 51 43 52 44 53 55 55
REMARK SMILES IDX 73 56 46 57 33 58 34 59 39 60 35 61 36 62 38 63 40 64 37 65
REMARK SMILES IDX 59 66 60 67 65 68 61 69 62 70 64 71 66 72 63 73 47 74 48 75
REMARK SMILES IDX 53 76 49 77 50 78 52 79 54 80 51 81
REMARK H PARENT 71 43 45 54
REMARK Flexibility Score: inf
ROOT
ATOM      1  C   UNL A   1      43.553  24.636  25.213  1.00  0.00     0.202 C 
ENDROOT
BRANCH   1   2
ATOM      2  O   UNL A   1      43.663  23.395  25.874  1.00  0.00    -0.374 OA
BRANCH   2   3
ATOM      3  C   UNL A   1      43.590  22.237  25.064  1.00  0.00     0.202 C 
BRANCH   3   4
ATOM      4  C   UNL A   1      43.097  21.126  25.953  1.00  0.00     0.261 C 
BRANCH   4   5
ATOM      5  O   UNL A   1      41.692  20.898  25.749  1.00  0.00    -0.460 OA
BRANCH   5   6
ATOM      6  C   UNL A   1      40.821  20.803  26.784  1.00  0.00     0.339 C 
ATOM      7  O   UNL A   1      40.830  20.001  27.689  1.00  0.00    -0.246 OA
BRANCH   6   8
ATOM      8  C   UNL A   1      39.916  21.975  26.757  1.00  0.00     0.079 A 
ATOM      9  C   UNL A   1      39.704  24.324  27.389  1.00  0.00    -0.017 A 
ATOM     10  C   UNL A   1      38.555  24.404  26.593  1.00  0.00     0.010 A 
ATOM     11  C   UNL A   1      40.385  23.106  27.457  1.00  0.00     0.026 A 
ATOM     12  C   UNL A   1      38.066  23.286  25.925  1.00  0.00     0.022 A 
ATOM     13  C   UNL A   1      38.725  22.061  26.020  1.00  0.00     0.055 A 
ATOM     14  Cl  UNL A   1      37.943  20.749  25.199  1.00  0.00    -0.083 Cl
BRANCH   9  15
ATOM     15  C   UNL A   1      40.131  25.486  28.165  1.00  0.00    -0.018 A 
ATOM     16  C   UNL A   1      38.492  27.974  30.538  1.00  0.00     0.044 C 
ATOM     17  C   UNL A   1      39.525  27.288  29.697  1.00  0.00    -0.051 A 
ATOM     18  C   UNL A   1      40.814  27.815  29.571  1.00  0.00     0.003 A 
ATOM     19  C   UNL A   1      39.197  26.127  28.993  1.00  0.00     0.012 A 
ATOM     20  C   UNL A   1      41.763  27.174  28.771  1.00  0.00     0.001 A 
ATOM     21  C   UNL A   1      41.425  26.012  28.074  1.00  0.00     0.009 A 
ENDBRANCH   9  15
ENDBRANCH   6   8
ENDBRANCH   5   6
ENDBRANCH   4   5
ENDBRANCH   3   4
ENDBRANCH   2   3
ENDBRANCH   1   2
BRANCH   1  22
ATOM     22  C   UNL A   1      44.839  25.463  25.316  1.00  0.00     0.261 C 
BRANCH  22  23
ATOM     23  O   UNL A   1      44.966  26.054  26.631  1.00  0.00    -0.460 OA
BRANCH  23  24
ATOM     24  C   UNL A   1      46.131  25.807  27.298  1.00  0.00     0.338 C 
ATOM     25  O   UNL A   1      47.245  25.841  26.800  1.00  0.00    -0.246 OA
BRANCH  24  26
ATOM     26  C   UNL A   1      45.838  25.222  28.641  1.00  0.00     0.060 A 
ATOM     27  C   UNL A   1      44.592  24.617  28.904  1.00  0.00     0.016 A 
ATOM     28  C   UNL A   1      46.647  25.622  29.695  1.00  0.00     0.016 A 
ATOM     29  C   UNL A   1      44.085  24.578  30.216  1.00  0.00     0.010 A 
ATOM     30  C   UNL A   1      46.070  25.745  30.936  1.00  0.00     0.010 A 
ATOM     31  C   UNL A   1      44.795  25.228  31.220  1.00  0.00    -0.014 A 
BRANCH  31  32
ATOM     32  C   UNL A   1      44.366  25.474  32.600  1.00  0.00     0.031 A 
ATOM     33  C   UNL A   1      43.887  26.843  32.926  1.00  0.00     0.074 A 
ATOM     34  C   UNL A   1      44.105  24.464  33.469  1.00  0.00     0.049 A 
ATOM     35  N   UNL A   1      43.695  27.272  34.125  1.00  0.00    -0.248 NA
ATOM     36  C   UNL A   1      43.644  27.886  31.928  1.00  0.00     0.031 C 
ATOM     37  C   UNL A   1      43.091  24.468  34.527  1.00  0.00     0.029 A 
ATOM     38  N   UNL A   1      44.646  23.178  33.563  1.00  0.00    -0.354 N 
ATOM     39  C   UNL A   1      42.973  28.441  34.038  1.00  0.00     0.074 A 
ATOM     40  C   UNL A   1      43.114  28.858  32.671  1.00  0.00     0.031 C 
ATOM     41  C   UNL A   1      43.224  23.374  35.295  1.00  0.00     0.029 A 
ATOM     42  C   UNL A   1      44.416  22.678  34.856  1.00  0.00     0.049 A 
ATOM     43  H   UNL A   1      45.112  22.700  32.839  1.00  0.00     0.167 HD
ATOM     44  C   UNL A   1      42.207  28.811  35.103  1.00  0.00     0.037 A 
ATOM     45  C   UNL A   1      45.430  22.216  35.638  1.00  0.00     0.037 A 
ATOM     46  C   UNL A   1      42.348  27.827  36.185  1.00  0.00     0.049 A 
ATOM     47  C   UNL A   1      45.564  23.102  36.837  1.00  0.00     0.074 A 
ATOM     48  C   UNL A   1      41.520  26.813  36.639  1.00  0.00     0.029 A 
ATOM     49  N   UNL A   1      43.598  27.597  36.752  1.00  0.00    -0.354 N 
ATOM     50  N   UNL A   1      45.098  24.320  36.840  1.00  0.00    -0.248 NA
ATOM     51  C   UNL A   1      46.138  22.720  38.123  1.00  0.00     0.031 C 
ATOM     52  C   UNL A   1      42.286  25.974  37.491  1.00  0.00     0.029 A 
ATOM     53  C   UNL A   1      43.573  26.485  37.565  1.00  0.00     0.049 A 
ATOM     54  H   UNL A   1      44.394  28.155  36.594  1.00  0.00     0.167 HD
ATOM     55  C   UNL A   1      45.232  24.859  38.079  1.00  0.00     0.074 A 
ATOM     56  C   UNL A   1      45.926  23.840  38.842  1.00  0.00     0.031 C 
ATOM     57  C   UNL A   1      44.739  26.099  38.352  1.00  0.00     0.037 A 
BRANCH  44  58
ATOM     58  C   UNL A   1      41.133  29.887  35.130  1.00  0.00     0.057 A 
ATOM     59  C   UNL A   1      40.049  29.817  34.227  1.00  0.00     0.134 A 
ATOM     60  C   UNL A   1      41.091  31.019  35.965  1.00  0.00     0.134 A 
ATOM     61  F   UNL A   1      39.876  28.770  33.409  1.00  0.00    -0.206 F 
ATOM     62  C   UNL A   1      39.066  30.812  34.118  1.00  0.00     0.040 A 
ATOM     63  C   UNL A   1      40.119  32.027  35.860  1.00  0.00     0.040 A 
ATOM     64  F   UNL A   1      41.952  31.216  36.963  1.00  0.00    -0.206 F 
ATOM     65  C   UNL A   1      39.106  31.932  34.926  1.00  0.00     0.006 A 
ENDBRANCH  44  58
BRANCH  45  66
ATOM     66  C   UNL A   1      46.504  21.567  34.836  1.00  0.00     0.057 A 
ATOM     67  C   UNL A   1      47.699  22.291  34.668  1.00  0.00     0.134 A 
ATOM     68  C   UNL A   1      46.593  20.170  34.762  1.00  0.00     0.134 A 
ATOM     69  F   UNL A   1      47.684  23.633  34.716  1.00  0.00    -0.206 F 
ATOM     70  C   UNL A   1      48.944  21.657  34.593  1.00  0.00     0.040 A 
ATOM     71  C   UNL A   1      47.838  19.526  34.714  1.00  0.00     0.040 A 
ATOM     72  F   UNL A   1      45.500  19.410  34.914  1.00  0.00    -0.206 F 
ATOM     73  C   UNL A   1      49.017  20.269  34.669  1.00  0.00     0.006 A 
ENDBRANCH  45  66
BRANCH  57  74
ATOM     74  C   UNL A   1      45.239  27.007  39.439  1.00  0.00     0.057 A 
ATOM     75  C   UNL A   1      44.880  26.875  40.788  1.00  0.00     0.134 A 
ATOM     76  C   UNL A   1      46.260  27.950  39.181  1.00  0.00     0.134 A 
ATOM     77  F   UNL A   1      44.025  25.933  41.205  1.00  0.00    -0.206 F 
ATOM     78  C   UNL A   1      45.434  27.674  41.792  1.00  0.00     0.040 A 
ATOM     79  C   UNL A   1      46.869  28.702  40.186  1.00  0.00     0.040 A 
ATOM     80  F   UNL A   1      46.747  28.163  37.950  1.00  0.00    -0.206 F 
ATOM     81  C   UNL A   1      46.439  28.583  41.495  1.00  0.00     0.006 A 
ENDBRANCH  57  74
ENDBRANCH  31  32
ENDBRANCH  24  26
ENDBRANCH  23  24
ENDBRANCH  22  23
ENDBRANCH   1  22
TORSDOF 15
ENDMDL
