MODEL 1
REMARK VINA RESULT:     -11.1      0.000      0.000
REMARK SMILES CC[C@](C)([NH2+]CC(=O)Nc1c(Cl)ccc(C)c1Cl)C(=O)OCCOCCOC(=O)c1ccc(-c2c3nc(c(-c4c(F)cccc4F)c4ccc([nH]4)c(-c4c(F)cccc4F)c4nc(c(-c5c(F)cccc5F)c5ccc2[nH]5)C=C4)C=C3)cc1
REMARK SMILES IDX 23 1 22 2 21 3 19 4 20 5 3 6 4 7 2 8 1 9 5 10 6 13 7 14 8 15
REMARK SMILES IDX 9 16 10 18 11 19 17 20 12 21 13 22 15 23 18 24 14 25 16 26
REMARK SMILES IDX 24 27 25 28 26 29 27 30 28 31 29 32 30 33 31 34 83 35 32 36
REMARK SMILES IDX 82 37 33 38 34 39 35 40 76 41 36 42 81 43 75 44 77 45 37 46
REMARK SMILES IDX 80 47 74 48 73 49 38 51 64 52 47 53 63 54 48 55 51 56 62 57
REMARK SMILES IDX 78 58 49 59 50 60 61 62 79 63 52 64 39 65 40 66 45 67 41 68
REMARK SMILES IDX 42 69 44 70 46 71 43 72 65 73 66 74 71 75 67 76 68 77 70 78
REMARK SMILES IDX 72 79 69 80 53 81 54 82 59 83 55 84 56 85 58 86 60 87 57 88
REMARK H PARENT 5 11 5 12 9 17 77 50 51 61
REMARK Flexibility Score: inf
ROOT
ATOM      1  C   UNL A   1      38.907  21.058  25.818  1.00  0.00     0.202 C 
ENDROOT
BRANCH   1   2
ATOM      2  C   UNL A   1      37.741  20.498  25.002  1.00  0.00     0.261 C 
BRANCH   2   3
ATOM      3  O   UNL A   1      36.428  20.986  25.352  1.00  0.00    -0.459 OA
BRANCH   3   4
ATOM      4  C   UNL A   1      35.778  21.936  24.588  1.00  0.00     0.367 C 
ATOM      5  O   UNL A   1      36.380  22.611  23.759  1.00  0.00    -0.245 OA
BRANCH   4   6
ATOM      6  C   UNL A   1      34.167  21.900  24.771  1.00  0.00     0.191 C 
ATOM      7  C   UNL A   1      34.049  20.414  25.255  1.00  0.00     0.092 C 
BRANCH   6   8
ATOM      8  C   UNL A   1      32.928  21.962  23.752  1.00  0.00     0.077 C 
ATOM      9  C   UNL A   1      32.771  22.535  22.333  1.00  0.00     0.011 C 
ENDBRANCH   6   8
BRANCH   6  10
ATOM     10  N   UNL A   1      33.839  22.813  25.871  1.00  0.00    -0.325 N 
ATOM     11  H   UNL A   1      34.715  23.135  26.281  1.00  0.00     0.347 HD
ATOM     12  H   UNL A   1      33.252  22.274  26.509  1.00  0.00     0.347 HD
BRANCH  10  13
ATOM     13  C   UNL A   1      33.042  24.005  25.508  1.00  0.00     0.363 C 
BRANCH  13  14
ATOM     14  C   UNL A   1      31.905  24.538  26.412  1.00  0.00     0.279 C 
ATOM     15  O   UNL A   1      31.630  23.807  27.389  1.00  0.00    -0.268 OA
ATOM     16  N   UNL A   1      31.151  25.689  26.423  1.00  0.00    -0.319 N 
ATOM     17  H   UNL A   1      30.380  25.559  27.021  1.00  0.00     0.170 HD
BRANCH  16  18
ATOM     18  C   UNL A   1      31.095  27.011  25.868  1.00  0.00     0.079 A 
ATOM     19  C   UNL A   1      31.883  28.141  26.244  1.00  0.00     0.066 A 
ATOM     20  C   UNL A   1      30.466  27.143  24.607  1.00  0.00     0.069 A 
ATOM     21  Cl  UNL A   1      33.189  28.224  27.375  1.00  0.00    -0.082 Cl
ATOM     22  C   UNL A   1      31.726  29.392  25.624  1.00  0.00     0.023 A 
ATOM     23  C   UNL A   1      30.406  28.380  23.915  1.00  0.00    -0.030 A 
ATOM     24  Cl  UNL A   1      29.791  25.729  23.847  1.00  0.00    -0.082 Cl
ATOM     25  C   UNL A   1      30.975  29.519  24.479  1.00  0.00     0.006 A 
ATOM     26  C   UNL A   1      29.835  28.515  22.533  1.00  0.00     0.046 C 
ENDBRANCH  16  18
ENDBRANCH  13  14
ENDBRANCH  10  13
ENDBRANCH   6  10
ENDBRANCH   4   6
ENDBRANCH   3   4
ENDBRANCH   2   3
ENDBRANCH   1   2
BRANCH   1  27
ATOM     27  O   UNL A   1      40.048  20.237  26.014  1.00  0.00    -0.374 OA
BRANCH  27  28
ATOM     28  C   UNL A   1      41.131  20.780  26.755  1.00  0.00     0.202 C 
BRANCH  28  29
ATOM     29  C   UNL A   1      42.389  21.219  25.993  1.00  0.00     0.261 C 
BRANCH  29  30
ATOM     30  O   UNL A   1      42.237  22.423  25.231  1.00  0.00    -0.460 OA
BRANCH  30  31
ATOM     31  C   UNL A   1      43.202  23.350  25.458  1.00  0.00     0.338 C 
ATOM     32  O   UNL A   1      44.348  23.348  25.058  1.00  0.00    -0.246 OA
BRANCH  31  33
ATOM     33  C   UNL A   1      42.622  24.491  26.189  1.00  0.00     0.060 A 
ATOM     34  C   UNL A   1      43.288  25.724  26.129  1.00  0.00     0.016 A 
ATOM     35  C   UNL A   1      41.510  24.314  27.010  1.00  0.00     0.016 A 
ATOM     36  C   UNL A   1      42.871  26.778  26.938  1.00  0.00     0.010 A 
ATOM     37  C   UNL A   1      41.101  25.366  27.829  1.00  0.00     0.010 A 
ATOM     38  C   UNL A   1      41.807  26.583  27.825  1.00  0.00    -0.014 A 
BRANCH  38  39
ATOM     39  C   UNL A   1      41.532  27.570  28.893  1.00  0.00     0.031 A 
ATOM     40  C   UNL A   1      42.315  27.474  30.170  1.00  0.00     0.074 A 
ATOM     41  C   UNL A   1      40.571  28.494  28.746  1.00  0.00     0.049 A 
ATOM     42  N   UNL A   1      42.133  28.092  31.307  1.00  0.00    -0.248 NA
ATOM     43  C   UNL A   1      43.447  26.533  30.166  1.00  0.00     0.031 C 
ATOM     44  C   UNL A   1      39.780  28.703  27.537  1.00  0.00     0.029 A 
ATOM     45  N   UNL A   1      40.072  29.401  29.644  1.00  0.00    -0.354 N 
ATOM     46  C   UNL A   1      43.108  27.594  32.162  1.00  0.00     0.074 A 
ATOM     47  C   UNL A   1      43.863  26.608  31.420  1.00  0.00     0.031 C 
ATOM     48  C   UNL A   1      38.861  29.651  27.780  1.00  0.00     0.029 A 
ATOM     49  C   UNL A   1      38.973  30.076  29.175  1.00  0.00     0.049 A 
ATOM     50  H   UNL A   1      40.463  29.554  30.535  1.00  0.00     0.167 HD
ATOM     51  C   UNL A   1      43.342  27.926  33.454  1.00  0.00     0.037 A 
ATOM     52  C   UNL A   1      38.125  30.903  29.816  1.00  0.00     0.037 A 
ATOM     53  C   UNL A   1      42.573  28.904  34.178  1.00  0.00     0.049 A 
ATOM     54  C   UNL A   1      38.360  31.217  31.269  1.00  0.00     0.074 A 
ATOM     55  C   UNL A   1      42.745  29.346  35.478  1.00  0.00     0.029 A 
ATOM     56  N   UNL A   1      41.473  29.578  33.667  1.00  0.00    -0.354 N 
ATOM     57  N   UNL A   1      39.295  30.766  32.071  1.00  0.00    -0.248 NA
ATOM     58  C   UNL A   1      37.426  32.155  31.905  1.00  0.00     0.031 C 
ATOM     59  C   UNL A   1      41.708  30.238  35.773  1.00  0.00     0.029 A 
ATOM     60  C   UNL A   1      40.934  30.407  34.635  1.00  0.00     0.049 A 
ATOM     61  H   UNL A   1      41.128  29.481  32.750  1.00  0.00     0.167 HD
ATOM     62  C   UNL A   1      39.084  31.386  33.296  1.00  0.00     0.074 A 
ATOM     63  C   UNL A   1      37.928  32.246  33.129  1.00  0.00     0.031 C 
ATOM     64  C   UNL A   1      39.786  31.263  34.449  1.00  0.00     0.037 A 
BRANCH  51  65
ATOM     65  C   UNL A   1      44.434  27.182  34.169  1.00  0.00     0.057 A 
ATOM     66  C   UNL A   1      45.750  27.659  34.237  1.00  0.00     0.134 A 
ATOM     67  C   UNL A   1      44.165  25.954  34.788  1.00  0.00     0.134 A 
ATOM     68  F   UNL A   1      46.083  28.822  33.654  1.00  0.00    -0.206 F 
ATOM     69  C   UNL A   1      46.765  26.924  34.854  1.00  0.00     0.040 A 
ATOM     70  C   UNL A   1      45.163  25.227  35.438  1.00  0.00     0.040 A 
ATOM     71  F   UNL A   1      42.927  25.437  34.769  1.00  0.00    -0.206 F 
ATOM     72  C   UNL A   1      46.471  25.705  35.460  1.00  0.00     0.006 A 
ENDBRANCH  51  65
BRANCH  52  73
ATOM     73  C   UNL A   1      36.963  31.460  29.081  1.00  0.00     0.057 A 
ATOM     74  C   UNL A   1      35.805  30.706  28.874  1.00  0.00     0.134 A 
ATOM     75  C   UNL A   1      36.970  32.779  28.608  1.00  0.00     0.134 A 
ATOM     76  F   UNL A   1      35.746  29.432  29.286  1.00  0.00    -0.206 F 
ATOM     77  C   UNL A   1      34.692  31.242  28.222  1.00  0.00     0.040 A 
ATOM     78  C   UNL A   1      35.857  33.337  27.979  1.00  0.00     0.040 A 
ATOM     79  F   UNL A   1      38.051  33.555  28.780  1.00  0.00    -0.206 F 
ATOM     80  C   UNL A   1      34.713  32.565  27.783  1.00  0.00     0.006 A 
ENDBRANCH  52  73
BRANCH  64  81
ATOM     81  C   UNL A   1      39.366  32.112  35.615  1.00  0.00     0.057 A 
ATOM     82  C   UNL A   1      39.822  33.426  35.783  1.00  0.00     0.134 A 
ATOM     83  C   UNL A   1      38.431  31.628  36.540  1.00  0.00     0.134 A 
ATOM     84  F   UNL A   1      40.725  33.946  34.940  1.00  0.00    -0.206 F 
ATOM     85  C   UNL A   1      39.370  34.223  36.837  1.00  0.00     0.040 A 
ATOM     86  C   UNL A   1      37.951  32.425  37.579  1.00  0.00     0.040 A 
ATOM     87  F   UNL A   1      37.947  30.381  36.430  1.00  0.00    -0.206 F 
ATOM     88  C   UNL A   1      38.423  33.725  37.732  1.00  0.00     0.006 A 
ENDBRANCH  64  81
ENDBRANCH  38  39
ENDBRANCH  31  33
ENDBRANCH  30  31
ENDBRANCH  29  30
ENDBRANCH  28  29
ENDBRANCH  27  28
ENDBRANCH   1  27
TORSDOF 19
ENDMDL
MODEL 2
REMARK VINA RESULT:     -10.9      1.658      2.579
REMARK SMILES CC[C@](C)([NH2+]CC(=O)Nc1c(Cl)ccc(C)c1Cl)C(=O)OCCOCCOC(=O)c1ccc(-c2c3nc(c(-c4c(F)cccc4F)c4ccc([nH]4)c(-c4c(F)cccc4F)c4nc(c(-c5c(F)cccc5F)c5ccc2[nH]5)C=C4)C=C3)cc1
REMARK SMILES IDX 23 1 22 2 21 3 19 4 20 5 3 6 4 7 2 8 1 9 5 10 6 13 7 14 8 15
REMARK SMILES IDX 9 16 10 18 11 19 17 20 12 21 13 22 15 23 18 24 14 25 16 26
REMARK SMILES IDX 24 27 25 28 26 29 27 30 28 31 29 32 30 33 31 34 83 35 32 36
REMARK SMILES IDX 82 37 33 38 34 39 35 40 76 41 36 42 81 43 75 44 77 45 37 46
REMARK SMILES IDX 80 47 74 48 73 49 38 51 64 52 47 53 63 54 48 55 51 56 62 57
REMARK SMILES IDX 78 58 49 59 50 60 61 62 79 63 52 64 39 65 40 66 45 67 41 68
REMARK SMILES IDX 42 69 44 70 46 71 43 72 65 73 66 74 71 75 67 76 68 77 70 78
REMARK SMILES IDX 72 79 69 80 53 81 54 82 59 83 55 84 56 85 58 86 60 87 57 88
REMARK H PARENT 5 11 5 12 9 17 77 50 51 61
REMARK Flexibility Score: inf
ROOT
ATOM      1  C   UNL A   1      40.090  20.930  26.817  1.00  0.00     0.202 C 
ENDROOT
BRANCH   1   2
ATOM      2  C   UNL A   1      39.307  22.201  26.488  1.00  0.00     0.261 C 
BRANCH   2   3
ATOM      3  O   UNL A   1      38.457  22.141  25.321  1.00  0.00    -0.459 OA
BRANCH   3   4
ATOM      4  C   UNL A   1      37.500  21.157  25.168  1.00  0.00     0.367 C 
ATOM      5  O   UNL A   1      37.811  19.976  25.051  1.00  0.00    -0.245 OA
BRANCH   4   6
ATOM      6  C   UNL A   1      35.989  21.710  25.362  1.00  0.00     0.191 C 
ATOM      7  C   UNL A   1      35.721  22.103  23.869  1.00  0.00     0.092 C 
BRANCH   6   8
ATOM      8  C   UNL A   1      35.356  22.985  26.105  1.00  0.00     0.077 C 
ATOM      9  C   UNL A   1      34.399  23.129  27.301  1.00  0.00     0.011 C 
ENDBRANCH   6   8
BRANCH   6  10
ATOM     10  N   UNL A   1      35.156  20.563  25.736  1.00  0.00    -0.325 N 
ATOM     11  H   UNL A   1      34.509  20.869  26.463  1.00  0.00     0.347 HD
ATOM     12  H   UNL A   1      35.807  19.836  26.036  1.00  0.00     0.347 HD
BRANCH  10  13
ATOM     13  C   UNL A   1      34.359  19.958  24.647  1.00  0.00     0.363 C 
BRANCH  13  14
ATOM     14  C   UNL A   1      32.836  20.202  24.510  1.00  0.00     0.279 C 
ATOM     15  O   UNL A   1      32.128  19.192  24.711  1.00  0.00    -0.268 OA
ATOM     16  N   UNL A   1      32.063  21.315  24.273  1.00  0.00    -0.319 N 
ATOM     17  H   UNL A   1      31.152  21.025  24.037  1.00  0.00     0.170 HD
BRANCH  16  18
ATOM     18  C   UNL A   1      32.119  22.749  24.248  1.00  0.00     0.079 A 
ATOM     19  C   UNL A   1      32.604  23.577  23.192  1.00  0.00     0.066 A 
ATOM     20  C   UNL A   1      31.310  23.431  25.188  1.00  0.00     0.069 A 
ATOM     21  Cl  UNL A   1      33.151  23.116  21.617  1.00  0.00    -0.082 Cl
ATOM     22  C   UNL A   1      32.612  24.978  23.294  1.00  0.00     0.023 A 
ATOM     23  C   UNL A   1      31.217  24.846  25.223  1.00  0.00    -0.030 A 
ATOM     24  Cl  UNL A   1      30.347  22.504  26.306  1.00  0.00    -0.082 Cl
ATOM     25  C   UNL A   1      31.943  25.612  24.314  1.00  0.00     0.006 A 
ATOM     26  C   UNL A   1      30.286  25.580  26.144  1.00  0.00     0.046 C 
ENDBRANCH  16  18
ENDBRANCH  13  14
ENDBRANCH  10  13
ENDBRANCH   6  10
ENDBRANCH   4   6
ENDBRANCH   3   4
ENDBRANCH   2   3
ENDBRANCH   1   2
BRANCH   1  27
ATOM     27  O   UNL A   1      41.058  20.474  25.884  1.00  0.00    -0.374 OA
BRANCH  27  28
ATOM     28  C   UNL A   1      42.422  20.520  26.276  1.00  0.00     0.202 C 
BRANCH  28  29
ATOM     29  C   UNL A   1      43.349  21.521  25.574  1.00  0.00     0.261 C 
BRANCH  29  30
ATOM     30  O   UNL A   1      42.688  22.675  25.040  1.00  0.00    -0.460 OA
BRANCH  30  31
ATOM     31  C   UNL A   1      43.443  23.803  25.049  1.00  0.00     0.338 C 
ATOM     32  O   UNL A   1      44.464  24.023  24.431  1.00  0.00    -0.246 OA
BRANCH  31  33
ATOM     33  C   UNL A   1      42.766  24.837  25.851  1.00  0.00     0.060 A 
ATOM     34  C   UNL A   1      43.172  26.170  25.693  1.00  0.00     0.016 A 
ATOM     35  C   UNL A   1      41.834  24.480  26.824  1.00  0.00     0.016 A 
ATOM     36  C   UNL A   1      42.680  27.152  26.549  1.00  0.00     0.010 A 
ATOM     37  C   UNL A   1      41.352  25.462  27.689  1.00  0.00     0.010 A 
ATOM     38  C   UNL A   1      41.808  26.789  27.580  1.00  0.00    -0.014 A 
BRANCH  38  39
ATOM     39  C   UNL A   1      41.504  27.739  28.673  1.00  0.00     0.031 A 
ATOM     40  C   UNL A   1      42.293  27.637  29.945  1.00  0.00     0.074 A 
ATOM     41  C   UNL A   1      40.511  28.633  28.552  1.00  0.00     0.049 A 
ATOM     42  N   UNL A   1      42.096  28.221  31.098  1.00  0.00    -0.248 NA
ATOM     43  C   UNL A   1      43.457  26.736  29.915  1.00  0.00     0.031 C 
ATOM     44  C   UNL A   1      39.710  28.846  27.350  1.00  0.00     0.029 A 
ATOM     45  N   UNL A   1      39.986  29.501  29.474  1.00  0.00    -0.354 N 
ATOM     46  C   UNL A   1      43.089  27.735  31.938  1.00  0.00     0.074 A 
ATOM     47  C   UNL A   1      43.875  26.794  31.169  1.00  0.00     0.031 C 
ATOM     48  C   UNL A   1      38.761  29.756  27.620  1.00  0.00     0.029 A 
ATOM     49  C   UNL A   1      38.863  30.150  29.025  1.00  0.00     0.049 A 
ATOM     50  H   UNL A   1      40.374  29.645  30.367  1.00  0.00     0.167 HD
ATOM     51  C   UNL A   1      43.318  28.042  33.237  1.00  0.00     0.037 A 
ATOM     52  C   UNL A   1      37.990  30.931  29.689  1.00  0.00     0.037 A 
ATOM     53  C   UNL A   1      42.519  28.976  33.987  1.00  0.00     0.049 A 
ATOM     54  C   UNL A   1      38.220  31.217  31.148  1.00  0.00     0.074 A 
ATOM     55  C   UNL A   1      42.680  29.391  35.297  1.00  0.00     0.029 A 
ATOM     56  N   UNL A   1      41.395  29.625  33.496  1.00  0.00    -0.354 N 
ATOM     57  N   UNL A   1      39.172  30.778  31.936  1.00  0.00    -0.248 NA
ATOM     58  C   UNL A   1      37.257  32.107  31.810  1.00  0.00     0.031 C 
ATOM     59  C   UNL A   1      41.615  30.240  35.617  1.00  0.00     0.029 A 
ATOM     60  C   UNL A   1      40.832  30.411  34.486  1.00  0.00     0.049 A 
ATOM     61  H   UNL A   1      41.050  29.539  32.578  1.00  0.00     0.167 HD
ATOM     62  C   UNL A   1      38.945  31.360  33.177  1.00  0.00     0.074 A 
ATOM     63  C   UNL A   1      37.761  32.185  33.035  1.00  0.00     0.031 C 
ATOM     64  C   UNL A   1      39.655  31.232  34.325  1.00  0.00     0.037 A 
BRANCH  51  65
ATOM     65  C   UNL A   1      44.436  27.318  33.930  1.00  0.00     0.057 A 
ATOM     66  C   UNL A   1      44.244  26.097  34.593  1.00  0.00     0.134 A 
ATOM     67  C   UNL A   1      45.727  27.861  33.949  1.00  0.00     0.134 A 
ATOM     68  F   UNL A   1      43.030  25.526  34.628  1.00  0.00    -0.206 F 
ATOM     69  C   UNL A   1      45.282  25.469  35.284  1.00  0.00     0.040 A 
ATOM     70  C   UNL A   1      46.781  27.224  34.606  1.00  0.00     0.040 A 
ATOM     71  F   UNL A   1      45.987  29.023  33.331  1.00  0.00    -0.206 F 
ATOM     72  C   UNL A   1      46.556  26.031  35.289  1.00  0.00     0.006 A 
ENDBRANCH  51  65
BRANCH  52  73
ATOM     73  C   UNL A   1      36.808  31.468  28.971  1.00  0.00     0.057 A 
ATOM     74  C   UNL A   1      35.700  30.662  28.693  1.00  0.00     0.134 A 
ATOM     75  C   UNL A   1      36.742  32.813  28.587  1.00  0.00     0.134 A 
ATOM     76  F   UNL A   1      35.712  29.362  29.019  1.00  0.00    -0.206 F 
ATOM     77  C   UNL A   1      34.567  31.174  28.058  1.00  0.00     0.040 A 
ATOM     78  C   UNL A   1      35.606  33.346  27.976  1.00  0.00     0.040 A 
ATOM     79  F   UNL A   1      37.771  33.639  28.830  1.00  0.00    -0.206 F 
ATOM     80  C   UNL A   1      34.514  32.523  27.708  1.00  0.00     0.006 A 
ENDBRANCH  52  73
BRANCH  64  81
ATOM     81  C   UNL A   1      39.211  32.038  35.513  1.00  0.00     0.057 A 
ATOM     82  C   UNL A   1      38.391  31.502  36.513  1.00  0.00     0.134 A 
ATOM     83  C   UNL A   1      39.678  33.347  35.691  1.00  0.00     0.134 A 
ATOM     84  F   UNL A   1      37.901  30.259  36.399  1.00  0.00    -0.206 F 
ATOM     85  C   UNL A   1      38.042  32.245  37.642  1.00  0.00     0.040 A 
ATOM     86  C   UNL A   1      39.360  34.088  36.829  1.00  0.00     0.040 A 
ATOM     87  F   UNL A   1      40.476  33.916  34.774  1.00  0.00    -0.206 F 
ATOM     88  C   UNL A   1      38.537  33.538  37.807  1.00  0.00     0.006 A 
ENDBRANCH  64  81
ENDBRANCH  38  39
ENDBRANCH  31  33
ENDBRANCH  30  31
ENDBRANCH  29  30
ENDBRANCH  28  29
ENDBRANCH  27  28
ENDBRANCH   1  27
TORSDOF 19
ENDMDL
MODEL 3
REMARK VINA RESULT:     -10.9      4.426      9.661
REMARK SMILES CC[C@](C)([NH2+]CC(=O)Nc1c(Cl)ccc(C)c1Cl)C(=O)OCCOCCOC(=O)c1ccc(-c2c3nc(c(-c4c(F)cccc4F)c4ccc([nH]4)c(-c4c(F)cccc4F)c4nc(c(-c5c(F)cccc5F)c5ccc2[nH]5)C=C4)C=C3)cc1
REMARK SMILES IDX 23 1 22 2 21 3 19 4 20 5 3 6 4 7 2 8 1 9 5 10 6 13 7 14 8 15
REMARK SMILES IDX 9 16 10 18 11 19 17 20 12 21 13 22 15 23 18 24 14 25 16 26
REMARK SMILES IDX 24 27 25 28 26 29 27 30 28 31 29 32 30 33 31 34 83 35 32 36
REMARK SMILES IDX 82 37 33 38 34 39 35 40 76 41 36 42 81 43 75 44 77 45 37 46
REMARK SMILES IDX 80 47 74 48 73 49 38 51 64 52 47 53 63 54 48 55 51 56 62 57
REMARK SMILES IDX 78 58 49 59 50 60 61 62 79 63 52 64 39 65 40 66 45 67 41 68
REMARK SMILES IDX 42 69 44 70 46 71 43 72 65 73 66 74 71 75 67 76 68 77 70 78
REMARK SMILES IDX 72 79 69 80 53 81 54 82 59 83 55 84 56 85 58 86 60 87 57 88
REMARK H PARENT 5 11 5 12 9 17 77 50 51 61
REMARK Flexibility Score: inf
ROOT
ATOM      1  C   UNL A   1      33.290  31.609  27.631  1.00  0.00     0.202 C 
ENDROOT
BRANCH   1   2
ATOM      2  C   UNL A   1      32.189  30.957  26.793  1.00  0.00     0.261 C 
BRANCH   2   3
ATOM      3  O   UNL A   1      32.104  29.517  26.864  1.00  0.00    -0.459 OA
BRANCH   3   4
ATOM      4  C   UNL A   1      32.955  28.702  26.144  1.00  0.00     0.367 C 
ATOM      5  O   UNL A   1      34.014  28.304  26.620  1.00  0.00    -0.245 OA
BRANCH   4   6
ATOM      6  C   UNL A   1      32.313  28.198  24.743  1.00  0.00     0.191 C 
ATOM      7  C   UNL A   1      33.292  28.958  23.784  1.00  0.00     0.092 C 
BRANCH   6   8
ATOM      8  C   UNL A   1      30.919  28.471  23.995  1.00  0.00     0.077 C 
ATOM      9  C   UNL A   1      29.798  27.540  23.504  1.00  0.00     0.011 C 
ENDBRANCH   6   8
BRANCH   6  10
ATOM     10  N   UNL A   1      32.548  26.753  24.657  1.00  0.00    -0.325 N 
ATOM     11  H   UNL A   1      31.749  26.334  24.183  1.00  0.00     0.347 HD
ATOM     12  H   UNL A   1      32.676  26.437  25.619  1.00  0.00     0.347 HD
BRANCH  10  13
ATOM     13  C   UNL A   1      33.771  26.337  23.937  1.00  0.00     0.363 C 
BRANCH  13  14
ATOM     14  C   UNL A   1      33.735  25.298  22.790  1.00  0.00     0.279 C 
ATOM     15  O   UNL A   1      33.643  25.791  21.645  1.00  0.00    -0.268 OA
ATOM     16  N   UNL A   1      33.846  23.928  22.737  1.00  0.00    -0.319 N 
ATOM     17  H   UNL A   1      33.549  23.619  21.850  1.00  0.00     0.170 HD
BRANCH  16  18
ATOM     18  C   UNL A   1      34.241  22.792  23.520  1.00  0.00     0.079 A 
ATOM     19  C   UNL A   1      35.281  22.734  24.496  1.00  0.00     0.066 A 
ATOM     20  C   UNL A   1      33.312  21.728  23.607  1.00  0.00     0.069 A 
ATOM     21  Cl  UNL A   1      36.279  24.015  25.094  1.00  0.00    -0.082 Cl
ATOM     22  C   UNL A   1      35.576  21.551  25.194  1.00  0.00     0.023 A 
ATOM     23  C   UNL A   1      33.546  20.580  24.406  1.00  0.00    -0.030 A 
ATOM     24  Cl  UNL A   1      31.799  21.854  22.752  1.00  0.00    -0.082 Cl
ATOM     25  C   UNL A   1      34.728  20.471  25.135  1.00  0.00     0.006 A 
ATOM     26  C   UNL A   1      32.528  19.492  24.591  1.00  0.00     0.046 C 
ENDBRANCH  16  18
ENDBRANCH  13  14
ENDBRANCH  10  13
ENDBRANCH   6  10
ENDBRANCH   4   6
ENDBRANCH   3   4
ENDBRANCH   2   3
ENDBRANCH   1   2
BRANCH   1  27
ATOM     27  O   UNL A   1      33.251  33.016  27.815  1.00  0.00    -0.374 OA
BRANCH  27  28
ATOM     28  C   UNL A   1      34.341  33.620  28.497  1.00  0.00     0.202 C 
BRANCH  28  29
ATOM     29  C   UNL A   1      34.307  33.666  30.030  1.00  0.00     0.261 C 
BRANCH  29  30
ATOM     30  O   UNL A   1      34.415  32.387  30.669  1.00  0.00    -0.460 OA
BRANCH  30  31
ATOM     31  C   UNL A   1      35.404  32.311  31.596  1.00  0.00     0.338 C 
ATOM     32  O   UNL A   1      35.432  32.812  32.701  1.00  0.00    -0.246 OA
BRANCH  31  33
ATOM     33  C   UNL A   1      36.449  31.387  31.120  1.00  0.00     0.060 A 
ATOM     34  C   UNL A   1      37.305  30.809  32.069  1.00  0.00     0.016 A 
ATOM     35  C   UNL A   1      36.651  31.190  29.755  1.00  0.00     0.016 A 
ATOM     36  C   UNL A   1      38.407  30.069  31.649  1.00  0.00     0.010 A 
ATOM     37  C   UNL A   1      37.763  30.460  29.336  1.00  0.00     0.010 A 
ATOM     38  C   UNL A   1      38.665  29.935  30.281  1.00  0.00    -0.014 A 
BRANCH  38  39
ATOM     39  C   UNL A   1      39.968  29.417  29.811  1.00  0.00     0.031 A 
ATOM     40  C   UNL A   1      41.110  30.380  29.672  1.00  0.00     0.074 A 
ATOM     41  C   UNL A   1      40.112  28.128  29.466  1.00  0.00     0.049 A 
ATOM     42  N   UNL A   1      42.279  30.211  29.112  1.00  0.00    -0.248 NA
ATOM     43  C   UNL A   1      40.892  31.727  30.225  1.00  0.00     0.031 C 
ATOM     44  C   UNL A   1      39.085  27.100  29.600  1.00  0.00     0.029 A 
ATOM     45  N   UNL A   1      41.175  27.480  28.893  1.00  0.00    -0.354 N 
ATOM     46  C   UNL A   1      42.923  31.437  29.218  1.00  0.00     0.074 A 
ATOM     47  C   UNL A   1      42.009  32.345  29.876  1.00  0.00     0.031 C 
ATOM     48  C   UNL A   1      39.552  25.953  29.080  1.00  0.00     0.029 A 
ATOM     49  C   UNL A   1      40.890  26.185  28.537  1.00  0.00     0.049 A 
ATOM     50  H   UNL A   1      42.054  27.900  28.751  1.00  0.00     0.167 HD
ATOM     51  C   UNL A   1      44.165  31.774  28.795  1.00  0.00     0.037 A 
ATOM     52  C   UNL A   1      41.608  25.308  27.812  1.00  0.00     0.037 A 
ATOM     53  C   UNL A   1      45.058  30.858  28.135  1.00  0.00     0.049 A 
ATOM     54  C   UNL A   1      42.961  25.713  27.295  1.00  0.00     0.074 A 
ATOM     55  C   UNL A   1      46.351  31.079  27.696  1.00  0.00     0.029 A 
ATOM     56  N   UNL A   1      44.739  29.548  27.802  1.00  0.00    -0.354 N 
ATOM     57  N   UNL A   1      43.581  26.863  27.415  1.00  0.00    -0.248 NA
ATOM     58  C   UNL A   1      43.716  24.702  26.543  1.00  0.00     0.031 C 
ATOM     59  C   UNL A   1      46.790  29.925  27.038  1.00  0.00     0.029 A 
ATOM     60  C   UNL A   1      45.798  28.960  27.132  1.00  0.00     0.049 A 
ATOM     61  H   UNL A   1      43.886  29.105  28.011  1.00  0.00     0.167 HD
ATOM     62  C   UNL A   1      44.810  26.706  26.785  1.00  0.00     0.074 A 
ATOM     63  C   UNL A   1      44.845  25.347  26.281  1.00  0.00     0.031 C 
ATOM     64  C   UNL A   1      45.818  27.602  26.643  1.00  0.00     0.037 A 
BRANCH  51  65
ATOM     65  C   UNL A   1      44.594  33.200  28.985  1.00  0.00     0.057 A 
ATOM     66  C   UNL A   1      45.172  33.659  30.178  1.00  0.00     0.134 A 
ATOM     67  C   UNL A   1      44.411  34.138  27.960  1.00  0.00     0.134 A 
ATOM     68  F   UNL A   1      45.365  32.820  31.208  1.00  0.00    -0.206 F 
ATOM     69  C   UNL A   1      45.509  35.002  30.358  1.00  0.00     0.040 A 
ATOM     70  C   UNL A   1      44.776  35.476  28.116  1.00  0.00     0.040 A 
ATOM     71  F   UNL A   1      43.869  33.770  26.789  1.00  0.00    -0.206 F 
ATOM     72  C   UNL A   1      45.314  35.915  29.323  1.00  0.00     0.006 A 
ENDBRANCH  51  65
BRANCH  52  73
ATOM     73  C   UNL A   1      41.034  23.972  27.517  1.00  0.00     0.057 A 
ATOM     74  C   UNL A   1      40.040  23.806  26.548  1.00  0.00     0.134 A 
ATOM     75  C   UNL A   1      41.501  22.822  28.167  1.00  0.00     0.134 A 
ATOM     76  F   UNL A   1      39.539  24.871  25.906  1.00  0.00    -0.206 F 
ATOM     77  C   UNL A   1      39.530  22.545  26.234  1.00  0.00     0.040 A 
ATOM     78  C   UNL A   1      41.020  21.553  27.846  1.00  0.00     0.040 A 
ATOM     79  F   UNL A   1      42.458  22.915  29.103  1.00  0.00    -0.206 F 
ATOM     80  C   UNL A   1      40.028  21.413  26.876  1.00  0.00     0.006 A 
ENDBRANCH  52  73
BRANCH  64  81
ATOM     81  C   UNL A   1      47.074  27.135  25.963  1.00  0.00     0.057 A 
ATOM     82  C   UNL A   1      47.310  27.355  24.600  1.00  0.00     0.134 A 
ATOM     83  C   UNL A   1      48.092  26.522  26.705  1.00  0.00     0.134 A 
ATOM     84  F   UNL A   1      46.372  27.926  23.830  1.00  0.00    -0.206 F 
ATOM     85  C   UNL A   1      48.510  26.972  23.999  1.00  0.00     0.040 A 
ATOM     86  C   UNL A   1      49.307  26.162  26.122  1.00  0.00     0.040 A 
ATOM     87  F   UNL A   1      47.934  26.291  28.018  1.00  0.00    -0.206 F 
ATOM     88  C   UNL A   1      49.517  26.384  24.764  1.00  0.00     0.006 A 
ENDBRANCH  64  81
ENDBRANCH  38  39
ENDBRANCH  31  33
ENDBRANCH  30  31
ENDBRANCH  29  30
ENDBRANCH  28  29
ENDBRANCH  27  28
ENDBRANCH   1  27
TORSDOF 19
ENDMDL
