MODEL 1
REMARK VINA RESULT:      -9.2      0.000      0.000
REMARK SMILES NC(=O)[C@@H]1CCCCN1c1cncc(C(=O)OCCOCCOC(=O)c2ccc(-c3c4nc(c(-c5c(F)cccc5F)c5ccc([nH]5)c(-c5c(F)cccc5F)c5nc(c(-c6c(F)cccc6F)c6ccc3[nH]6)C=C5)C=C4)cc2)n1
REMARK SMILES IDX 20 1 19 2 18 3 17 4 15 5 16 6 14 7 10 8 11 9 80 10 12 11
REMARK SMILES IDX 13 12 9 13 4 14 5 15 6 16 8 17 7 18 2 19 1 20 3 23 21 24
REMARK SMILES IDX 22 25 23 26 24 27 25 28 26 29 27 30 79 31 28 32 78 33 29 34
REMARK SMILES IDX 30 35 31 36 72 37 32 38 77 39 71 40 73 41 33 42 76 43 70 44
REMARK SMILES IDX 69 45 34 47 60 48 43 49 59 50 44 51 47 52 58 53 74 54 45 55
REMARK SMILES IDX 46 56 57 58 75 59 48 60 35 61 36 62 41 63 37 64 38 65 40 66
REMARK SMILES IDX 42 67 39 68 61 69 62 70 67 71 63 72 64 73 66 74 68 75 65 76
REMARK SMILES IDX 49 77 50 78 55 79 51 80 52 81 54 82 56 83 53 84
REMARK H PARENT 1 21 1 22 73 46 47 57
REMARK Flexibility Score: inf
ROOT
ATOM      1  O   UNL A   1      46.083  20.292  24.508  1.00  0.00    -0.374 OA
ENDROOT
BRANCH   1   2
ATOM      2  C   UNL A   1      46.130  21.502  25.268  1.00  0.00     0.202 C 
BRANCH   2   3
ATOM      3  C   UNL A   1      46.348  22.781  24.453  1.00  0.00     0.261 C 
BRANCH   3   4
ATOM      4  O   UNL A   1      45.869  23.934  25.165  1.00  0.00    -0.458 OA
BRANCH   4   5
ATOM      5  C   UNL A   1      46.796  24.595  25.901  1.00  0.00     0.358 C 
ATOM      6  O   UNL A   1      47.725  24.099  26.521  1.00  0.00    -0.244 OA
BRANCH   5   7
ATOM      7  C   UNL A   1      46.674  26.054  25.693  1.00  0.00     0.169 A 
ATOM      8  C   UNL A   1      45.836  28.131  26.280  1.00  0.00     0.148 A 
ATOM      9  C   UNL A   1      46.491  28.630  25.137  1.00  0.00     0.157 A 
ATOM     10  N   UNL A   1      45.918  26.808  26.540  1.00  0.00    -0.220 NA
ATOM     11  N   UNL A   1      47.231  27.890  24.271  1.00  0.00    -0.258 NA
ATOM     12  C   UNL A   1      47.319  26.584  24.588  1.00  0.00     0.147 A 
BRANCH   8  13
ATOM     13  N   UNL A   1      45.156  28.960  27.148  1.00  0.00    -0.343 N 
ATOM     14  C   UNL A   1      43.683  29.167  27.110  1.00  0.00     0.172 C 
ATOM     15  C   UNL A   1      43.366  30.641  26.845  1.00  0.00     0.035 C 
ATOM     16  C   UNL A   1      44.050  31.528  27.883  1.00  0.00     0.004 C 
ATOM     17  C   UNL A   1      45.892  29.805  28.094  1.00  0.00     0.119 C 
ATOM     18  C   UNL A   1      45.555  31.283  27.876  1.00  0.00     0.022 C 
BRANCH  14  19
ATOM     19  C   UNL A   1      42.863  28.250  26.179  1.00  0.00     0.240 C 
ATOM     20  N   UNL A   1      42.099  28.901  25.244  1.00  0.00    -0.368 N 
ATOM     21  H   UNL A   1      41.548  28.385  24.613  1.00  0.00     0.159 HD
ATOM     22  H   UNL A   1      42.103  29.885  25.204  1.00  0.00     0.159 HD
ATOM     23  O   UNL A   1      42.925  27.023  26.170  1.00  0.00    -0.273 OA
ENDBRANCH  14  19
ENDBRANCH   8  13
ENDBRANCH   5   7
ENDBRANCH   4   5
ENDBRANCH   3   4
ENDBRANCH   2   3
ENDBRANCH   1   2
BRANCH   1  24
ATOM     24  C   UNL A   1      45.819  19.091  25.236  1.00  0.00     0.202 C 
BRANCH  24  25
ATOM     25  C   UNL A   1      44.362  18.616  25.230  1.00  0.00     0.261 C 
BRANCH  25  26
ATOM     26  O   UNL A   1      43.456  19.698  24.948  1.00  0.00    -0.460 OA
BRANCH  26  27
ATOM     27  C   UNL A   1      42.316  19.692  25.673  1.00  0.00     0.338 C 
ATOM     28  O   UNL A   1      41.566  18.744  25.867  1.00  0.00    -0.246 OA
BRANCH  27  29
ATOM     29  C   UNL A   1      42.154  20.980  26.371  1.00  0.00     0.060 A 
ATOM     30  C   UNL A   1      42.549  22.135  25.683  1.00  0.00     0.016 A 
ATOM     31  C   UNL A   1      41.688  21.061  27.685  1.00  0.00     0.016 A 
ATOM     32  C   UNL A   1      42.532  23.369  26.328  1.00  0.00     0.010 A 
ATOM     33  C   UNL A   1      41.677  22.301  28.333  1.00  0.00     0.010 A 
ATOM     34  C   UNL A   1      42.135  23.454  27.670  1.00  0.00    -0.014 A 
BRANCH  34  35
ATOM     35  C   UNL A   1      42.337  24.726  28.404  1.00  0.00     0.031 A 
ATOM     36  C   UNL A   1      43.681  25.014  29.014  1.00  0.00     0.074 A 
ATOM     37  C   UNL A   1      41.354  25.638  28.480  1.00  0.00     0.049 A 
ATOM     38  N   UNL A   1      44.089  26.074  29.663  1.00  0.00    -0.248 NA
ATOM     39  C   UNL A   1      44.701  23.964  28.871  1.00  0.00     0.031 C 
ATOM     40  C   UNL A   1      40.020  25.493  27.901  1.00  0.00     0.029 A 
ATOM     41  N   UNL A   1      41.334  26.877  29.070  1.00  0.00    -0.354 N 
ATOM     42  C   UNL A   1      45.413  25.824  30.000  1.00  0.00     0.074 A 
ATOM     43  C   UNL A   1      45.725  24.493  29.522  1.00  0.00     0.031 C 
ATOM     44  C   UNL A   1      39.312  26.607  28.155  1.00  0.00     0.029 A 
ATOM     45  C   UNL A   1      40.135  27.530  28.936  1.00  0.00     0.049 A 
ATOM     46  H   UNL A   1      42.106  27.260  29.546  1.00  0.00     0.167 HD
ATOM     47  C   UNL A   1      46.294  26.633  30.637  1.00  0.00     0.037 A 
ATOM     48  C   UNL A   1      39.747  28.735  29.395  1.00  0.00     0.037 A 
ATOM     49  C   UNL A   1      45.982  27.950  31.124  1.00  0.00     0.049 A 
ATOM     50  C   UNL A   1      40.717  29.580  30.174  1.00  0.00     0.074 A 
ATOM     51  C   UNL A   1      46.808  28.851  31.773  1.00  0.00     0.029 A 
ATOM     52  N   UNL A   1      44.736  28.552  31.025  1.00  0.00    -0.354 N 
ATOM     53  N   UNL A   1      41.973  29.345  30.466  1.00  0.00    -0.248 NA
ATOM     54  C   UNL A   1      40.211  30.863  30.684  1.00  0.00     0.031 C 
ATOM     55  C   UNL A   1      46.049  29.979  32.108  1.00  0.00     0.029 A 
ATOM     56  C   UNL A   1      44.763  29.801  31.625  1.00  0.00     0.049 A 
ATOM     57  H   UNL A   1      43.949  28.151  30.591  1.00  0.00     0.167 HD
ATOM     58  C   UNL A   1      42.415  30.457  31.172  1.00  0.00     0.074 A 
ATOM     59  C   UNL A   1      41.295  31.373  31.251  1.00  0.00     0.031 C 
ATOM     60  C   UNL A   1      43.639  30.700  31.705  1.00  0.00     0.037 A 
BRANCH  47  61
ATOM     61  C   UNL A   1      47.676  26.089  30.862  1.00  0.00     0.057 A 
ATOM     62  C   UNL A   1      48.635  26.064  29.839  1.00  0.00     0.134 A 
ATOM     63  C   UNL A   1      48.049  25.577  32.110  1.00  0.00     0.134 A 
ATOM     64  F   UNL A   1      48.337  26.524  28.615  1.00  0.00    -0.206 F 
ATOM     65  C   UNL A   1      49.905  25.519  30.043  1.00  0.00     0.040 A 
ATOM     66  C   UNL A   1      49.324  25.054  32.333  1.00  0.00     0.040 A 
ATOM     67  F   UNL A   1      47.181  25.575  33.132  1.00  0.00    -0.206 F 
ATOM     68  C   UNL A   1      50.253  25.015  31.294  1.00  0.00     0.006 A 
ENDBRANCH  47  61
BRANCH  48  69
ATOM     69  C   UNL A   1      38.373  29.223  29.117  1.00  0.00     0.057 A 
ATOM     70  C   UNL A   1      37.382  29.186  30.103  1.00  0.00     0.134 A 
ATOM     71  C   UNL A   1      38.019  29.730  27.862  1.00  0.00     0.134 A 
ATOM     72  F   UNL A   1      37.657  28.686  31.317  1.00  0.00    -0.206 F 
ATOM     73  C   UNL A   1      36.083  29.627  29.851  1.00  0.00     0.040 A 
ATOM     74  C   UNL A   1      36.729  30.195  27.600  1.00  0.00     0.040 A 
ATOM     75  F   UNL A   1      38.923  29.787  26.873  1.00  0.00    -0.206 F 
ATOM     76  C   UNL A   1      35.755  30.140  28.596  1.00  0.00     0.006 A 
ENDBRANCH  48  69
BRANCH  60  77
ATOM     77  C   UNL A   1      43.833  32.017  32.398  1.00  0.00     0.057 A 
ATOM     78  C   UNL A   1      43.633  32.164  33.777  1.00  0.00     0.134 A 
ATOM     79  C   UNL A   1      44.238  33.150  31.681  1.00  0.00     0.134 A 
ATOM     80  F   UNL A   1      43.232  31.121  34.521  1.00  0.00    -0.206 F 
ATOM     81  C   UNL A   1      43.802  33.395  34.413  1.00  0.00     0.040 A 
ATOM     82  C   UNL A   1      44.435  34.381  32.309  1.00  0.00     0.040 A 
ATOM     83  F   UNL A   1      44.453  33.078  30.359  1.00  0.00    -0.206 F 
ATOM     84  C   UNL A   1      44.209  34.507  33.678  1.00  0.00     0.006 A 
ENDBRANCH  60  77
ENDBRANCH  34  35
ENDBRANCH  27  29
ENDBRANCH  26  27
ENDBRANCH  25  26
ENDBRANCH  24  25
ENDBRANCH   1  24
TORSDOF 16
ENDMDL
MODEL 2
REMARK VINA RESULT:      -9.0      5.706     11.184
REMARK SMILES NC(=O)[C@@H]1CCCCN1c1cncc(C(=O)OCCOCCOC(=O)c2ccc(-c3c4nc(c(-c5c(F)cccc5F)c5ccc([nH]5)c(-c5c(F)cccc5F)c5nc(c(-c6c(F)cccc6F)c6ccc3[nH]6)C=C5)C=C4)cc2)n1
REMARK SMILES IDX 20 1 19 2 18 3 17 4 15 5 16 6 14 7 10 8 11 9 80 10 12 11
REMARK SMILES IDX 13 12 9 13 4 14 5 15 6 16 8 17 7 18 2 19 1 20 3 23 21 24
REMARK SMILES IDX 22 25 23 26 24 27 25 28 26 29 27 30 79 31 28 32 78 33 29 34
REMARK SMILES IDX 30 35 31 36 72 37 32 38 77 39 71 40 73 41 33 42 76 43 70 44
REMARK SMILES IDX 69 45 34 47 60 48 43 49 59 50 44 51 47 52 58 53 74 54 45 55
REMARK SMILES IDX 46 56 57 58 75 59 48 60 35 61 36 62 41 63 37 64 38 65 40 66
REMARK SMILES IDX 42 67 39 68 61 69 62 70 67 71 63 72 64 73 66 74 68 75 65 76
REMARK SMILES IDX 49 77 50 78 55 79 51 80 52 81 54 82 56 83 53 84
REMARK H PARENT 1 21 1 22 73 46 47 57
REMARK Flexibility Score: inf
ROOT
ATOM      1  O   UNL A   1      32.118  30.290  27.152  1.00  0.00    -0.374 OA
ENDROOT
BRANCH   1   2
ATOM      2  C   UNL A   1      33.075  29.423  26.540  1.00  0.00     0.202 C 
BRANCH   2   3
ATOM      3  C   UNL A   1      33.176  28.021  27.149  1.00  0.00     0.261 C 
BRANCH   3   4
ATOM      4  O   UNL A   1      33.004  27.007  26.144  1.00  0.00    -0.458 OA
BRANCH   4   5
ATOM      5  C   UNL A   1      31.824  26.342  26.180  1.00  0.00     0.358 C 
ATOM      6  O   UNL A   1      30.826  26.659  26.811  1.00  0.00    -0.244 OA
BRANCH   5   7
ATOM      7  C   UNL A   1      31.811  25.261  25.172  1.00  0.00     0.169 A 
ATOM      8  C   UNL A   1      32.834  23.519  24.042  1.00  0.00     0.148 A 
ATOM      9  C   UNL A   1      31.657  23.429  23.274  1.00  0.00     0.157 A 
ATOM     10  N   UNL A   1      32.909  24.474  24.994  1.00  0.00    -0.220 NA
ATOM     11  N   UNL A   1      30.561  24.219  23.423  1.00  0.00    -0.258 NA
ATOM     12  C   UNL A   1      30.662  25.133  24.408  1.00  0.00     0.147 A 
BRANCH   8  13
ATOM     13  N   UNL A   1      33.881  22.636  23.872  1.00  0.00    -0.343 N 
ATOM     14  C   UNL A   1      34.020  21.364  24.631  1.00  0.00     0.172 C 
ATOM     15  C   UNL A   1      35.317  21.378  25.444  1.00  0.00     0.035 C 
ATOM     16  C   UNL A   1      36.514  21.645  24.535  1.00  0.00     0.004 C 
ATOM     17  C   UNL A   1      35.011  22.985  23.003  1.00  0.00     0.119 C 
ATOM     18  C   UNL A   1      36.325  22.960  23.788  1.00  0.00     0.022 C 
BRANCH  14  19
ATOM     19  C   UNL A   1      32.826  20.925  25.503  1.00  0.00     0.240 C 
ATOM     20  N   UNL A   1      32.777  21.490  26.752  1.00  0.00    -0.368 N 
ATOM     21  H   UNL A   1      32.045  21.260  27.368  1.00  0.00     0.159 HD
ATOM     22  H   UNL A   1      33.475  22.126  27.033  1.00  0.00     0.159 HD
ATOM     23  O   UNL A   1      31.909  20.201  25.124  1.00  0.00    -0.273 OA
ENDBRANCH  14  19
ENDBRANCH   8  13
ENDBRANCH   5   7
ENDBRANCH   4   5
ENDBRANCH   3   4
ENDBRANCH   2   3
ENDBRANCH   1   2
BRANCH   1  24
ATOM     24  C   UNL A   1      31.586  31.334  26.334  1.00  0.00     0.202 C 
BRANCH  24  25
ATOM     25  C   UNL A   1      31.515  32.719  26.986  1.00  0.00     0.261 C 
BRANCH  25  26
ATOM     26  O   UNL A   1      32.774  33.410  26.895  1.00  0.00    -0.460 OA
BRANCH  26  27
ATOM     27  C   UNL A   1      33.273  33.845  28.073  1.00  0.00     0.338 C 
ATOM     28  O   UNL A   1      32.744  34.617  28.863  1.00  0.00    -0.246 OA
BRANCH  27  29
ATOM     29  C   UNL A   1      34.520  33.126  28.391  1.00  0.00     0.060 A 
ATOM     30  C   UNL A   1      34.398  31.833  28.914  1.00  0.00     0.016 A 
ATOM     31  C   UNL A   1      35.777  33.716  28.242  1.00  0.00     0.016 A 
ATOM     32  C   UNL A   1      35.531  31.147  29.345  1.00  0.00     0.010 A 
ATOM     33  C   UNL A   1      36.914  33.028  28.679  1.00  0.00     0.010 A 
ATOM     34  C   UNL A   1      36.791  31.755  29.267  1.00  0.00    -0.014 A 
BRANCH  34  35
ATOM     35  C   UNL A   1      37.948  31.109  29.932  1.00  0.00     0.031 A 
ATOM     36  C   UNL A   1      38.222  31.408  31.380  1.00  0.00     0.074 A 
ATOM     37  C   UNL A   1      38.712  30.223  29.272  1.00  0.00     0.049 A 
ATOM     38  N   UNL A   1      39.151  30.929  32.167  1.00  0.00    -0.248 NA
ATOM     39  C   UNL A   1      37.326  32.381  32.026  1.00  0.00     0.031 C 
ATOM     40  C   UNL A   1      38.528  29.821  27.879  1.00  0.00     0.029 A 
ATOM     41  N   UNL A   1      39.794  29.492  29.695  1.00  0.00    -0.354 N 
ATOM     42  C   UNL A   1      38.949  31.532  33.401  1.00  0.00     0.074 A 
ATOM     43  C   UNL A   1      37.837  32.447  33.246  1.00  0.00     0.031 C 
ATOM     44  C   UNL A   1      39.460  28.906  27.564  1.00  0.00     0.029 A 
ATOM     45  C   UNL A   1      40.319  28.678  28.725  1.00  0.00     0.049 A 
ATOM     46  H   UNL A   1      40.158  29.548  30.608  1.00  0.00     0.167 HD
ATOM     47  C   UNL A   1      39.618  31.334  34.563  1.00  0.00     0.037 A 
ATOM     48  C   UNL A   1      41.377  27.846  28.769  1.00  0.00     0.037 A 
ATOM     49  C   UNL A   1      40.731  30.436  34.716  1.00  0.00     0.049 A 
ATOM     50  C   UNL A   1      42.158  27.706  30.047  1.00  0.00     0.074 A 
ATOM     51  C   UNL A   1      41.469  30.158  35.853  1.00  0.00     0.029 A 
ATOM     52  N   UNL A   1      41.276  29.675  33.692  1.00  0.00    -0.354 N 
ATOM     53  N   UNL A   1      41.945  28.263  31.215  1.00  0.00    -0.248 NA
ATOM     54  C   UNL A   1      43.328  26.816  30.011  1.00  0.00     0.031 C 
ATOM     55  C   UNL A   1      42.489  29.265  35.506  1.00  0.00     0.029 A 
ATOM     56  C   UNL A   1      42.357  28.948  34.164  1.00  0.00     0.049 A 
ATOM     57  H   UNL A   1      40.942  29.653  32.766  1.00  0.00     0.167 HD
ATOM     58  C   UNL A   1      42.936  27.775  32.058  1.00  0.00     0.074 A 
ATOM     59  C   UNL A   1      43.742  26.865  31.269  1.00  0.00     0.031 C 
ATOM     60  C   UNL A   1      43.158  28.053  33.366  1.00  0.00     0.037 A 
BRANCH  47  61
ATOM     61  C   UNL A   1      39.168  32.135  35.751  1.00  0.00     0.057 A 
ATOM     62  C   UNL A   1      39.640  33.434  35.987  1.00  0.00     0.134 A 
ATOM     63  C   UNL A   1      38.260  31.600  36.673  1.00  0.00     0.134 A 
ATOM     64  F   UNL A   1      40.523  34.000  35.151  1.00  0.00    -0.206 F 
ATOM     65  C   UNL A   1      39.250  34.159  37.116  1.00  0.00     0.040 A 
ATOM     66  C   UNL A   1      37.843  32.325  37.791  1.00  0.00     0.040 A 
ATOM     67  F   UNL A   1      37.767  30.365  36.505  1.00  0.00    -0.206 F 
ATOM     68  C   UNL A   1      38.346  33.605  38.020  1.00  0.00     0.006 A 
ENDBRANCH  47  61
BRANCH  48  69
ATOM     69  C   UNL A   1      41.754  27.066  27.565  1.00  0.00     0.057 A 
ATOM     70  C   UNL A   1      41.289  25.760  27.377  1.00  0.00     0.134 A 
ATOM     71  C   UNL A   1      42.591  27.603  26.580  1.00  0.00     0.134 A 
ATOM     72  F   UNL A   1      40.505  25.184  28.300  1.00  0.00    -0.206 F 
ATOM     73  C   UNL A   1      41.649  25.010  26.257  1.00  0.00     0.040 A 
ATOM     74  C   UNL A   1      42.943  26.873  25.443  1.00  0.00     0.040 A 
ATOM     75  F   UNL A   1      43.075  28.847  26.706  1.00  0.00    -0.206 F 
ATOM     76  C   UNL A   1      42.475  25.570  25.282  1.00  0.00     0.006 A 
ENDBRANCH  48  69
BRANCH  60  77
ATOM     77  C   UNL A   1      44.304  27.345  34.030  1.00  0.00     0.057 A 
ATOM     78  C   UNL A   1      44.147  26.093  34.640  1.00  0.00     0.134 A 
ATOM     79  C   UNL A   1      45.583  27.916  34.048  1.00  0.00     0.134 A 
ATOM     80  F   UNL A   1      42.945  25.498  34.670  1.00  0.00    -0.206 F 
ATOM     81  C   UNL A   1      45.214  25.448  35.267  1.00  0.00     0.040 A 
ATOM     82  C   UNL A   1      46.663  27.268  34.649  1.00  0.00     0.040 A 
ATOM     83  F   UNL A   1      45.805  29.109  33.476  1.00  0.00    -0.206 F 
ATOM     84  C   UNL A   1      46.478  26.034  35.268  1.00  0.00     0.006 A 
ENDBRANCH  60  77
ENDBRANCH  34  35
ENDBRANCH  27  29
ENDBRANCH  26  27
ENDBRANCH  25  26
ENDBRANCH  24  25
ENDBRANCH   1  24
TORSDOF 16
ENDMDL
MODEL 3
REMARK VINA RESULT:      -9.0      2.527      4.576
REMARK SMILES NC(=O)[C@@H]1CCCCN1c1cncc(C(=O)OCCOCCOC(=O)c2ccc(-c3c4nc(c(-c5c(F)cccc5F)c5ccc([nH]5)c(-c5c(F)cccc5F)c5nc(c(-c6c(F)cccc6F)c6ccc3[nH]6)C=C5)C=C4)cc2)n1
REMARK SMILES IDX 20 1 19 2 18 3 17 4 15 5 16 6 14 7 10 8 11 9 80 10 12 11
REMARK SMILES IDX 13 12 9 13 4 14 5 15 6 16 8 17 7 18 2 19 1 20 3 23 21 24
REMARK SMILES IDX 22 25 23 26 24 27 25 28 26 29 27 30 79 31 28 32 78 33 29 34
REMARK SMILES IDX 30 35 31 36 72 37 32 38 77 39 71 40 73 41 33 42 76 43 70 44
REMARK SMILES IDX 69 45 34 47 60 48 43 49 59 50 44 51 47 52 58 53 74 54 45 55
REMARK SMILES IDX 46 56 57 58 75 59 48 60 35 61 36 62 41 63 37 64 38 65 40 66
REMARK SMILES IDX 42 67 39 68 61 69 62 70 67 71 63 72 64 73 66 74 68 75 65 76
REMARK SMILES IDX 49 77 50 78 55 79 51 80 52 81 54 82 56 83 53 84
REMARK H PARENT 1 21 1 22 73 46 47 57
REMARK Flexibility Score: inf
ROOT
ATOM      1  O   UNL A   1      42.484  19.755  26.650  1.00  0.00    -0.374 OA
ENDROOT
BRANCH   1   2
ATOM      2  C   UNL A   1      42.762  18.464  26.105  1.00  0.00     0.202 C 
BRANCH   2   3
ATOM      3  C   UNL A   1      44.236  18.044  26.127  1.00  0.00     0.261 C 
BRANCH   3   4
ATOM      4  O   UNL A   1      44.926  18.523  24.960  1.00  0.00    -0.458 OA
BRANCH   4   5
ATOM      5  C   UNL A   1      45.990  19.329  25.199  1.00  0.00     0.358 C 
ATOM      6  O   UNL A   1      47.134  18.974  25.442  1.00  0.00    -0.244 OA
BRANCH   5   7
ATOM      7  C   UNL A   1      45.641  20.738  24.919  1.00  0.00     0.169 A 
ATOM      8  C   UNL A   1      45.718  22.994  25.431  1.00  0.00     0.148 A 
ATOM      9  C   UNL A   1      44.863  23.193  24.330  1.00  0.00     0.157 A 
ATOM     10  N   UNL A   1      46.091  21.732  25.735  1.00  0.00    -0.220 NA
ATOM     11  N   UNL A   1      44.388  22.212  23.518  1.00  0.00    -0.258 NA
ATOM     12  C   UNL A   1      44.813  20.973  23.834  1.00  0.00     0.147 A 
BRANCH   8  13
ATOM     13  N   UNL A   1      46.210  24.052  26.168  1.00  0.00    -0.343 N 
ATOM     14  C   UNL A   1      45.531  24.608  27.369  1.00  0.00     0.172 C 
ATOM     15  C   UNL A   1      45.175  26.079  27.136  1.00  0.00     0.035 C 
ATOM     16  C   UNL A   1      46.419  26.875  26.753  1.00  0.00     0.004 C 
ATOM     17  C   UNL A   1      47.396  24.786  25.711  1.00  0.00     0.119 C 
ATOM     18  C   UNL A   1      47.073  26.269  25.516  1.00  0.00     0.022 C 
BRANCH  14  19
ATOM     19  C   UNL A   1      44.321  23.828  27.923  1.00  0.00     0.240 C 
ATOM     20  N   UNL A   1      44.635  22.732  28.686  1.00  0.00    -0.368 N 
ATOM     21  H   UNL A   1      43.917  22.182  29.077  1.00  0.00     0.159 HD
ATOM     22  H   UNL A   1      45.578  22.495  28.844  1.00  0.00     0.159 HD
ATOM     23  O   UNL A   1      43.148  24.171  27.800  1.00  0.00    -0.273 OA
ENDBRANCH  14  19
ENDBRANCH   8  13
ENDBRANCH   5   7
ENDBRANCH   4   5
ENDBRANCH   3   4
ENDBRANCH   2   3
ENDBRANCH   1   2
BRANCH   1  24
ATOM     24  C   UNL A   1      41.106  20.117  26.766  1.00  0.00     0.202 C 
BRANCH  24  25
ATOM     25  C   UNL A   1      40.829  21.491  27.385  1.00  0.00     0.261 C 
BRANCH  25  26
ATOM     26  O   UNL A   1      40.740  22.515  26.379  1.00  0.00    -0.460 OA
BRANCH  26  27
ATOM     27  C   UNL A   1      39.532  23.113  26.278  1.00  0.00     0.338 C 
ATOM     28  O   UNL A   1      38.511  22.645  25.792  1.00  0.00    -0.246 OA
BRANCH  27  29
ATOM     29  C   UNL A   1      39.543  24.398  27.001  1.00  0.00     0.060 A 
ATOM     30  C   UNL A   1      40.227  25.464  26.402  1.00  0.00     0.016 A 
ATOM     31  C   UNL A   1      38.956  24.549  28.259  1.00  0.00     0.016 A 
ATOM     32  C   UNL A   1      40.375  26.668  27.085  1.00  0.00     0.010 A 
ATOM     33  C   UNL A   1      39.110  25.757  28.947  1.00  0.00     0.010 A 
ATOM     34  C   UNL A   1      39.852  26.809  28.379  1.00  0.00    -0.014 A 
BRANCH  34  35
ATOM     35  C   UNL A   1      40.211  28.006  29.176  1.00  0.00     0.031 A 
ATOM     36  C   UNL A   1      41.597  28.118  29.748  1.00  0.00     0.074 A 
ATOM     37  C   UNL A   1      39.332  29.008  29.343  1.00  0.00     0.049 A 
ATOM     38  N   UNL A   1      42.136  29.089  30.440  1.00  0.00    -0.248 NA
ATOM     39  C   UNL A   1      42.496  26.979  29.505  1.00  0.00     0.031 C 
ATOM     40  C   UNL A   1      37.972  29.036  28.809  1.00  0.00     0.029 A 
ATOM     41  N   UNL A   1      39.462  30.204  30.003  1.00  0.00    -0.354 N 
ATOM     42  C   UNL A   1      43.436  28.684  30.710  1.00  0.00     0.074 A 
ATOM     43  C   UNL A   1      43.592  27.360  30.145  1.00  0.00     0.031 C 
ATOM     44  C   UNL A   1      37.394  30.199  29.154  1.00  0.00     0.029 A 
ATOM     45  C   UNL A   1      38.334  30.984  29.953  1.00  0.00     0.049 A 
ATOM     46  H   UNL A   1      40.285  30.476  30.469  1.00  0.00     0.167 HD
ATOM     47  C   UNL A   1      44.419  29.358  31.356  1.00  0.00     0.037 A 
ATOM     48  C   UNL A   1      38.089  32.192  30.495  1.00  0.00     0.037 A 
ATOM     49  C   UNL A   1      44.262  30.668  31.930  1.00  0.00     0.049 A 
ATOM     50  C   UNL A   1      39.168  32.884  31.282  1.00  0.00     0.074 A 
ATOM     51  C   UNL A   1      45.199  31.438  32.597  1.00  0.00     0.029 A 
ATOM     52  N   UNL A   1      43.084  31.400  31.915  1.00  0.00    -0.354 N 
ATOM     53  N   UNL A   1      40.402  32.504  31.511  1.00  0.00    -0.248 NA
ATOM     54  C   UNL A   1      38.817  34.179  31.885  1.00  0.00     0.031 C 
ATOM     55  C   UNL A   1      44.574  32.615  33.025  1.00  0.00     0.029 A 
ATOM     56  C   UNL A   1      43.261  32.600  32.583  1.00  0.00     0.049 A 
ATOM     57  H   UNL A   1      42.244  31.109  31.490  1.00  0.00     0.167 HD
ATOM     58  C   UNL A   1      40.981  33.520  32.261  1.00  0.00     0.074 A 
ATOM     59  C   UNL A   1      39.967  34.539  32.437  1.00  0.00     0.031 C 
ATOM     60  C   UNL A   1      42.240  33.603  32.759  1.00  0.00     0.037 A 
BRANCH  47  61
ATOM     61  C   UNL A   1      45.742  28.662  31.495  1.00  0.00     0.057 A 
ATOM     62  C   UNL A   1      46.064  27.909  32.633  1.00  0.00     0.134 A 
ATOM     63  C   UNL A   1      46.708  28.752  30.485  1.00  0.00     0.134 A 
ATOM     64  F   UNL A   1      45.190  27.795  33.644  1.00  0.00    -0.206 F 
ATOM     65  C   UNL A   1      47.313  27.298  32.775  1.00  0.00     0.040 A 
ATOM     66  C   UNL A   1      47.949  28.124  30.604  1.00  0.00     0.040 A 
ATOM     67  F   UNL A   1      46.462  29.453  29.369  1.00  0.00    -0.206 F 
ATOM     68  C   UNL A   1      48.258  27.403  31.756  1.00  0.00     0.006 A 
ENDBRANCH  47  61
BRANCH  48  69
ATOM     69  C   UNL A   1      36.766  32.834  30.300  1.00  0.00     0.057 A 
ATOM     70  C   UNL A   1      36.492  33.588  29.154  1.00  0.00     0.134 A 
ATOM     71  C   UNL A   1      35.750  32.716  31.256  1.00  0.00     0.134 A 
ATOM     72  F   UNL A   1      37.436  33.757  28.217  1.00  0.00    -0.206 F 
ATOM     73  C   UNL A   1      35.258  34.210  28.967  1.00  0.00     0.040 A 
ATOM     74  C   UNL A   1      34.502  33.315  31.072  1.00  0.00     0.040 A 
ATOM     75  F   UNL A   1      35.953  32.012  32.379  1.00  0.00    -0.206 F 
ATOM     76  C   UNL A   1      34.256  34.069  29.926  1.00  0.00     0.006 A 
ENDBRANCH  48  69
BRANCH  60  77
ATOM     77  C   UNL A   1      42.594  34.849  33.518  1.00  0.00     0.057 A 
ATOM     78  C   UNL A   1      43.099  35.988  32.877  1.00  0.00     0.134 A 
ATOM     79  C   UNL A   1      42.414  34.916  34.906  1.00  0.00     0.134 A 
ATOM     80  F   UNL A   1      43.307  35.985  31.551  1.00  0.00    -0.206 F 
ATOM     81  C   UNL A   1      43.438  37.138  33.591  1.00  0.00     0.040 A 
ATOM     82  C   UNL A   1      42.726  36.069  35.628  1.00  0.00     0.040 A 
ATOM     83  F   UNL A   1      41.928  33.864  35.582  1.00  0.00    -0.206 F 
ATOM     84  C   UNL A   1      43.247  37.181  34.971  1.00  0.00     0.006 A 
ENDBRANCH  60  77
ENDBRANCH  34  35
ENDBRANCH  27  29
ENDBRANCH  26  27
ENDBRANCH  25  26
ENDBRANCH  24  25
ENDBRANCH   1  24
TORSDOF 16
ENDMDL
