MODEL 1
REMARK VINA RESULT:     -10.4      0.000      0.000
REMARK SMILES C[C@H](c1ccccc1Cl)N(C)c1cccc(F)c1C(=O)OCCOCCOC(=O)c1ccc(-c2c3nc(c(-c4c(F)cccc4F)c4ccc([nH]4)c(-c4c(F)cccc4F)c4nc(c(-c5c(F)cccc5F)c5ccc2[nH]5)C=C4)C=C3)cc1
REMARK SMILES IDX 23 1 22 2 21 3 19 4 20 5 18 6 12 7 13 8 14 9 16 10 15 11
REMARK SMILES IDX 17 12 10 13 11 14 2 15 1 16 3 17 4 18 8 19 5 20 7 21 9 22
REMARK SMILES IDX 6 23 24 24 25 25 26 26 27 27 28 28 29 29 30 30 31 31 83 32
REMARK SMILES IDX 32 33 82 34 33 35 34 36 35 37 76 38 36 39 81 40 75 41 77 42
REMARK SMILES IDX 37 43 80 44 74 45 73 46 38 48 64 49 47 50 63 51 48 52 51 53
REMARK SMILES IDX 62 54 78 55 49 56 50 57 61 59 79 60 52 61 39 62 40 63 45 64
REMARK SMILES IDX 41 65 42 66 44 67 46 68 43 69 65 70 66 71 71 72 67 73 68 74
REMARK SMILES IDX 70 75 72 76 69 77 53 78 54 79 59 80 55 81 56 82 58 83 60 84
REMARK SMILES IDX 57 85
REMARK H PARENT 77 47 51 58
REMARK Flexibility Score: inf
ROOT
ATOM      1  C   UNL A   1      38.190  22.344  25.763  1.00  0.00     0.202 C 
ENDROOT
BRANCH   1   2
ATOM      2  C   UNL A   1      37.279  23.573  25.814  1.00  0.00     0.261 C 
BRANCH   2   3
ATOM      3  O   UNL A   1      36.104  23.350  25.020  1.00  0.00    -0.460 OA
BRANCH   3   4
ATOM      4  C   UNL A   1      34.972  23.056  25.707  1.00  0.00     0.343 C 
ATOM      5  O   UNL A   1      34.853  23.063  26.920  1.00  0.00    -0.246 OA
BRANCH   4   6
ATOM      6  C   UNL A   1      33.874  22.823  24.746  1.00  0.00     0.119 A 
ATOM      7  C   UNL A   1      33.011  23.856  24.314  1.00  0.00     0.055 A 
ATOM      8  C   UNL A   1      31.986  23.486  23.417  1.00  0.00     0.027 A 
ATOM      9  C   UNL A   1      31.797  22.168  22.988  1.00  0.00     0.005 A 
ATOM     10  C   UNL A   1      33.686  21.505  24.300  1.00  0.00     0.139 A 
ATOM     11  C   UNL A   1      32.655  21.175  23.428  1.00  0.00     0.040 A 
ATOM     12  F   UNL A   1      34.489  20.513  24.715  1.00  0.00    -0.206 F 
BRANCH   7  13
ATOM     13  N   UNL A   1      33.129  25.201  24.651  1.00  0.00    -0.367 N 
ATOM     14  C   UNL A   1      33.869  26.094  23.778  1.00  0.00     0.144 C 
BRANCH  13  15
ATOM     15  C   UNL A   1      32.676  25.741  25.955  1.00  0.00     0.110 C 
ATOM     16  C   UNL A   1      31.672  24.803  26.624  1.00  0.00     0.036 C 
BRANCH  15  17
ATOM     17  C   UNL A   1      32.412  27.237  25.849  1.00  0.00    -0.007 A 
ATOM     18  C   UNL A   1      33.356  28.075  26.499  1.00  0.00     0.007 A 
ATOM     19  C   UNL A   1      31.387  27.865  25.126  1.00  0.00     0.046 A 
ATOM     20  C   UNL A   1      33.292  29.465  26.421  1.00  0.00     0.000 A 
ATOM     21  C   UNL A   1      31.321  29.267  25.063  1.00  0.00     0.021 A 
ATOM     22  Cl  UNL A   1      30.182  27.029  24.219  1.00  0.00    -0.084 Cl
ATOM     23  C   UNL A   1      32.271  30.063  25.701  1.00  0.00     0.002 A 
ENDBRANCH  15  17
ENDBRANCH  13  15
ENDBRANCH   7  13
ENDBRANCH   4   6
ENDBRANCH   3   4
ENDBRANCH   2   3
ENDBRANCH   1   2
BRANCH   1  24
ATOM     24  O   UNL A   1      37.565  21.075  25.550  1.00  0.00    -0.374 OA
BRANCH  24  25
ATOM     25  C   UNL A   1      38.336  20.057  24.922  1.00  0.00     0.202 C 
BRANCH  25  26
ATOM     26  C   UNL A   1      39.387  19.303  25.739  1.00  0.00     0.261 C 
BRANCH  26  27
ATOM     27  O   UNL A   1      40.700  19.399  25.192  1.00  0.00    -0.460 OA
BRANCH  27  28
ATOM     28  C   UNL A   1      41.670  19.442  26.133  1.00  0.00     0.338 C 
ATOM     29  O   UNL A   1      42.457  18.558  26.441  1.00  0.00    -0.246 OA
BRANCH  28  30
ATOM     30  C   UNL A   1      41.759  20.811  26.649  1.00  0.00     0.060 A 
ATOM     31  C   UNL A   1      42.070  21.827  25.738  1.00  0.00     0.016 A 
ATOM     32  C   UNL A   1      41.569  21.084  28.005  1.00  0.00     0.016 A 
ATOM     33  C   UNL A   1      42.245  23.126  26.195  1.00  0.00     0.010 A 
ATOM     34  C   UNL A   1      41.755  22.386  28.463  1.00  0.00     0.010 A 
ATOM     35  C   UNL A   1      42.131  23.399  27.564  1.00  0.00    -0.014 A 
BRANCH  35  36
ATOM     36  C   UNL A   1      42.570  24.710  28.078  1.00  0.00     0.031 A 
ATOM     37  C   UNL A   1      41.534  25.772  28.307  1.00  0.00     0.074 A 
ATOM     38  C   UNL A   1      43.865  24.929  28.357  1.00  0.00     0.049 A 
ATOM     39  N   UNL A   1      41.690  27.006  28.705  1.00  0.00    -0.248 NA
ATOM     40  C   UNL A   1      40.133  25.394  28.050  1.00  0.00     0.031 C 
ATOM     41  C   UNL A   1      44.938  23.948  28.204  1.00  0.00     0.029 A 
ATOM     42  N   UNL A   1      44.497  26.053  28.823  1.00  0.00    -0.354 N 
ATOM     43  C   UNL A   1      40.415  27.552  28.739  1.00  0.00     0.074 A 
ATOM     44  C   UNL A   1      39.496  26.530  28.293  1.00  0.00     0.031 C 
ATOM     45  C   UNL A   1      46.101  24.517  28.564  1.00  0.00     0.029 A 
ATOM     46  C   UNL A   1      45.856  25.909  28.935  1.00  0.00     0.049 A 
ATOM     47  H   UNL A   1      44.020  26.883  29.054  1.00  0.00     0.167 HD
ATOM     48  C   UNL A   1      40.048  28.797  29.120  1.00  0.00     0.037 A 
ATOM     49  C   UNL A   1      46.795  26.811  29.279  1.00  0.00     0.037 A 
ATOM     50  C   UNL A   1      40.974  29.797  29.575  1.00  0.00     0.049 A 
ATOM     51  C   UNL A   1      46.365  28.207  29.642  1.00  0.00     0.074 A 
ATOM     52  C   UNL A   1      40.705  31.082  30.008  1.00  0.00     0.029 A 
ATOM     53  N   UNL A   1      42.349  29.625  29.651  1.00  0.00    -0.354 N 
ATOM     54  N   UNL A   1      45.155  28.711  29.691  1.00  0.00    -0.248 NA
ATOM     55  C   UNL A   1      47.427  29.159  30.000  1.00  0.00     0.031 C 
ATOM     56  C   UNL A   1      41.920  31.706  30.295  1.00  0.00     0.029 A 
ATOM     57  C   UNL A   1      42.943  30.791  30.100  1.00  0.00     0.049 A 
ATOM     58  H   UNL A   1      42.829  28.797  29.421  1.00  0.00     0.167 HD
ATOM     59  C   UNL A   1      45.306  30.027  30.108  1.00  0.00     0.074 A 
ATOM     60  C   UNL A   1      46.724  30.240  30.312  1.00  0.00     0.031 C 
ATOM     61  C   UNL A   1      44.357  30.976  30.305  1.00  0.00     0.037 A 
BRANCH  48  62
ATOM     62  C   UNL A   1      38.595  29.156  29.058  1.00  0.00     0.057 A 
ATOM     63  C   UNL A   1      38.032  29.636  27.867  1.00  0.00     0.134 A 
ATOM     64  C   UNL A   1      37.773  29.117  30.191  1.00  0.00     0.134 A 
ATOM     65  F   UNL A   1      38.765  29.698  26.745  1.00  0.00    -0.206 F 
ATOM     66  C   UNL A   1      36.713  30.088  27.813  1.00  0.00     0.040 A 
ATOM     67  C   UNL A   1      36.445  29.543  30.144  1.00  0.00     0.040 A 
ATOM     68  F   UNL A   1      38.246  28.652  31.358  1.00  0.00    -0.206 F 
ATOM     69  C   UNL A   1      35.916  30.044  28.955  1.00  0.00     0.006 A 
ENDBRANCH  48  62
BRANCH  49  70
ATOM     70  C   UNL A   1      48.228  26.419  29.287  1.00  0.00     0.057 A 
ATOM     71  C   UNL A   1      49.034  26.578  28.152  1.00  0.00     0.134 A 
ATOM     72  C   UNL A   1      48.822  25.863  30.426  1.00  0.00     0.134 A 
ATOM     73  F   UNL A   1      48.524  27.101  27.027  1.00  0.00    -0.206 F 
ATOM     74  C   UNL A   1      50.372  26.183  28.142  1.00  0.00     0.040 A 
ATOM     75  C   UNL A   1      50.168  25.489  30.439  1.00  0.00     0.040 A 
ATOM     76  F   UNL A   1      48.109  25.703  31.549  1.00  0.00    -0.206 F 
ATOM     77  C   UNL A   1      50.944  25.642  29.291  1.00  0.00     0.006 A 
ENDBRANCH  49  70
BRANCH  61  78
ATOM     78  C   UNL A   1      44.807  32.323  30.791  1.00  0.00     0.057 A 
ATOM     79  C   UNL A   1      45.166  33.323  29.878  1.00  0.00     0.134 A 
ATOM     80  C   UNL A   1      44.975  32.596  32.153  1.00  0.00     0.134 A 
ATOM     81  F   UNL A   1      45.043  33.119  28.558  1.00  0.00    -0.206 F 
ATOM     82  C   UNL A   1      45.694  34.542  30.303  1.00  0.00     0.040 A 
ATOM     83  C   UNL A   1      45.475  33.822  32.591  1.00  0.00     0.040 A 
ATOM     84  F   UNL A   1      44.643  31.682  33.078  1.00  0.00    -0.206 F 
ATOM     85  C   UNL A   1      45.848  34.795  31.664  1.00  0.00     0.006 A 
ENDBRANCH  61  78
ENDBRANCH  35  36
ENDBRANCH  28  30
ENDBRANCH  27  28
ENDBRANCH  26  27
ENDBRANCH  25  26
ENDBRANCH  24  25
ENDBRANCH   1  24
TORSDOF 17
ENDMDL
MODEL 2
REMARK VINA RESULT:     -10.4      2.578      7.468
REMARK SMILES C[C@H](c1ccccc1Cl)N(C)c1cccc(F)c1C(=O)OCCOCCOC(=O)c1ccc(-c2c3nc(c(-c4c(F)cccc4F)c4ccc([nH]4)c(-c4c(F)cccc4F)c4nc(c(-c5c(F)cccc5F)c5ccc2[nH]5)C=C4)C=C3)cc1
REMARK SMILES IDX 23 1 22 2 21 3 19 4 20 5 18 6 12 7 13 8 14 9 16 10 15 11
REMARK SMILES IDX 17 12 10 13 11 14 2 15 1 16 3 17 4 18 8 19 5 20 7 21 9 22
REMARK SMILES IDX 6 23 24 24 25 25 26 26 27 27 28 28 29 29 30 30 31 31 83 32
REMARK SMILES IDX 32 33 82 34 33 35 34 36 35 37 76 38 36 39 81 40 75 41 77 42
REMARK SMILES IDX 37 43 80 44 74 45 73 46 38 48 64 49 47 50 63 51 48 52 51 53
REMARK SMILES IDX 62 54 78 55 49 56 50 57 61 59 79 60 52 61 39 62 40 63 45 64
REMARK SMILES IDX 41 65 42 66 44 67 46 68 43 69 65 70 66 71 71 72 67 73 68 74
REMARK SMILES IDX 70 75 72 76 69 77 53 78 54 79 59 80 55 81 56 82 58 83 60 84
REMARK SMILES IDX 57 85
REMARK H PARENT 77 47 51 58
REMARK Flexibility Score: inf
ROOT
ATOM      1  C   UNL A   1      34.185  24.612  24.169  1.00  0.00     0.202 C 
ENDROOT
BRANCH   1   2
ATOM      2  C   UNL A   1      33.200  24.425  25.325  1.00  0.00     0.261 C 
BRANCH   2   3
ATOM      3  O   UNL A   1      33.086  25.642  26.078  1.00  0.00    -0.460 OA
BRANCH   3   4
ATOM      4  C   UNL A   1      31.845  26.186  26.142  1.00  0.00     0.343 C 
ATOM      5  O   UNL A   1      30.807  25.572  26.325  1.00  0.00    -0.246 OA
BRANCH   4   6
ATOM      6  C   UNL A   1      31.960  27.656  26.057  1.00  0.00     0.119 A 
ATOM      7  C   UNL A   1      32.236  28.327  24.843  1.00  0.00     0.055 A 
ATOM      8  C   UNL A   1      32.351  29.732  24.914  1.00  0.00     0.027 A 
ATOM      9  C   UNL A   1      32.230  30.441  26.113  1.00  0.00     0.005 A 
ATOM     10  C   UNL A   1      31.827  28.377  27.255  1.00  0.00     0.139 A 
ATOM     11  C   UNL A   1      31.961  29.760  27.288  1.00  0.00     0.040 A 
ATOM     12  F   UNL A   1      31.581  27.750  28.416  1.00  0.00    -0.206 F 
BRANCH   7  13
ATOM     13  N   UNL A   1      32.343  27.725  23.593  1.00  0.00    -0.367 N 
ATOM     14  C   UNL A   1      33.572  27.866  22.835  1.00  0.00     0.144 C 
BRANCH  13  15
ATOM     15  C   UNL A   1      31.191  27.083  22.915  1.00  0.00     0.110 C 
ATOM     16  C   UNL A   1      31.650  26.230  21.734  1.00  0.00     0.036 C 
BRANCH  15  17
ATOM     17  C   UNL A   1      30.037  28.068  22.780  1.00  0.00    -0.007 A 
ATOM     18  C   UNL A   1      30.326  29.257  22.059  1.00  0.00     0.007 A 
ATOM     19  C   UNL A   1      28.720  27.892  23.226  1.00  0.00     0.046 A 
ATOM     20  C   UNL A   1      29.350  30.214  21.784  1.00  0.00     0.000 A 
ATOM     21  C   UNL A   1      27.743  28.866  22.957  1.00  0.00     0.021 A 
ATOM     22  Cl  UNL A   1      28.154  26.494  24.063  1.00  0.00    -0.084 Cl
ATOM     23  C   UNL A   1      28.055  30.018  22.235  1.00  0.00     0.002 A 
ENDBRANCH  15  17
ENDBRANCH  13  15
ENDBRANCH   7  13
ENDBRANCH   4   6
ENDBRANCH   3   4
ENDBRANCH   2   3
ENDBRANCH   1   2
BRANCH   1  24
ATOM     24  O   UNL A   1      34.756  23.431  23.599  1.00  0.00    -0.374 OA
BRANCH  24  25
ATOM     25  C   UNL A   1      35.479  22.564  24.465  1.00  0.00     0.202 C 
BRANCH  25  26
ATOM     26  C   UNL A   1      37.007  22.639  24.494  1.00  0.00     0.261 C 
BRANCH  26  27
ATOM     27  O   UNL A   1      37.505  23.588  25.435  1.00  0.00    -0.460 OA
BRANCH  27  28
ATOM     28  C   UNL A   1      38.562  23.132  26.145  1.00  0.00     0.338 C 
ATOM     29  O   UNL A   1      38.974  21.983  26.224  1.00  0.00    -0.246 OA
BRANCH  28  30
ATOM     30  C   UNL A   1      39.276  24.281  26.709  1.00  0.00     0.060 A 
ATOM     31  C   UNL A   1      39.147  24.513  28.083  1.00  0.00     0.016 A 
ATOM     32  C   UNL A   1      40.032  25.129  25.897  1.00  0.00     0.016 A 
ATOM     33  C   UNL A   1      39.738  25.635  28.648  1.00  0.00     0.010 A 
ATOM     34  C   UNL A   1      40.617  26.259  26.463  1.00  0.00     0.010 A 
ATOM     35  C   UNL A   1      40.437  26.533  27.830  1.00  0.00    -0.014 A 
BRANCH  35  36
ATOM     36  C   UNL A   1      40.837  27.844  28.374  1.00  0.00     0.031 A 
ATOM     37  C   UNL A   1      42.300  28.131  28.547  1.00  0.00     0.074 A 
ATOM     38  C   UNL A   1      39.906  28.763  28.680  1.00  0.00     0.049 A 
ATOM     39  N   UNL A   1      42.881  29.189  29.048  1.00  0.00    -0.248 NA
ATOM     40  C   UNL A   1      43.236  27.085  28.098  1.00  0.00     0.031 C 
ATOM     41  C   UNL A   1      38.464  28.591  28.511  1.00  0.00     0.029 A 
ATOM     42  N   UNL A   1      40.038  30.023  29.203  1.00  0.00    -0.354 N 
ATOM     43  C   UNL A   1      44.243  28.933  28.982  1.00  0.00     0.074 A 
ATOM     44  C   UNL A   1      44.407  27.611  28.422  1.00  0.00     0.031 C 
ATOM     45  C   UNL A   1      37.842  29.705  28.931  1.00  0.00     0.029 A 
ATOM     46  C   UNL A   1      38.839  30.649  29.431  1.00  0.00     0.049 A 
ATOM     47  H   UNL A   1      40.910  30.437  29.397  1.00  0.00     0.167 HD
ATOM     48  C   UNL A   1      45.264  29.741  29.349  1.00  0.00     0.037 A 
ATOM     49  C   UNL A   1      38.581  31.842  29.998  1.00  0.00     0.037 A 
ATOM     50  C   UNL A   1      45.082  31.059  29.891  1.00  0.00     0.049 A 
ATOM     51  C   UNL A   1      39.735  32.697  30.453  1.00  0.00     0.074 A 
ATOM     52  C   UNL A   1      46.050  31.971  30.272  1.00  0.00     0.029 A 
ATOM     53  N   UNL A   1      43.852  31.652  30.132  1.00  0.00    -0.354 N 
ATOM     54  N   UNL A   1      41.022  32.458  30.368  1.00  0.00    -0.248 NA
ATOM     55  C   UNL A   1      39.403  33.986  31.076  1.00  0.00     0.031 C 
ATOM     56  C   UNL A   1      45.406  33.093  30.795  1.00  0.00     0.029 A 
ATOM     57  C   UNL A   1      44.036  32.908  30.682  1.00  0.00     0.049 A 
ATOM     58  H   UNL A   1      42.978  31.241  29.939  1.00  0.00     0.167 HD
ATOM     59  C   UNL A   1      41.653  33.573  30.904  1.00  0.00     0.074 A 
ATOM     60  C   UNL A   1      40.608  34.495  31.297  1.00  0.00     0.031 C 
ATOM     61  C   UNL A   1      42.979  33.814  31.056  1.00  0.00     0.037 A 
BRANCH  48  62
ATOM     62  C   UNL A   1      46.663  29.230  29.188  1.00  0.00     0.057 A 
ATOM     63  C   UNL A   1      47.308  28.581  30.250  1.00  0.00     0.134 A 
ATOM     64  C   UNL A   1      47.405  29.457  28.023  1.00  0.00     0.134 A 
ATOM     65  F   UNL A   1      46.654  28.332  31.394  1.00  0.00    -0.206 F 
ATOM     66  C   UNL A   1      48.649  28.201  30.167  1.00  0.00     0.040 A 
ATOM     67  C   UNL A   1      48.739  29.060  27.918  1.00  0.00     0.040 A 
ATOM     68  F   UNL A   1      46.841  30.058  26.964  1.00  0.00    -0.206 F 
ATOM     69  C   UNL A   1      49.368  28.441  28.999  1.00  0.00     0.006 A 
ENDBRANCH  48  62
BRANCH  49  70
ATOM     70  C   UNL A   1      37.176  32.289  30.173  1.00  0.00     0.057 A 
ATOM     71  C   UNL A   1      36.541  33.088  29.212  1.00  0.00     0.134 A 
ATOM     72  C   UNL A   1      36.438  31.940  31.310  1.00  0.00     0.134 A 
ATOM     73  F   UNL A   1      37.194  33.460  28.101  1.00  0.00    -0.206 F 
ATOM     74  C   UNL A   1      35.231  33.538  29.384  1.00  0.00     0.040 A 
ATOM     75  C   UNL A   1      35.117  32.360  31.481  1.00  0.00     0.040 A 
ATOM     76  F   UNL A   1      36.983  31.162  32.255  1.00  0.00    -0.206 F 
ATOM     77  C   UNL A   1      34.514  33.169  30.519  1.00  0.00     0.006 A 
ENDBRANCH  49  70
BRANCH  61  78
ATOM     78  C   UNL A   1      43.386  35.131  31.647  1.00  0.00     0.057 A 
ATOM     79  C   UNL A   1      43.374  35.322  33.035  1.00  0.00     0.134 A 
ATOM     80  C   UNL A   1      43.694  36.235  30.843  1.00  0.00     0.134 A 
ATOM     81  F   UNL A   1      43.072  34.308  33.860  1.00  0.00    -0.206 F 
ATOM     82  C   UNL A   1      43.638  36.569  33.602  1.00  0.00     0.040 A 
ATOM     83  C   UNL A   1      43.988  37.480  31.400  1.00  0.00     0.040 A 
ATOM     84  F   UNL A   1      43.729  36.116  29.507  1.00  0.00    -0.206 F 
ATOM     85  C   UNL A   1      43.948  37.652  32.783  1.00  0.00     0.006 A 
ENDBRANCH  61  78
ENDBRANCH  35  36
ENDBRANCH  28  30
ENDBRANCH  27  28
ENDBRANCH  26  27
ENDBRANCH  25  26
ENDBRANCH  24  25
ENDBRANCH   1  24
TORSDOF 17
ENDMDL
MODEL 3
REMARK VINA RESULT:     -10.3      2.204      6.463
REMARK SMILES C[C@H](c1ccccc1Cl)N(C)c1cccc(F)c1C(=O)OCCOCCOC(=O)c1ccc(-c2c3nc(c(-c4c(F)cccc4F)c4ccc([nH]4)c(-c4c(F)cccc4F)c4nc(c(-c5c(F)cccc5F)c5ccc2[nH]5)C=C4)C=C3)cc1
REMARK SMILES IDX 23 1 22 2 21 3 19 4 20 5 18 6 12 7 13 8 14 9 16 10 15 11
REMARK SMILES IDX 17 12 10 13 11 14 2 15 1 16 3 17 4 18 8 19 5 20 7 21 9 22
REMARK SMILES IDX 6 23 24 24 25 25 26 26 27 27 28 28 29 29 30 30 31 31 83 32
REMARK SMILES IDX 32 33 82 34 33 35 34 36 35 37 76 38 36 39 81 40 75 41 77 42
REMARK SMILES IDX 37 43 80 44 74 45 73 46 38 48 64 49 47 50 63 51 48 52 51 53
REMARK SMILES IDX 62 54 78 55 49 56 50 57 61 59 79 60 52 61 39 62 40 63 45 64
REMARK SMILES IDX 41 65 42 66 44 67 46 68 43 69 65 70 66 71 71 72 67 73 68 74
REMARK SMILES IDX 70 75 72 76 69 77 53 78 54 79 59 80 55 81 56 82 58 83 60 84
REMARK SMILES IDX 57 85
REMARK H PARENT 77 47 51 58
REMARK Flexibility Score: inf
ROOT
ATOM      1  C   UNL A   1      34.526  22.198  26.210  1.00  0.00     0.202 C 
ENDROOT
BRANCH   1   2
ATOM      2  C   UNL A   1      34.411  23.690  26.529  1.00  0.00     0.261 C 
BRANCH   2   3
ATOM      3  O   UNL A   1      33.239  24.238  25.906  1.00  0.00    -0.460 OA
BRANCH   3   4
ATOM      4  C   UNL A   1      33.460  25.055  24.845  1.00  0.00     0.343 C 
ATOM      5  O   UNL A   1      34.512  25.168  24.240  1.00  0.00    -0.246 OA
BRANCH   4   6
ATOM      6  C   UNL A   1      32.189  25.711  24.472  1.00  0.00     0.119 A 
ATOM      7  C   UNL A   1      31.910  27.060  24.789  1.00  0.00     0.055 A 
ATOM      8  C   UNL A   1      30.644  27.549  24.401  1.00  0.00     0.027 A 
ATOM      9  C   UNL A   1      29.690  26.751  23.761  1.00  0.00     0.005 A 
ATOM     10  C   UNL A   1      31.231  24.920  23.819  1.00  0.00     0.139 A 
ATOM     11  C   UNL A   1      29.988  25.432  23.464  1.00  0.00     0.040 A 
ATOM     12  F   UNL A   1      31.478  23.633  23.527  1.00  0.00    -0.206 F 
BRANCH   7  13
ATOM     13  N   UNL A   1      32.796  27.949  25.391  1.00  0.00    -0.367 N 
ATOM     14  C   UNL A   1      33.749  28.673  24.570  1.00  0.00     0.144 C 
BRANCH  13  15
ATOM     15  C   UNL A   1      32.931  28.069  26.862  1.00  0.00     0.110 C 
ATOM     16  C   UNL A   1      31.615  27.745  27.568  1.00  0.00     0.036 C 
BRANCH  15  17
ATOM     17  C   UNL A   1      33.737  29.310  27.222  1.00  0.00    -0.007 A 
ATOM     18  C   UNL A   1      35.093  29.081  27.576  1.00  0.00     0.007 A 
ATOM     19  C   UNL A   1      33.304  30.643  27.173  1.00  0.00     0.046 A 
ATOM     20  C   UNL A   1      35.976  30.124  27.851  1.00  0.00     0.000 A 
ATOM     21  C   UNL A   1      34.195  31.690  27.465  1.00  0.00     0.021 A 
ATOM     22  Cl  UNL A   1      31.718  31.135  26.708  1.00  0.00    -0.084 Cl
ATOM     23  C   UNL A   1      35.525  31.433  27.796  1.00  0.00     0.002 A 
ENDBRANCH  15  17
ENDBRANCH  13  15
ENDBRANCH   7  13
ENDBRANCH   4   6
ENDBRANCH   3   4
ENDBRANCH   2   3
ENDBRANCH   1   2
BRANCH   1  24
ATOM     24  O   UNL A   1      35.263  21.834  25.039  1.00  0.00    -0.374 OA
BRANCH  24  25
ATOM     25  C   UNL A   1      35.794  20.516  24.977  1.00  0.00     0.202 C 
BRANCH  25  26
ATOM     26  C   UNL A   1      37.312  20.322  24.957  1.00  0.00     0.261 C 
BRANCH  26  27
ATOM     27  O   UNL A   1      38.034  21.499  25.311  1.00  0.00    -0.460 OA
BRANCH  27  28
ATOM     28  C   UNL A   1      39.163  21.244  26.011  1.00  0.00     0.338 C 
ATOM     29  O   UNL A   1      39.792  20.197  26.065  1.00  0.00    -0.246 OA
BRANCH  28  30
ATOM     30  C   UNL A   1      39.642  22.500  26.597  1.00  0.00     0.060 A 
ATOM     31  C   UNL A   1      39.055  23.689  26.149  1.00  0.00     0.016 A 
ATOM     32  C   UNL A   1      40.666  22.507  27.546  1.00  0.00     0.016 A 
ATOM     33  C   UNL A   1      39.532  24.906  26.615  1.00  0.00     0.010 A 
ATOM     34  C   UNL A   1      41.150  23.730  28.005  1.00  0.00     0.010 A 
ATOM     35  C   UNL A   1      40.610  24.929  27.511  1.00  0.00    -0.014 A 
BRANCH  35  36
ATOM     36  C   UNL A   1      41.280  26.210  27.800  1.00  0.00     0.031 A 
ATOM     37  C   UNL A   1      42.682  26.413  27.303  1.00  0.00     0.074 A 
ATOM     38  C   UNL A   1      40.633  27.178  28.471  1.00  0.00     0.049 A 
ATOM     39  N   UNL A   1      43.482  27.431  27.478  1.00  0.00    -0.248 NA
ATOM     40  C   UNL A   1      43.264  25.319  26.504  1.00  0.00     0.031 C 
ATOM     41  C   UNL A   1      39.258  27.089  28.960  1.00  0.00     0.029 A 
ATOM     42  N   UNL A   1      41.052  28.423  28.859  1.00  0.00    -0.354 N 
ATOM     43  C   UNL A   1      44.658  27.098  26.820  1.00  0.00     0.074 A 
ATOM     44  C   UNL A   1      44.485  25.775  26.268  1.00  0.00     0.031 C 
ATOM     45  C   UNL A   1      38.948  28.233  29.592  1.00  0.00     0.029 A 
ATOM     46  C   UNL A   1      40.114  29.115  29.583  1.00  0.00     0.049 A 
ATOM     47  H   UNL A   1      41.941  28.786  28.640  1.00  0.00     0.167 HD
ATOM     48  C   UNL A   1      45.778  27.844  26.684  1.00  0.00     0.037 A 
ATOM     49  C   UNL A   1      40.200  30.315  30.186  1.00  0.00     0.037 A 
ATOM     50  C   UNL A   1      45.928  29.165  27.228  1.00  0.00     0.049 A 
ATOM     51  C   UNL A   1      41.480  31.099  30.069  1.00  0.00     0.074 A 
ATOM     52  C   UNL A   1      47.013  30.017  27.126  1.00  0.00     0.029 A 
ATOM     53  N   UNL A   1      44.966  29.825  27.978  1.00  0.00    -0.354 N 
ATOM     54  N   UNL A   1      42.582  30.788  29.428  1.00  0.00    -0.248 NA
ATOM     55  C   UNL A   1      41.530  32.399  30.752  1.00  0.00     0.031 C 
ATOM     56  C   UNL A   1      46.729  31.169  27.860  1.00  0.00     0.029 A 
ATOM     57  C   UNL A   1      45.443  31.063  28.368  1.00  0.00     0.049 A 
ATOM     58  H   UNL A   1      44.076  29.466  28.199  1.00  0.00     0.167 HD
ATOM     59  C   UNL A   1      43.445  31.861  29.610  1.00  0.00     0.074 A 
ATOM     60  C   UNL A   1      42.735  32.837  30.409  1.00  0.00     0.031 C 
ATOM     61  C   UNL A   1      44.713  32.024  29.156  1.00  0.00     0.037 A 
BRANCH  48  62
ATOM     62  C   UNL A   1      46.932  27.255  25.929  1.00  0.00     0.057 A 
ATOM     63  C   UNL A   1      47.899  26.490  26.595  1.00  0.00     0.134 A 
ATOM     64  C   UNL A   1      47.139  27.518  24.570  1.00  0.00     0.134 A 
ATOM     65  F   UNL A   1      47.760  26.201  27.897  1.00  0.00    -0.206 F 
ATOM     66  C   UNL A   1      49.043  26.030  25.941  1.00  0.00     0.040 A 
ATOM     67  C   UNL A   1      48.266  27.044  23.899  1.00  0.00     0.040 A 
ATOM     68  F   UNL A   1      46.241  28.231  23.871  1.00  0.00    -0.206 F 
ATOM     69  C   UNL A   1      49.230  26.308  24.589  1.00  0.00     0.006 A 
ENDBRANCH  48  62
BRANCH  49  70
ATOM     70  C   UNL A   1      39.044  30.840  30.957  1.00  0.00     0.057 A 
ATOM     71  C   UNL A   1      38.800  30.430  32.274  1.00  0.00     0.134 A 
ATOM     72  C   UNL A   1      38.146  31.752  30.390  1.00  0.00     0.134 A 
ATOM     73  F   UNL A   1      39.620  29.554  32.874  1.00  0.00    -0.206 F 
ATOM     74  C   UNL A   1      37.698  30.894  32.994  1.00  0.00     0.040 A 
ATOM     75  C   UNL A   1      37.055  32.246  31.108  1.00  0.00     0.040 A 
ATOM     76  F   UNL A   1      38.336  32.197  29.140  1.00  0.00    -0.206 F 
ATOM     77  C   UNL A   1      36.825  31.809  32.412  1.00  0.00     0.006 A 
ENDBRANCH  49  70
BRANCH  61  78
ATOM     78  C   UNL A   1      45.411  33.311  29.483  1.00  0.00     0.057 A 
ATOM     79  C   UNL A   1      45.307  34.414  28.624  1.00  0.00     0.134 A 
ATOM     80  C   UNL A   1      46.258  33.428  30.591  1.00  0.00     0.134 A 
ATOM     81  F   UNL A   1      44.523  34.360  27.537  1.00  0.00    -0.206 F 
ATOM     82  C   UNL A   1      46.037  35.582  28.847  1.00  0.00     0.040 A 
ATOM     83  C   UNL A   1      46.970  34.602  30.839  1.00  0.00     0.040 A 
ATOM     84  F   UNL A   1      46.396  32.411  31.454  1.00  0.00    -0.206 F 
ATOM     85  C   UNL A   1      46.870  35.679  29.959  1.00  0.00     0.006 A 
ENDBRANCH  61  78
ENDBRANCH  35  36
ENDBRANCH  28  30
ENDBRANCH  27  28
ENDBRANCH  26  27
ENDBRANCH  25  26
ENDBRANCH  24  25
ENDBRANCH   1  24
TORSDOF 17
ENDMDL
