MODEL 1
REMARK VINA RESULT:     -14.7      0.000      0.000
REMARK SMILES CC(C)[C@H](NC(=O)[C@H](Cc1ccccc1)n1c(=O)[nH]c2ccccc2c1=O)C(=O)OCCOCCOC(=O)c1ccc(-c2c3nc(c(-c4c(F)cccc4F)c4ccc([nH]4)c(-c4c(F)cccc4F)c4nc(c(-c5c(F)cccc5F)c5ccc2[nH]5)C=C4)C=C3)cc1
REMARK SMILES IDX 32 1 31 2 30 3 28 4 29 5 4 6 2 7 1 8 3 9 5 10 6 11 7 13 8 14
REMARK SMILES IDX 16 15 17 16 26 17 18 18 19 19 25 20 27 21 20 22 24 24 21 25
REMARK SMILES IDX 23 26 22 27 9 28 10 29 11 30 15 31 12 32 14 33 13 34 33 35
REMARK SMILES IDX 34 36 35 37 36 38 37 39 38 40 39 41 40 42 92 43 41 44 91 45
REMARK SMILES IDX 42 46 43 47 44 48 85 49 45 50 90 51 84 52 86 53 46 54 89 55
REMARK SMILES IDX 83 56 82 57 47 59 73 60 56 61 72 62 57 63 60 64 71 65 87 66
REMARK SMILES IDX 58 67 59 68 70 70 88 71 61 72 48 73 49 74 54 75 50 76 51 77
REMARK SMILES IDX 53 78 55 79 52 80 74 81 75 82 80 83 76 84 77 85 79 86 81 87
REMARK SMILES IDX 78 88 62 89 63 90 68 91 64 92 65 93 67 94 69 95 66 96
REMARK H PARENT 5 12 19 23 86 58 60 69
REMARK Flexibility Score: inf
ROOT
ATOM      1  C   UNL A   1      34.277  21.548  26.759  1.00  0.00     0.202 C 
ENDROOT
BRANCH   1   2
ATOM      2  C   UNL A   1      32.903  22.441  26.288  1.00  0.00     0.261 C 
BRANCH   2   3
ATOM      3  O   UNL A   1      33.172  23.960  25.931  1.00  0.00    -0.462 OA
BRANCH   3   4
ATOM      4  C   UNL A   1      33.728  24.844  25.022  1.00  0.00     0.328 C 
ATOM      5  O   UNL A   1      34.937  25.023  24.934  1.00  0.00    -0.250 OA
BRANCH   4   6
ATOM      6  C   UNL A   1      32.585  25.581  23.916  1.00  0.00     0.194 C 
BRANCH   6   7
ATOM      7  C   UNL A   1      31.938  24.748  22.755  1.00  0.00     0.017 C 
ATOM      8  C   UNL A   1      32.812  23.676  22.146  1.00  0.00     0.010 C 
ATOM      9  C   UNL A   1      30.623  24.072  23.266  1.00  0.00     0.010 C 
ENDBRANCH   6   7
BRANCH   6  10
ATOM     10  N   UNL A   1      32.688  26.959  23.265  1.00  0.00    -0.341 N 
ATOM     11  C   UNL A   1      31.811  28.005  23.216  1.00  0.00     0.244 C 
ATOM     12  H   UNL A   1      33.539  27.122  22.796  1.00  0.00     0.164 HD
ATOM     13  O   UNL A   1      31.993  28.992  22.515  1.00  0.00    -0.273 OA
BRANCH  11  14
ATOM     14  C   UNL A   1      30.763  27.908  24.255  1.00  0.00     0.189 C 
BRANCH  14  15
ATOM     15  N   UNL A   1      31.594  28.505  25.653  1.00  0.00    -0.247 N 
ATOM     16  C   UNL A   1      31.983  27.674  26.701  1.00  0.00     0.329 A 
ATOM     17  C   UNL A   1      31.853  29.842  26.001  1.00  0.00     0.264 A 
ATOM     18  O   UNL A   1      31.355  26.714  27.135  1.00  0.00    -0.248 OA
ATOM     19  N   UNL A   1      33.245  27.924  27.234  1.00  0.00    -0.307 N 
ATOM     20  C   UNL A   1      32.941  30.210  26.912  1.00  0.00     0.064 A 
ATOM     21  O   UNL A   1      31.364  30.879  25.590  1.00  0.00    -0.268 OA
ATOM     22  C   UNL A   1      33.781  29.202  27.294  1.00  0.00     0.055 A 
ATOM     23  H   UNL A   1      33.773  27.169  27.580  1.00  0.00     0.171 HD
ATOM     24  C   UNL A   1      33.220  31.548  27.238  1.00  0.00     0.016 A 
ATOM     25  C   UNL A   1      35.024  29.515  27.837  1.00  0.00     0.027 A 
ATOM     26  C   UNL A   1      34.429  31.873  27.836  1.00  0.00     0.001 A 
ATOM     27  C   UNL A   1      35.355  30.859  28.080  1.00  0.00     0.002 A 
ENDBRANCH  14  15
BRANCH  14  28
ATOM     28  C   UNL A   1      29.445  28.543  23.106  1.00  0.00     0.071 C 
BRANCH  28  29
ATOM     29  C   UNL A   1      28.847  29.941  22.689  1.00  0.00    -0.045 A 
ATOM     30  C   UNL A   1      28.289  30.232  21.426  1.00  0.00     0.004 A 
ATOM     31  C   UNL A   1      28.821  31.007  23.593  1.00  0.00     0.004 A 
ATOM     32  C   UNL A   1      28.075  31.555  20.994  1.00  0.00     0.000 A 
ATOM     33  C   UNL A   1      28.583  32.331  23.189  1.00  0.00     0.000 A 
ATOM     34  C   UNL A   1      28.281  32.614  21.865  1.00  0.00     0.000 A 
ENDBRANCH  28  29
ENDBRANCH  14  28
ENDBRANCH  11  14
ENDBRANCH   6  10
ENDBRANCH   4   6
ENDBRANCH   3   4
ENDBRANCH   2   3
ENDBRANCH   1   2
BRANCH   1  35
ATOM     35  O   UNL A   1      35.649  21.596  26.277  1.00  0.00    -0.374 OA
BRANCH  35  36
ATOM     36  C   UNL A   1      36.175  20.761  25.217  1.00  0.00     0.202 C 
BRANCH  36  37
ATOM     37  C   UNL A   1      37.650  20.450  24.966  1.00  0.00     0.261 C 
BRANCH  37  38
ATOM     38  O   UNL A   1      38.499  21.555  25.199  1.00  0.00    -0.460 OA
BRANCH  38  39
ATOM     39  C   UNL A   1      39.490  21.215  26.048  1.00  0.00     0.338 C 
ATOM     40  O   UNL A   1      40.033  20.139  26.170  1.00  0.00    -0.246 OA
BRANCH  39  41
ATOM     41  C   UNL A   1      39.886  22.402  26.803  1.00  0.00     0.060 A 
ATOM     42  C   UNL A   1      39.209  23.578  26.475  1.00  0.00     0.016 A 
ATOM     43  C   UNL A   1      40.915  22.382  27.752  1.00  0.00     0.016 A 
ATOM     44  C   UNL A   1      39.590  24.767  27.068  1.00  0.00     0.010 A 
ATOM     45  C   UNL A   1      41.322  23.585  28.321  1.00  0.00     0.010 A 
ATOM     46  C   UNL A   1      40.685  24.777  27.940  1.00  0.00    -0.014 A 
BRANCH  46  47
ATOM     47  C   UNL A   1      41.314  26.078  28.219  1.00  0.00     0.031 A 
ATOM     48  C   UNL A   1      42.700  26.303  27.693  1.00  0.00     0.074 A 
ATOM     49  C   UNL A   1      40.629  27.048  28.841  1.00  0.00     0.049 A 
ATOM     50  N   UNL A   1      43.444  27.374  27.751  1.00  0.00    -0.248 NA
ATOM     51  C   UNL A   1      43.328  25.168  26.992  1.00  0.00     0.031 C 
ATOM     52  C   UNL A   1      39.257  26.939  29.330  1.00  0.00     0.029 A 
ATOM     53  N   UNL A   1      41.007  28.325  29.157  1.00  0.00    -0.354 N 
ATOM     54  C   UNL A   1      44.618  27.048  27.086  1.00  0.00     0.074 A 
ATOM     55  C   UNL A   1      44.507  25.670  26.665  1.00  0.00     0.031 C 
ATOM     56  C   UNL A   1      38.909  28.107  29.898  1.00  0.00     0.029 A 
ATOM     57  C   UNL A   1      40.042  29.029  29.830  1.00  0.00     0.049 A 
ATOM     58  H   UNL A   1      41.886  28.702  28.923  1.00  0.00     0.167 HD
ATOM     59  C   UNL A   1      45.691  27.834  26.843  1.00  0.00     0.037 A 
ATOM     60  C   UNL A   1      40.089  30.271  30.343  1.00  0.00     0.037 A 
ATOM     61  C   UNL A   1      45.799  29.194  27.297  1.00  0.00     0.049 A 
ATOM     62  C   UNL A   1      41.340  31.090  30.153  1.00  0.00     0.074 A 
ATOM     63  C   UNL A   1      46.845  30.080  27.121  1.00  0.00     0.029 A 
ATOM     64  N   UNL A   1      44.827  29.856  28.034  1.00  0.00    -0.354 N 
ATOM     65  N   UNL A   1      42.440  30.788  29.504  1.00  0.00    -0.248 NA
ATOM     66  C   UNL A   1      41.354  32.425  30.766  1.00  0.00     0.031 C 
ATOM     67  C   UNL A   1      46.532  31.259  27.806  1.00  0.00     0.029 A 
ATOM     68  C   UNL A   1      45.263  31.131  28.350  1.00  0.00     0.049 A 
ATOM     69  H   UNL A   1      43.957  29.475  28.294  1.00  0.00     0.167 HD
ATOM     70  C   UNL A   1      43.261  31.906  29.599  1.00  0.00     0.074 A 
ATOM     71  C   UNL A   1      42.524  32.896  30.360  1.00  0.00     0.031 C 
ATOM     72  C   UNL A   1      44.507  32.101  29.103  1.00  0.00     0.037 A 
BRANCH  59  73
ATOM     73  C   UNL A   1      46.837  27.222  26.096  1.00  0.00     0.057 A 
ATOM     74  C   UNL A   1      47.840  26.489  26.745  1.00  0.00     0.134 A 
ATOM     75  C   UNL A   1      46.938  27.365  24.707  1.00  0.00     0.134 A 
ATOM     76  F   UNL A   1      47.816  26.333  28.078  1.00  0.00    -0.206 F 
ATOM     77  C   UNL A   1      48.914  25.940  26.040  1.00  0.00     0.040 A 
ATOM     78  C   UNL A   1      47.991  26.796  23.989  1.00  0.00     0.040 A 
ATOM     79  F   UNL A   1      46.014  28.058  24.024  1.00  0.00    -0.206 F 
ATOM     80  C   UNL A   1      48.987  26.087  24.657  1.00  0.00     0.006 A 
ENDBRANCH  59  73
BRANCH  60  81
ATOM     81  C   UNL A   1      38.930  30.812  31.094  1.00  0.00     0.057 A 
ATOM     82  C   UNL A   1      38.697  30.461  32.429  1.00  0.00     0.134 A 
ATOM     83  C   UNL A   1      38.007  31.672  30.486  1.00  0.00     0.134 A 
ATOM     84  F   UNL A   1      39.534  29.625  33.062  1.00  0.00    -0.206 F 
ATOM     85  C   UNL A   1      37.578  30.924  33.123  1.00  0.00     0.040 A 
ATOM     86  C   UNL A   1      36.898  32.165  31.176  1.00  0.00     0.040 A 
ATOM     87  F   UNL A   1      38.172  32.050  29.209  1.00  0.00    -0.206 F 
ATOM     88  C   UNL A   1      36.676  31.782  32.497  1.00  0.00     0.006 A 
ENDBRANCH  60  81
BRANCH  72  89
ATOM     89  C   UNL A   1      45.138  33.446  29.326  1.00  0.00     0.057 A 
ATOM     90  C   UNL A   1      44.861  34.544  28.502  1.00  0.00     0.134 A 
ATOM     91  C   UNL A   1      45.995  33.656  30.415  1.00  0.00     0.134 A 
ATOM     92  F   UNL A   1      44.056  34.410  27.437  1.00  0.00    -0.206 F 
ATOM     93  C   UNL A   1      45.435  35.795  28.737  1.00  0.00     0.040 A 
ATOM     94  C   UNL A   1      46.548  34.909  30.679  1.00  0.00     0.040 A 
ATOM     95  F   UNL A   1      46.292  32.650  31.252  1.00  0.00    -0.206 F 
ATOM     96  C   UNL A   1      46.273  35.981  29.834  1.00  0.00     0.006 A 
ENDBRANCH  72  89
ENDBRANCH  46  47
ENDBRANCH  39  41
ENDBRANCH  38  39
ENDBRANCH  37  38
ENDBRANCH  36  37
ENDBRANCH  35  36
ENDBRANCH   1  35
TORSDOF 20
ENDMDL
MODEL 2
REMARK VINA RESULT:     -14.7      0.351      5.873
REMARK SMILES CC(C)[C@H](NC(=O)[C@H](Cc1ccccc1)n1c(=O)[nH]c2ccccc2c1=O)C(=O)OCCOCCOC(=O)c1ccc(-c2c3nc(c(-c4c(F)cccc4F)c4ccc([nH]4)c(-c4c(F)cccc4F)c4nc(c(-c5c(F)cccc5F)c5ccc2[nH]5)C=C4)C=C3)cc1
REMARK SMILES IDX 32 1 31 2 30 3 28 4 29 5 4 6 2 7 1 8 3 9 5 10 6 11 7 13 8 14
REMARK SMILES IDX 16 15 17 16 26 17 18 18 19 19 25 20 27 21 20 22 24 24 21 25
REMARK SMILES IDX 23 26 22 27 9 28 10 29 11 30 15 31 12 32 14 33 13 34 33 35
REMARK SMILES IDX 34 36 35 37 36 38 37 39 38 40 39 41 40 42 92 43 41 44 91 45
REMARK SMILES IDX 42 46 43 47 44 48 85 49 45 50 90 51 84 52 86 53 46 54 89 55
REMARK SMILES IDX 83 56 82 57 47 59 73 60 56 61 72 62 57 63 60 64 71 65 87 66
REMARK SMILES IDX 58 67 59 68 70 70 88 71 61 72 48 73 49 74 54 75 50 76 51 77
REMARK SMILES IDX 53 78 55 79 52 80 74 81 75 82 80 83 76 84 77 85 79 86 81 87
REMARK SMILES IDX 78 88 62 89 63 90 68 91 64 92 65 93 67 94 69 95 66 96
REMARK H PARENT 5 12 19 23 86 58 60 69
REMARK Flexibility Score: inf
ROOT
ATOM      1  C   UNL A   1      33.792  21.656  26.983  1.00  0.00     0.202 C 
ENDROOT
BRANCH   1   2
ATOM      2  C   UNL A   1      32.506  22.769  26.862  1.00  0.00     0.261 C 
BRANCH   2   3
ATOM      3  O   UNL A   1      32.877  24.163  26.209  1.00  0.00    -0.462 OA
BRANCH   3   4
ATOM      4  C   UNL A   1      33.516  24.807  25.162  1.00  0.00     0.328 C 
ATOM      5  O   UNL A   1      34.735  24.820  25.044  1.00  0.00    -0.250 OA
BRANCH   4   6
ATOM      6  C   UNL A   1      32.446  25.479  23.947  1.00  0.00     0.194 C 
BRANCH   6   7
ATOM      7  C   UNL A   1      31.896  24.590  22.779  1.00  0.00     0.017 C 
ATOM      8  C   UNL A   1      32.900  23.677  22.115  1.00  0.00     0.010 C 
ATOM      9  C   UNL A   1      30.712  23.711  23.304  1.00  0.00     0.010 C 
ENDBRANCH   6   7
BRANCH   6  10
ATOM     10  N   UNL A   1      32.579  26.831  23.248  1.00  0.00    -0.341 N 
ATOM     11  C   UNL A   1      31.716  27.885  23.143  1.00  0.00     0.244 C 
ATOM     12  H   UNL A   1      33.440  26.967  22.790  1.00  0.00     0.164 HD
ATOM     13  O   UNL A   1      31.923  28.843  22.409  1.00  0.00    -0.273 OA
BRANCH  11  14
ATOM     14  C   UNL A   1      30.647  27.839  24.164  1.00  0.00     0.189 C 
BRANCH  14  15
ATOM     15  N   UNL A   1      31.469  28.441  25.565  1.00  0.00    -0.247 N 
ATOM     16  C   UNL A   1      31.770  27.633  26.658  1.00  0.00     0.329 A 
ATOM     17  C   UNL A   1      31.801  29.773  25.867  1.00  0.00     0.264 A 
ATOM     18  O   UNL A   1      31.069  26.733  27.109  1.00  0.00    -0.248 OA
ATOM     19  N   UNL A   1      33.028  27.827  27.225  1.00  0.00    -0.307 N 
ATOM     20  C   UNL A   1      32.880  30.111  26.799  1.00  0.00     0.064 A 
ATOM     21  O   UNL A   1      31.392  30.821  25.397  1.00  0.00    -0.268 OA
ATOM     22  C   UNL A   1      33.642  29.070  27.251  1.00  0.00     0.055 A 
ATOM     23  H   UNL A   1      33.495  27.056  27.619  1.00  0.00     0.171 HD
ATOM     24  C   UNL A   1      33.233  31.442  27.081  1.00  0.00     0.016 A 
ATOM     25  C   UNL A   1      34.884  29.328  27.824  1.00  0.00     0.027 A 
ATOM     26  C   UNL A   1      34.440  31.716  27.707  1.00  0.00     0.001 A 
ATOM     27  C   UNL A   1      35.292  30.658  28.023  1.00  0.00     0.002 A 
ENDBRANCH  14  15
BRANCH  14  28
ATOM     28  C   UNL A   1      29.368  28.485  22.978  1.00  0.00     0.071 C 
BRANCH  28  29
ATOM     29  C   UNL A   1      28.764  29.884  22.575  1.00  0.00    -0.045 A 
ATOM     30  C   UNL A   1      28.248  30.200  21.300  1.00  0.00     0.004 A 
ATOM     31  C   UNL A   1      28.689  30.926  23.504  1.00  0.00     0.004 A 
ATOM     32  C   UNL A   1      28.030  31.531  20.894  1.00  0.00     0.000 A 
ATOM     33  C   UNL A   1      28.447  32.257  23.125  1.00  0.00     0.000 A 
ATOM     34  C   UNL A   1      28.188  32.569  21.798  1.00  0.00     0.000 A 
ENDBRANCH  28  29
ENDBRANCH  14  28
ENDBRANCH  11  14
ENDBRANCH   6  10
ENDBRANCH   4   6
ENDBRANCH   3   4
ENDBRANCH   2   3
ENDBRANCH   1   2
BRANCH   1  35
ATOM     35  O   UNL A   1      35.155  21.724  26.478  1.00  0.00    -0.374 OA
BRANCH  35  36
ATOM     36  C   UNL A   1      35.617  21.065  25.274  1.00  0.00     0.202 C 
BRANCH  36  37
ATOM     37  C   UNL A   1      37.038  20.572  25.008  1.00  0.00     0.261 C 
BRANCH  37  38
ATOM     38  O   UNL A   1      38.005  21.601  25.072  1.00  0.00    -0.460 OA
BRANCH  38  39
ATOM     39  C   UNL A   1      39.015  21.246  25.891  1.00  0.00     0.338 C 
ATOM     40  O   UNL A   1      39.501  20.147  26.046  1.00  0.00    -0.246 OA
BRANCH  39  41
ATOM     41  C   UNL A   1      39.517  22.445  26.560  1.00  0.00     0.060 A 
ATOM     42  C   UNL A   1      38.985  23.653  26.108  1.00  0.00     0.016 A 
ATOM     43  C   UNL A   1      40.507  22.397  27.548  1.00  0.00     0.016 A 
ATOM     44  C   UNL A   1      39.476  24.842  26.616  1.00  0.00     0.010 A 
ATOM     45  C   UNL A   1      41.027  23.593  28.032  1.00  0.00     0.010 A 
ATOM     46  C   UNL A   1      40.538  24.810  27.528  1.00  0.00    -0.014 A 
BRANCH  46  47
ATOM     47  C   UNL A   1      41.297  26.054  27.723  1.00  0.00     0.031 A 
ATOM     48  C   UNL A   1      40.635  27.154  28.500  1.00  0.00     0.074 A 
ATOM     49  C   UNL A   1      42.565  26.156  27.299  1.00  0.00     0.049 A 
ATOM     50  N   UNL A   1      41.109  28.316  28.858  1.00  0.00    -0.248 NA
ATOM     51  C   UNL A   1      39.252  26.901  28.944  1.00  0.00     0.031 C 
ATOM     52  C   UNL A   1      43.309  25.116  26.593  1.00  0.00     0.029 A 
ATOM     53  N   UNL A   1      43.449  27.194  27.414  1.00  0.00    -0.354 N 
ATOM     54  C   UNL A   1      40.091  28.926  29.579  1.00  0.00     0.074 A 
ATOM     55  C   UNL A   1      38.961  28.026  29.576  1.00  0.00     0.031 C 
ATOM     56  C   UNL A   1      44.544  25.576  26.326  1.00  0.00     0.029 A 
ATOM     57  C   UNL A   1      44.661  26.947  26.823  1.00  0.00     0.049 A 
ATOM     58  H   UNL A   1      43.236  28.037  27.877  1.00  0.00     0.167 HD
ATOM     59  C   UNL A   1      40.105  30.130  30.195  1.00  0.00     0.037 A 
ATOM     60  C   UNL A   1      45.730  27.753  26.691  1.00  0.00     0.037 A 
ATOM     61  C   UNL A   1      41.227  31.028  30.160  1.00  0.00     0.049 A 
ATOM     62  C   UNL A   1      45.679  29.134  27.293  1.00  0.00     0.074 A 
ATOM     63  C   UNL A   1      41.347  32.278  30.736  1.00  0.00     0.029 A 
ATOM     64  N   UNL A   1      42.418  30.772  29.497  1.00  0.00    -0.354 N 
ATOM     65  N   UNL A   1      44.725  29.700  27.994  1.00  0.00    -0.248 NA
ATOM     66  C   UNL A   1      46.857  29.987  27.087  1.00  0.00     0.031 C 
ATOM     67  C   UNL A   1      42.588  32.807  30.367  1.00  0.00     0.029 A 
ATOM     68  C   UNL A   1      43.269  31.857  29.620  1.00  0.00     0.049 A 
ATOM     69  H   UNL A   1      42.627  29.942  29.009  1.00  0.00     0.167 HD
ATOM     70  C   UNL A   1      45.200  30.959  28.342  1.00  0.00     0.074 A 
ATOM     71  C   UNL A   1      46.533  31.066  27.784  1.00  0.00     0.031 C 
ATOM     72  C   UNL A   1      44.595  31.937  29.060  1.00  0.00     0.037 A 
BRANCH  59  73
ATOM     73  C   UNL A   1      38.856  30.550  30.909  1.00  0.00     0.057 A 
ATOM     74  C   UNL A   1      37.935  31.438  30.336  1.00  0.00     0.134 A 
ATOM     75  C   UNL A   1      38.569  30.058  32.188  1.00  0.00     0.134 A 
ATOM     76  F   UNL A   1      38.161  31.964  29.122  1.00  0.00    -0.206 F 
ATOM     77  C   UNL A   1      36.785  31.838  31.020  1.00  0.00     0.040 A 
ATOM     78  C   UNL A   1      37.408  30.429  32.869  1.00  0.00     0.040 A 
ATOM     79  F   UNL A   1      39.410  29.208  32.796  1.00  0.00    -0.206 F 
ATOM     80  C   UNL A   1      36.516  31.327  32.288  1.00  0.00     0.006 A 
ENDBRANCH  59  73
BRANCH  60  81
ATOM     81  C   UNL A   1      46.928  27.287  25.950  1.00  0.00     0.057 A 
ATOM     82  C   UNL A   1      47.041  27.456  24.566  1.00  0.00     0.134 A 
ATOM     83  C   UNL A   1      47.979  26.632  26.606  1.00  0.00     0.134 A 
ATOM     84  F   UNL A   1      46.059  28.057  23.877  1.00  0.00    -0.206 F 
ATOM     85  C   UNL A   1      48.141  26.970  23.857  1.00  0.00     0.040 A 
ATOM     86  C   UNL A   1      49.098  26.166  25.914  1.00  0.00     0.040 A 
ATOM     87  F   UNL A   1      47.934  26.440  27.933  1.00  0.00    -0.206 F 
ATOM     88  C   UNL A   1      49.176  26.326  24.533  1.00  0.00     0.006 A 
ENDBRANCH  60  81
BRANCH  72  89
ATOM     89  C   UNL A   1      45.381  33.190  29.321  1.00  0.00     0.057 A 
ATOM     90  C   UNL A   1      45.308  34.304  28.475  1.00  0.00     0.134 A 
ATOM     91  C   UNL A   1      46.183  33.299  30.465  1.00  0.00     0.134 A 
ATOM     92  F   UNL A   1      44.565  34.263  27.358  1.00  0.00    -0.206 F 
ATOM     93  C   UNL A   1      46.025  35.471  28.744  1.00  0.00     0.040 A 
ATOM     94  C   UNL A   1      46.878  34.472  30.761  1.00  0.00     0.040 A 
ATOM     95  F   UNL A   1      46.288  32.274  31.325  1.00  0.00    -0.206 F 
ATOM     96  C   UNL A   1      46.805  35.559  29.895  1.00  0.00     0.006 A 
ENDBRANCH  72  89
ENDBRANCH  46  47
ENDBRANCH  39  41
ENDBRANCH  38  39
ENDBRANCH  37  38
ENDBRANCH  36  37
ENDBRANCH  35  36
ENDBRANCH   1  35
TORSDOF 20
ENDMDL
MODEL 3
REMARK VINA RESULT:     -13.9      1.653      6.043
REMARK SMILES CC(C)[C@H](NC(=O)[C@H](Cc1ccccc1)n1c(=O)[nH]c2ccccc2c1=O)C(=O)OCCOCCOC(=O)c1ccc(-c2c3nc(c(-c4c(F)cccc4F)c4ccc([nH]4)c(-c4c(F)cccc4F)c4nc(c(-c5c(F)cccc5F)c5ccc2[nH]5)C=C4)C=C3)cc1
REMARK SMILES IDX 32 1 31 2 30 3 28 4 29 5 4 6 2 7 1 8 3 9 5 10 6 11 7 13 8 14
REMARK SMILES IDX 16 15 17 16 26 17 18 18 19 19 25 20 27 21 20 22 24 24 21 25
REMARK SMILES IDX 23 26 22 27 9 28 10 29 11 30 15 31 12 32 14 33 13 34 33 35
REMARK SMILES IDX 34 36 35 37 36 38 37 39 38 40 39 41 40 42 92 43 41 44 91 45
REMARK SMILES IDX 42 46 43 47 44 48 85 49 45 50 90 51 84 52 86 53 46 54 89 55
REMARK SMILES IDX 83 56 82 57 47 59 73 60 56 61 72 62 57 63 60 64 71 65 87 66
REMARK SMILES IDX 58 67 59 68 70 70 88 71 61 72 48 73 49 74 54 75 50 76 51 77
REMARK SMILES IDX 53 78 55 79 52 80 74 81 75 82 80 83 76 84 77 85 79 86 81 87
REMARK SMILES IDX 78 88 62 89 63 90 68 91 64 92 65 93 67 94 69 95 66 96
REMARK H PARENT 5 12 19 23 86 58 60 69
REMARK Flexibility Score: inf
ROOT
ATOM      1  C   UNL A   1      36.120  22.796  25.531  1.00  0.00     0.202 C 
ENDROOT
BRANCH   1   2
ATOM      2  C   UNL A   1      35.266  24.254  25.305  1.00  0.00     0.261 C 
BRANCH   2   3
ATOM      3  O   UNL A   1      33.853  24.327  26.017  1.00  0.00    -0.462 OA
BRANCH   3   4
ATOM      4  C   UNL A   1      32.572  24.854  25.974  1.00  0.00     0.328 C 
ATOM      5  O   UNL A   1      31.769  24.704  26.887  1.00  0.00    -0.250 OA
BRANCH   4   6
ATOM      6  C   UNL A   1      32.237  25.864  24.582  1.00  0.00     0.194 C 
BRANCH   6   7
ATOM      7  C   UNL A   1      31.918  25.228  23.184  1.00  0.00     0.017 C 
ATOM      8  C   UNL A   1      33.098  25.048  22.257  1.00  0.00     0.010 C 
ATOM      9  C   UNL A   1      31.242  23.832  23.387  1.00  0.00     0.010 C 
ENDBRANCH   6   7
BRANCH   6  10
ATOM     10  N   UNL A   1      32.977  27.133  24.164  1.00  0.00    -0.341 N 
ATOM     11  C   UNL A   1      32.577  28.439  24.113  1.00  0.00     0.244 C 
ATOM     12  H   UNL A   1      33.908  26.984  23.879  1.00  0.00     0.164 HD
ATOM     13  O   UNL A   1      33.256  29.322  23.603  1.00  0.00    -0.273 OA
BRANCH  11  14
ATOM     14  C   UNL A   1      31.368  28.688  24.928  1.00  0.00     0.189 C 
BRANCH  14  15
ATOM     15  N   UNL A   1      32.002  29.660  26.214  1.00  0.00    -0.247 N 
ATOM     16  C   UNL A   1      32.722  29.117  27.275  1.00  0.00     0.329 A 
ATOM     17  C   UNL A   1      31.778  31.027  26.457  1.00  0.00     0.264 A 
ATOM     18  O   UNL A   1      32.509  28.037  27.817  1.00  0.00    -0.248 OA
ATOM     19  N   UNL A   1      33.835  29.846  27.686  1.00  0.00    -0.307 N 
ATOM     20  C   UNL A   1      32.708  31.835  27.251  1.00  0.00     0.064 A 
ATOM     21  O   UNL A   1      30.925  31.781  26.025  1.00  0.00    -0.268 OA
ATOM     22  C   UNL A   1      33.875  31.231  27.624  1.00  0.00     0.055 A 
ATOM     23  H   UNL A   1      34.619  29.361  28.033  1.00  0.00     0.171 HD
ATOM     24  C   UNL A   1      32.500  33.208  27.472  1.00  0.00     0.016 A 
ATOM     25  C   UNL A   1      34.948  32.012  28.044  1.00  0.00     0.027 A 
ATOM     26  C   UNL A   1      33.541  33.993  27.948  1.00  0.00     0.001 A 
ATOM     27  C   UNL A   1      34.783  33.401  28.175  1.00  0.00     0.002 A 
ENDBRANCH  14  15
BRANCH  14  28
ATOM     28  C   UNL A   1      30.310  28.976  23.425  1.00  0.00     0.071 C 
BRANCH  28  29
ATOM     29  C   UNL A   1      29.346  30.101  22.886  1.00  0.00    -0.045 A 
ATOM     30  C   UNL A   1      28.712  30.079  21.625  1.00  0.00     0.004 A 
ATOM     31  C   UNL A   1      29.042  31.219  23.667  1.00  0.00     0.004 A 
ATOM     32  C   UNL A   1      28.137  31.235  21.061  1.00  0.00     0.000 A 
ATOM     33  C   UNL A   1      28.445  32.373  23.132  1.00  0.00     0.000 A 
ATOM     34  C   UNL A   1      28.058  32.404  21.800  1.00  0.00     0.000 A 
ENDBRANCH  28  29
ENDBRANCH  14  28
ENDBRANCH  11  14
ENDBRANCH   6  10
ENDBRANCH   4   6
ENDBRANCH   3   4
ENDBRANCH   2   3
ENDBRANCH   1   2
BRANCH   1  35
ATOM     35  O   UNL A   1      36.545  21.788  24.571  1.00  0.00    -0.374 OA
BRANCH  35  36
ATOM     36  C   UNL A   1      36.825  20.407  24.903  1.00  0.00     0.202 C 
BRANCH  36  37
ATOM     37  C   UNL A   1      38.211  19.793  25.100  1.00  0.00     0.261 C 
BRANCH  37  38
ATOM     38  O   UNL A   1      39.038  20.549  25.960  1.00  0.00    -0.460 OA
BRANCH  38  39
ATOM     39  C   UNL A   1      40.256  19.980  26.059  1.00  0.00     0.338 C 
ATOM     40  O   UNL A   1      40.554  18.818  25.892  1.00  0.00    -0.246 OA
BRANCH  39  41
ATOM     41  C   UNL A   1      41.236  21.024  26.352  1.00  0.00     0.060 A 
ATOM     42  C   UNL A   1      41.227  21.508  27.662  1.00  0.00     0.016 A 
ATOM     43  C   UNL A   1      42.092  21.550  25.377  1.00  0.00     0.016 A 
ATOM     44  C   UNL A   1      42.052  22.564  27.999  1.00  0.00     0.010 A 
ATOM     45  C   UNL A   1      42.894  22.637  25.707  1.00  0.00     0.010 A 
ATOM     46  C   UNL A   1      42.835  23.166  27.007  1.00  0.00    -0.014 A 
BRANCH  46  47
ATOM     47  C   UNL A   1      43.365  24.510  27.288  1.00  0.00     0.031 A 
ATOM     48  C   UNL A   1      42.390  25.558  27.734  1.00  0.00     0.074 A 
ATOM     49  C   UNL A   1      44.683  24.750  27.231  1.00  0.00     0.049 A 
ATOM     50  N   UNL A   1      42.610  26.793  28.097  1.00  0.00    -0.248 NA
ATOM     51  C   UNL A   1      40.973  25.154  27.791  1.00  0.00     0.031 C 
ATOM     52  C   UNL A   1      45.708  23.775  26.870  1.00  0.00     0.029 A 
ATOM     53  N   UNL A   1      45.376  25.900  27.491  1.00  0.00    -0.354 N 
ATOM     54  C   UNL A   1      41.366  27.307  28.437  1.00  0.00     0.074 A 
ATOM     55  C   UNL A   1      40.390  26.268  28.203  1.00  0.00     0.031 C 
ATOM     56  C   UNL A   1      46.910  24.377  26.920  1.00  0.00     0.029 A 
ATOM     57  C   UNL A   1      46.728  25.779  27.295  1.00  0.00     0.049 A 
ATOM     58  H   UNL A   1      44.948  26.735  27.790  1.00  0.00     0.167 HD
ATOM     59  C   UNL A   1      41.068  28.538  28.912  1.00  0.00     0.037 A 
ATOM     60  C   UNL A   1      47.695  26.708  27.393  1.00  0.00     0.037 A 
ATOM     61  C   UNL A   1      42.048  29.572  29.110  1.00  0.00     0.049 A 
ATOM     62  C   UNL A   1      47.322  28.105  27.818  1.00  0.00     0.074 A 
ATOM     63  C   UNL A   1      41.858  30.860  29.572  1.00  0.00     0.029 A 
ATOM     64  N   UNL A   1      43.402  29.434  28.839  1.00  0.00    -0.354 N 
ATOM     65  N   UNL A   1      46.148  28.583  28.162  1.00  0.00    -0.248 NA
ATOM     66  C   UNL A   1      48.409  29.091  27.872  1.00  0.00     0.031 C 
ATOM     67  C   UNL A   1      43.089  31.523  29.520  1.00  0.00     0.029 A 
ATOM     68  C   UNL A   1      44.056  30.627  29.092  1.00  0.00     0.049 A 
ATOM     69  H   UNL A   1      43.832  28.610  28.513  1.00  0.00     0.167 HD
ATOM     70  C   UNL A   1      46.362  29.913  28.507  1.00  0.00     0.074 A 
ATOM     71  C   UNL A   1      47.781  30.160  28.341  1.00  0.00     0.031 C 
ATOM     72  C   UNL A   1      45.472  30.845  28.925  1.00  0.00     0.037 A 
BRANCH  59  73
ATOM     73  C   UNL A   1      39.627  28.834  29.200  1.00  0.00     0.057 A 
ATOM     74  C   UNL A   1      39.083  28.700  30.485  1.00  0.00     0.134 A 
ATOM     75  C   UNL A   1      38.772  29.262  28.178  1.00  0.00     0.134 A 
ATOM     76  F   UNL A   1      39.843  28.272  31.505  1.00  0.00    -0.206 F 
ATOM     77  C   UNL A   1      37.734  28.959  30.736  1.00  0.00     0.040 A 
ATOM     78  C   UNL A   1      37.429  29.552  28.423  1.00  0.00     0.040 A 
ATOM     79  F   UNL A   1      39.227  29.407  26.924  1.00  0.00    -0.206 F 
ATOM     80  C   UNL A   1      36.905  29.394  29.704  1.00  0.00     0.006 A 
ENDBRANCH  59  73
BRANCH  60  81
ATOM     81  C   UNL A   1      49.101  26.359  27.070  1.00  0.00     0.057 A 
ATOM     82  C   UNL A   1      49.582  26.411  25.757  1.00  0.00     0.134 A 
ATOM     83  C   UNL A   1      49.990  25.935  28.066  1.00  0.00     0.134 A 
ATOM     84  F   UNL A   1      48.774  26.790  24.756  1.00  0.00    -0.206 F 
ATOM     85  C   UNL A   1      50.888  26.030  25.442  1.00  0.00     0.040 A 
ATOM     86  C   UNL A   1      51.307  25.578  27.769  1.00  0.00     0.040 A 
ATOM     87  F   UNL A   1      49.593  25.865  29.345  1.00  0.00    -0.206 F 
ATOM     88  C   UNL A   1      51.755  25.615  26.451  1.00  0.00     0.006 A 
ENDBRANCH  60  81
BRANCH  72  89
ATOM     89  C   UNL A   1      46.007  32.205  29.275  1.00  0.00     0.057 A 
ATOM     90  C   UNL A   1      46.057  33.247  28.341  1.00  0.00     0.134 A 
ATOM     91  C   UNL A   1      46.430  32.486  30.581  1.00  0.00     0.134 A 
ATOM     92  F   UNL A   1      45.675  33.043  27.071  1.00  0.00    -0.206 F 
ATOM     93  C   UNL A   1      46.534  34.513  28.688  1.00  0.00     0.040 A 
ATOM     94  C   UNL A   1      46.878  33.755  30.947  1.00  0.00     0.040 A 
ATOM     95  F   UNL A   1      46.397  31.536  31.528  1.00  0.00    -0.206 F 
ATOM     96  C   UNL A   1      46.937  34.771  29.996  1.00  0.00     0.006 A 
ENDBRANCH  72  89
ENDBRANCH  46  47
ENDBRANCH  39  41
ENDBRANCH  38  39
ENDBRANCH  37  38
ENDBRANCH  36  37
ENDBRANCH  35  36
ENDBRANCH   1  35
TORSDOF 20
ENDMDL
