MODEL 1
REMARK VINA RESULT:     -11.0      0.000      0.000
REMARK SMILES CC(=O)c1ccccc1S(=O)(=O)N1CCC(C(=O)OCCOCCOC(=O)c2ccc(-c3c4nc(c(-c5c(F)cccc5F)c5ccc([nH]5)c(-c5c(F)cccc5F)c5nc(c(-c6c(F)cccc6F)c6ccc3[nH]6)C=C5)C=C4)cc2)CC1
REMARK SMILES IDX 21 1 20 2 19 3 17 4 18 5 16 6 13 7 14 8 83 9 15 10 82 11
REMARK SMILES IDX 10 12 11 13 12 14 9 15 4 16 5 17 6 18 8 19 7 20 2 21 1 22
REMARK SMILES IDX 3 23 22 24 23 25 24 26 25 27 26 28 27 29 28 30 29 31 81 32
REMARK SMILES IDX 30 33 80 34 31 35 32 36 33 37 74 38 34 39 79 40 73 41 75 42
REMARK SMILES IDX 35 43 78 44 72 45 71 46 36 48 62 49 45 50 61 51 46 52 49 53
REMARK SMILES IDX 60 54 76 55 47 56 48 57 59 59 77 60 50 61 37 62 38 63 43 64
REMARK SMILES IDX 39 65 40 66 42 67 44 68 41 69 63 70 64 71 69 72 65 73 66 74
REMARK SMILES IDX 68 75 70 76 67 77 51 78 52 79 57 80 53 81 54 82 56 83 58 84
REMARK SMILES IDX 55 85
REMARK H PARENT 75 47 49 58
REMARK Flexibility Score: inf
ROOT
ATOM      1  C   UNL A   1      40.264  21.591  26.124  1.00  0.00     0.202 C 
ENDROOT
BRANCH   1   2
ATOM      2  C   UNL A   1      38.933  20.941  25.736  1.00  0.00     0.261 C 
BRANCH   2   3
ATOM      3  O   UNL A   1      37.843  21.875  25.777  1.00  0.00    -0.463 OA
BRANCH   3   4
ATOM      4  C   UNL A   1      36.653  21.402  25.323  1.00  0.00     0.309 C 
ATOM      5  O   UNL A   1      36.320  20.223  25.337  1.00  0.00    -0.252 OA
BRANCH   4   6
ATOM      6  C   UNL A   1      35.738  22.489  24.794  1.00  0.00     0.102 C 
ATOM      7  N   UNL A   1      33.920  24.236  23.751  1.00  0.00    -0.198 NA
ATOM      8  C   UNL A   1      34.870  23.723  22.732  1.00  0.00     0.103 C 
ATOM      9  C   UNL A   1      33.313  23.140  24.576  1.00  0.00     0.103 C 
ATOM     10  C   UNL A   1      36.081  23.086  23.422  1.00  0.00     0.032 C 
ATOM     11  C   UNL A   1      34.299  21.990  24.796  1.00  0.00     0.032 C 
BRANCH   7  12
ATOM     12  S   UNL A   1      32.825  25.414  23.184  1.00  0.00     0.243 S 
ATOM     13  O   UNL A   1      31.509  24.809  23.156  1.00  0.00    -0.207 OA
ATOM     14  O   UNL A   1      33.392  26.014  21.995  1.00  0.00    -0.207 OA
BRANCH  12  15
ATOM     15  C   UNL A   1      32.761  26.740  24.358  1.00  0.00     0.093 A 
ATOM     16  C   UNL A   1      31.857  27.798  24.332  1.00  0.00     0.037 A 
ATOM     17  C   UNL A   1      31.849  28.741  25.376  1.00  0.00     0.013 A 
ATOM     18  C   UNL A   1      32.715  28.606  26.459  1.00  0.00     0.001 A 
ATOM     19  C   UNL A   1      33.644  26.622  25.450  1.00  0.00     0.022 A 
ATOM     20  C   UNL A   1      33.611  27.544  26.497  1.00  0.00     0.001 A 
BRANCH  16  21
ATOM     21  C   UNL A   1      30.849  28.028  23.290  1.00  0.00     0.161 C 
ATOM     22  C   UNL A   1      29.484  27.441  23.511  1.00  0.00     0.093 C 
ATOM     23  O   UNL A   1      31.116  28.793  22.369  1.00  0.00    -0.294 OA
ENDBRANCH  16  21
ENDBRANCH  12  15
ENDBRANCH   7  12
ENDBRANCH   4   6
ENDBRANCH   3   4
ENDBRANCH   2   3
ENDBRANCH   1   2
BRANCH   1  24
ATOM     24  O   UNL A   1      41.449  20.856  25.829  1.00  0.00    -0.374 OA
BRANCH  24  25
ATOM     25  C   UNL A   1      42.696  21.370  26.298  1.00  0.00     0.202 C 
BRANCH  25  26
ATOM     26  C   UNL A   1      43.642  21.963  25.246  1.00  0.00     0.261 C 
BRANCH  26  27
ATOM     27  O   UNL A   1      43.151  23.208  24.708  1.00  0.00    -0.460 OA
BRANCH  27  28
ATOM     28  C   UNL A   1      43.888  24.296  25.042  1.00  0.00     0.338 C 
ATOM     29  O   UNL A   1      44.995  24.598  24.630  1.00  0.00    -0.246 OA
BRANCH  28  30
ATOM     30  C   UNL A   1      43.096  25.213  25.880  1.00  0.00     0.060 A 
ATOM     31  C   UNL A   1      43.589  26.512  26.066  1.00  0.00     0.016 A 
ATOM     32  C   UNL A   1      41.973  24.772  26.579  1.00  0.00     0.016 A 
ATOM     33  C   UNL A   1      42.988  27.359  26.994  1.00  0.00     0.010 A 
ATOM     34  C   UNL A   1      41.375  25.621  27.517  1.00  0.00     0.010 A 
ATOM     35  C   UNL A   1      41.905  26.903  27.758  1.00  0.00    -0.014 A 
BRANCH  35  36
ATOM     36  C   UNL A   1      41.443  27.709  28.915  1.00  0.00     0.031 A 
ATOM     37  C   UNL A   1      42.182  27.601  30.222  1.00  0.00     0.074 A 
ATOM     38  C   UNL A   1      40.413  28.565  28.792  1.00  0.00     0.049 A 
ATOM     39  N   UNL A   1      41.949  28.203  31.361  1.00  0.00    -0.248 NA
ATOM     40  C   UNL A   1      43.340  26.692  30.248  1.00  0.00     0.031 C 
ATOM     41  C   UNL A   1      39.647  28.793  27.569  1.00  0.00     0.029 A 
ATOM     42  N   UNL A   1      39.836  29.399  29.714  1.00  0.00    -0.354 N 
ATOM     43  C   UNL A   1      42.924  27.745  32.237  1.00  0.00     0.074 A 
ATOM     44  C   UNL A   1      43.734  26.791  31.509  1.00  0.00     0.031 C 
ATOM     45  C   UNL A   1      38.692  29.707  27.819  1.00  0.00     0.029 A 
ATOM     46  C   UNL A   1      38.764  30.104  29.223  1.00  0.00     0.049 A 
ATOM     47  H   UNL A   1      40.159  29.486  30.640  1.00  0.00     0.167 HD
ATOM     48  C   UNL A   1      43.136  28.095  33.528  1.00  0.00     0.037 A 
ATOM     49  C   UNL A   1      37.928  30.959  29.844  1.00  0.00     0.037 A 
ATOM     50  C   UNL A   1      42.333  29.043  34.253  1.00  0.00     0.049 A 
ATOM     51  C   UNL A   1      38.142  31.279  31.299  1.00  0.00     0.074 A 
ATOM     52  C   UNL A   1      42.472  29.471  35.562  1.00  0.00     0.029 A 
ATOM     53  N   UNL A   1      41.237  29.711  33.729  1.00  0.00    -0.354 N 
ATOM     54  N   UNL A   1      39.078  30.854  32.112  1.00  0.00    -0.248 NA
ATOM     55  C   UNL A   1      37.183  32.204  31.921  1.00  0.00     0.031 C 
ATOM     56  C   UNL A   1      41.433  30.364  35.845  1.00  0.00     0.029 A 
ATOM     57  C   UNL A   1      40.677  30.531  34.696  1.00  0.00     0.049 A 
ATOM     58  H   UNL A   1      40.905  29.617  32.808  1.00  0.00     0.167 HD
ATOM     59  C   UNL A   1      38.841  31.482  33.330  1.00  0.00     0.074 A 
ATOM     60  C   UNL A   1      37.678  32.325  33.145  1.00  0.00     0.031 C 
ATOM     61  C   UNL A   1      39.527  31.375  34.494  1.00  0.00     0.037 A 
BRANCH  48  62
ATOM     62  C   UNL A   1      44.270  27.425  34.248  1.00  0.00     0.057 A 
ATOM     63  C   UNL A   1      44.111  26.192  34.893  1.00  0.00     0.134 A 
ATOM     64  C   UNL A   1      45.544  28.007  34.270  1.00  0.00     0.134 A 
ATOM     65  F   UNL A   1      42.913  25.589  34.922  1.00  0.00    -0.206 F 
ATOM     66  C   UNL A   1      45.173  25.573  35.556  1.00  0.00     0.040 A 
ATOM     67  C   UNL A   1      46.619  27.385  34.907  1.00  0.00     0.040 A 
ATOM     68  F   UNL A   1      45.765  29.185  33.668  1.00  0.00    -0.206 F 
ATOM     69  C   UNL A   1      46.433  26.168  35.558  1.00  0.00     0.006 A 
ENDBRANCH  48  62
BRANCH  49  70
ATOM     70  C   UNL A   1      36.801  31.570  29.095  1.00  0.00     0.057 A 
ATOM     71  C   UNL A   1      36.850  32.903  28.670  1.00  0.00     0.134 A 
ATOM     72  C   UNL A   1      35.639  30.845  28.810  1.00  0.00     0.134 A 
ATOM     73  F   UNL A   1      37.928  33.657  28.935  1.00  0.00    -0.206 F 
ATOM     74  C   UNL A   1      35.778  33.498  28.005  1.00  0.00     0.040 A 
ATOM     75  C   UNL A   1      34.568  31.420  28.123  1.00  0.00     0.040 A 
ATOM     76  F   UNL A   1      35.530  29.563  29.189  1.00  0.00    -0.206 F 
ATOM     77  C   UNL A   1      34.633  32.754  27.725  1.00  0.00     0.006 A 
ENDBRANCH  49  70
BRANCH  61  78
ATOM     78  C   UNL A   1      39.067  32.221  35.645  1.00  0.00     0.057 A 
ATOM     79  C   UNL A   1      39.452  33.561  35.783  1.00  0.00     0.134 A 
ATOM     80  C   UNL A   1      38.196  31.697  36.609  1.00  0.00     0.134 A 
ATOM     81  F   UNL A   1      40.294  34.120  34.901  1.00  0.00    -0.206 F 
ATOM     82  C   UNL A   1      39.007  34.340  36.852  1.00  0.00     0.040 A 
ATOM     83  C   UNL A   1      37.724  32.473  37.668  1.00  0.00     0.040 A 
ATOM     84  F   UNL A   1      37.779  30.424  36.530  1.00  0.00    -0.206 F 
ATOM     85  C   UNL A   1      38.136  33.799  37.795  1.00  0.00     0.006 A 
ENDBRANCH  61  78
ENDBRANCH  35  36
ENDBRANCH  28  30
ENDBRANCH  27  28
ENDBRANCH  26  27
ENDBRANCH  25  26
ENDBRANCH  24  25
ENDBRANCH   1  24
TORSDOF 17
ENDMDL
MODEL 2
REMARK VINA RESULT:     -10.9      4.653      9.981
REMARK SMILES CC(=O)c1ccccc1S(=O)(=O)N1CCC(C(=O)OCCOCCOC(=O)c2ccc(-c3c4nc(c(-c5c(F)cccc5F)c5ccc([nH]5)c(-c5c(F)cccc5F)c5nc(c(-c6c(F)cccc6F)c6ccc3[nH]6)C=C5)C=C4)cc2)CC1
REMARK SMILES IDX 21 1 20 2 19 3 17 4 18 5 16 6 13 7 14 8 83 9 15 10 82 11
REMARK SMILES IDX 10 12 11 13 12 14 9 15 4 16 5 17 6 18 8 19 7 20 2 21 1 22
REMARK SMILES IDX 3 23 22 24 23 25 24 26 25 27 26 28 27 29 28 30 29 31 81 32
REMARK SMILES IDX 30 33 80 34 31 35 32 36 33 37 74 38 34 39 79 40 73 41 75 42
REMARK SMILES IDX 35 43 78 44 72 45 71 46 36 48 62 49 45 50 61 51 46 52 49 53
REMARK SMILES IDX 60 54 76 55 47 56 48 57 59 59 77 60 50 61 37 62 38 63 43 64
REMARK SMILES IDX 39 65 40 66 42 67 44 68 41 69 63 70 64 71 69 72 65 73 66 74
REMARK SMILES IDX 68 75 70 76 67 77 51 78 52 79 57 80 53 81 54 82 56 83 58 84
REMARK SMILES IDX 55 85
REMARK H PARENT 75 47 49 58
REMARK Flexibility Score: inf
ROOT
ATOM      1  C   UNL A   1      32.905  35.030  29.092  1.00  0.00     0.202 C 
ENDROOT
BRANCH   1   2
ATOM      2  C   UNL A   1      33.676  34.200  28.061  1.00  0.00     0.261 C 
BRANCH   2   3
ATOM      3  O   UNL A   1      33.002  32.974  27.740  1.00  0.00    -0.463 OA
BRANCH   3   4
ATOM      4  C   UNL A   1      33.781  31.861  27.750  1.00  0.00     0.309 C 
ATOM      5  O   UNL A   1      34.950  31.830  28.118  1.00  0.00    -0.252 OA
BRANCH   4   6
ATOM      6  C   UNL A   1      33.059  30.618  27.266  1.00  0.00     0.102 C 
ATOM      7  N   UNL A   1      31.982  28.339  26.223  1.00  0.00    -0.198 NA
ATOM      8  C   UNL A   1      31.730  29.531  25.375  1.00  0.00     0.103 C 
ATOM      9  C   UNL A   1      33.423  28.210  26.620  1.00  0.00     0.103 C 
ATOM     10  C   UNL A   1      31.991  30.808  26.179  1.00  0.00     0.032 C 
ATOM     11  C   UNL A   1      34.077  29.580  26.815  1.00  0.00     0.032 C 
BRANCH   7  12
ATOM     12  S   UNL A   1      31.243  26.901  25.680  1.00  0.00     0.243 S 
ATOM     13  O   UNL A   1      30.436  27.236  24.524  1.00  0.00    -0.207 OA
ATOM     14  O   UNL A   1      30.660  26.238  26.826  1.00  0.00    -0.207 OA
BRANCH  12  15
ATOM     15  C   UNL A   1      32.507  25.789  25.125  1.00  0.00     0.093 A 
ATOM     16  C   UNL A   1      33.244  25.925  23.951  1.00  0.00     0.037 A 
ATOM     17  C   UNL A   1      34.286  25.025  23.668  1.00  0.00     0.013 A 
ATOM     18  C   UNL A   1      34.615  24.015  24.570  1.00  0.00     0.001 A 
ATOM     19  C   UNL A   1      32.837  24.755  26.023  1.00  0.00     0.022 A 
ATOM     20  C   UNL A   1      33.892  23.882  25.750  1.00  0.00     0.001 A 
BRANCH  16  21
ATOM     21  C   UNL A   1      33.049  26.976  22.945  1.00  0.00     0.161 C 
ATOM     22  C   UNL A   1      34.008  28.133  22.963  1.00  0.00     0.093 C 
ATOM     23  O   UNL A   1      32.219  26.799  22.060  1.00  0.00    -0.294 OA
ENDBRANCH  16  21
ENDBRANCH  12  15
ENDBRANCH   7  12
ENDBRANCH   4   6
ENDBRANCH   3   4
ENDBRANCH   2   3
ENDBRANCH   1   2
BRANCH   1  24
ATOM     24  O   UNL A   1      33.320  34.917  30.450  1.00  0.00    -0.374 OA
BRANCH  24  25
ATOM     25  C   UNL A   1      34.495  34.157  30.735  1.00  0.00     0.202 C 
BRANCH  25  26
ATOM     26  C   UNL A   1      34.582  33.507  32.122  1.00  0.00     0.261 C 
BRANCH  26  27
ATOM     27  O   UNL A   1      35.085  32.157  32.063  1.00  0.00    -0.460 OA
BRANCH  27  28
ATOM     28  C   UNL A   1      36.255  31.961  32.721  1.00  0.00     0.338 C 
ATOM     29  O   UNL A   1      36.497  32.200  33.892  1.00  0.00    -0.246 OA
BRANCH  28  30
ATOM     30  C   UNL A   1      37.209  31.236  31.864  1.00  0.00     0.060 A 
ATOM     31  C   UNL A   1      38.130  30.388  32.492  1.00  0.00     0.016 A 
ATOM     32  C   UNL A   1      37.292  31.487  30.494  1.00  0.00     0.016 A 
ATOM     33  C   UNL A   1      39.172  29.825  31.759  1.00  0.00     0.010 A 
ATOM     34  C   UNL A   1      38.345  30.928  29.760  1.00  0.00     0.010 A 
ATOM     35  C   UNL A   1      39.312  30.129  30.398  1.00  0.00    -0.014 A 
BRANCH  35  36
ATOM     36  C   UNL A   1      40.559  29.741  29.694  1.00  0.00     0.031 A 
ATOM     37  C   UNL A   1      40.683  28.346  29.142  1.00  0.00     0.074 A 
ATOM     38  C   UNL A   1      41.548  30.631  29.502  1.00  0.00     0.049 A 
ATOM     39  N   UNL A   1      41.681  27.791  28.502  1.00  0.00    -0.248 NA
ATOM     40  C   UNL A   1      39.524  27.459  29.337  1.00  0.00     0.031 C 
ATOM     41  C   UNL A   1      41.530  32.023  29.947  1.00  0.00     0.029 A 
ATOM     42  N   UNL A   1      42.763  30.491  28.881  1.00  0.00    -0.354 N 
ATOM     43  C   UNL A   1      41.274  26.492  28.223  1.00  0.00     0.074 A 
ATOM     44  C   UNL A   1      39.952  26.331  28.788  1.00  0.00     0.031 C 
ATOM     45  C   UNL A   1      42.686  32.609  29.589  1.00  0.00     0.029 A 
ATOM     46  C   UNL A   1      43.534  31.627  28.916  1.00  0.00     0.049 A 
ATOM     47  H   UNL A   1      43.056  29.655  28.450  1.00  0.00     0.167 HD
ATOM     48  C   UNL A   1      41.936  25.524  27.546  1.00  0.00     0.037 A 
ATOM     49  C   UNL A   1      44.786  31.842  28.470  1.00  0.00     0.037 A 
ATOM     50  C   UNL A   1      43.250  25.683  26.981  1.00  0.00     0.049 A 
ATOM     51  C   UNL A   1      45.529  30.729  27.782  1.00  0.00     0.074 A 
ATOM     52  C   UNL A   1      44.002  24.763  26.270  1.00  0.00     0.029 A 
ATOM     53  N   UNL A   1      44.010  26.839  27.067  1.00  0.00    -0.354 N 
ATOM     54  N   UNL A   1      45.128  29.511  27.507  1.00  0.00    -0.248 NA
ATOM     55  C   UNL A   1      46.899  31.022  27.336  1.00  0.00     0.031 C 
ATOM     56  C   UNL A   1      45.235  25.348  25.964  1.00  0.00     0.029 A 
ATOM     57  C   UNL A   1      45.231  26.649  26.440  1.00  0.00     0.049 A 
ATOM     58  H   UNL A   1      43.725  27.671  27.508  1.00  0.00     0.167 HD
ATOM     59  C   UNL A   1      46.181  28.905  26.830  1.00  0.00     0.074 A 
ATOM     60  C   UNL A   1      47.234  29.893  26.727  1.00  0.00     0.031 C 
ATOM     61  C   UNL A   1      46.266  27.646  26.335  1.00  0.00     0.037 A 
BRANCH  48  62
ATOM     62  C   UNL A   1      41.255  24.194  27.401  1.00  0.00     0.057 A 
ATOM     63  C   UNL A   1      40.199  23.997  26.502  1.00  0.00     0.134 A 
ATOM     64  C   UNL A   1      41.681  23.089  28.150  1.00  0.00     0.134 A 
ATOM     65  F   UNL A   1      39.733  25.018  25.767  1.00  0.00    -0.206 F 
ATOM     66  C   UNL A   1      39.575  22.756  26.370  1.00  0.00     0.040 A 
ATOM     67  C   UNL A   1      41.082  21.836  28.007  1.00  0.00     0.040 A 
ATOM     68  F   UNL A   1      42.690  23.208  29.025  1.00  0.00    -0.206 F 
ATOM     69  C   UNL A   1      40.022  21.669  27.120  1.00  0.00     0.006 A 
ENDBRANCH  48  62
BRANCH  49  70
ATOM     70  C   UNL A   1      45.428  33.167  28.667  1.00  0.00     0.057 A 
ATOM     71  C   UNL A   1      46.154  33.456  29.827  1.00  0.00     0.134 A 
ATOM     72  C   UNL A   1      45.306  34.182  27.711  1.00  0.00     0.134 A 
ATOM     73  F   UNL A   1      46.286  32.532  30.790  1.00  0.00    -0.206 F 
ATOM     74  C   UNL A   1      46.723  34.712  30.039  1.00  0.00     0.040 A 
ATOM     75  C   UNL A   1      45.890  35.436  27.898  1.00  0.00     0.040 A 
ATOM     76  F   UNL A   1      44.623  33.967  26.577  1.00  0.00    -0.206 F 
ATOM     77  C   UNL A   1      46.595  35.706  29.070  1.00  0.00     0.006 A 
ENDBRANCH  49  70
BRANCH  61  78
ATOM     78  C   UNL A   1      47.521  27.280  25.597  1.00  0.00     0.057 A 
ATOM     79  C   UNL A   1      48.629  26.722  26.248  1.00  0.00     0.134 A 
ATOM     80  C   UNL A   1      47.607  27.455  24.210  1.00  0.00     0.134 A 
ATOM     81  F   UNL A   1      48.616  26.540  27.577  1.00  0.00    -0.206 F 
ATOM     82  C   UNL A   1      49.786  26.375  25.548  1.00  0.00     0.040 A 
ATOM     83  C   UNL A   1      48.748  27.087  23.495  1.00  0.00     0.040 A 
ATOM     84  F   UNL A   1      46.577  27.973  23.524  1.00  0.00    -0.206 F 
ATOM     85  C   UNL A   1      49.845  26.551  24.167  1.00  0.00     0.006 A 
ENDBRANCH  61  78
ENDBRANCH  35  36
ENDBRANCH  28  30
ENDBRANCH  27  28
ENDBRANCH  26  27
ENDBRANCH  25  26
ENDBRANCH  24  25
ENDBRANCH   1  24
TORSDOF 17
ENDMDL
MODEL 3
REMARK VINA RESULT:     -10.9      2.835      8.143
REMARK SMILES CC(=O)c1ccccc1S(=O)(=O)N1CCC(C(=O)OCCOCCOC(=O)c2ccc(-c3c4nc(c(-c5c(F)cccc5F)c5ccc([nH]5)c(-c5c(F)cccc5F)c5nc(c(-c6c(F)cccc6F)c6ccc3[nH]6)C=C5)C=C4)cc2)CC1
REMARK SMILES IDX 21 1 20 2 19 3 17 4 18 5 16 6 13 7 14 8 83 9 15 10 82 11
REMARK SMILES IDX 10 12 11 13 12 14 9 15 4 16 5 17 6 18 8 19 7 20 2 21 1 22
REMARK SMILES IDX 3 23 22 24 23 25 24 26 25 27 26 28 27 29 28 30 29 31 81 32
REMARK SMILES IDX 30 33 80 34 31 35 32 36 33 37 74 38 34 39 79 40 73 41 75 42
REMARK SMILES IDX 35 43 78 44 72 45 71 46 36 48 62 49 45 50 61 51 46 52 49 53
REMARK SMILES IDX 60 54 76 55 47 56 48 57 59 59 77 60 50 61 37 62 38 63 43 64
REMARK SMILES IDX 39 65 40 66 42 67 44 68 41 69 63 70 64 71 69 72 65 73 66 74
REMARK SMILES IDX 68 75 70 76 67 77 51 78 52 79 57 80 53 81 54 82 56 83 58 84
REMARK SMILES IDX 55 85
REMARK H PARENT 75 47 49 58
REMARK Flexibility Score: inf
ROOT
ATOM      1  C   UNL A   1      32.021  29.275  26.031  1.00  0.00     0.202 C 
ENDROOT
BRANCH   1   2
ATOM      2  C   UNL A   1      31.861  29.348  24.510  1.00  0.00     0.261 C 
BRANCH   2   3
ATOM      3  O   UNL A   1      30.488  29.239  24.104  1.00  0.00    -0.463 OA
BRANCH   3   4
ATOM      4  C   UNL A   1      30.260  28.443  23.027  1.00  0.00     0.309 C 
ATOM      5  O   UNL A   1      29.537  28.738  22.082  1.00  0.00    -0.252 OA
BRANCH   4   6
ATOM      6  C   UNL A   1      31.008  27.126  23.085  1.00  0.00     0.102 C 
ATOM      7  N   UNL A   1      32.268  24.711  22.920  1.00  0.00    -0.198 NA
ATOM      8  C   UNL A   1      30.828  24.583  23.257  1.00  0.00     0.103 C 
ATOM      9  C   UNL A   1      32.505  25.608  21.742  1.00  0.00     0.103 C 
ATOM     10  C   UNL A   1      30.279  25.935  23.724  1.00  0.00     0.032 C 
ATOM     11  C   UNL A   1      31.487  26.749  21.689  1.00  0.00     0.032 C 
BRANCH   7  12
ATOM     12  S   UNL A   1      33.136  23.243  22.907  1.00  0.00     0.243 S 
ATOM     13  O   UNL A   1      33.530  22.981  21.538  1.00  0.00    -0.207 OA
ATOM     14  O   UNL A   1      32.376  22.268  23.661  1.00  0.00    -0.207 OA
BRANCH  12  15
ATOM     15  C   UNL A   1      34.625  23.458  23.844  1.00  0.00     0.093 A 
ATOM     16  C   UNL A   1      34.703  24.006  25.121  1.00  0.00     0.037 A 
ATOM     17  C   UNL A   1      35.936  24.037  25.798  1.00  0.00     0.013 A 
ATOM     18  C   UNL A   1      37.078  23.489  25.216  1.00  0.00     0.001 A 
ATOM     19  C   UNL A   1      35.788  22.920  23.258  1.00  0.00     0.022 A 
ATOM     20  C   UNL A   1      37.003  22.927  23.946  1.00  0.00     0.001 A 
BRANCH  16  21
ATOM     21  C   UNL A   1      33.574  24.560  25.877  1.00  0.00     0.161 C 
ATOM     22  C   UNL A   1      33.369  26.048  25.818  1.00  0.00     0.093 C 
ATOM     23  O   UNL A   1      32.776  23.788  26.397  1.00  0.00    -0.294 OA
ENDBRANCH  16  21
ENDBRANCH  12  15
ENDBRANCH   7  12
ENDBRANCH   4   6
ENDBRANCH   3   4
ENDBRANCH   2   3
ENDBRANCH   1   2
BRANCH   1  24
ATOM     24  O   UNL A   1      32.229  30.507  26.716  1.00  0.00    -0.374 OA
BRANCH  24  25
ATOM     25  C   UNL A   1      31.466  31.642  26.308  1.00  0.00     0.202 C 
BRANCH  25  26
ATOM     26  C   UNL A   1      31.651  32.931  27.121  1.00  0.00     0.261 C 
BRANCH  26  27
ATOM     27  O   UNL A   1      33.041  33.276  27.290  1.00  0.00    -0.460 OA
BRANCH  27  28
ATOM     28  C   UNL A   1      33.282  34.191  28.261  1.00  0.00     0.338 C 
ATOM     29  O   UNL A   1      32.621  35.181  28.529  1.00  0.00    -0.246 OA
BRANCH  28  30
ATOM     30  C   UNL A   1      34.398  33.750  29.115  1.00  0.00     0.060 A 
ATOM     31  C   UNL A   1      35.691  34.144  28.746  1.00  0.00     0.016 A 
ATOM     32  C   UNL A   1      34.200  32.859  30.169  1.00  0.00     0.016 A 
ATOM     33  C   UNL A   1      36.797  33.606  29.399  1.00  0.00     0.010 A 
ATOM     34  C   UNL A   1      35.312  32.313  30.820  1.00  0.00     0.010 A 
ATOM     35  C   UNL A   1      36.615  32.652  30.411  1.00  0.00    -0.014 A 
BRANCH  35  36
ATOM     36  C   UNL A   1      37.789  31.898  30.915  1.00  0.00     0.031 A 
ATOM     37  C   UNL A   1      38.316  32.203  32.291  1.00  0.00     0.074 A 
ATOM     38  C   UNL A   1      38.347  30.919  30.182  1.00  0.00     0.049 A 
ATOM     39  N   UNL A   1      39.332  31.677  32.928  1.00  0.00    -0.248 NA
ATOM     40  C   UNL A   1      37.601  33.241  33.052  1.00  0.00     0.031 C 
ATOM     41  C   UNL A   1      37.900  30.498  28.856  1.00  0.00     0.029 A 
ATOM     42  N   UNL A   1      39.416  30.104  30.454  1.00  0.00    -0.354 N 
ATOM     43  C   UNL A   1      39.381  32.321  34.159  1.00  0.00     0.074 A 
ATOM     44  C   UNL A   1      38.313  33.297  34.169  1.00  0.00     0.031 C 
ATOM     45  C   UNL A   1      38.696  29.503  28.425  1.00  0.00     0.029 A 
ATOM     46  C   UNL A   1      39.721  29.238  29.433  1.00  0.00     0.049 A 
ATOM     47  H   UNL A   1      39.917  30.135  31.301  1.00  0.00     0.167 HD
ATOM     48  C   UNL A   1      40.230  32.109  35.192  1.00  0.00     0.037 A 
ATOM     49  C   UNL A   1      40.725  28.347  29.319  1.00  0.00     0.037 A 
ATOM     50  C   UNL A   1      41.291  31.138  35.184  1.00  0.00     0.049 A 
ATOM     51  C   UNL A   1      41.699  28.179  30.454  1.00  0.00     0.074 A 
ATOM     52  C   UNL A   1      42.200  30.843  36.186  1.00  0.00     0.029 A 
ATOM     53  N   UNL A   1      41.588  30.303  34.118  1.00  0.00    -0.354 N 
ATOM     54  N   UNL A   1      41.724  28.780  31.619  1.00  0.00    -0.248 NA
ATOM     55  C   UNL A   1      42.781  27.204  30.260  1.00  0.00     0.031 C 
ATOM     56  C   UNL A   1      43.074  29.861  35.710  1.00  0.00     0.029 A 
ATOM     57  C   UNL A   1      42.679  29.508  34.430  1.00  0.00     0.049 A 
ATOM     58  H   UNL A   1      41.096  30.279  33.266  1.00  0.00     0.167 HD
ATOM     59  C   UNL A   1      42.803  28.234  32.307  1.00  0.00     0.074 A 
ATOM     60  C   UNL A   1      43.399  27.246  31.432  1.00  0.00     0.031 C 
ATOM     61  C   UNL A   1      43.254  28.520  33.552  1.00  0.00     0.037 A 
BRANCH  48  62
ATOM     62  C   UNL A   1      40.059  32.968  36.412  1.00  0.00     0.057 A 
ATOM     63  C   UNL A   1      39.137  32.649  37.417  1.00  0.00     0.134 A 
ATOM     64  C   UNL A   1      40.848  34.111  36.596  1.00  0.00     0.134 A 
ATOM     65  F   UNL A   1      38.341  31.576  37.294  1.00  0.00    -0.206 F 
ATOM     66  C   UNL A   1      38.989  33.449  38.551  1.00  0.00     0.040 A 
ATOM     67  C   UNL A   1      40.726  34.904  37.738  1.00  0.00     0.040 A 
ATOM     68  F   UNL A   1      41.752  34.470  35.674  1.00  0.00    -0.206 F 
ATOM     69  C   UNL A   1      39.790  34.578  38.717  1.00  0.00     0.006 A 
ENDBRANCH  48  62
BRANCH  49  70
ATOM     70  C   UNL A   1      40.869  27.545  28.078  1.00  0.00     0.057 A 
ATOM     71  C   UNL A   1      41.640  28.003  27.003  1.00  0.00     0.134 A 
ATOM     72  C   UNL A   1      40.219  26.315  27.927  1.00  0.00     0.134 A 
ATOM     73  F   UNL A   1      42.268  29.186  27.078  1.00  0.00    -0.206 F 
ATOM     74  C   UNL A   1      41.745  27.276  25.817  1.00  0.00     0.040 A 
ATOM     75  C   UNL A   1      40.335  25.565  26.756  1.00  0.00     0.040 A 
ATOM     76  F   UNL A   1      39.466  25.820  28.921  1.00  0.00    -0.206 F 
ATOM     77  C   UNL A   1      41.094  26.049  25.693  1.00  0.00     0.006 A 
ENDBRANCH  49  70
BRANCH  61  78
ATOM     78  C   UNL A   1      44.423  27.727  34.061  1.00  0.00     0.057 A 
ATOM     79  C   UNL A   1      44.259  26.493  34.704  1.00  0.00     0.134 A 
ATOM     80  C   UNL A   1      45.732  28.188  33.871  1.00  0.00     0.134 A 
ATOM     81  F   UNL A   1      43.032  26.001  34.928  1.00  0.00    -0.206 F 
ATOM     82  C   UNL A   1      45.356  25.760  35.162  1.00  0.00     0.040 A 
ATOM     83  C   UNL A   1      46.837  27.452  34.300  1.00  0.00     0.040 A 
ATOM     84  F   UNL A   1      45.959  29.357  33.252  1.00  0.00    -0.206 F 
ATOM     85  C   UNL A   1      46.649  26.235  34.954  1.00  0.00     0.006 A 
ENDBRANCH  61  78
ENDBRANCH  35  36
ENDBRANCH  28  30
ENDBRANCH  27  28
ENDBRANCH  26  27
ENDBRANCH  25  26
ENDBRANCH  24  25
ENDBRANCH   1  24
TORSDOF 17
ENDMDL
