MODEL 1
REMARK VINA RESULT:     -10.5      0.000      0.000
REMARK SMILES CC1(C)[C@H](C#N)C(SCC(=O)OCCOCCOC(=O)c2ccc(-c3c4nc(c(-c5c(F)cccc5F)c5ccc([nH]5)c(-c5c(F)cccc5F)c5nc(c(-c6c(F)cccc6F)c6ccc3[nH]6)C=C5)C=C4)cc2)=NC(=O)[C@@H]1C#N
REMARK SMILES IDX 14 1 13 2 12 3 10 4 11 5 9 6 8 7 7 8 1 9 2 10 3 11 4 12
REMARK SMILES IDX 78 13 76 14 75 15 77 16 5 17 6 18 79 19 80 20 15 21 16 22
REMARK SMILES IDX 17 23 18 24 19 25 20 26 21 27 22 28 74 29 23 30 73 31 24 32
REMARK SMILES IDX 25 33 26 34 67 35 27 36 72 37 66 38 68 39 28 40 71 41 65 42
REMARK SMILES IDX 64 43 29 45 55 46 38 47 54 48 39 49 42 50 53 51 69 52 40 53
REMARK SMILES IDX 41 54 52 56 70 57 43 58 30 59 31 60 36 61 32 62 33 63 35 64
REMARK SMILES IDX 37 65 34 66 56 67 57 68 62 69 58 70 59 71 61 72 63 73 60 74
REMARK SMILES IDX 44 75 45 76 50 77 46 78 47 79 49 80 51 81 48 82
REMARK H PARENT 68 44 42 55
REMARK Flexibility Score: inf
ROOT
ATOM      1  C   UNL A   1      42.025  20.118  26.174  1.00  0.00     0.202 C 
ENDROOT
BRANCH   1   2
ATOM      2  C   UNL A   1      41.051  21.300  26.205  1.00  0.00     0.261 C 
BRANCH   2   3
ATOM      3  O   UNL A   1      39.679  20.876  26.149  1.00  0.00    -0.463 OA
BRANCH   3   4
ATOM      4  C   UNL A   1      38.757  21.827  25.823  1.00  0.00     0.316 C 
ATOM      5  O   UNL A   1      38.763  22.973  26.256  1.00  0.00    -0.251 OA
BRANCH   4   6
ATOM      6  C   UNL A   1      37.701  21.347  24.845  1.00  0.00     0.198 C 
BRANCH   6   7
ATOM      7  S   UNL A   1      36.874  22.679  23.923  1.00  0.00    -0.097 SA
BRANCH   7   8
ATOM      8  C   UNL A   1      35.382  22.931  24.822  1.00  0.00     0.095 C 
ATOM      9  C   UNL A   1      33.969  26.000  25.718  1.00  0.00     0.015 C 
ATOM     10  C   UNL A   1      33.444  24.618  25.259  1.00  0.00     0.012 C 
ATOM     11  C   UNL A   1      32.091  24.965  24.536  1.00  0.00     0.015 C 
ATOM     12  C   UNL A   1      34.506  24.005  24.258  1.00  0.00     0.156 C 
ATOM     13  C   UNL A   1      33.209  23.706  26.514  1.00  0.00     0.191 C 
ATOM     14  C   UNL A   1      33.864  22.323  26.460  1.00  0.00     0.264 C 
ATOM     15  N   UNL A   1      35.075  22.182  25.821  1.00  0.00    -0.209 NA
ATOM     16  O   UNL A   1      33.417  21.386  27.112  1.00  0.00    -0.271 OA
BRANCH  12  17
ATOM     17  C   UNL A   1      33.694  23.308  23.180  1.00  0.00     0.073 C 
ATOM     18  N   UNL A   1      33.020  22.729  22.284  1.00  0.00    -0.198 NA
ENDBRANCH  12  17
BRANCH  13  19
ATOM     19  C   UNL A   1      31.791  23.546  26.889  1.00  0.00     0.076 C 
ATOM     20  N   UNL A   1      30.683  23.447  27.239  1.00  0.00    -0.197 NA
ENDBRANCH  13  19
ENDBRANCH   7   8
ENDBRANCH   6   7
ENDBRANCH   4   6
ENDBRANCH   3   4
ENDBRANCH   2   3
ENDBRANCH   1   2
BRANCH   1  21
ATOM     21  O   UNL A   1      42.955  20.083  25.093  1.00  0.00    -0.374 OA
BRANCH  21  22
ATOM     22  C   UNL A   1      44.257  20.607  25.333  1.00  0.00     0.202 C 
BRANCH  22  23
ATOM     23  C   UNL A   1      44.472  22.052  24.887  1.00  0.00     0.261 C 
BRANCH  23  24
ATOM     24  O   UNL A   1      44.063  23.004  25.875  1.00  0.00    -0.460 OA
BRANCH  24  25
ATOM     25  C   UNL A   1      44.309  24.282  25.510  1.00  0.00     0.338 C 
ATOM     26  O   UNL A   1      45.030  24.671  24.609  1.00  0.00    -0.246 OA
BRANCH  25  27
ATOM     27  C   UNL A   1      43.492  25.183  26.323  1.00  0.00     0.060 A 
ATOM     28  C   UNL A   1      43.917  26.507  26.461  1.00  0.00     0.016 A 
ATOM     29  C   UNL A   1      42.410  24.682  27.048  1.00  0.00     0.016 A 
ATOM     30  C   UNL A   1      43.286  27.331  27.385  1.00  0.00     0.010 A 
ATOM     31  C   UNL A   1      41.773  25.514  27.966  1.00  0.00     0.010 A 
ATOM     32  C   UNL A   1      42.240  26.824  28.169  1.00  0.00    -0.014 A 
BRANCH  32  33
ATOM     33  C   UNL A   1      41.737  27.628  29.304  1.00  0.00     0.031 A 
ATOM     34  C   UNL A   1      42.443  27.540  30.626  1.00  0.00     0.074 A 
ATOM     35  C   UNL A   1      40.692  28.453  29.127  1.00  0.00     0.049 A 
ATOM     36  N   UNL A   1      42.179  28.155  31.749  1.00  0.00    -0.248 NA
ATOM     37  C   UNL A   1      43.604  26.636  30.695  1.00  0.00     0.031 C 
ATOM     38  C   UNL A   1      39.960  28.626  27.873  1.00  0.00     0.029 A 
ATOM     39  N   UNL A   1      40.067  29.299  30.004  1.00  0.00    -0.354 N 
ATOM     40  C   UNL A   1      43.133  27.710  32.657  1.00  0.00     0.074 A 
ATOM     41  C   UNL A   1      43.959  26.745  31.965  1.00  0.00     0.031 C 
ATOM     42  C   UNL A   1      38.980  29.525  28.063  1.00  0.00     0.029 A 
ATOM     43  C   UNL A   1      38.999  29.962  29.456  1.00  0.00     0.049 A 
ATOM     44  H   UNL A   1      40.358  29.419  30.937  1.00  0.00     0.167 HD
ATOM     45  C   UNL A   1      43.307  28.084  33.945  1.00  0.00     0.037 A 
ATOM     46  C   UNL A   1      38.126  30.813  30.026  1.00  0.00     0.037 A 
ATOM     47  C   UNL A   1      42.474  29.049  34.615  1.00  0.00     0.049 A 
ATOM     48  C   UNL A   1      38.307  31.171  31.476  1.00  0.00     0.074 A 
ATOM     49  C   UNL A   1      42.570  29.522  35.911  1.00  0.00     0.029 A 
ATOM     50  N   UNL A   1      41.382  29.681  34.037  1.00  0.00    -0.354 N 
ATOM     51  N   UNL A   1      39.231  30.771  32.317  1.00  0.00    -0.248 NA
ATOM     52  C   UNL A   1      37.329  32.101  32.055  1.00  0.00     0.031 C 
ATOM     53  C   UNL A   1      41.502  30.398  36.134  1.00  0.00     0.029 A 
ATOM     54  C   UNL A   1      40.776  30.517  34.959  1.00  0.00     0.049 A 
ATOM     55  H   UNL A   1      41.082  29.554  33.108  1.00  0.00     0.167 HD
ATOM     56  C   UNL A   1      38.962  31.417  33.516  1.00  0.00     0.074 A 
ATOM     57  C   UNL A   1      37.798  32.249  33.286  1.00  0.00     0.031 C 
ATOM     58  C   UNL A   1      39.616  31.334  34.701  1.00  0.00     0.037 A 
BRANCH  45  59
ATOM     59  C   UNL A   1      44.418  27.430  34.715  1.00  0.00     0.057 A 
ATOM     60  C   UNL A   1      44.239  26.222  35.402  1.00  0.00     0.134 A 
ATOM     61  C   UNL A   1      45.693  28.009  34.755  1.00  0.00     0.134 A 
ATOM     62  F   UNL A   1      43.039  25.621  35.418  1.00  0.00    -0.206 F 
ATOM     63  C   UNL A   1      45.278  25.628  36.121  1.00  0.00     0.040 A 
ATOM     64  C   UNL A   1      46.747  27.410  35.448  1.00  0.00     0.040 A 
ATOM     65  F   UNL A   1      45.937  29.166  34.121  1.00  0.00    -0.206 F 
ATOM     66  C   UNL A   1      46.540  26.219  36.139  1.00  0.00     0.006 A 
ENDBRANCH  45  59
BRANCH  46  67
ATOM     67  C   UNL A   1      37.006  31.369  29.227  1.00  0.00     0.057 A 
ATOM     68  C   UNL A   1      37.037  32.681  28.742  1.00  0.00     0.134 A 
ATOM     69  C   UNL A   1      35.877  30.598  28.924  1.00  0.00     0.134 A 
ATOM     70  F   UNL A   1      38.083  33.476  29.011  1.00  0.00    -0.206 F 
ATOM     71  C   UNL A   1      35.980  33.212  28.000  1.00  0.00     0.040 A 
ATOM     72  C   UNL A   1      34.825  31.106  28.160  1.00  0.00     0.040 A 
ATOM     73  F   UNL A   1      35.789  29.329  29.351  1.00  0.00    -0.206 F 
ATOM     74  C   UNL A   1      34.872  32.420  27.702  1.00  0.00     0.006 A 
ENDBRANCH  46  67
BRANCH  58  75
ATOM     75  C   UNL A   1      39.103  32.186  35.826  1.00  0.00     0.057 A 
ATOM     76  C   UNL A   1      38.229  31.681  36.796  1.00  0.00     0.134 A 
ATOM     77  C   UNL A   1      39.524  33.515  35.960  1.00  0.00     0.134 A 
ATOM     78  F   UNL A   1      37.780  30.419  36.718  1.00  0.00    -0.206 F 
ATOM     79  C   UNL A   1      37.771  32.477  37.848  1.00  0.00     0.040 A 
ATOM     80  C   UNL A   1      39.097  34.311  37.023  1.00  0.00     0.040 A 
ATOM     81  F   UNL A   1      40.370  34.056  35.069  1.00  0.00    -0.206 F 
ATOM     82  C   UNL A   1      38.211  33.794  37.967  1.00  0.00     0.006 A 
ENDBRANCH  58  75
ENDBRANCH  32  33
ENDBRANCH  25  27
ENDBRANCH  24  25
ENDBRANCH  23  24
ENDBRANCH  22  23
ENDBRANCH  21  22
ENDBRANCH   1  21
TORSDOF 18
ENDMDL
MODEL 2
REMARK VINA RESULT:     -10.2      4.900      9.955
REMARK SMILES CC1(C)[C@H](C#N)C(SCC(=O)OCCOCCOC(=O)c2ccc(-c3c4nc(c(-c5c(F)cccc5F)c5ccc([nH]5)c(-c5c(F)cccc5F)c5nc(c(-c6c(F)cccc6F)c6ccc3[nH]6)C=C5)C=C4)cc2)=NC(=O)[C@@H]1C#N
REMARK SMILES IDX 14 1 13 2 12 3 10 4 11 5 9 6 8 7 7 8 1 9 2 10 3 11 4 12
REMARK SMILES IDX 78 13 76 14 75 15 77 16 5 17 6 18 79 19 80 20 15 21 16 22
REMARK SMILES IDX 17 23 18 24 19 25 20 26 21 27 22 28 74 29 23 30 73 31 24 32
REMARK SMILES IDX 25 33 26 34 67 35 27 36 72 37 66 38 68 39 28 40 71 41 65 42
REMARK SMILES IDX 64 43 29 45 55 46 38 47 54 48 39 49 42 50 53 51 69 52 40 53
REMARK SMILES IDX 41 54 52 56 70 57 43 58 30 59 31 60 36 61 32 62 33 63 35 64
REMARK SMILES IDX 37 65 34 66 56 67 57 68 62 69 58 70 59 71 61 72 63 73 60 74
REMARK SMILES IDX 44 75 45 76 50 77 46 78 47 79 49 80 51 81 48 82
REMARK H PARENT 68 44 42 55
REMARK Flexibility Score: inf
ROOT
ATOM      1  C   UNL A   1      34.193  33.101  28.236  1.00  0.00     0.202 C 
ENDROOT
BRANCH   1   2
ATOM      2  C   UNL A   1      34.687  31.784  27.628  1.00  0.00     0.261 C 
BRANCH   2   3
ATOM      3  O   UNL A   1      33.858  30.671  27.995  1.00  0.00    -0.463 OA
BRANCH   3   4
ATOM      4  C   UNL A   1      33.067  30.147  27.016  1.00  0.00     0.316 C 
ATOM      5  O   UNL A   1      31.880  30.415  26.868  1.00  0.00    -0.251 OA
BRANCH   4   6
ATOM      6  C   UNL A   1      33.791  29.190  26.088  1.00  0.00     0.198 C 
BRANCH   6   7
ATOM      7  S   UNL A   1      33.235  29.258  24.358  1.00  0.00    -0.097 SA
BRANCH   7   8
ATOM      8  C   UNL A   1      33.285  27.576  23.847  1.00  0.00     0.095 C 
ATOM      9  C   UNL A   1      34.701  24.898  25.593  1.00  0.00     0.015 C 
ATOM     10  C   UNL A   1      33.456  25.118  24.700  1.00  0.00     0.012 C 
ATOM     11  C   UNL A   1      32.428  24.059  25.242  1.00  0.00     0.015 C 
ATOM     12  C   UNL A   1      32.950  26.600  24.931  1.00  0.00     0.156 C 
ATOM     13  C   UNL A   1      33.832  24.842  23.202  1.00  0.00     0.191 C 
ATOM     14  C   UNL A   1      33.459  25.948  22.211  1.00  0.00     0.264 C 
ATOM     15  N   UNL A   1      33.514  27.261  22.622  1.00  0.00    -0.209 NA
ATOM     16  O   UNL A   1      33.278  25.698  21.024  1.00  0.00    -0.271 OA
BRANCH  12  17
ATOM     17  C   UNL A   1      31.433  26.520  24.917  1.00  0.00     0.073 C 
ATOM     18  N   UNL A   1      30.173  26.453  24.905  1.00  0.00    -0.198 NA
ENDBRANCH  12  17
BRANCH  13  19
ATOM     19  C   UNL A   1      33.340  23.552  22.682  1.00  0.00     0.076 C 
ATOM     20  N   UNL A   1      32.918  22.563  22.231  1.00  0.00    -0.197 NA
ENDBRANCH  13  19
ENDBRANCH   7   8
ENDBRANCH   6   7
ENDBRANCH   4   6
ENDBRANCH   3   4
ENDBRANCH   2   3
ENDBRANCH   1   2
BRANCH   1  21
ATOM     21  O   UNL A   1      34.915  33.597  29.361  1.00  0.00    -0.374 OA
BRANCH  21  22
ATOM     22  C   UNL A   1      34.164  34.225  30.396  1.00  0.00     0.202 C 
BRANCH  22  23
ATOM     23  C   UNL A   1      34.448  33.718  31.808  1.00  0.00     0.261 C 
BRANCH  23  24
ATOM     24  O   UNL A   1      34.799  32.329  31.839  1.00  0.00    -0.460 OA
BRANCH  24  25
ATOM     25  C   UNL A   1      35.831  32.065  32.670  1.00  0.00     0.338 C 
ATOM     26  O   UNL A   1      35.942  32.380  33.841  1.00  0.00    -0.246 OA
BRANCH  25  27
ATOM     27  C   UNL A   1      36.815  31.238  31.970  1.00  0.00     0.060 A 
ATOM     28  C   UNL A   1      37.891  30.736  32.707  1.00  0.00     0.016 A 
ATOM     29  C   UNL A   1      36.744  31.090  30.585  1.00  0.00     0.016 A 
ATOM     30  C   UNL A   1      38.946  30.126  32.040  1.00  0.00     0.010 A 
ATOM     31  C   UNL A   1      37.799  30.467  29.920  1.00  0.00     0.010 A 
ATOM     32  C   UNL A   1      38.921  30.027  30.642  1.00  0.00    -0.014 A 
BRANCH  32  33
ATOM     33  C   UNL A   1      40.142  29.594  29.930  1.00  0.00     0.031 A 
ATOM     34  C   UNL A   1      41.267  30.573  29.751  1.00  0.00     0.074 A 
ATOM     35  C   UNL A   1      40.249  28.327  29.494  1.00  0.00     0.049 A 
ATOM     36  N   UNL A   1      42.423  30.410  29.165  1.00  0.00    -0.248 NA
ATOM     37  C   UNL A   1      41.059  31.922  30.305  1.00  0.00     0.031 C 
ATOM     38  C   UNL A   1      39.222  27.297  29.646  1.00  0.00     0.029 A 
ATOM     39  N   UNL A   1      41.270  27.694  28.838  1.00  0.00    -0.354 N 
ATOM     40  C   UNL A   1      43.078  31.631  29.275  1.00  0.00     0.074 A 
ATOM     41  C   UNL A   1      42.176  32.537  29.949  1.00  0.00     0.031 C 
ATOM     42  C   UNL A   1      39.667  26.156  29.095  1.00  0.00     0.029 A 
ATOM     43  C   UNL A   1      40.991  26.387  28.526  1.00  0.00     0.049 A 
ATOM     44  H   UNL A   1      42.122  28.134  28.614  1.00  0.00     0.167 HD
ATOM     45  C   UNL A   1      44.324  31.957  28.860  1.00  0.00     0.037 A 
ATOM     46  C   UNL A   1      41.721  25.489  27.840  1.00  0.00     0.037 A 
ATOM     47  C   UNL A   1      45.208  31.039  28.191  1.00  0.00     0.049 A 
ATOM     48  C   UNL A   1      43.081  25.894  27.339  1.00  0.00     0.074 A 
ATOM     49  C   UNL A   1      46.500  31.252  27.746  1.00  0.00     0.029 A 
ATOM     50  N   UNL A   1      44.883  29.729  27.866  1.00  0.00    -0.354 N 
ATOM     51  N   UNL A   1      43.705  27.039  27.477  1.00  0.00    -0.248 NA
ATOM     52  C   UNL A   1      43.841  24.881  26.594  1.00  0.00     0.031 C 
ATOM     53  C   UNL A   1      46.934  30.089  27.100  1.00  0.00     0.029 A 
ATOM     54  C   UNL A   1      45.937  29.132  27.197  1.00  0.00     0.049 A 
ATOM     55  H   UNL A   1      44.027  29.290  28.079  1.00  0.00     0.167 HD
ATOM     56  C   UNL A   1      44.939  26.879  26.857  1.00  0.00     0.074 A 
ATOM     57  C   UNL A   1      44.979  25.518  26.361  1.00  0.00     0.031 C 
ATOM     58  C   UNL A   1      45.948  27.773  26.713  1.00  0.00     0.037 A 
BRANCH  45  59
ATOM     59  C   UNL A   1      44.787  33.366  29.092  1.00  0.00     0.057 A 
ATOM     60  C   UNL A   1      44.571  34.386  28.156  1.00  0.00     0.134 A 
ATOM     61  C   UNL A   1      45.444  33.714  30.280  1.00  0.00     0.134 A 
ATOM     62  F   UNL A   1      43.962  34.121  26.990  1.00  0.00    -0.206 F 
ATOM     63  C   UNL A   1      45.013  35.692  28.380  1.00  0.00     0.040 A 
ATOM     64  C   UNL A   1      45.867  35.021  30.528  1.00  0.00     0.040 A 
ATOM     65  F   UNL A   1      45.685  32.788  31.221  1.00  0.00    -0.206 F 
ATOM     66  C   UNL A   1      45.658  36.014  29.573  1.00  0.00     0.006 A 
ENDBRANCH  45  59
BRANCH  46  67
ATOM     67  C   UNL A   1      41.175  24.134  27.582  1.00  0.00     0.057 A 
ATOM     68  C   UNL A   1      40.169  23.921  26.633  1.00  0.00     0.134 A 
ATOM     69  C   UNL A   1      41.652  23.014  28.276  1.00  0.00     0.134 A 
ATOM     70  F   UNL A   1      39.659  24.954  25.947  1.00  0.00    -0.206 F 
ATOM     71  C   UNL A   1      39.645  22.649  26.395  1.00  0.00     0.040 A 
ATOM     72  C   UNL A   1      41.157  21.733  28.029  1.00  0.00     0.040 A 
ATOM     73  F   UNL A   1      42.623  23.148  29.192  1.00  0.00    -0.206 F 
ATOM     74  C   UNL A   1      40.144  21.549  27.091  1.00  0.00     0.006 A 
ENDBRANCH  46  67
BRANCH  58  75
ATOM     75  C   UNL A   1      47.188  27.295  26.014  1.00  0.00     0.057 A 
ATOM     76  C   UNL A   1      48.250  26.709  26.712  1.00  0.00     0.134 A 
ATOM     77  C   UNL A   1      47.299  27.387  24.621  1.00  0.00     0.134 A 
ATOM     78  F   UNL A   1      48.210  26.602  28.049  1.00  0.00    -0.206 F 
ATOM     79  C   UNL A   1      49.392  26.252  26.051  1.00  0.00     0.040 A 
ATOM     80  C   UNL A   1      48.421  26.907  23.946  1.00  0.00     0.040 A 
ATOM     81  F   UNL A   1      46.311  27.929  23.892  1.00  0.00    -0.206 F 
ATOM     82  C   UNL A   1      49.475  26.344  24.663  1.00  0.00     0.006 A 
ENDBRANCH  58  75
ENDBRANCH  32  33
ENDBRANCH  25  27
ENDBRANCH  24  25
ENDBRANCH  23  24
ENDBRANCH  22  23
ENDBRANCH  21  22
ENDBRANCH   1  21
TORSDOF 18
ENDMDL
MODEL 3
REMARK VINA RESULT:     -10.0      3.557      8.458
REMARK SMILES CC1(C)[C@H](C#N)C(SCC(=O)OCCOCCOC(=O)c2ccc(-c3c4nc(c(-c5c(F)cccc5F)c5ccc([nH]5)c(-c5c(F)cccc5F)c5nc(c(-c6c(F)cccc6F)c6ccc3[nH]6)C=C5)C=C4)cc2)=NC(=O)[C@@H]1C#N
REMARK SMILES IDX 14 1 13 2 12 3 10 4 11 5 9 6 8 7 7 8 1 9 2 10 3 11 4 12
REMARK SMILES IDX 78 13 76 14 75 15 77 16 5 17 6 18 79 19 80 20 15 21 16 22
REMARK SMILES IDX 17 23 18 24 19 25 20 26 21 27 22 28 74 29 23 30 73 31 24 32
REMARK SMILES IDX 25 33 26 34 67 35 27 36 72 37 66 38 68 39 28 40 71 41 65 42
REMARK SMILES IDX 64 43 29 45 55 46 38 47 54 48 39 49 42 50 53 51 69 52 40 53
REMARK SMILES IDX 41 54 52 56 70 57 43 58 30 59 31 60 36 61 32 62 33 63 35 64
REMARK SMILES IDX 37 65 34 66 56 67 57 68 62 69 58 70 59 71 61 72 63 73 60 74
REMARK SMILES IDX 44 75 45 76 50 77 46 78 47 79 49 80 51 81 48 82
REMARK H PARENT 68 44 42 55
REMARK Flexibility Score: inf
ROOT
ATOM      1  C   UNL A   1      31.998  29.590  25.851  1.00  0.00     0.202 C 
ENDROOT
BRANCH   1   2
ATOM      2  C   UNL A   1      31.084  29.696  24.626  1.00  0.00     0.261 C 
BRANCH   2   3
ATOM      3  O   UNL A   1      31.630  29.024  23.480  1.00  0.00    -0.463 OA
BRANCH   3   4
ATOM      4  C   UNL A   1      30.739  28.427  22.638  1.00  0.00     0.316 C 
ATOM      5  O   UNL A   1      29.904  29.031  21.974  1.00  0.00    -0.251 OA
BRANCH   4   6
ATOM      6  C   UNL A   1      30.873  26.918  22.572  1.00  0.00     0.198 C 
BRANCH   6   7
ATOM      7  S   UNL A   1      30.285  26.049  24.059  1.00  0.00    -0.097 SA
BRANCH   7   8
ATOM      8  C   UNL A   1      31.395  24.692  24.202  1.00  0.00     0.095 C 
ATOM      9  C   UNL A   1      34.677  24.787  25.404  1.00  0.00     0.015 C 
ATOM     10  C   UNL A   1      33.484  23.803  25.484  1.00  0.00     0.012 C 
ATOM     11  C   UNL A   1      33.714  23.064  26.852  1.00  0.00     0.015 C 
ATOM     12  C   UNL A   1      32.152  24.657  25.492  1.00  0.00     0.156 C 
ATOM     13  C   UNL A   1      33.548  22.807  24.273  1.00  0.00     0.191 C 
ATOM     14  C   UNL A   1      32.262  22.681  23.451  1.00  0.00     0.264 C 
ATOM     15  N   UNL A   1      31.460  23.789  23.289  1.00  0.00    -0.209 NA
ATOM     16  O   UNL A   1      32.023  21.668  22.804  1.00  0.00    -0.271 OA
BRANCH  12  17
ATOM     17  C   UNL A   1      31.221  23.949  26.462  1.00  0.00     0.073 C 
ATOM     18  N   UNL A   1      30.448  23.361  27.267  1.00  0.00    -0.198 NA
ENDBRANCH  12  17
BRANCH  13  19
ATOM     19  C   UNL A   1      34.022  21.456  24.625  1.00  0.00     0.076 C 
ATOM     20  N   UNL A   1      34.417  20.381  24.847  1.00  0.00    -0.197 NA
ENDBRANCH  13  19
ENDBRANCH   7   8
ENDBRANCH   6   7
ENDBRANCH   4   6
ENDBRANCH   3   4
ENDBRANCH   2   3
ENDBRANCH   1   2
BRANCH   1  21
ATOM     21  O   UNL A   1      32.260  30.799  26.561  1.00  0.00    -0.374 OA
BRANCH  21  22
ATOM     22  C   UNL A   1      31.276  31.827  26.489  1.00  0.00     0.202 C 
BRANCH  22  23
ATOM     23  C   UNL A   1      31.754  33.218  26.898  1.00  0.00     0.261 C 
BRANCH  23  24
ATOM     24  O   UNL A   1      33.099  33.220  27.389  1.00  0.00    -0.460 OA
BRANCH  24  25
ATOM     25  C   UNL A   1      33.309  34.150  28.347  1.00  0.00     0.338 C 
ATOM     26  O   UNL A   1      32.658  35.157  28.560  1.00  0.00    -0.246 OA
BRANCH  25  27
ATOM     27  C   UNL A   1      34.427  33.729  29.191  1.00  0.00     0.060 A 
ATOM     28  C   UNL A   1      35.708  34.176  28.853  1.00  0.00     0.016 A 
ATOM     29  C   UNL A   1      34.223  32.795  30.207  1.00  0.00     0.016 A 
ATOM     30  C   UNL A   1      36.810  33.635  29.502  1.00  0.00     0.010 A 
ATOM     31  C   UNL A   1      35.331  32.262  30.864  1.00  0.00     0.010 A 
ATOM     32  C   UNL A   1      36.627  32.647  30.480  1.00  0.00    -0.014 A 
BRANCH  32  33
ATOM     33  C   UNL A   1      37.804  31.914  30.992  1.00  0.00     0.031 A 
ATOM     34  C   UNL A   1      38.317  32.230  32.368  1.00  0.00     0.074 A 
ATOM     35  C   UNL A   1      38.370  30.952  30.244  1.00  0.00     0.049 A 
ATOM     36  N   UNL A   1      39.327  31.712  33.016  1.00  0.00    -0.248 NA
ATOM     37  C   UNL A   1      37.594  33.273  33.116  1.00  0.00     0.031 C 
ATOM     38  C   UNL A   1      37.926  30.556  28.908  1.00  0.00     0.029 A 
ATOM     39  N   UNL A   1      39.437  30.134  30.503  1.00  0.00    -0.354 N 
ATOM     40  C   UNL A   1      39.365  32.366  34.241  1.00  0.00     0.074 A 
ATOM     41  C   UNL A   1      38.301  33.346  34.233  1.00  0.00     0.031 C 
ATOM     42  C   UNL A   1      38.719  29.568  28.462  1.00  0.00     0.029 A 
ATOM     43  C   UNL A   1      39.741  29.288  29.466  1.00  0.00     0.049 A 
ATOM     44  H   UNL A   1      39.936  30.151  31.352  1.00  0.00     0.167 HD
ATOM     45  C   UNL A   1      40.206  32.157  35.280  1.00  0.00     0.037 A 
ATOM     46  C   UNL A   1      40.746  28.402  29.342  1.00  0.00     0.037 A 
ATOM     47  C   UNL A   1      41.259  31.175  35.269  1.00  0.00     0.049 A 
ATOM     48  C   UNL A   1      41.703  28.228  30.490  1.00  0.00     0.074 A 
ATOM     49  C   UNL A   1      42.157  30.859  36.273  1.00  0.00     0.029 A 
ATOM     50  N   UNL A   1      41.557  30.353  34.190  1.00  0.00    -0.354 N 
ATOM     51  N   UNL A   1      41.712  28.827  31.657  1.00  0.00    -0.248 NA
ATOM     52  C   UNL A   1      42.785  27.251  30.307  1.00  0.00     0.031 C 
ATOM     53  C   UNL A   1      43.034  29.887  35.779  1.00  0.00     0.029 A 
ATOM     54  C   UNL A   1      42.645  29.553  34.492  1.00  0.00     0.049 A 
ATOM     55  H   UNL A   1      41.066  30.342  33.337  1.00  0.00     0.167 HD
ATOM     56  C   UNL A   1      42.782  28.285  32.357  1.00  0.00     0.074 A 
ATOM     57  C   UNL A   1      43.387  27.296  31.487  1.00  0.00     0.031 C 
ATOM     58  C   UNL A   1      43.226  28.576  33.605  1.00  0.00     0.037 A 
BRANCH  45  59
ATOM     59  C   UNL A   1      40.038  33.022  36.496  1.00  0.00     0.057 A 
ATOM     60  C   UNL A   1      40.805  34.176  36.702  1.00  0.00     0.134 A 
ATOM     61  C   UNL A   1      39.079  32.706  37.468  1.00  0.00     0.134 A 
ATOM     62  F   UNL A   1      41.752  34.529  35.819  1.00  0.00    -0.206 F 
ATOM     63  C   UNL A   1      40.645  34.969  37.840  1.00  0.00     0.040 A 
ATOM     64  C   UNL A   1      38.891  33.506  38.597  1.00  0.00     0.040 A 
ATOM     65  F   UNL A   1      38.309  31.616  37.336  1.00  0.00    -0.206 F 
ATOM     66  C   UNL A   1      39.680  34.638  38.789  1.00  0.00     0.006 A 
ENDBRANCH  45  59
BRANCH  46  67
ATOM     67  C   UNL A   1      40.900  27.629  28.085  1.00  0.00     0.057 A 
ATOM     68  C   UNL A   1      40.273  26.391  27.909  1.00  0.00     0.134 A 
ATOM     69  C   UNL A   1      41.675  28.115  27.024  1.00  0.00     0.134 A 
ATOM     70  F   UNL A   1      39.530  25.865  28.893  1.00  0.00    -0.206 F 
ATOM     71  C   UNL A   1      40.424  25.656  26.732  1.00  0.00     0.040 A 
ATOM     72  C   UNL A   1      41.812  27.403  25.831  1.00  0.00     0.040 A 
ATOM     73  F   UNL A   1      42.295  29.300  27.125  1.00  0.00    -0.206 F 
ATOM     74  C   UNL A   1      41.192  26.166  25.686  1.00  0.00     0.006 A 
ENDBRANCH  46  67
BRANCH  58  75
ATOM     75  C   UNL A   1      44.403  27.793  34.110  1.00  0.00     0.057 A 
ATOM     76  C   UNL A   1      44.253  26.537  34.710  1.00  0.00     0.134 A 
ATOM     77  C   UNL A   1      45.705  28.287  33.954  1.00  0.00     0.134 A 
ATOM     78  F   UNL A   1      43.033  26.014  34.899  1.00  0.00    -0.206 F 
ATOM     79  C   UNL A   1      45.357  25.810  35.161  1.00  0.00     0.040 A 
ATOM     80  C   UNL A   1      46.817  27.556  34.373  1.00  0.00     0.040 A 
ATOM     81  F   UNL A   1      45.917  29.479  33.377  1.00  0.00    -0.206 F 
ATOM     82  C   UNL A   1      46.643  26.316  34.986  1.00  0.00     0.006 A 
ENDBRANCH  58  75
ENDBRANCH  32  33
ENDBRANCH  25  27
ENDBRANCH  24  25
ENDBRANCH  23  24
ENDBRANCH  22  23
ENDBRANCH  21  22
ENDBRANCH   1  21
TORSDOF 18
ENDMDL
