MODEL 1
REMARK VINA RESULT:     -10.2      0.000      0.000
REMARK SMILES CCCCCCNC(=O)Oc1cccc(-c2ccc([C@@H](C)C(=O)OCCOCCOC(=O)c3ccc(-c4c5nc(c(-c6c(F)cccc6F)c6ccc([nH]6)c(-c6c(F)cccc6F)c6nc(c(-c7c(F)cccc7F)c7ccc4[nH]7)C=C6)C=C5)cc3)cc2N)c1
REMARK SMILES IDX 22 1 23 2 20 3 21 4 19 5 16 6 17 7 88 8 18 9 87 10 15 11
REMARK SMILES IDX 11 12 12 13 90 14 13 15 14 16 10 17 8 18 7 19 9 21 6 22 5 23
REMARK SMILES IDX 4 24 3 25 2 26 1 27 89 28 24 31 25 32 26 33 27 34 28 35
REMARK SMILES IDX 29 36 30 37 31 38 32 39 33 40 34 41 86 42 35 43 85 44 36 45
REMARK SMILES IDX 37 46 38 47 79 48 39 49 84 50 78 51 80 52 40 53 83 54 77 55
REMARK SMILES IDX 76 56 41 58 67 59 50 60 66 61 51 62 54 63 65 64 81 65 52 66
REMARK SMILES IDX 53 67 64 69 82 70 55 71 42 72 43 73 48 74 44 75 45 76 47 77
REMARK SMILES IDX 49 78 46 79 68 80 69 81 74 82 70 83 71 84 73 85 75 86 72 87
REMARK SMILES IDX 56 88 57 89 62 90 58 91 59 92 61 93 63 94 60 95
REMARK H PARENT 7 20 89 29 89 30 80 57 54 68
REMARK Flexibility Score: inf
ROOT
ATOM      1  C   UNL A   1      33.870  34.865  28.962  1.00  0.00     0.313 C 
ATOM      2  O   UNL A   1      34.202  35.654  28.082  1.00  0.00    -0.252 OA
ENDROOT
BRANCH   1   3
ATOM      3  C   UNL A   1      34.705  33.639  29.289  1.00  0.00     0.126 C 
ATOM      4  C   UNL A   1      36.185  33.995  29.174  1.00  0.00     0.025 C 
BRANCH   3   5
ATOM      5  C   UNL A   1      34.382  32.331  28.572  1.00  0.00    -0.032 A 
ATOM      6  C   UNL A   1      34.008  29.963  27.020  1.00  0.00     0.005 A 
ATOM      7  C   UNL A   1      33.013  30.958  27.108  1.00  0.00     0.011 A 
ATOM      8  C   UNL A   1      35.191  30.141  27.774  1.00  0.00     0.040 A 
ATOM      9  C   UNL A   1      33.196  32.123  27.864  1.00  0.00     0.005 A 
ATOM     10  C   UNL A   1      35.355  31.316  28.531  1.00  0.00     0.030 A 
BRANCH   6  11
ATOM     11  C   UNL A   1      33.810  28.814  26.105  1.00  0.00    -0.013 A 
ATOM     12  C   UNL A   1      33.596  26.428  25.687  1.00  0.00     0.133 A 
ATOM     13  C   UNL A   1      33.609  26.638  24.310  1.00  0.00     0.047 A 
ATOM     14  C   UNL A   1      33.684  27.497  26.583  1.00  0.00     0.056 A 
ATOM     15  C   UNL A   1      33.695  27.937  23.820  1.00  0.00     0.004 A 
ATOM     16  C   UNL A   1      33.801  29.012  24.710  1.00  0.00     0.009 A 
BRANCH  12  17
ATOM     17  O   UNL A   1      33.653  25.089  26.115  1.00  0.00    -0.410 OA
BRANCH  17  18
ATOM     18  C   UNL A   1      32.494  24.331  26.151  1.00  0.00     0.412 C 
ATOM     19  N   UNL A   1      32.490  23.306  25.248  1.00  0.00    -0.321 N 
ATOM     20  H   UNL A   1      31.685  22.740  25.231  1.00  0.00     0.167 HD
ATOM     21  O   UNL A   1      31.533  24.520  26.895  1.00  0.00    -0.224 OA
BRANCH  19  22
ATOM     22  C   UNL A   1      33.543  22.961  24.309  1.00  0.00     0.119 C 
BRANCH  22  23
ATOM     23  C   UNL A   1      34.579  22.018  24.927  1.00  0.00     0.021 C 
BRANCH  23  24
ATOM     24  C   UNL A   1      34.333  20.526  24.668  1.00  0.00     0.002 C 
BRANCH  24  25
ATOM     25  C   UNL A   1      33.360  19.837  25.630  1.00  0.00    -0.000 C 
BRANCH  25  26
ATOM     26  C   UNL A   1      32.371  18.865  24.983  1.00  0.00    -0.003 C 
ATOM     27  C   UNL A   1      32.569  18.712  23.483  1.00  0.00     0.004 C 
ENDBRANCH  25  26
ENDBRANCH  24  25
ENDBRANCH  23  24
ENDBRANCH  22  23
ENDBRANCH  19  22
ENDBRANCH  17  18
ENDBRANCH  12  17
ENDBRANCH   6  11
BRANCH   8  28
ATOM     28  N   UNL A   1      36.271  29.265  27.694  1.00  0.00    -0.398 N 
ATOM     29  H   UNL A   1      36.187  28.348  28.041  1.00  0.00     0.156 HD
ATOM     30  H   UNL A   1      37.117  29.563  27.288  1.00  0.00     0.156 HD
ENDBRANCH   8  28
ENDBRANCH   3   5
ENDBRANCH   1   3
BRANCH   1  31
ATOM     31  O   UNL A   1      32.733  34.972  29.695  1.00  0.00    -0.463 OA
BRANCH  31  32
ATOM     32  C   UNL A   1      32.668  36.093  30.594  1.00  0.00     0.261 C 
BRANCH  32  33
ATOM     33  C   UNL A   1      33.057  35.685  32.017  1.00  0.00     0.202 C 
BRANCH  33  34
ATOM     34  O   UNL A   1      34.414  35.921  32.393  1.00  0.00    -0.374 OA
BRANCH  34  35
ATOM     35  C   UNL A   1      34.980  35.068  33.389  1.00  0.00     0.202 C 
BRANCH  35  36
ATOM     36  C   UNL A   1      36.331  34.423  33.058  1.00  0.00     0.261 C 
BRANCH  36  37
ATOM     37  O   UNL A   1      36.211  33.019  32.769  1.00  0.00    -0.460 OA
BRANCH  37  38
ATOM     38  C   UNL A   1      37.072  32.225  33.450  1.00  0.00     0.338 C 
ATOM     39  O   UNL A   1      37.070  31.980  34.645  1.00  0.00    -0.246 OA
BRANCH  38  40
ATOM     40  C   UNL A   1      37.949  31.507  32.506  1.00  0.00     0.060 A 
ATOM     41  C   UNL A   1      38.953  30.698  33.054  1.00  0.00     0.016 A 
ATOM     42  C   UNL A   1      37.856  31.687  31.124  1.00  0.00     0.016 A 
ATOM     43  C   UNL A   1      39.908  30.111  32.226  1.00  0.00     0.010 A 
ATOM     44  C   UNL A   1      38.822  31.103  30.295  1.00  0.00     0.010 A 
ATOM     45  C   UNL A   1      39.874  30.348  30.846  1.00  0.00    -0.014 A 
BRANCH  45  46
ATOM     46  C   UNL A   1      41.035  29.949  30.014  1.00  0.00     0.031 A 
ATOM     47  C   UNL A   1      41.055  28.571  29.409  1.00  0.00     0.074 A 
ATOM     48  C   UNL A   1      42.035  30.810  29.758  1.00  0.00     0.049 A 
ATOM     49  N   UNL A   1      41.973  28.000  28.670  1.00  0.00    -0.248 NA
ATOM     50  C   UNL A   1      39.879  27.724  29.670  1.00  0.00     0.031 C 
ATOM     51  C   UNL A   1      42.108  32.188  30.242  1.00  0.00     0.029 A 
ATOM     52  N   UNL A   1      43.184  30.647  29.026  1.00  0.00    -0.354 N 
ATOM     53  C   UNL A   1      41.491  26.729  28.386  1.00  0.00     0.074 A 
ATOM     54  C   UNL A   1      40.213  26.600  29.053  1.00  0.00     0.031 C 
ATOM     55  C   UNL A   1      43.252  32.742  29.801  1.00  0.00     0.029 A 
ATOM     56  C   UNL A   1      44.001  31.750  29.032  1.00  0.00     0.049 A 
ATOM     57  H   UNL A   1      43.403  29.818  28.543  1.00  0.00     0.167 HD
ATOM     58  C   UNL A   1      42.058  25.758  27.631  1.00  0.00     0.037 A 
ATOM     59  C   UNL A   1      45.223  31.932  28.495  1.00  0.00     0.037 A 
ATOM     60  C   UNL A   1      43.326  25.884  26.965  1.00  0.00     0.049 A 
ATOM     61  C   UNL A   1      45.865  30.811  27.720  1.00  0.00     0.074 A 
ATOM     62  C   UNL A   1      43.977  24.961  26.166  1.00  0.00     0.029 A 
ATOM     63  N   UNL A   1      44.139  27.006  27.025  1.00  0.00    -0.354 N 
ATOM     64  N   UNL A   1      45.395  29.619  27.444  1.00  0.00    -0.248 NA
ATOM     65  C   UNL A   1      47.210  31.062  27.182  1.00  0.00     0.031 C 
ATOM     66  C   UNL A   1      45.206  25.507  25.780  1.00  0.00     0.029 A 
ATOM     67  C   UNL A   1      45.297  26.789  26.298  1.00  0.00     0.049 A 
ATOM     68  H   UNL A   1      43.925  27.834  27.513  1.00  0.00     0.167 HD
ATOM     69  C   UNL A   1      46.370  28.991  26.677  1.00  0.00     0.074 A 
ATOM     70  C   UNL A   1      47.454  29.938  26.523  1.00  0.00     0.031 C 
ATOM     71  C   UNL A   1      46.364  27.745  26.145  1.00  0.00     0.037 A 
BRANCH  58  72
ATOM     72  C   UNL A   1      41.316  24.460  27.507  1.00  0.00     0.057 A 
ATOM     73  C   UNL A   1      40.220  24.311  26.648  1.00  0.00     0.134 A 
ATOM     74  C   UNL A   1      41.722  23.336  28.238  1.00  0.00     0.134 A 
ATOM     75  F   UNL A   1      39.774  25.353  25.931  1.00  0.00    -0.206 F 
ATOM     76  C   UNL A   1      39.541  23.097  26.535  1.00  0.00     0.040 A 
ATOM     77  C   UNL A   1      41.066  22.109  28.116  1.00  0.00     0.040 A 
ATOM     78  F   UNL A   1      42.767  23.409  29.076  1.00  0.00    -0.206 F 
ATOM     79  C   UNL A   1      39.968  21.989  27.266  1.00  0.00     0.006 A 
ENDBRANCH  58  72
BRANCH  59  80
ATOM     80  C   UNL A   1      45.933  33.221  28.680  1.00  0.00     0.057 A 
ATOM     81  C   UNL A   1      45.877  34.229  27.711  1.00  0.00     0.134 A 
ATOM     82  C   UNL A   1      46.706  33.466  29.822  1.00  0.00     0.134 A 
ATOM     83  F   UNL A   1      45.175  34.042  26.584  1.00  0.00    -0.206 F 
ATOM     84  C   UNL A   1      46.577  35.427  27.861  1.00  0.00     0.040 A 
ATOM     85  C   UNL A   1      47.391  34.670  29.998  1.00  0.00     0.040 A 
ATOM     86  F   UNL A   1      46.802  32.541  30.788  1.00  0.00    -0.206 F 
ATOM     87  C   UNL A   1      47.333  35.652  29.011  1.00  0.00     0.006 A 
ENDBRANCH  59  80
BRANCH  71  88
ATOM     88  C   UNL A   1      47.547  27.344  25.313  1.00  0.00     0.057 A 
ATOM     89  C   UNL A   1      47.622  27.629  23.944  1.00  0.00     0.134 A 
ATOM     90  C   UNL A   1      48.646  26.703  25.900  1.00  0.00     0.134 A 
ATOM     91  F   UNL A   1      46.599  28.230  23.318  1.00  0.00    -0.206 F 
ATOM     92  C   UNL A   1      48.738  27.275  23.185  1.00  0.00     0.040 A 
ATOM     93  C   UNL A   1      49.779  26.365  25.158  1.00  0.00     0.040 A 
ATOM     94  F   UNL A   1      48.643  26.408  27.210  1.00  0.00    -0.206 F 
ATOM     95  C   UNL A   1      49.824  26.647  23.795  1.00  0.00     0.006 A 
ENDBRANCH  71  88
ENDBRANCH  45  46
ENDBRANCH  38  40
ENDBRANCH  37  38
ENDBRANCH  36  37
ENDBRANCH  35  36
ENDBRANCH  34  35
ENDBRANCH  33  34
ENDBRANCH  32  33
ENDBRANCH  31  32
ENDBRANCH   1  31
TORSDOF 24
ENDMDL
MODEL 2
REMARK VINA RESULT:     -10.2      3.489      7.501
REMARK SMILES CCCCCCNC(=O)Oc1cccc(-c2ccc([C@@H](C)C(=O)OCCOCCOC(=O)c3ccc(-c4c5nc(c(-c6c(F)cccc6F)c6ccc([nH]6)c(-c6c(F)cccc6F)c6nc(c(-c7c(F)cccc7F)c7ccc4[nH]7)C=C6)C=C5)cc3)cc2N)c1
REMARK SMILES IDX 22 1 23 2 20 3 21 4 19 5 16 6 17 7 88 8 18 9 87 10 15 11
REMARK SMILES IDX 11 12 12 13 90 14 13 15 14 16 10 17 8 18 7 19 9 21 6 22 5 23
REMARK SMILES IDX 4 24 3 25 2 26 1 27 89 28 24 31 25 32 26 33 27 34 28 35
REMARK SMILES IDX 29 36 30 37 31 38 32 39 33 40 34 41 86 42 35 43 85 44 36 45
REMARK SMILES IDX 37 46 38 47 79 48 39 49 84 50 78 51 80 52 40 53 83 54 77 55
REMARK SMILES IDX 76 56 41 58 67 59 50 60 66 61 51 62 54 63 65 64 81 65 52 66
REMARK SMILES IDX 53 67 64 69 82 70 55 71 42 72 43 73 48 74 44 75 45 76 47 77
REMARK SMILES IDX 49 78 46 79 68 80 69 81 74 82 70 83 71 84 73 85 75 86 72 87
REMARK SMILES IDX 56 88 57 89 62 90 58 91 59 92 61 93 63 94 60 95
REMARK H PARENT 7 20 89 29 89 30 80 57 54 68
REMARK Flexibility Score: inf
ROOT
ATOM      1  C   UNL A   1      36.133  31.577  28.940  1.00  0.00     0.313 C 
ATOM      2  O   UNL A   1      36.175  31.362  30.148  1.00  0.00    -0.252 OA
ENDROOT
BRANCH   1   3
ATOM      3  C   UNL A   1      36.495  30.505  27.927  1.00  0.00     0.126 C 
ATOM      4  C   UNL A   1      35.261  29.655  27.634  1.00  0.00     0.025 C 
BRANCH   3   5
ATOM      5  C   UNL A   1      37.724  29.641  28.195  1.00  0.00    -0.032 A 
ATOM      6  C   UNL A   1      39.950  27.866  28.427  1.00  0.00     0.005 A 
ATOM      7  C   UNL A   1      38.889  27.852  29.355  1.00  0.00     0.011 A 
ATOM      8  C   UNL A   1      39.913  28.831  27.394  1.00  0.00     0.040 A 
ATOM      9  C   UNL A   1      37.794  28.718  29.241  1.00  0.00     0.005 A 
ATOM     10  C   UNL A   1      38.807  29.696  27.298  1.00  0.00     0.030 A 
BRANCH   6  11
ATOM     11  C   UNL A   1      41.018  26.843  28.526  1.00  0.00    -0.013 A 
ATOM     12  C   UNL A   1      41.836  24.573  28.230  1.00  0.00     0.133 A 
ATOM     13  C   UNL A   1      43.019  24.880  28.898  1.00  0.00     0.047 A 
ATOM     14  C   UNL A   1      40.845  25.538  28.032  1.00  0.00     0.056 A 
ATOM     15  C   UNL A   1      43.223  26.176  29.360  1.00  0.00     0.004 A 
ATOM     16  C   UNL A   1      42.229  27.144  29.181  1.00  0.00     0.009 A 
BRANCH  12  17
ATOM     17  O   UNL A   1      41.629  23.216  27.917  1.00  0.00    -0.410 OA
BRANCH  17  18
ATOM     18  C   UNL A   1      40.875  22.878  26.806  1.00  0.00     0.412 C 
ATOM     19  N   UNL A   1      41.629  22.465  25.745  1.00  0.00    -0.321 N 
ATOM     20  H   UNL A   1      41.138  22.217  24.928  1.00  0.00     0.167 HD
ATOM     21  O   UNL A   1      39.648  22.930  26.726  1.00  0.00    -0.224 OA
BRANCH  19  22
ATOM     22  C   UNL A   1      43.075  22.353  25.688  1.00  0.00     0.119 C 
BRANCH  22  23
ATOM     23  C   UNL A   1      43.691  23.333  24.688  1.00  0.00     0.021 C 
BRANCH  23  24
ATOM     24  C   UNL A   1      44.199  24.646  25.296  1.00  0.00     0.002 C 
BRANCH  24  25
ATOM     25  C   UNL A   1      43.270  25.854  25.140  1.00  0.00    -0.000 C 
BRANCH  25  26
ATOM     26  C   UNL A   1      43.744  27.143  25.814  1.00  0.00    -0.003 C 
ATOM     27  C   UNL A   1      45.237  27.389  25.662  1.00  0.00     0.004 C 
ENDBRANCH  25  26
ENDBRANCH  24  25
ENDBRANCH  23  24
ENDBRANCH  22  23
ENDBRANCH  19  22
ENDBRANCH  17  18
ENDBRANCH  12  17
ENDBRANCH   6  11
BRANCH   8  28
ATOM     28  N   UNL A   1      40.863  28.878  26.376  1.00  0.00    -0.398 N 
ATOM     29  H   UNL A   1      41.790  28.602  26.556  1.00  0.00     0.156 HD
ATOM     30  H   UNL A   1      40.605  29.185  25.477  1.00  0.00     0.156 HD
ENDBRANCH   8  28
ENDBRANCH   3   5
ENDBRANCH   1   3
BRANCH   1  31
ATOM     31  O   UNL A   1      35.808  32.774  28.387  1.00  0.00    -0.463 OA
BRANCH  31  32
ATOM     32  C   UNL A   1      35.677  33.874  29.305  1.00  0.00     0.261 C 
BRANCH  32  33
ATOM     33  C   UNL A   1      34.207  34.177  29.599  1.00  0.00     0.202 C 
BRANCH  33  34
ATOM     34  O   UNL A   1      33.819  34.154  30.972  1.00  0.00    -0.374 OA
BRANCH  34  35
ATOM     35  C   UNL A   1      34.853  34.246  31.951  1.00  0.00     0.202 C 
BRANCH  35  36
ATOM     36  C   UNL A   1      34.779  33.266  33.129  1.00  0.00     0.261 C 
BRANCH  36  37
ATOM     37  O   UNL A   1      35.830  32.285  33.093  1.00  0.00    -0.460 OA
BRANCH  37  38
ATOM     38  C   UNL A   1      36.765  32.419  34.064  1.00  0.00     0.338 C 
ATOM     39  O   UNL A   1      36.651  33.004  35.128  1.00  0.00    -0.246 OA
BRANCH  38  40
ATOM     40  C   UNL A   1      37.938  31.581  33.752  1.00  0.00     0.060 A 
ATOM     41  C   UNL A   1      39.160  31.951  34.328  1.00  0.00     0.016 A 
ATOM     42  C   UNL A   1      37.870  30.516  32.851  1.00  0.00     0.016 A 
ATOM     43  C   UNL A   1      40.333  31.296  33.961  1.00  0.00     0.010 A 
ATOM     44  C   UNL A   1      39.052  29.864  32.477  1.00  0.00     0.010 A 
ATOM     45  C   UNL A   1      40.292  30.279  32.998  1.00  0.00    -0.014 A 
BRANCH  45  46
ATOM     46  C   UNL A   1      41.562  29.777  32.420  1.00  0.00     0.031 A 
ATOM     47  C   UNL A   1      42.199  30.542  31.292  1.00  0.00     0.074 A 
ATOM     48  C   UNL A   1      42.167  28.684  32.918  1.00  0.00     0.049 A 
ATOM     49  N   UNL A   1      43.291  30.279  30.620  1.00  0.00    -0.248 NA
ATOM     50  C   UNL A   1      41.513  31.774  30.866  1.00  0.00     0.031 C 
ATOM     51  C   UNL A   1      41.679  27.886  34.040  1.00  0.00     0.029 A 
ATOM     52  N   UNL A   1      43.328  28.059  32.537  1.00  0.00    -0.354 N 
ATOM     53  C   UNL A   1      43.418  31.303  29.690  1.00  0.00     0.074 A 
ATOM     54  C   UNL A   1      42.279  32.179  29.865  1.00  0.00     0.031 C 
ATOM     55  C   UNL A   1      42.532  26.867  34.251  1.00  0.00     0.029 A 
ATOM     56  C   UNL A   1      43.605  26.926  33.260  1.00  0.00     0.049 A 
ATOM     57  H   UNL A   1      43.907  28.391  31.813  1.00  0.00     0.167 HD
ATOM     58  C   UNL A   1      44.400  31.502  28.779  1.00  0.00     0.037 A 
ATOM     59  C   UNL A   1      44.600  26.029  33.124  1.00  0.00     0.037 A 
ATOM     60  C   UNL A   1      45.534  30.635  28.606  1.00  0.00     0.049 A 
ATOM     61  C   UNL A   1      45.640  26.232  32.054  1.00  0.00     0.074 A 
ATOM     62  C   UNL A   1      46.588  30.760  27.718  1.00  0.00     0.029 A 
ATOM     63  N   UNL A   1      45.760  29.477  29.335  1.00  0.00    -0.354 N 
ATOM     64  N   UNL A   1      45.760  27.211  31.190  1.00  0.00    -0.248 NA
ATOM     65  C   UNL A   1      46.685  25.203  31.940  1.00  0.00     0.031 C 
ATOM     66  C   UNL A   1      47.429  29.653  27.878  1.00  0.00     0.029 A 
ATOM     67  C   UNL A   1      46.923  28.864  28.900  1.00  0.00     0.049 A 
ATOM     68  H   UNL A   1      45.178  29.140  30.054  1.00  0.00     0.167 HD
ATOM     69  C   UNL A   1      46.906  26.934  30.454  1.00  0.00     0.074 A 
ATOM     70  C   UNL A   1      47.451  25.699  30.978  1.00  0.00     0.031 C 
ATOM     71  C   UNL A   1      47.459  27.640  29.438  1.00  0.00     0.037 A 
BRANCH  58  72
ATOM     72  C   UNL A   1      44.273  32.695  27.878  1.00  0.00     0.057 A 
ATOM     73  C   UNL A   1      44.596  33.987  28.310  1.00  0.00     0.134 A 
ATOM     74  C   UNL A   1      43.848  32.544  26.552  1.00  0.00     0.134 A 
ATOM     75  F   UNL A   1      44.995  34.201  29.572  1.00  0.00    -0.206 F 
ATOM     76  C   UNL A   1      44.480  35.090  27.463  1.00  0.00     0.040 A 
ATOM     77  C   UNL A   1      43.752  33.635  25.687  1.00  0.00     0.040 A 
ATOM     78  F   UNL A   1      43.527  31.332  26.073  1.00  0.00    -0.206 F 
ATOM     79  C   UNL A   1      44.064  34.914  26.144  1.00  0.00     0.006 A 
ENDBRANCH  58  72
BRANCH  59  80
ATOM     80  C   UNL A   1      44.658  24.842  34.014  1.00  0.00     0.057 A 
ATOM     81  C   UNL A   1      45.176  24.930  35.311  1.00  0.00     0.134 A 
ATOM     82  C   UNL A   1      44.219  23.586  33.578  1.00  0.00     0.134 A 
ATOM     83  F   UNL A   1      45.637  26.100  35.775  1.00  0.00    -0.206 F 
ATOM     84  C   UNL A   1      45.272  23.809  36.137  1.00  0.00     0.040 A 
ATOM     85  C   UNL A   1      44.286  22.461  34.402  1.00  0.00     0.040 A 
ATOM     86  F   UNL A   1      43.714  23.434  32.345  1.00  0.00    -0.206 F 
ATOM     87  C   UNL A   1      44.820  22.570  35.684  1.00  0.00     0.006 A 
ENDBRANCH  59  80
BRANCH  71  88
ATOM     88  C   UNL A   1      48.738  27.120  28.851  1.00  0.00     0.057 A 
ATOM     89  C   UNL A   1      48.750  26.215  27.783  1.00  0.00     0.134 A 
ATOM     90  C   UNL A   1      49.976  27.568  29.332  1.00  0.00     0.134 A 
ATOM     91  F   UNL A   1      47.599  25.739  27.283  1.00  0.00    -0.206 F 
ATOM     92  C   UNL A   1      49.945  25.758  27.226  1.00  0.00     0.040 A 
ATOM     93  C   UNL A   1      51.178  27.138  28.769  1.00  0.00     0.040 A 
ATOM     94  F   UNL A   1      50.036  28.443  30.348  1.00  0.00    -0.206 F 
ATOM     95  C   UNL A   1      51.165  26.226  27.716  1.00  0.00     0.006 A 
ENDBRANCH  71  88
ENDBRANCH  45  46
ENDBRANCH  38  40
ENDBRANCH  37  38
ENDBRANCH  36  37
ENDBRANCH  35  36
ENDBRANCH  34  35
ENDBRANCH  33  34
ENDBRANCH  32  33
ENDBRANCH  31  32
ENDBRANCH   1  31
TORSDOF 24
ENDMDL
MODEL 3
REMARK VINA RESULT:     -10.1      3.769      9.204
REMARK SMILES CCCCCCNC(=O)Oc1cccc(-c2ccc([C@@H](C)C(=O)OCCOCCOC(=O)c3ccc(-c4c5nc(c(-c6c(F)cccc6F)c6ccc([nH]6)c(-c6c(F)cccc6F)c6nc(c(-c7c(F)cccc7F)c7ccc4[nH]7)C=C6)C=C5)cc3)cc2N)c1
REMARK SMILES IDX 22 1 23 2 20 3 21 4 19 5 16 6 17 7 88 8 18 9 87 10 15 11
REMARK SMILES IDX 11 12 12 13 90 14 13 15 14 16 10 17 8 18 7 19 9 21 6 22 5 23
REMARK SMILES IDX 4 24 3 25 2 26 1 27 89 28 24 31 25 32 26 33 27 34 28 35
REMARK SMILES IDX 29 36 30 37 31 38 32 39 33 40 34 41 86 42 35 43 85 44 36 45
REMARK SMILES IDX 37 46 38 47 79 48 39 49 84 50 78 51 80 52 40 53 83 54 77 55
REMARK SMILES IDX 76 56 41 58 67 59 50 60 66 61 51 62 54 63 65 64 81 65 52 66
REMARK SMILES IDX 53 67 64 69 82 70 55 71 42 72 43 73 48 74 44 75 45 76 47 77
REMARK SMILES IDX 49 78 46 79 68 80 69 81 74 82 70 83 71 84 73 85 75 86 72 87
REMARK SMILES IDX 56 88 57 89 62 90 58 91 59 92 61 93 63 94 60 95
REMARK H PARENT 7 20 89 29 89 30 80 57 54 68
REMARK Flexibility Score: inf
ROOT
ATOM      1  C   UNL A   1      32.987  36.174  31.044  1.00  0.00     0.313 C 
ATOM      2  O   UNL A   1      32.942  37.325  30.621  1.00  0.00    -0.252 OA
ENDROOT
BRANCH   1   3
ATOM      3  C   UNL A   1      33.260  35.874  32.509  1.00  0.00     0.126 C 
ATOM      4  C   UNL A   1      33.709  37.156  33.207  1.00  0.00     0.025 C 
BRANCH   3   5
ATOM      5  C   UNL A   1      34.170  34.697  32.849  1.00  0.00    -0.032 A 
ATOM      6  C   UNL A   1      36.116  32.706  33.485  1.00  0.00     0.005 A 
ATOM      7  C   UNL A   1      35.420  32.699  32.259  1.00  0.00     0.011 A 
ATOM      8  C   UNL A   1      35.784  33.704  34.429  1.00  0.00     0.040 A 
ATOM      9  C   UNL A   1      34.468  33.677  31.942  1.00  0.00     0.005 A 
ATOM     10  C   UNL A   1      34.823  34.677  34.095  1.00  0.00     0.030 A 
BRANCH   6  11
ATOM     11  C   UNL A   1      37.200  31.721  33.712  1.00  0.00    -0.013 A 
ATOM     12  C   UNL A   1      38.975  30.774  35.077  1.00  0.00     0.133 A 
ATOM     13  C   UNL A   1      39.376  29.943  34.033  1.00  0.00     0.047 A 
ATOM     14  C   UNL A   1      37.895  31.649  34.932  1.00  0.00     0.056 A 
ATOM     15  C   UNL A   1      38.676  29.975  32.831  1.00  0.00     0.004 A 
ATOM     16  C   UNL A   1      37.604  30.859  32.672  1.00  0.00     0.009 A 
BRANCH  12  17
ATOM     17  O   UNL A   1      39.809  30.800  36.211  1.00  0.00    -0.410 OA
BRANCH  17  18
ATOM     18  C   UNL A   1      41.170  31.010  36.055  1.00  0.00     0.412 C 
ATOM     19  N   UNL A   1      41.529  32.324  36.156  1.00  0.00    -0.321 N 
ATOM     20  H   UNL A   1      42.487  32.526  36.049  1.00  0.00     0.167 HD
ATOM     21  O   UNL A   1      42.012  30.140  35.840  1.00  0.00    -0.224 OA
BRANCH  19  22
ATOM     22  C   UNL A   1      40.654  33.455  36.405  1.00  0.00     0.119 C 
BRANCH  22  23
ATOM     23  C   UNL A   1      40.383  34.264  35.134  1.00  0.00     0.021 C 
BRANCH  23  24
ATOM     24  C   UNL A   1      40.764  33.562  33.825  1.00  0.00     0.002 C 
BRANCH  24  25
ATOM     25  C   UNL A   1      40.444  34.333  32.540  1.00  0.00    -0.000 C 
BRANCH  25  26
ATOM     26  C   UNL A   1      38.956  34.540  32.250  1.00  0.00    -0.003 C 
ATOM     27  C   UNL A   1      38.562  34.173  30.827  1.00  0.00     0.004 C 
ENDBRANCH  25  26
ENDBRANCH  24  25
ENDBRANCH  23  24
ENDBRANCH  22  23
ENDBRANCH  19  22
ENDBRANCH  17  18
ENDBRANCH  12  17
ENDBRANCH   6  11
BRANCH   8  28
ATOM     28  N   UNL A   1      36.468  33.856  35.633  1.00  0.00    -0.398 N 
ATOM     29  H   UNL A   1      37.300  34.381  35.663  1.00  0.00     0.156 HD
ATOM     30  H   UNL A   1      36.119  33.438  36.453  1.00  0.00     0.156 HD
ENDBRANCH   8  28
ENDBRANCH   3   5
ENDBRANCH   1   3
BRANCH   1  31
ATOM     31  O   UNL A   1      32.843  35.068  30.271  1.00  0.00    -0.463 OA
BRANCH  31  32
ATOM     32  C   UNL A   1      32.946  35.277  28.851  1.00  0.00     0.261 C 
BRANCH  32  33
ATOM     33  C   UNL A   1      34.408  35.338  28.405  1.00  0.00     0.202 C 
BRANCH  33  34
ATOM     34  O   UNL A   1      34.873  34.248  27.611  1.00  0.00    -0.374 OA
BRANCH  34  35
ATOM     35  C   UNL A   1      35.330  33.081  28.294  1.00  0.00     0.202 C 
BRANCH  35  36
ATOM     36  C   UNL A   1      34.326  31.932  28.445  1.00  0.00     0.261 C 
BRANCH  36  37
ATOM     37  O   UNL A   1      34.381  31.007  27.345  1.00  0.00    -0.460 OA
BRANCH  37  38
ATOM     38  C   UNL A   1      34.697  29.736  27.688  1.00  0.00     0.338 C 
ATOM     39  O   UNL A   1      34.016  28.735  27.537  1.00  0.00    -0.246 OA
BRANCH  38  40
ATOM     40  C   UNL A   1      36.105  29.667  28.122  1.00  0.00     0.060 A 
ATOM     41  C   UNL A   1      37.085  29.956  27.163  1.00  0.00     0.016 A 
ATOM     42  C   UNL A   1      36.467  29.244  29.402  1.00  0.00     0.016 A 
ATOM     43  C   UNL A   1      38.433  29.767  27.461  1.00  0.00     0.010 A 
ATOM     44  C   UNL A   1      37.822  29.046  29.697  1.00  0.00     0.010 A 
ATOM     45  C   UNL A   1      38.806  29.267  28.715  1.00  0.00    -0.014 A 
BRANCH  45  46
ATOM     46  C   UNL A   1      40.202  28.817  28.929  1.00  0.00     0.031 A 
ATOM     47  C   UNL A   1      41.174  29.754  29.595  1.00  0.00     0.074 A 
ATOM     48  C   UNL A   1      40.593  27.578  28.581  1.00  0.00     0.049 A 
ATOM     49  N   UNL A   1      42.444  29.583  29.861  1.00  0.00    -0.248 NA
ATOM     50  C   UNL A   1      40.639  31.058  30.020  1.00  0.00     0.031 C 
ATOM     51  C   UNL A   1      39.736  26.561  27.976  1.00  0.00     0.029 A 
ATOM     52  N   UNL A   1      41.819  26.970  28.687  1.00  0.00    -0.354 N 
ATOM     53  C   UNL A   1      42.860  30.757  30.476  1.00  0.00     0.074 A 
ATOM     54  C   UNL A   1      41.717  31.643  30.520  1.00  0.00     0.031 C 
ATOM     55  C   UNL A   1      40.468  25.454  27.754  1.00  0.00     0.029 A 
ATOM     56  C   UNL A   1      41.847  25.697  28.174  1.00  0.00     0.049 A 
ATOM     57  H   UNL A   1      42.603  27.404  29.094  1.00  0.00     0.167 HD
ATOM     58  C   UNL A   1      44.083  31.067  30.968  1.00  0.00     0.037 A 
ATOM     59  C   UNL A   1      42.874  24.836  28.039  1.00  0.00     0.037 A 
ATOM     60  C   UNL A   1      45.220  30.187  30.930  1.00  0.00     0.049 A 
ATOM     61  C   UNL A   1      44.242  25.232  28.528  1.00  0.00     0.074 A 
ATOM     62  C   UNL A   1      46.498  30.407  31.414  1.00  0.00     0.029 A 
ATOM     63  N   UNL A   1      45.217  28.920  30.368  1.00  0.00    -0.354 N 
ATOM     64  N   UNL A   1      44.622  26.337  29.121  1.00  0.00    -0.248 NA
ATOM     65  C   UNL A   1      45.326  24.258  28.328  1.00  0.00     0.031 C 
ATOM     66  C   UNL A   1      47.280  29.289  31.106  1.00  0.00     0.029 A 
ATOM     67  C   UNL A   1      46.476  28.354  30.472  1.00  0.00     0.049 A 
ATOM     68  H   UNL A   1      44.435  28.486  29.956  1.00  0.00     0.167 HD
ATOM     69  C   UNL A   1      45.977  26.180  29.392  1.00  0.00     0.074 A 
ATOM     70  C   UNL A   1      46.351  24.868  28.906  1.00  0.00     0.031 C 
ATOM     71  C   UNL A   1      46.832  27.042  29.993  1.00  0.00     0.037 A 
BRANCH  58  72
ATOM     72  C   UNL A   1      44.259  32.430  31.571  1.00  0.00     0.057 A 
ATOM     73  C   UNL A   1      44.527  33.558  30.785  1.00  0.00     0.134 A 
ATOM     74  C   UNL A   1      44.129  32.620  32.952  1.00  0.00     0.134 A 
ATOM     75  F   UNL A   1      44.677  33.442  29.458  1.00  0.00    -0.206 F 
ATOM     76  C   UNL A   1      44.682  34.824  31.355  1.00  0.00     0.040 A 
ATOM     77  C   UNL A   1      44.257  33.884  33.531  1.00  0.00     0.040 A 
ATOM     78  F   UNL A   1      43.867  31.582  33.761  1.00  0.00    -0.206 F 
ATOM     79  C   UNL A   1      44.540  34.990  32.732  1.00  0.00     0.006 A 
ENDBRANCH  58  72
BRANCH  59  80
ATOM     80  C   UNL A   1      42.657  23.515  27.399  1.00  0.00     0.057 A 
ATOM     81  C   UNL A   1      42.369  22.376  28.159  1.00  0.00     0.134 A 
ATOM     82  C   UNL A   1      42.757  23.356  26.011  1.00  0.00     0.134 A 
ATOM     83  F   UNL A   1      42.288  22.460  29.495  1.00  0.00    -0.206 F 
ATOM     84  C   UNL A   1      42.206  21.123  27.566  1.00  0.00     0.040 A 
ATOM     85  C   UNL A   1      42.570  22.113  25.402  1.00  0.00     0.040 A 
ATOM     86  F   UNL A   1      43.031  24.407  25.225  1.00  0.00    -0.206 F 
ATOM     87  C   UNL A   1      42.301  20.991  26.182  1.00  0.00     0.006 A 
ENDBRANCH  59  80
BRANCH  71  88
ATOM     88  C   UNL A   1      48.246  26.584  30.196  1.00  0.00     0.057 A 
ATOM     89  C   UNL A   1      48.640  25.879  31.339  1.00  0.00     0.134 A 
ATOM     90  C   UNL A   1      49.217  26.814  29.213  1.00  0.00     0.134 A 
ATOM     91  F   UNL A   1      47.761  25.635  32.324  1.00  0.00    -0.206 F 
ATOM     92  C   UNL A   1      49.952  25.434  31.507  1.00  0.00     0.040 A 
ATOM     93  C   UNL A   1      50.527  26.354  29.356  1.00  0.00     0.040 A 
ATOM     94  F   UNL A   1      48.904  27.477  28.088  1.00  0.00    -0.206 F 
ATOM     95  C   UNL A   1      50.898  25.666  30.509  1.00  0.00     0.006 A 
ENDBRANCH  71  88
ENDBRANCH  45  46
ENDBRANCH  38  40
ENDBRANCH  37  38
ENDBRANCH  36  37
ENDBRANCH  35  36
ENDBRANCH  34  35
ENDBRANCH  33  34
ENDBRANCH  32  33
ENDBRANCH  31  32
ENDBRANCH   1  31
TORSDOF 24
ENDMDL
