MODEL 1
REMARK VINA RESULT:     -10.9      0.000      0.000
REMARK SMILES CC1(CNS(=O)(=O)Cc2ccc(C(=O)OCCOCCOC(=O)c3ccc(-c4c5nc(c(-c6c(F)cccc6F)c6ccc([nH]6)c(-c6c(F)cccc6F)c6nc(c(-c7c(F)cccc7F)c7ccc4[nH]7)C=C6)C=C5)cc3)cc2)COC1
REMARK SMILES IDX 16 1 15 2 13 3 14 4 12 5 9 6 10 7 79 8 11 9 78 10 8 11 5 12
REMARK SMILES IDX 6 13 7 14 4 15 3 17 2 18 1 19 80 20 82 21 81 22 17 23 18 24
REMARK SMILES IDX 19 25 20 26 21 27 22 28 23 29 24 30 25 31 77 32 26 33 76 34
REMARK SMILES IDX 27 35 28 36 29 37 70 38 30 39 75 40 69 41 71 42 31 43 74 44
REMARK SMILES IDX 68 45 67 46 32 48 58 49 41 50 57 51 42 52 45 53 56 54 72 55
REMARK SMILES IDX 43 56 44 57 55 59 73 60 46 61 33 62 34 63 39 64 35 65 36 66
REMARK SMILES IDX 38 67 40 68 37 69 59 70 60 71 65 72 61 73 62 74 64 75 66 76
REMARK SMILES IDX 63 77 47 78 48 79 53 80 49 81 50 82 52 83 54 84 51 85
REMARK H PARENT 4 16 71 47 45 58
REMARK Flexibility Score: inf
ROOT
ATOM      1  C   UNL A   1      40.121  21.666  26.062  1.00  0.00     0.261 C 
ENDROOT
BRANCH   1   2
ATOM      2  O   UNL A   1      38.715  21.850  26.283  1.00  0.00    -0.460 OA
BRANCH   2   3
ATOM      3  C   UNL A   1      37.908  21.233  25.386  1.00  0.00     0.338 C 
ATOM      4  O   UNL A   1      38.056  20.114  24.922  1.00  0.00    -0.246 OA
BRANCH   3   5
ATOM      5  C   UNL A   1      36.711  22.066  25.113  1.00  0.00     0.060 A 
ATOM      6  C   UNL A   1      34.408  23.555  24.476  1.00  0.00    -0.032 A 
ATOM      7  C   UNL A   1      34.438  22.169  24.275  1.00  0.00     0.006 A 
ATOM      8  C   UNL A   1      35.520  24.165  25.072  1.00  0.00     0.006 A 
ATOM      9  C   UNL A   1      35.580  21.430  24.589  1.00  0.00     0.016 A 
ATOM     10  C   UNL A   1      36.672  23.436  25.376  1.00  0.00     0.016 A 
BRANCH   6  11
ATOM     11  C   UNL A   1      33.181  24.338  24.083  1.00  0.00     0.189 C 
BRANCH  11  12
ATOM     12  S   UNL A   1      33.165  24.756  22.325  1.00  0.00     0.215 S 
ATOM     13  O   UNL A   1      33.375  23.545  21.564  1.00  0.00    -0.212 OA
ATOM     14  O   UNL A   1      33.983  25.927  22.082  1.00  0.00    -0.212 OA
BRANCH  12  15
ATOM     15  N   UNL A   1      31.572  25.243  22.019  1.00  0.00    -0.214 NA
ATOM     16  H   UNL A   1      31.602  26.217  21.718  1.00  0.00     0.141 HD
BRANCH  15  17
ATOM     17  C   UNL A   1      30.612  25.152  23.138  1.00  0.00     0.110 C 
BRANCH  17  18
ATOM     18  C   UNL A   1      30.075  26.523  23.562  1.00  0.00     0.028 C 
ATOM     19  C   UNL A   1      28.593  26.552  23.908  1.00  0.00     0.018 C 
ATOM     20  C   UNL A   1      30.492  27.624  22.566  1.00  0.00     0.170 C 
ATOM     21  C   UNL A   1      30.987  27.290  24.536  1.00  0.00     0.170 C 
ATOM     22  O   UNL A   1      31.560  28.052  23.445  1.00  0.00    -0.380 OA
ENDBRANCH  17  18
ENDBRANCH  15  17
ENDBRANCH  12  15
ENDBRANCH  11  12
ENDBRANCH   6  11
ENDBRANCH   3   5
ENDBRANCH   2   3
ENDBRANCH   1   2
BRANCH   1  23
ATOM     23  C   UNL A   1      40.794  21.067  27.301  1.00  0.00     0.202 C 
BRANCH  23  24
ATOM     24  O   UNL A   1      42.219  21.007  27.259  1.00  0.00    -0.374 OA
BRANCH  24  25
ATOM     25  C   UNL A   1      42.810  20.683  25.997  1.00  0.00     0.202 C 
BRANCH  25  26
ATOM     26  C   UNL A   1      43.809  21.713  25.457  1.00  0.00     0.261 C 
BRANCH  26  27
ATOM     27  O   UNL A   1      43.139  22.910  25.017  1.00  0.00    -0.460 OA
BRANCH  27  28
ATOM     28  C   UNL A   1      43.855  24.050  25.154  1.00  0.00     0.338 C 
ATOM     29  O   UNL A   1      44.868  24.369  24.554  1.00  0.00    -0.246 OA
BRANCH  28  30
ATOM     30  C   UNL A   1      43.133  24.982  26.042  1.00  0.00     0.060 A 
ATOM     31  C   UNL A   1      43.567  26.314  26.075  1.00  0.00     0.016 A 
ATOM     32  C   UNL A   1      42.098  24.551  26.873  1.00  0.00     0.016 A 
ATOM     33  C   UNL A   1      43.002  27.210  26.979  1.00  0.00     0.010 A 
ATOM     34  C   UNL A   1      41.537  25.450  27.787  1.00  0.00     0.010 A 
ATOM     35  C   UNL A   1      42.013  26.772  27.868  1.00  0.00    -0.014 A 
BRANCH  35  36
ATOM     36  C   UNL A   1      41.592  27.640  28.993  1.00  0.00     0.031 A 
ATOM     37  C   UNL A   1      42.349  27.560  30.289  1.00  0.00     0.074 A 
ATOM     38  C   UNL A   1      40.563  28.493  28.862  1.00  0.00     0.049 A 
ATOM     39  N   UNL A   1      42.115  28.162  31.427  1.00  0.00    -0.248 NA
ATOM     40  C   UNL A   1      43.526  26.677  30.304  1.00  0.00     0.031 C 
ATOM     41  C   UNL A   1      39.784  28.698  27.643  1.00  0.00     0.029 A 
ATOM     42  N   UNL A   1      39.989  29.339  29.777  1.00  0.00    -0.354 N 
ATOM     43  C   UNL A   1      43.109  27.725  32.294  1.00  0.00     0.074 A 
ATOM     44  C   UNL A   1      43.930  26.786  31.561  1.00  0.00     0.031 C 
ATOM     45  C   UNL A   1      38.825  29.607  27.888  1.00  0.00     0.029 A 
ATOM     46  C   UNL A   1      38.900  30.018  29.289  1.00  0.00     0.049 A 
ATOM     47  H   UNL A   1      40.327  29.450  30.695  1.00  0.00     0.167 HD
ATOM     48  C   UNL A   1      43.324  28.082  33.583  1.00  0.00     0.037 A 
ATOM     49  C   UNL A   1      38.049  30.856  29.912  1.00  0.00     0.037 A 
ATOM     50  C   UNL A   1      42.506  29.015  34.310  1.00  0.00     0.049 A 
ATOM     51  C   UNL A   1      38.256  31.173  31.369  1.00  0.00     0.074 A 
ATOM     52  C   UNL A   1      42.643  29.448  35.617  1.00  0.00     0.029 A 
ATOM     53  N   UNL A   1      41.390  29.656  33.791  1.00  0.00    -0.354 N 
ATOM     54  N   UNL A   1      39.202  30.761  32.179  1.00  0.00    -0.248 NA
ATOM     55  C   UNL A   1      37.275  32.068  32.000  1.00  0.00     0.031 C 
ATOM     56  C   UNL A   1      41.585  30.317  35.902  1.00  0.00     0.029 A 
ATOM     57  C   UNL A   1      40.817  30.463  34.758  1.00  0.00     0.049 A 
ATOM     58  H   UNL A   1      41.056  29.552  32.871  1.00  0.00     0.167 HD
ATOM     59  C   UNL A   1      38.950  31.373  33.401  1.00  0.00     0.074 A 
ATOM     60  C   UNL A   1      37.764  32.185  33.227  1.00  0.00     0.031 C 
ATOM     61  C   UNL A   1      39.643  31.276  34.564  1.00  0.00     0.037 A 
BRANCH  48  62
ATOM     62  C   UNL A   1      44.474  27.431  34.292  1.00  0.00     0.057 A 
ATOM     63  C   UNL A   1      45.720  28.058  34.414  1.00  0.00     0.134 A 
ATOM     64  C   UNL A   1      44.330  26.163  34.870  1.00  0.00     0.134 A 
ATOM     65  F   UNL A   1      45.929  29.266  33.868  1.00  0.00    -0.206 F 
ATOM     66  C   UNL A   1      46.790  27.438  35.061  1.00  0.00     0.040 A 
ATOM     67  C   UNL A   1      45.385  25.543  35.542  1.00  0.00     0.040 A 
ATOM     68  F   UNL A   1      43.162  25.507  34.792  1.00  0.00    -0.206 F 
ATOM     69  C   UNL A   1      46.622  26.178  35.632  1.00  0.00     0.006 A 
ENDBRANCH  48  62
BRANCH  49  70
ATOM     70  C   UNL A   1      36.915  31.451  29.163  1.00  0.00     0.057 A 
ATOM     71  C   UNL A   1      35.769  30.702  28.871  1.00  0.00     0.134 A 
ATOM     72  C   UNL A   1      36.953  32.775  28.711  1.00  0.00     0.134 A 
ATOM     73  F   UNL A   1      35.684  29.421  29.258  1.00  0.00    -0.206 F 
ATOM     74  C   UNL A   1      34.705  31.246  28.149  1.00  0.00     0.040 A 
ATOM     75  C   UNL A   1      35.887  33.339  28.006  1.00  0.00     0.040 A 
ATOM     76  F   UNL A   1      38.023  33.545  28.958  1.00  0.00    -0.206 F 
ATOM     77  C   UNL A   1      34.762  32.570  27.719  1.00  0.00     0.006 A 
ENDBRANCH  49  70
BRANCH  61  78
ATOM     78  C   UNL A   1      39.167  32.100  35.723  1.00  0.00     0.057 A 
ATOM     79  C   UNL A   1      39.540  33.440  35.883  1.00  0.00     0.134 A 
ATOM     80  C   UNL A   1      38.278  31.558  36.660  1.00  0.00     0.134 A 
ATOM     81  F   UNL A   1      40.398  34.014  35.026  1.00  0.00    -0.206 F 
ATOM     82  C   UNL A   1      39.058  34.208  36.945  1.00  0.00     0.040 A 
ATOM     83  C   UNL A   1      37.770  32.322  37.712  1.00  0.00     0.040 A 
ATOM     84  F   UNL A   1      37.874  30.283  36.559  1.00  0.00    -0.206 F 
ATOM     85  C   UNL A   1      38.164  33.652  37.858  1.00  0.00     0.006 A 
ENDBRANCH  61  78
ENDBRANCH  35  36
ENDBRANCH  28  30
ENDBRANCH  27  28
ENDBRANCH  26  27
ENDBRANCH  25  26
ENDBRANCH  24  25
ENDBRANCH  23  24
ENDBRANCH   1  23
TORSDOF 19
ENDMDL
MODEL 2
REMARK VINA RESULT:     -10.1      4.649      9.960
REMARK SMILES CC1(CNS(=O)(=O)Cc2ccc(C(=O)OCCOCCOC(=O)c3ccc(-c4c5nc(c(-c6c(F)cccc6F)c6ccc([nH]6)c(-c6c(F)cccc6F)c6nc(c(-c7c(F)cccc7F)c7ccc4[nH]7)C=C6)C=C5)cc3)cc2)COC1
REMARK SMILES IDX 16 1 15 2 13 3 14 4 12 5 9 6 10 7 79 8 11 9 78 10 8 11 5 12
REMARK SMILES IDX 6 13 7 14 4 15 3 17 2 18 1 19 80 20 82 21 81 22 17 23 18 24
REMARK SMILES IDX 19 25 20 26 21 27 22 28 23 29 24 30 25 31 77 32 26 33 76 34
REMARK SMILES IDX 27 35 28 36 29 37 70 38 30 39 75 40 69 41 71 42 31 43 74 44
REMARK SMILES IDX 68 45 67 46 32 48 58 49 41 50 57 51 42 52 45 53 56 54 72 55
REMARK SMILES IDX 43 56 44 57 55 59 73 60 46 61 33 62 34 63 39 64 35 65 36 66
REMARK SMILES IDX 38 67 40 68 37 69 59 70 60 71 65 72 61 73 62 74 64 75 66 76
REMARK SMILES IDX 63 77 47 78 48 79 53 80 49 81 50 82 52 83 54 84 51 85
REMARK H PARENT 4 16 71 47 45 58
REMARK Flexibility Score: inf
ROOT
ATOM      1  C   UNL A   1      34.368  32.989  28.430  1.00  0.00     0.261 C 
ENDROOT
BRANCH   1   2
ATOM      2  O   UNL A   1      33.673  31.799  28.028  1.00  0.00    -0.460 OA
BRANCH   2   3
ATOM      3  C   UNL A   1      34.444  30.857  27.431  1.00  0.00     0.338 C 
ATOM      4  O   UNL A   1      35.627  30.645  27.641  1.00  0.00    -0.246 OA
BRANCH   3   5
ATOM      5  C   UNL A   1      33.618  30.005  26.541  1.00  0.00     0.060 A 
ATOM      6  C   UNL A   1      31.926  28.443  24.922  1.00  0.00    -0.032 A 
ATOM      7  C   UNL A   1      31.527  29.716  25.348  1.00  0.00     0.006 A 
ATOM      8  C   UNL A   1      33.213  28.002  25.257  1.00  0.00     0.006 A 
ATOM      9  C   UNL A   1      32.365  30.491  26.152  1.00  0.00     0.016 A 
ATOM     10  C   UNL A   1      34.052  28.764  26.073  1.00  0.00     0.016 A 
BRANCH   6  11
ATOM     11  C   UNL A   1      30.983  27.604  24.097  1.00  0.00     0.189 C 
BRANCH  11  12
ATOM     12  S   UNL A   1      30.277  26.233  25.037  1.00  0.00     0.215 S 
ATOM     13  O   UNL A   1      28.893  26.075  24.650  1.00  0.00    -0.212 OA
ATOM     14  O   UNL A   1      30.639  26.347  26.436  1.00  0.00    -0.212 OA
BRANCH  12  15
ATOM     15  N   UNL A   1      31.092  24.863  24.467  1.00  0.00    -0.214 NA
ATOM     16  H   UNL A   1      32.050  24.910  24.815  1.00  0.00     0.141 HD
BRANCH  15  17
ATOM     17  C   UNL A   1      31.159  24.677  23.003  1.00  0.00     0.110 C 
BRANCH  17  18
ATOM     18  C   UNL A   1      32.595  24.727  22.470  1.00  0.00     0.028 C 
ATOM     19  C   UNL A   1      32.821  25.703  21.325  1.00  0.00     0.018 C 
ATOM     20  C   UNL A   1      33.138  23.312  22.185  1.00  0.00     0.170 C 
ATOM     21  C   UNL A   1      33.679  24.742  23.564  1.00  0.00     0.170 C 
ATOM     22  O   UNL A   1      33.870  23.311  23.434  1.00  0.00    -0.380 OA
ENDBRANCH  17  18
ENDBRANCH  15  17
ENDBRANCH  12  15
ENDBRANCH  11  12
ENDBRANCH   6  11
ENDBRANCH   3   5
ENDBRANCH   2   3
ENDBRANCH   1   2
BRANCH   1  23
ATOM     23  C   UNL A   1      34.056  33.337  29.888  1.00  0.00     0.202 C 
BRANCH  23  24
ATOM     24  O   UNL A   1      34.474  34.633  30.315  1.00  0.00    -0.374 OA
BRANCH  24  25
ATOM     25  C   UNL A   1      34.171  34.991  31.666  1.00  0.00     0.202 C 
BRANCH  25  26
ATOM     26  C   UNL A   1      35.353  34.931  32.642  1.00  0.00     0.261 C 
BRANCH  26  27
ATOM     27  O   UNL A   1      36.396  34.071  32.146  1.00  0.00    -0.460 OA
BRANCH  27  28
ATOM     28  C   UNL A   1      36.417  32.828  32.684  1.00  0.00     0.338 C 
ATOM     29  O   UNL A   1      35.688  32.383  33.554  1.00  0.00    -0.246 OA
BRANCH  28  30
ATOM     30  C   UNL A   1      37.365  31.982  31.934  1.00  0.00     0.060 A 
ATOM     31  C   UNL A   1      38.309  31.255  32.671  1.00  0.00     0.016 A 
ATOM     32  C   UNL A   1      37.374  31.949  30.538  1.00  0.00     0.016 A 
ATOM     33  C   UNL A   1      39.302  30.533  32.014  1.00  0.00     0.010 A 
ATOM     34  C   UNL A   1      38.378  31.231  29.880  1.00  0.00     0.010 A 
ATOM     35  C   UNL A   1      39.367  30.551  30.616  1.00  0.00    -0.014 A 
BRANCH  35  36
ATOM     36  C   UNL A   1      40.556  30.004  29.923  1.00  0.00     0.031 A 
ATOM     37  C   UNL A   1      41.734  30.907  29.685  1.00  0.00     0.074 A 
ATOM     38  C   UNL A   1      40.595  28.722  29.522  1.00  0.00     0.049 A 
ATOM     39  N   UNL A   1      42.844  30.672  29.035  1.00  0.00    -0.248 NA
ATOM     40  C   UNL A   1      41.641  32.262  30.253  1.00  0.00     0.031 C 
ATOM     41  C   UNL A   1      39.540  27.735  29.740  1.00  0.00     0.029 A 
ATOM     42  N   UNL A   1      41.564  28.036  28.834  1.00  0.00    -0.354 N 
ATOM     43  C   UNL A   1      43.579  31.849  29.110  1.00  0.00     0.074 A 
ATOM     44  C   UNL A   1      42.776  32.805  29.840  1.00  0.00     0.031 C 
ATOM     45  C   UNL A   1      39.915  26.568  29.186  1.00  0.00     0.029 A 
ATOM     46  C   UNL A   1      41.218  26.739  28.545  1.00  0.00     0.049 A 
ATOM     47  H   UNL A   1      42.426  28.435  28.574  1.00  0.00     0.167 HD
ATOM     48  C   UNL A   1      44.814  32.107  28.619  1.00  0.00     0.037 A 
ATOM     49  C   UNL A   1      41.870  25.807  27.823  1.00  0.00     0.037 A 
ATOM     50  C   UNL A   1      45.610  31.155  27.891  1.00  0.00     0.049 A 
ATOM     51  C   UNL A   1      43.206  26.143  27.215  1.00  0.00     0.074 A 
ATOM     52  C   UNL A   1      46.877  31.316  27.359  1.00  0.00     0.029 A 
ATOM     53  N   UNL A   1      45.210  29.862  27.589  1.00  0.00    -0.354 N 
ATOM     54  N   UNL A   1      43.896  27.255  27.296  1.00  0.00    -0.248 NA
ATOM     55  C   UNL A   1      43.852  25.094  26.412  1.00  0.00     0.031 C 
ATOM     56  C   UNL A   1      47.225  30.135  26.695  1.00  0.00     0.029 A 
ATOM     57  C   UNL A   1      46.195  29.222  26.857  1.00  0.00     0.049 A 
ATOM     58  H   UNL A   1      44.352  29.459  27.854  1.00  0.00     0.167 HD
ATOM     59  C   UNL A   1      45.069  27.028  26.586  1.00  0.00     0.074 A 
ATOM     60  C   UNL A   1      44.998  25.672  26.082  1.00  0.00     0.031 C 
ATOM     61  C   UNL A   1      46.114  27.866  26.374  1.00  0.00     0.037 A 
BRANCH  48  62
ATOM     62  C   UNL A   1      45.362  33.487  28.832  1.00  0.00     0.057 A 
ATOM     63  C   UNL A   1      45.106  34.532  27.935  1.00  0.00     0.134 A 
ATOM     64  C   UNL A   1      46.150  33.777  29.953  1.00  0.00     0.134 A 
ATOM     65  F   UNL A   1      44.373  34.316  26.831  1.00  0.00    -0.206 F 
ATOM     66  C   UNL A   1      45.635  35.809  28.131  1.00  0.00     0.040 A 
ATOM     67  C   UNL A   1      46.662  35.057  30.175  1.00  0.00     0.040 A 
ATOM     68  F   UNL A   1      46.431  32.823  30.854  1.00  0.00    -0.206 F 
ATOM     69  C   UNL A   1      46.410  36.075  29.258  1.00  0.00     0.006 A 
ENDBRANCH  48  62
BRANCH  49  70
ATOM     70  C   UNL A   1      41.266  24.466  27.628  1.00  0.00     0.057 A 
ATOM     71  C   UNL A   1      41.727  23.355  28.343  1.00  0.00     0.134 A 
ATOM     72  C   UNL A   1      40.223  24.260  26.717  1.00  0.00     0.134 A 
ATOM     73  F   UNL A   1      42.738  23.486  29.213  1.00  0.00    -0.206 F 
ATOM     74  C   UNL A   1      41.179  22.085  28.152  1.00  0.00     0.040 A 
ATOM     75  C   UNL A   1      39.652  23.000  26.531  1.00  0.00     0.040 A 
ATOM     76  F   UNL A   1      39.737  25.285  26.001  1.00  0.00    -0.206 F 
ATOM     77  C   UNL A   1      40.135  21.907  27.246  1.00  0.00     0.006 A 
ENDBRANCH  49  70
BRANCH  61  78
ATOM     78  C   UNL A   1      47.286  27.330  25.606  1.00  0.00     0.057 A 
ATOM     79  C   UNL A   1      47.418  27.523  24.226  1.00  0.00     0.134 A 
ATOM     80  C   UNL A   1      48.323  26.661  26.269  1.00  0.00     0.134 A 
ATOM     81  F   UNL A   1      46.454  28.147  23.530  1.00  0.00    -0.206 F 
ATOM     82  C   UNL A   1      48.533  27.055  23.528  1.00  0.00     0.040 A 
ATOM     83  C   UNL A   1      49.453  26.208  25.587  1.00  0.00     0.040 A 
ATOM     84  F   UNL A   1      48.262  26.450  27.592  1.00  0.00    -0.206 F 
ATOM     85  C   UNL A   1      49.559  26.403  24.211  1.00  0.00     0.006 A 
ENDBRANCH  61  78
ENDBRANCH  35  36
ENDBRANCH  28  30
ENDBRANCH  27  28
ENDBRANCH  26  27
ENDBRANCH  25  26
ENDBRANCH  24  25
ENDBRANCH  23  24
ENDBRANCH   1  23
TORSDOF 19
ENDMDL
MODEL 3
REMARK VINA RESULT:     -10.1      5.118     10.407
REMARK SMILES CC1(CNS(=O)(=O)Cc2ccc(C(=O)OCCOCCOC(=O)c3ccc(-c4c5nc(c(-c6c(F)cccc6F)c6ccc([nH]6)c(-c6c(F)cccc6F)c6nc(c(-c7c(F)cccc7F)c7ccc4[nH]7)C=C6)C=C5)cc3)cc2)COC1
REMARK SMILES IDX 16 1 15 2 13 3 14 4 12 5 9 6 10 7 79 8 11 9 78 10 8 11 5 12
REMARK SMILES IDX 6 13 7 14 4 15 3 17 2 18 1 19 80 20 82 21 81 22 17 23 18 24
REMARK SMILES IDX 19 25 20 26 21 27 22 28 23 29 24 30 25 31 77 32 26 33 76 34
REMARK SMILES IDX 27 35 28 36 29 37 70 38 30 39 75 40 69 41 71 42 31 43 74 44
REMARK SMILES IDX 68 45 67 46 32 48 58 49 41 50 57 51 42 52 45 53 56 54 72 55
REMARK SMILES IDX 43 56 44 57 55 59 73 60 46 61 33 62 34 63 39 64 35 65 36 66
REMARK SMILES IDX 38 67 40 68 37 69 59 70 60 71 65 72 61 73 62 74 64 75 66 76
REMARK SMILES IDX 63 77 47 78 48 79 53 80 49 81 50 82 52 83 54 84 51 85
REMARK H PARENT 4 16 71 47 45 58
REMARK Flexibility Score: inf
ROOT
ATOM      1  C   UNL A   1      33.024  35.867  29.352  1.00  0.00     0.261 C 
ENDROOT
BRANCH   1   2
ATOM      2  O   UNL A   1      32.669  34.588  28.805  1.00  0.00    -0.460 OA
BRANCH   2   3
ATOM      3  C   UNL A   1      33.690  33.908  28.227  1.00  0.00     0.338 C 
ATOM      4  O   UNL A   1      34.873  34.206  28.258  1.00  0.00    -0.246 OA
BRANCH   3   5
ATOM      5  C   UNL A   1      33.193  32.646  27.627  1.00  0.00     0.060 A 
ATOM      6  C   UNL A   1      32.106  30.293  26.527  1.00  0.00    -0.032 A 
ATOM      7  C   UNL A   1      31.392  31.498  26.478  1.00  0.00     0.006 A 
ATOM      8  C   UNL A   1      33.400  30.308  27.065  1.00  0.00     0.006 A 
ATOM      9  C   UNL A   1      31.930  32.664  27.024  1.00  0.00     0.016 A 
ATOM     10  C   UNL A   1      33.939  31.468  27.627  1.00  0.00     0.016 A 
BRANCH   6  11
ATOM     11  C   UNL A   1      31.484  29.036  25.975  1.00  0.00     0.189 C 
BRANCH  11  12
ATOM     12  S   UNL A   1      31.696  28.889  24.187  1.00  0.00     0.215 S 
ATOM     13  O   UNL A   1      31.209  27.594  23.772  1.00  0.00    -0.212 OA
ATOM     14  O   UNL A   1      33.022  29.332  23.804  1.00  0.00    -0.212 OA
BRANCH  12  15
ATOM     15  N   UNL A   1      30.629  30.033  23.538  1.00  0.00    -0.214 NA
ATOM     16  H   UNL A   1      30.121  30.453  24.316  1.00  0.00     0.141 HD
BRANCH  15  17
ATOM     17  C   UNL A   1      29.631  29.548  22.563  1.00  0.00     0.110 C 
BRANCH  17  18
ATOM     18  C   UNL A   1      28.496  30.552  22.338  1.00  0.00     0.028 C 
ATOM     19  C   UNL A   1      28.031  30.682  20.895  1.00  0.00     0.018 C 
ATOM     20  C   UNL A   1      28.802  31.907  23.006  1.00  0.00     0.170 C 
ATOM     21  C   UNL A   1      27.367  30.480  23.382  1.00  0.00     0.170 C 
ATOM     22  O   UNL A   1      27.949  31.578  24.128  1.00  0.00    -0.380 OA
ENDBRANCH  17  18
ENDBRANCH  15  17
ENDBRANCH  12  15
ENDBRANCH  11  12
ENDBRANCH   6  11
ENDBRANCH   3   5
ENDBRANCH   2   3
ENDBRANCH   1   2
BRANCH   1  23
ATOM     23  C   UNL A   1      32.967  35.841  30.882  1.00  0.00     0.202 C 
BRANCH  23  24
ATOM     24  O   UNL A   1      34.014  35.115  31.525  1.00  0.00    -0.374 OA
BRANCH  24  25
ATOM     25  C   UNL A   1      33.796  34.751  32.891  1.00  0.00     0.202 C 
BRANCH  25  26
ATOM     26  C   UNL A   1      34.399  33.407  33.317  1.00  0.00     0.261 C 
BRANCH  26  27
ATOM     27  O   UNL A   1      35.662  33.172  32.667  1.00  0.00    -0.460 OA
BRANCH  27  28
ATOM     28  C   UNL A   1      35.638  32.236  31.689  1.00  0.00     0.338 C 
ATOM     29  O   UNL A   1      34.659  31.778  31.124  1.00  0.00    -0.246 OA
BRANCH  28  30
ATOM     30  C   UNL A   1      37.016  31.943  31.251  1.00  0.00     0.060 A 
ATOM     31  C   UNL A   1      37.351  32.239  29.923  1.00  0.00     0.016 A 
ATOM     32  C   UNL A   1      37.942  31.333  32.099  1.00  0.00     0.016 A 
ATOM     33  C   UNL A   1      38.598  31.876  29.421  1.00  0.00     0.010 A 
ATOM     34  C   UNL A   1      39.191  30.961  31.591  1.00  0.00     0.010 A 
ATOM     35  C   UNL A   1      39.509  31.198  30.241  1.00  0.00    -0.014 A 
BRANCH  35  36
ATOM     36  C   UNL A   1      40.723  30.587  29.650  1.00  0.00     0.031 A 
ATOM     37  C   UNL A   1      41.942  31.445  29.458  1.00  0.00     0.074 A 
ATOM     38  C   UNL A   1      40.747  29.290  29.301  1.00  0.00     0.049 A 
ATOM     39  N   UNL A   1      43.085  31.151  28.893  1.00  0.00    -0.248 NA
ATOM     40  C   UNL A   1      41.857  32.823  29.967  1.00  0.00     0.031 C 
ATOM     41  C   UNL A   1      39.648  28.344  29.485  1.00  0.00     0.029 A 
ATOM     42  N   UNL A   1      41.736  28.548  28.706  1.00  0.00    -0.354 N 
ATOM     43  C   UNL A   1      43.851  32.308  28.972  1.00  0.00     0.074 A 
ATOM     44  C   UNL A   1      43.034  33.316  29.610  1.00  0.00     0.031 C 
ATOM     45  C   UNL A   1      40.020  27.146  29.002  1.00  0.00     0.029 A 
ATOM     46  C   UNL A   1      41.367  27.252  28.443  1.00  0.00     0.049 A 
ATOM     47  H   UNL A   1      42.625  28.911  28.490  1.00  0.00     0.167 HD
ATOM     48  C   UNL A   1      45.124  32.508  28.556  1.00  0.00     0.037 A 
ATOM     49  C   UNL A   1      42.034  26.273  27.803  1.00  0.00     0.037 A 
ATOM     50  C   UNL A   1      45.934  31.505  27.919  1.00  0.00     0.049 A 
ATOM     51  C   UNL A   1      43.418  26.544  27.273  1.00  0.00     0.074 A 
ATOM     52  C   UNL A   1      47.238  31.607  27.467  1.00  0.00     0.029 A 
ATOM     53  N   UNL A   1      45.513  30.213  27.639  1.00  0.00    -0.354 N 
ATOM     54  N   UNL A   1      44.137  27.637  27.358  1.00  0.00    -0.248 NA
ATOM     55  C   UNL A   1      44.080  25.445  26.556  1.00  0.00     0.031 C 
ATOM     56  C   UNL A   1      47.590  30.390  26.873  1.00  0.00     0.029 A 
ATOM     57  C   UNL A   1      46.523  29.515  27.000  1.00  0.00     0.049 A 
ATOM     58  H   UNL A   1      44.627  29.847  27.862  1.00  0.00     0.167 HD
ATOM     59  C   UNL A   1      45.346  27.347  26.737  1.00  0.00     0.074 A 
ATOM     60  C   UNL A   1      45.264  25.975  26.281  1.00  0.00     0.031 C 
ATOM     61  C   UNL A   1      46.430  28.145  26.565  1.00  0.00     0.037 A 
BRANCH  48  62
ATOM     62  C   UNL A   1      45.701  33.879  28.752  1.00  0.00     0.057 A 
ATOM     63  C   UNL A   1      46.432  34.218  29.899  1.00  0.00     0.134 A 
ATOM     64  C   UNL A   1      45.533  34.870  27.778  1.00  0.00     0.134 A 
ATOM     65  F   UNL A   1      46.614  33.319  30.878  1.00  0.00    -0.206 F 
ATOM     66  C   UNL A   1      46.951  35.501  30.081  1.00  0.00     0.040 A 
ATOM     67  C   UNL A   1      46.070  36.149  27.936  1.00  0.00     0.040 A 
ATOM     68  F   UNL A   1      44.847  34.611  26.653  1.00  0.00    -0.206 F 
ATOM     69  C   UNL A   1      46.775  36.469  29.095  1.00  0.00     0.006 A 
ENDBRANCH  48  62
BRANCH  49  70
ATOM     70  C   UNL A   1      41.401  24.944  27.618  1.00  0.00     0.057 A 
ATOM     71  C   UNL A   1      40.419  24.741  26.641  1.00  0.00     0.134 A 
ATOM     72  C   UNL A   1      41.752  23.850  28.418  1.00  0.00     0.134 A 
ATOM     73  F   UNL A   1      40.026  25.757  25.860  1.00  0.00    -0.206 F 
ATOM     74  C   UNL A   1      39.803  23.500  26.473  1.00  0.00     0.040 A 
ATOM     75  C   UNL A   1      41.159  22.598  28.247  1.00  0.00     0.040 A 
ATOM     76  F   UNL A   1      42.686  23.981  29.372  1.00  0.00    -0.206 F 
ATOM     77  C   UNL A   1      40.176  22.423  27.275  1.00  0.00     0.006 A 
ENDBRANCH  49  70
BRANCH  61  78
ATOM     78  C   UNL A   1      47.631  27.543  25.897  1.00  0.00     0.057 A 
ATOM     79  C   UNL A   1      48.654  26.927  26.627  1.00  0.00     0.134 A 
ATOM     80  C   UNL A   1      47.735  27.533  24.500  1.00  0.00     0.134 A 
ATOM     81  F   UNL A   1      48.619  26.913  27.969  1.00  0.00    -0.206 F 
ATOM     82  C   UNL A   1      49.748  26.335  25.992  1.00  0.00     0.040 A 
ATOM     83  C   UNL A   1      48.811  26.924  23.853  1.00  0.00     0.040 A 
ATOM     84  F   UNL A   1      46.784  28.099  23.742  1.00  0.00    -0.206 F 
ATOM     85  C   UNL A   1      49.823  26.325  24.601  1.00  0.00     0.006 A 
ENDBRANCH  61  78
ENDBRANCH  35  36
ENDBRANCH  28  30
ENDBRANCH  27  28
ENDBRANCH  26  27
ENDBRANCH  25  26
ENDBRANCH  24  25
ENDBRANCH  23  24
ENDBRANCH   1  23
TORSDOF 19
ENDMDL
