MODEL 1
REMARK VINA RESULT:      -9.2      0.000      0.000
REMARK SMILES Cc1cc(OCCc2nc(CC(=O)OCCOCCOC(=O)c3ccc(-c4c5nc(c(-c6c(F)cccc6F)c6ccc([nH]6)c(-c6c(F)cccc6F)c6nc(c(-c7c(F)cccc7F)c7ccc4[nH]7)C=C6)C=C5)cc3)cs2)ccc1Cl
REMARK SMILES IDX 15 1 14 2 12 3 13 4 11 5 10 6 8 7 9 8 78 9 77 10 7 11 6 12
REMARK SMILES IDX 5 13 4 14 1 15 2 16 3 17 81 18 80 19 82 20 79 21 16 22 17 23
REMARK SMILES IDX 18 24 19 25 20 26 21 27 22 28 23 29 24 30 76 31 25 32 75 33
REMARK SMILES IDX 26 34 27 35 28 36 69 37 29 38 74 39 68 40 70 41 30 42 73 43
REMARK SMILES IDX 67 44 66 45 31 47 57 48 40 49 56 50 41 51 44 52 55 53 71 54
REMARK SMILES IDX 42 55 43 56 54 58 72 59 45 60 32 61 33 62 38 63 34 64 35 65
REMARK SMILES IDX 37 66 39 67 36 68 58 69 59 70 64 71 60 72 61 73 63 74 65 75
REMARK SMILES IDX 62 76 46 77 47 78 52 79 48 80 49 81 51 82 53 83 50 84
REMARK H PARENT 70 46 44 57
REMARK Flexibility Score: inf
ROOT
ATOM      1  C   UNL A   1      35.658  33.610  34.241  1.00  0.00     0.261 C 
ENDROOT
BRANCH   1   2
ATOM      2  O   UNL A   1      36.509  33.650  35.412  1.00  0.00    -0.463 OA
BRANCH   2   3
ATOM      3  C   UNL A   1      37.380  32.625  35.608  1.00  0.00     0.311 C 
ATOM      4  O   UNL A   1      37.393  31.915  36.608  1.00  0.00    -0.252 OA
BRANCH   3   5
ATOM      5  C   UNL A   1      38.387  32.482  34.487  1.00  0.00     0.179 C 
BRANCH   5   6
ATOM      6  C   UNL A   1      38.406  31.176  33.748  1.00  0.00     0.063 A 
ATOM      7  C   UNL A   1      39.495  29.358  33.000  1.00  0.00     0.096 A 
ATOM      8  N   UNL A   1      39.630  30.522  33.606  1.00  0.00    -0.246 NA
ATOM      9  S   UNL A   1      37.874  28.983  32.551  1.00  0.00    -0.127 S 
ATOM     10  C   UNL A   1      37.332  30.426  33.310  1.00  0.00     0.091 A 
BRANCH   7  11
ATOM     11  C   UNL A   1      40.595  28.336  32.828  1.00  0.00     0.109 C 
BRANCH  11  12
ATOM     12  C   UNL A   1      41.699  28.327  33.891  1.00  0.00     0.237 C 
BRANCH  12  13
ATOM     13  O   UNL A   1      41.487  27.379  34.948  1.00  0.00    -0.493 OA
BRANCH  13  14
ATOM     14  C   UNL A   1      42.113  26.174  34.804  1.00  0.00     0.119 A 
ATOM     15  C   UNL A   1      45.298  24.791  33.399  1.00  0.00     0.046 C 
ATOM     16  C   UNL A   1      43.958  24.779  34.062  1.00  0.00    -0.029 A 
ATOM     17  C   UNL A   1      43.237  25.978  34.009  1.00  0.00     0.051 A 
ATOM     18  C   UNL A   1      43.464  23.729  34.843  1.00  0.00     0.044 A 
ATOM     19  C   UNL A   1      42.278  23.889  35.566  1.00  0.00     0.024 A 
ATOM     20  Cl  UNL A   1      44.272  22.211  34.960  1.00  0.00    -0.084 Cl
ATOM     21  C   UNL A   1      41.606  25.113  35.550  1.00  0.00     0.048 A 
ENDBRANCH  13  14
ENDBRANCH  12  13
ENDBRANCH  11  12
ENDBRANCH   7  11
ENDBRANCH   5   6
ENDBRANCH   3   5
ENDBRANCH   2   3
ENDBRANCH   1   2
BRANCH   1  22
ATOM     22  C   UNL A   1      35.516  34.990  33.586  1.00  0.00     0.202 C 
BRANCH  22  23
ATOM     23  O   UNL A   1      34.167  35.411  33.383  1.00  0.00    -0.374 OA
BRANCH  23  24
ATOM     24  C   UNL A   1      33.999  36.548  32.544  1.00  0.00     0.202 C 
BRANCH  24  25
ATOM     25  C   UNL A   1      32.872  36.425  31.513  1.00  0.00     0.261 C 
BRANCH  25  26
ATOM     26  O   UNL A   1      32.759  35.095  30.972  1.00  0.00    -0.460 OA
BRANCH  26  27
ATOM     27  C   UNL A   1      33.165  34.975  29.688  1.00  0.00     0.338 C 
ATOM     28  O   UNL A   1      32.676  35.524  28.707  1.00  0.00    -0.246 OA
BRANCH  27  29
ATOM     29  C   UNL A   1      34.377  34.141  29.587  1.00  0.00     0.060 A 
ATOM     30  C   UNL A   1      34.578  33.174  30.579  1.00  0.00     0.016 A 
ATOM     31  C   UNL A   1      35.350  34.355  28.606  1.00  0.00     0.016 A 
ATOM     32  C   UNL A   1      35.779  32.467  30.635  1.00  0.00     0.010 A 
ATOM     33  C   UNL A   1      36.548  33.629  28.652  1.00  0.00     0.010 A 
ATOM     34  C   UNL A   1      36.791  32.717  29.697  1.00  0.00    -0.014 A 
BRANCH  34  35
ATOM     35  C   UNL A   1      38.148  32.148  29.918  1.00  0.00     0.031 A 
ATOM     36  C   UNL A   1      39.148  32.930  30.731  1.00  0.00     0.074 A 
ATOM     37  C   UNL A   1      38.475  30.926  29.458  1.00  0.00     0.049 A 
ATOM     38  N   UNL A   1      40.380  32.625  31.051  1.00  0.00    -0.248 NA
ATOM     39  C   UNL A   1      38.697  34.228  31.255  1.00  0.00     0.031 C 
ATOM     40  C   UNL A   1      37.595  30.047  28.690  1.00  0.00     0.029 A 
ATOM     41  N   UNL A   1      39.644  30.214  29.576  1.00  0.00    -0.354 N 
ATOM     42  C   UNL A   1      40.851  33.692  31.807  1.00  0.00     0.074 A 
ATOM     43  C   UNL A   1      39.787  34.671  31.862  1.00  0.00     0.031 C 
ATOM     44  C   UNL A   1      38.256  28.912  28.406  1.00  0.00     0.029 A 
ATOM     45  C   UNL A   1      39.614  28.996  28.940  1.00  0.00     0.049 A 
ATOM     46  H   UNL A   1      40.430  30.546  30.068  1.00  0.00     0.167 HD
ATOM     47  C   UNL A   1      42.053  33.841  32.415  1.00  0.00     0.037 A 
ATOM     48  C   UNL A   1      40.577  28.065  28.792  1.00  0.00     0.037 A 
ATOM     49  C   UNL A   1      43.113  32.868  32.371  1.00  0.00     0.049 A 
ATOM     50  C   UNL A   1      41.932  28.285  29.412  1.00  0.00     0.074 A 
ATOM     51  C   UNL A   1      44.358  32.923  32.972  1.00  0.00     0.029 A 
ATOM     52  N   UNL A   1      43.055  31.666  31.683  1.00  0.00    -0.354 N 
ATOM     53  N   UNL A   1      42.355  29.287  30.146  1.00  0.00    -0.248 NA
ATOM     54  C   UNL A   1      42.944  27.242  29.187  1.00  0.00     0.031 C 
ATOM     55  C   UNL A   1      45.075  31.781  32.603  1.00  0.00     0.029 A 
ATOM     56  C   UNL A   1      44.254  30.985  31.820  1.00  0.00     0.049 A 
ATOM     57  H   UNL A   1      42.278  31.343  31.172  1.00  0.00     0.167 HD
ATOM     58  C   UNL A   1      43.665  28.980  30.493  1.00  0.00     0.074 A 
ATOM     59  C   UNL A   1      43.965  27.693  29.902  1.00  0.00     0.031 C 
ATOM     60  C   UNL A   1      44.542  29.699  31.237  1.00  0.00     0.037 A 
BRANCH  47  61
ATOM     61  C   UNL A   1      42.295  35.117  33.168  1.00  0.00     0.057 A 
ATOM     62  C   UNL A   1      41.796  35.321  34.461  1.00  0.00     0.134 A 
ATOM     63  C   UNL A   1      43.070  36.140  32.607  1.00  0.00     0.134 A 
ATOM     64  F   UNL A   1      41.036  34.388  35.053  1.00  0.00    -0.206 F 
ATOM     65  C   UNL A   1      42.040  36.507  35.159  1.00  0.00     0.040 A 
ATOM     66  C   UNL A   1      43.344  37.317  33.305  1.00  0.00     0.040 A 
ATOM     67  F   UNL A   1      43.584  36.007  31.374  1.00  0.00    -0.206 F 
ATOM     68  C   UNL A   1      42.822  37.506  34.583  1.00  0.00     0.006 A 
ENDBRANCH  47  61
BRANCH  48  69
ATOM     69  C   UNL A   1      40.306  26.835  28.002  1.00  0.00     0.057 A 
ATOM     70  C   UNL A   1      40.811  26.674  26.707  1.00  0.00     0.134 A 
ATOM     71  C   UNL A   1      39.506  25.806  28.513  1.00  0.00     0.134 A 
ATOM     72  F   UNL A   1      41.560  27.637  26.149  1.00  0.00    -0.206 F 
ATOM     73  C   UNL A   1      40.515  25.544  25.941  1.00  0.00     0.040 A 
ATOM     74  C   UNL A   1      39.226  24.658  27.771  1.00  0.00     0.040 A 
ATOM     75  F   UNL A   1      38.988  25.900  29.746  1.00  0.00    -0.206 F 
ATOM     76  C   UNL A   1      39.724  24.530  26.476  1.00  0.00     0.006 A 
ENDBRANCH  48  69
BRANCH  60  77
ATOM     77  C   UNL A   1      45.896  29.099  31.491  1.00  0.00     0.057 A 
ATOM     78  C   UNL A   1      46.943  29.209  30.569  1.00  0.00     0.134 A 
ATOM     79  C   UNL A   1      46.166  28.441  32.699  1.00  0.00     0.134 A 
ATOM     80  F   UNL A   1      46.749  29.817  29.389  1.00  0.00    -0.206 F 
ATOM     81  C   UNL A   1      48.204  28.666  30.827  1.00  0.00     0.040 A 
ATOM     82  C   UNL A   1      47.429  27.919  32.981  1.00  0.00     0.040 A 
ATOM     83  F   UNL A   1      45.212  28.309  33.633  1.00  0.00    -0.206 F 
ATOM     84  C   UNL A   1      48.452  28.025  32.040  1.00  0.00     0.006 A 
ENDBRANCH  60  77
ENDBRANCH  34  35
ENDBRANCH  27  29
ENDBRANCH  26  27
ENDBRANCH  25  26
ENDBRANCH  24  25
ENDBRANCH  23  24
ENDBRANCH  22  23
ENDBRANCH   1  22
TORSDOF 19
ENDMDL
MODEL 2
REMARK VINA RESULT:      -9.0      5.586     11.340
REMARK SMILES Cc1cc(OCCc2nc(CC(=O)OCCOCCOC(=O)c3ccc(-c4c5nc(c(-c6c(F)cccc6F)c6ccc([nH]6)c(-c6c(F)cccc6F)c6nc(c(-c7c(F)cccc7F)c7ccc4[nH]7)C=C6)C=C5)cc3)cs2)ccc1Cl
REMARK SMILES IDX 15 1 14 2 12 3 13 4 11 5 10 6 8 7 9 8 78 9 77 10 7 11 6 12
REMARK SMILES IDX 5 13 4 14 1 15 2 16 3 17 81 18 80 19 82 20 79 21 16 22 17 23
REMARK SMILES IDX 18 24 19 25 20 26 21 27 22 28 23 29 24 30 76 31 25 32 75 33
REMARK SMILES IDX 26 34 27 35 28 36 69 37 29 38 74 39 68 40 70 41 30 42 73 43
REMARK SMILES IDX 67 44 66 45 31 47 57 48 40 49 56 50 41 51 44 52 55 53 71 54
REMARK SMILES IDX 42 55 43 56 54 58 72 59 45 60 32 61 33 62 38 63 34 64 35 65
REMARK SMILES IDX 37 66 39 67 36 68 58 69 59 70 64 71 60 72 61 73 63 74 65 75
REMARK SMILES IDX 62 76 46 77 47 78 52 79 48 80 49 81 51 82 53 83 50 84
REMARK H PARENT 70 46 44 57
REMARK Flexibility Score: inf
ROOT
ATOM      1  C   UNL A   1      43.334  18.836  25.579  1.00  0.00     0.261 C 
ENDROOT
BRANCH   1   2
ATOM      2  O   UNL A   1      42.677  20.030  26.067  1.00  0.00    -0.463 OA
BRANCH   2   3
ATOM      3  C   UNL A   1      41.330  19.996  26.241  1.00  0.00     0.311 C 
ATOM      4  O   UNL A   1      40.595  19.140  25.760  1.00  0.00    -0.252 OA
BRANCH   3   5
ATOM      5  C   UNL A   1      40.807  21.169  27.043  1.00  0.00     0.179 C 
BRANCH   5   6
ATOM      6  C   UNL A   1      39.633  21.913  26.478  1.00  0.00     0.063 A 
ATOM      7  C   UNL A   1      37.709  21.958  25.316  1.00  0.00     0.096 A 
ATOM      8  N   UNL A   1      38.726  21.204  25.689  1.00  0.00    -0.246 NA
ATOM      9  S   UNL A   1      37.792  23.582  25.885  1.00  0.00    -0.127 S 
ATOM     10  C   UNL A   1      39.220  23.201  26.760  1.00  0.00     0.091 A 
BRANCH   7  11
ATOM     11  C   UNL A   1      36.482  21.461  24.589  1.00  0.00     0.109 C 
BRANCH  11  12
ATOM     12  C   UNL A   1      35.159  21.501  25.362  1.00  0.00     0.237 C 
BRANCH  12  13
ATOM     13  O   UNL A   1      34.011  21.137  24.580  1.00  0.00    -0.493 OA
BRANCH  13  14
ATOM     14  C   UNL A   1      33.612  19.835  24.675  1.00  0.00     0.119 A 
ATOM     15  C   UNL A   1      34.210  16.560  22.958  1.00  0.00     0.046 C 
ATOM     16  C   UNL A   1      33.625  17.518  23.946  1.00  0.00    -0.029 A 
ATOM     17  C   UNL A   1      33.870  18.875  23.703  1.00  0.00     0.051 A 
ATOM     18  C   UNL A   1      33.004  17.149  25.144  1.00  0.00     0.044 A 
ATOM     19  C   UNL A   1      32.651  18.123  26.081  1.00  0.00     0.024 A 
ATOM     20  Cl  UNL A   1      32.646  15.507  25.525  1.00  0.00    -0.084 Cl
ATOM     21  C   UNL A   1      32.960  19.465  25.849  1.00  0.00     0.048 A 
ENDBRANCH  13  14
ENDBRANCH  12  13
ENDBRANCH  11  12
ENDBRANCH   7  11
ENDBRANCH   5   6
ENDBRANCH   3   5
ENDBRANCH   2   3
ENDBRANCH   1   2
BRANCH   1  22
ATOM     22  C   UNL A   1      44.413  19.158  24.536  1.00  0.00     0.202 C 
BRANCH  22  23
ATOM     23  O   UNL A   1      44.544  20.546  24.233  1.00  0.00    -0.374 OA
BRANCH  23  24
ATOM     24  C   UNL A   1      45.741  21.164  24.693  1.00  0.00     0.202 C 
BRANCH  24  25
ATOM     25  C   UNL A   1      45.538  22.248  25.756  1.00  0.00     0.261 C 
BRANCH  25  26
ATOM     26  O   UNL A   1      44.400  23.087  25.480  1.00  0.00    -0.460 OA
BRANCH  26  27
ATOM     27  C   UNL A   1      44.687  24.403  25.370  1.00  0.00     0.338 C 
ATOM     28  O   UNL A   1      45.510  24.918  24.621  1.00  0.00    -0.246 OA
BRANCH  27  29
ATOM     29  C   UNL A   1      43.801  25.216  26.225  1.00  0.00     0.060 A 
ATOM     30  C   UNL A   1      44.074  26.586  26.315  1.00  0.00     0.016 A 
ATOM     31  C   UNL A   1      42.786  24.648  27.001  1.00  0.00     0.016 A 
ATOM     32  C   UNL A   1      43.380  27.379  27.230  1.00  0.00     0.010 A 
ATOM     33  C   UNL A   1      42.077  25.451  27.905  1.00  0.00     0.010 A 
ATOM     34  C   UNL A   1      42.405  26.810  28.061  1.00  0.00    -0.014 A 
BRANCH  34  35
ATOM     35  C   UNL A   1      41.861  27.604  29.196  1.00  0.00     0.031 A 
ATOM     36  C   UNL A   1      42.553  27.543  30.534  1.00  0.00     0.074 A 
ATOM     37  C   UNL A   1      40.803  28.420  29.032  1.00  0.00     0.049 A 
ATOM     38  N   UNL A   1      42.255  28.152  31.654  1.00  0.00    -0.248 NA
ATOM     39  C   UNL A   1      43.741  26.680  30.619  1.00  0.00     0.031 C 
ATOM     40  C   UNL A   1      40.061  28.605  27.786  1.00  0.00     0.029 A 
ATOM     41  N   UNL A   1      40.171  29.249  29.928  1.00  0.00    -0.354 N 
ATOM     42  C   UNL A   1      43.213  27.743  32.574  1.00  0.00     0.074 A 
ATOM     43  C   UNL A   1      44.076  26.802  31.895  1.00  0.00     0.031 C 
ATOM     44  C   UNL A   1      39.075  29.493  27.996  1.00  0.00     0.029 A 
ATOM     45  C   UNL A   1      39.092  29.914  29.396  1.00  0.00     0.049 A 
ATOM     46  H   UNL A   1      40.462  29.356  30.862  1.00  0.00     0.167 HD
ATOM     47  C   UNL A   1      43.374  28.127  33.864  1.00  0.00     0.037 A 
ATOM     48  C   UNL A   1      38.209  30.751  29.976  1.00  0.00     0.037 A 
ATOM     49  C   UNL A   1      42.524  29.069  34.545  1.00  0.00     0.049 A 
ATOM     50  C   UNL A   1      38.362  31.104  31.433  1.00  0.00     0.074 A 
ATOM     51  C   UNL A   1      42.621  29.532  35.845  1.00  0.00     0.029 A 
ATOM     52  N   UNL A   1      41.419  29.687  33.981  1.00  0.00    -0.354 N 
ATOM     53  N   UNL A   1      39.287  30.730  32.285  1.00  0.00    -0.248 NA
ATOM     54  C   UNL A   1      37.347  32.000  32.010  1.00  0.00     0.031 C 
ATOM     55  C   UNL A   1      41.542  30.389  36.086  1.00  0.00     0.029 A 
ATOM     56  C   UNL A   1      40.807  30.506  34.918  1.00  0.00     0.049 A 
ATOM     57  H   UNL A   1      41.113  29.564  33.054  1.00  0.00     0.167 HD
ATOM     58  C   UNL A   1      38.984  31.368  33.482  1.00  0.00     0.074 A 
ATOM     59  C   UNL A   1      37.798  32.163  33.245  1.00  0.00     0.031 C 
ATOM     60  C   UNL A   1      39.632  31.302  34.672  1.00  0.00     0.037 A 
BRANCH  47  61
ATOM     61  C   UNL A   1      44.504  27.509  34.635  1.00  0.00     0.057 A 
ATOM     62  C   UNL A   1      44.372  26.273  35.283  1.00  0.00     0.134 A 
ATOM     63  C   UNL A   1      45.753  28.140  34.699  1.00  0.00     0.134 A 
ATOM     64  F   UNL A   1      43.201  25.621  35.272  1.00  0.00    -0.206 F 
ATOM     65  C   UNL A   1      45.435  25.700  35.985  1.00  0.00     0.040 A 
ATOM     66  C   UNL A   1      46.830  27.564  35.374  1.00  0.00     0.040 A 
ATOM     67  F   UNL A   1      45.950  29.323  34.096  1.00  0.00    -0.206 F 
ATOM     68  C   UNL A   1      46.671  26.344  36.026  1.00  0.00     0.006 A 
ENDBRANCH  47  61
BRANCH  48  69
ATOM     69  C   UNL A   1      37.080  31.306  29.185  1.00  0.00     0.057 A 
ATOM     70  C   UNL A   1      37.100  32.622  28.711  1.00  0.00     0.134 A 
ATOM     71  C   UNL A   1      35.939  30.541  28.914  1.00  0.00     0.134 A 
ATOM     72  F   UNL A   1      38.153  33.415  28.961  1.00  0.00    -0.206 F 
ATOM     73  C   UNL A   1      36.019  33.165  28.012  1.00  0.00     0.040 A 
ATOM     74  C   UNL A   1      34.863  31.060  28.193  1.00  0.00     0.040 A 
ATOM     75  F   UNL A   1      35.855  29.274  29.344  1.00  0.00    -0.206 F 
ATOM     76  C   UNL A   1      34.898  32.380  27.747  1.00  0.00     0.006 A 
ENDBRANCH  48  69
BRANCH  60  77
ATOM     77  C   UNL A   1      39.101  32.139  35.801  1.00  0.00     0.057 A 
ATOM     78  C   UNL A   1      38.236  31.618  36.770  1.00  0.00     0.134 A 
ATOM     79  C   UNL A   1      39.502  33.475  35.945  1.00  0.00     0.134 A 
ATOM     80  F   UNL A   1      37.805  30.350  36.686  1.00  0.00    -0.206 F 
ATOM     81  C   UNL A   1      37.767  32.401  37.828  1.00  0.00     0.040 A 
ATOM     82  C   UNL A   1      39.063  34.259  37.012  1.00  0.00     0.040 A 
ATOM     83  F   UNL A   1      40.339  34.036  35.058  1.00  0.00    -0.206 F 
ATOM     84  C   UNL A   1      38.187  33.724  37.955  1.00  0.00     0.006 A 
ENDBRANCH  60  77
ENDBRANCH  34  35
ENDBRANCH  27  29
ENDBRANCH  26  27
ENDBRANCH  25  26
ENDBRANCH  24  25
ENDBRANCH  23  24
ENDBRANCH  22  23
ENDBRANCH   1  22
TORSDOF 19
ENDMDL
MODEL 3
REMARK VINA RESULT:      -8.8      5.272     11.240
REMARK SMILES Cc1cc(OCCc2nc(CC(=O)OCCOCCOC(=O)c3ccc(-c4c5nc(c(-c6c(F)cccc6F)c6ccc([nH]6)c(-c6c(F)cccc6F)c6nc(c(-c7c(F)cccc7F)c7ccc4[nH]7)C=C6)C=C5)cc3)cs2)ccc1Cl
REMARK SMILES IDX 15 1 14 2 12 3 13 4 11 5 10 6 8 7 9 8 78 9 77 10 7 11 6 12
REMARK SMILES IDX 5 13 4 14 1 15 2 16 3 17 81 18 80 19 82 20 79 21 16 22 17 23
REMARK SMILES IDX 18 24 19 25 20 26 21 27 22 28 23 29 24 30 76 31 25 32 75 33
REMARK SMILES IDX 26 34 27 35 28 36 69 37 29 38 74 39 68 40 70 41 30 42 73 43
REMARK SMILES IDX 67 44 66 45 31 47 57 48 40 49 56 50 41 51 44 52 55 53 71 54
REMARK SMILES IDX 42 55 43 56 54 58 72 59 45 60 32 61 33 62 38 63 34 64 35 65
REMARK SMILES IDX 37 66 39 67 36 68 58 69 59 70 64 71 60 72 61 73 63 74 65 75
REMARK SMILES IDX 62 76 46 77 47 78 52 79 48 80 49 81 51 82 53 83 50 84
REMARK H PARENT 70 46 44 57
REMARK Flexibility Score: inf
ROOT
ATOM      1  C   UNL A   1      43.227  18.739  25.795  1.00  0.00     0.261 C 
ENDROOT
BRANCH   1   2
ATOM      2  O   UNL A   1      42.662  19.929  26.396  1.00  0.00    -0.463 OA
BRANCH   2   3
ATOM      3  C   UNL A   1      41.313  20.088  26.359  1.00  0.00     0.311 C 
ATOM      4  O   UNL A   1      40.549  19.344  25.755  1.00  0.00    -0.252 OA
BRANCH   3   5
ATOM      5  C   UNL A   1      40.843  21.327  27.092  1.00  0.00     0.179 C 
BRANCH   5   6
ATOM      6  C   UNL A   1      39.657  22.048  26.523  1.00  0.00     0.063 A 
ATOM      7  C   UNL A   1      37.745  22.059  25.340  1.00  0.00     0.096 A 
ATOM      8  N   UNL A   1      38.777  21.327  25.716  1.00  0.00    -0.246 NA
ATOM      9  S   UNL A   1      37.780  23.677  25.932  1.00  0.00    -0.127 S 
ATOM     10  C   UNL A   1      39.208  23.322  26.817  1.00  0.00     0.091 A 
BRANCH   7  11
ATOM     11  C   UNL A   1      36.539  21.540  24.593  1.00  0.00     0.109 C 
BRANCH  11  12
ATOM     12  C   UNL A   1      35.252  22.364  24.707  1.00  0.00     0.237 C 
BRANCH  12  13
ATOM     13  O   UNL A   1      35.144  23.419  23.739  1.00  0.00    -0.493 OA
BRANCH  13  14
ATOM     14  C   UNL A   1      34.316  24.453  24.071  1.00  0.00     0.119 A 
ATOM     15  C   UNL A   1      32.096  26.954  22.385  1.00  0.00     0.046 C 
ATOM     16  C   UNL A   1      32.786  26.255  23.512  1.00  0.00    -0.029 A 
ATOM     17  C   UNL A   1      33.790  25.349  23.148  1.00  0.00     0.051 A 
ATOM     18  C   UNL A   1      32.398  26.327  24.854  1.00  0.00     0.044 A 
ATOM     19  C   UNL A   1      32.997  25.495  25.804  1.00  0.00     0.024 A 
ATOM     20  Cl  UNL A   1      31.183  27.420  25.401  1.00  0.00    -0.084 Cl
ATOM     21  C   UNL A   1      33.951  24.555  25.411  1.00  0.00     0.048 A 
ENDBRANCH  13  14
ENDBRANCH  12  13
ENDBRANCH  11  12
ENDBRANCH   7  11
ENDBRANCH   5   6
ENDBRANCH   3   5
ENDBRANCH   2   3
ENDBRANCH   1   2
BRANCH   1  22
ATOM     22  C   UNL A   1      44.176  19.075  24.636  1.00  0.00     0.202 C 
BRANCH  22  23
ATOM     23  O   UNL A   1      44.296  20.470  24.358  1.00  0.00    -0.374 OA
BRANCH  23  24
ATOM     24  C   UNL A   1      45.539  21.062  24.717  1.00  0.00     0.202 C 
BRANCH  24  25
ATOM     25  C   UNL A   1      45.442  22.182  25.757  1.00  0.00     0.261 C 
BRANCH  25  26
ATOM     26  O   UNL A   1      44.299  23.033  25.548  1.00  0.00    -0.460 OA
BRANCH  26  27
ATOM     27  C   UNL A   1      44.594  24.344  25.402  1.00  0.00     0.338 C 
ATOM     28  O   UNL A   1      45.413  24.834  24.631  1.00  0.00    -0.246 OA
BRANCH  27  29
ATOM     29  C   UNL A   1      43.724  25.185  26.245  1.00  0.00     0.060 A 
ATOM     30  C   UNL A   1      44.052  26.540  26.358  1.00  0.00     0.016 A 
ATOM     31  C   UNL A   1      42.667  24.652  26.990  1.00  0.00     0.016 A 
ATOM     32  C   UNL A   1      43.372  27.352  27.266  1.00  0.00     0.010 A 
ATOM     33  C   UNL A   1      41.972  25.474  27.887  1.00  0.00     0.010 A 
ATOM     34  C   UNL A   1      42.354  26.817  28.067  1.00  0.00    -0.014 A 
BRANCH  34  35
ATOM     35  C   UNL A   1      41.817  27.621  29.199  1.00  0.00     0.031 A 
ATOM     36  C   UNL A   1      42.511  27.562  30.536  1.00  0.00     0.074 A 
ATOM     37  C   UNL A   1      40.765  28.443  29.033  1.00  0.00     0.049 A 
ATOM     38  N   UNL A   1      42.220  28.179  31.653  1.00  0.00    -0.248 NA
ATOM     39  C   UNL A   1      43.693  26.691  30.624  1.00  0.00     0.031 C 
ATOM     40  C   UNL A   1      40.023  28.627  27.787  1.00  0.00     0.029 A 
ATOM     41  N   UNL A   1      40.140  29.282  29.924  1.00  0.00    -0.354 N 
ATOM     42  C   UNL A   1      43.176  27.768  32.574  1.00  0.00     0.074 A 
ATOM     43  C   UNL A   1      44.031  26.817  31.898  1.00  0.00     0.031 C 
ATOM     44  C   UNL A   1      39.042  29.523  27.993  1.00  0.00     0.029 A 
ATOM     45  C   UNL A   1      39.065  29.951  29.391  1.00  0.00     0.049 A 
ATOM     46  H   UNL A   1      40.434  29.392  30.857  1.00  0.00     0.167 HD
ATOM     47  C   UNL A   1      43.342  28.158  33.862  1.00  0.00     0.037 A 
ATOM     48  C   UNL A   1      38.189  30.798  29.968  1.00  0.00     0.037 A 
ATOM     49  C   UNL A   1      42.500  29.110  34.538  1.00  0.00     0.049 A 
ATOM     50  C   UNL A   1      38.347  31.157  31.423  1.00  0.00     0.074 A 
ATOM     51  C   UNL A   1      42.602  29.579  35.836  1.00  0.00     0.029 A 
ATOM     52  N   UNL A   1      41.398  29.733  33.973  1.00  0.00    -0.354 N 
ATOM     53  N   UNL A   1      39.271  30.782  32.275  1.00  0.00    -0.248 NA
ATOM     54  C   UNL A   1      37.340  32.064  31.996  1.00  0.00     0.031 C 
ATOM     55  C   UNL A   1      41.530  30.445  36.074  1.00  0.00     0.029 A 
ATOM     56  C   UNL A   1      40.794  30.561  34.906  1.00  0.00     0.049 A 
ATOM     57  H   UNL A   1      41.090  29.607  33.047  1.00  0.00     0.167 HD
ATOM     58  C   UNL A   1      38.975  31.428  33.469  1.00  0.00     0.074 A 
ATOM     59  C   UNL A   1      37.794  32.230  33.230  1.00  0.00     0.031 C 
ATOM     60  C   UNL A   1      39.624  31.364  34.658  1.00  0.00     0.037 A 
BRANCH  47  61
ATOM     61  C   UNL A   1      44.469  27.536  34.634  1.00  0.00     0.057 A 
ATOM     62  C   UNL A   1      45.738  28.127  34.699  1.00  0.00     0.134 A 
ATOM     63  C   UNL A   1      44.272  26.350  35.353  1.00  0.00     0.134 A 
ATOM     64  F   UNL A   1      45.998  29.256  34.025  1.00  0.00    -0.206 F 
ATOM     65  C   UNL A   1      46.775  27.547  35.433  1.00  0.00     0.040 A 
ATOM     66  C   UNL A   1      45.293  25.776  36.112  1.00  0.00     0.040 A 
ATOM     67  F   UNL A   1      43.079  25.735  35.339  1.00  0.00    -0.206 F 
ATOM     68  C   UNL A   1      46.552  26.372  36.148  1.00  0.00     0.006 A 
ENDBRANCH  47  61
BRANCH  48  69
ATOM     69  C   UNL A   1      37.063  31.356  29.176  1.00  0.00     0.057 A 
ATOM     70  C   UNL A   1      37.084  32.675  28.708  1.00  0.00     0.134 A 
ATOM     71  C   UNL A   1      35.923  30.593  28.897  1.00  0.00     0.134 A 
ATOM     72  F   UNL A   1      38.135  33.467  28.967  1.00  0.00    -0.206 F 
ATOM     73  C   UNL A   1      36.005  33.221  28.009  1.00  0.00     0.040 A 
ATOM     74  C   UNL A   1      34.850  31.115  28.174  1.00  0.00     0.040 A 
ATOM     75  F   UNL A   1      35.839  29.323  29.319  1.00  0.00    -0.206 F 
ATOM     76  C   UNL A   1      34.886  32.437  27.736  1.00  0.00     0.006 A 
ENDBRANCH  48  69
BRANCH  60  77
ATOM     77  C   UNL A   1      39.101  32.211  35.783  1.00  0.00     0.057 A 
ATOM     78  C   UNL A   1      38.229  31.703  36.753  1.00  0.00     0.134 A 
ATOM     79  C   UNL A   1      39.517  33.543  35.923  1.00  0.00     0.134 A 
ATOM     80  F   UNL A   1      37.784  30.440  36.673  1.00  0.00    -0.206 F 
ATOM     81  C   UNL A   1      37.767  32.495  37.808  1.00  0.00     0.040 A 
ATOM     82  C   UNL A   1      39.085  34.336  36.987  1.00  0.00     0.040 A 
ATOM     83  F   UNL A   1      40.361  34.091  35.036  1.00  0.00    -0.206 F 
ATOM     84  C   UNL A   1      38.202  33.813  37.931  1.00  0.00     0.006 A 
ENDBRANCH  60  77
ENDBRANCH  34  35
ENDBRANCH  27  29
ENDBRANCH  26  27
ENDBRANCH  25  26
ENDBRANCH  24  25
ENDBRANCH  23  24
ENDBRANCH  22  23
ENDBRANCH   1  22
TORSDOF 19
ENDMDL
