MODEL 1
REMARK VINA RESULT:     -11.0      0.000      0.000
REMARK SMILES [NH3+]Cc1c(-c2ccccc2)c(C(=O)OCCOCCOC(=O)c2ccc(-c3c4nc(c(-c5c(F)cccc5F)c5ccc([nH]5)c(-c5c(F)cccc5F)c5nc(c(-c6c(F)cccc6F)c6ccc3[nH]6)C=C5)C=C4)cc2)c2ccccn12
REMARK SMILES IDX 17 1 16 2 15 3 14 4 12 5 13 6 11 7 3 8 4 9 82 10 77 11 81 12
REMARK SMILES IDX 78 13 80 14 79 15 2 16 1 17 5 21 6 22 10 23 7 24 9 25 8 26
REMARK SMILES IDX 18 27 19 28 20 29 21 30 22 31 23 32 24 33 76 34 25 35 75 36
REMARK SMILES IDX 26 37 27 38 28 39 69 40 29 41 74 42 68 43 70 44 30 45 73 46
REMARK SMILES IDX 67 47 66 48 31 50 57 51 40 52 56 53 41 54 44 55 55 56 71 57
REMARK SMILES IDX 42 58 43 59 54 61 72 62 45 63 32 64 33 65 38 66 34 67 35 68
REMARK SMILES IDX 37 69 39 70 36 71 58 72 59 73 64 74 60 75 61 76 63 77 65 78
REMARK SMILES IDX 62 79 46 80 47 81 52 82 48 83 49 84 51 85 53 86 50 87
REMARK H PARENT 1 18 1 19 1 20 70 49 44 60
REMARK Flexibility Score: inf
ROOT
ATOM      1  O   UNL A   1      32.477  30.977  26.849  1.00  0.00    -0.374 OA
ENDROOT
BRANCH   1   2
ATOM      2  C   UNL A   1      32.080  29.741  26.248  1.00  0.00     0.202 C 
BRANCH   2   3
ATOM      3  C   UNL A   1      33.234  28.781  25.946  1.00  0.00     0.261 C 
BRANCH   3   4
ATOM      4  O   UNL A   1      33.103  27.605  26.767  1.00  0.00    -0.460 OA
BRANCH   4   5
ATOM      5  C   UNL A   1      32.159  26.704  26.370  1.00  0.00     0.341 C 
ATOM      6  O   UNL A   1      31.075  26.557  26.922  1.00  0.00    -0.246 OA
BRANCH   5   7
ATOM      7  C   UNL A   1      32.532  26.001  25.145  1.00  0.00     0.093 A 
ATOM      8  C   UNL A   1      32.490  25.273  22.964  1.00  0.00     0.086 A 
ATOM      9  C   UNL A   1      31.854  26.094  23.891  1.00  0.00     0.024 A 
ATOM     10  N   UNL A   1      33.579  24.700  23.613  1.00  0.00    -0.314 N 
ATOM     11  C   UNL A   1      33.625  25.179  24.929  1.00  0.00     0.061 A 
ATOM     12  C   UNL A   1      34.532  23.795  23.126  1.00  0.00     0.092 A 
ATOM     13  C   UNL A   1      34.713  24.743  25.751  1.00  0.00     0.027 A 
ATOM     14  C   UNL A   1      35.523  23.360  23.918  1.00  0.00     0.018 A 
ATOM     15  C   UNL A   1      35.618  23.873  25.269  1.00  0.00     0.004 A 
BRANCH   8  16
ATOM     16  C   UNL A   1      32.152  25.099  21.513  1.00  0.00     0.315 C 
BRANCH  16  17
ATOM     17  N   UNL A   1      32.764  26.087  20.640  1.00  0.00    -0.353 N 
ATOM     18  H   UNL A   1      33.759  26.161  20.856  1.00  0.00     0.344 HD
ATOM     19  H   UNL A   1      32.317  26.992  20.783  1.00  0.00     0.344 HD
ATOM     20  H   UNL A   1      32.648  25.800  19.669  1.00  0.00     0.344 HD
ENDBRANCH  16  17
ENDBRANCH   8  16
BRANCH   9  21
ATOM     21  C   UNL A   1      30.776  27.003  23.544  1.00  0.00    -0.015 A 
ATOM     22  C   UNL A   1      31.082  28.257  22.996  1.00  0.00     0.009 A 
ATOM     23  C   UNL A   1      29.447  26.661  23.794  1.00  0.00     0.009 A 
ATOM     24  C   UNL A   1      30.065  29.168  22.717  1.00  0.00     0.001 A 
ATOM     25  C   UNL A   1      28.429  27.572  23.504  1.00  0.00     0.001 A 
ATOM     26  C   UNL A   1      28.738  28.825  22.971  1.00  0.00     0.000 A 
ENDBRANCH   9  21
ENDBRANCH   5   7
ENDBRANCH   4   5
ENDBRANCH   3   4
ENDBRANCH   2   3
ENDBRANCH   1   2
BRANCH   1  27
ATOM     27  C   UNL A   1      31.546  32.055  26.760  1.00  0.00     0.202 C 
BRANCH  27  28
ATOM     28  C   UNL A   1      32.154  33.452  26.923  1.00  0.00     0.261 C 
BRANCH  28  29
ATOM     29  O   UNL A   1      32.236  33.834  28.305  1.00  0.00    -0.460 OA
BRANCH  29  30
ATOM     30  C   UNL A   1      33.291  34.630  28.602  1.00  0.00     0.338 C 
ATOM     31  O   UNL A   1      33.290  35.840  28.751  1.00  0.00    -0.246 OA
BRANCH  30  32
ATOM     32  C   UNL A   1      34.476  33.798  28.886  1.00  0.00     0.060 A 
ATOM     33  C   UNL A   1      34.255  32.549  29.478  1.00  0.00     0.016 A 
ATOM     34  C   UNL A   1      35.776  34.244  28.631  1.00  0.00     0.016 A 
ATOM     35  C   UNL A   1      35.335  31.762  29.867  1.00  0.00     0.010 A 
ATOM     36  C   UNL A   1      36.860  33.456  29.028  1.00  0.00     0.010 A 
ATOM     37  C   UNL A   1      36.642  32.229  29.680  1.00  0.00    -0.014 A 
BRANCH  37  38
ATOM     38  C   UNL A   1      37.768  31.498  30.305  1.00  0.00     0.031 A 
ATOM     39  C   UNL A   1      38.104  31.774  31.743  1.00  0.00     0.074 A 
ATOM     40  C   UNL A   1      38.455  30.572  29.614  1.00  0.00     0.049 A 
ATOM     41  N   UNL A   1      39.037  31.248  32.494  1.00  0.00    -0.248 NA
ATOM     42  C   UNL A   1      37.276  32.781  32.428  1.00  0.00     0.031 C 
ATOM     43  C   UNL A   1      38.202  30.194  28.224  1.00  0.00     0.029 A 
ATOM     44  N   UNL A   1      39.509  29.781  29.994  1.00  0.00    -0.354 N 
ATOM     45  C   UNL A   1      38.907  31.854  33.736  1.00  0.00     0.074 A 
ATOM     46  C   UNL A   1      37.827  32.811  33.633  1.00  0.00     0.031 C 
ATOM     47  C   UNL A   1      39.085  29.246  27.865  1.00  0.00     0.029 A 
ATOM     48  C   UNL A   1      39.974  28.966  28.992  1.00  0.00     0.049 A 
ATOM     49  H   UNL A   1      39.895  29.796  30.900  1.00  0.00     0.167 HD
ATOM     50  C   UNL A   1      39.616  31.626  34.866  1.00  0.00     0.037 A 
ATOM     51  C   UNL A   1      41.007  28.103  28.986  1.00  0.00     0.037 A 
ATOM     52  C   UNL A   1      40.692  30.676  34.972  1.00  0.00     0.049 A 
ATOM     53  C   UNL A   1      41.820  27.911  30.237  1.00  0.00     0.074 A 
ATOM     54  C   UNL A   1      41.460  30.361  36.078  1.00  0.00     0.029 A 
ATOM     55  N   UNL A   1      41.153  29.892  33.925  1.00  0.00    -0.354 N 
ATOM     56  N   UNL A   1      41.670  28.468  31.415  1.00  0.00    -0.248 NA
ATOM     57  C   UNL A   1      42.945  26.967  30.159  1.00  0.00     0.031 C 
ATOM     58  C   UNL A   1      42.414  29.412  35.691  1.00  0.00     0.029 A 
ATOM     59  C   UNL A   1      42.212  29.109  34.354  1.00  0.00     0.049 A 
ATOM     60  H   UNL A   1      40.783  29.891  33.013  1.00  0.00     0.167 HD
ATOM     61  C   UNL A   1      42.661  27.925  32.223  1.00  0.00     0.074 A 
ATOM     62  C   UNL A   1      43.402  26.988  31.404  1.00  0.00     0.031 C 
ATOM     63  C   UNL A   1      42.933  28.178  33.526  1.00  0.00     0.037 A 
BRANCH  50  64
ATOM     64  C   UNL A   1      39.258  32.435  36.076  1.00  0.00     0.057 A 
ATOM     65  C   UNL A   1      39.807  33.702  36.305  1.00  0.00     0.134 A 
ATOM     66  C   UNL A   1      38.338  31.947  37.013  1.00  0.00     0.134 A 
ATOM     67  F   UNL A   1      40.706  34.216  35.452  1.00  0.00    -0.206 F 
ATOM     68  C   UNL A   1      39.468  34.451  37.433  1.00  0.00     0.040 A 
ATOM     69  C   UNL A   1      37.976  32.695  38.134  1.00  0.00     0.040 A 
ATOM     70  F   UNL A   1      37.776  30.740  36.852  1.00  0.00    -0.206 F 
ATOM     71  C   UNL A   1      38.545  33.949  38.349  1.00  0.00     0.006 A 
ENDBRANCH  50  64
BRANCH  51  72
ATOM     72  C   UNL A   1      41.339  27.355  27.749  1.00  0.00     0.057 A 
ATOM     73  C   UNL A   1      42.183  27.901  26.775  1.00  0.00     0.134 A 
ATOM     74  C   UNL A   1      40.807  26.084  27.503  1.00  0.00     0.134 A 
ATOM     75  F   UNL A   1      42.704  29.125  26.944  1.00  0.00    -0.206 F 
ATOM     76  C   UNL A   1      42.474  27.217  25.594  1.00  0.00     0.040 A 
ATOM     77  C   UNL A   1      41.106  25.379  26.337  1.00  0.00     0.040 A 
ATOM     78  F   UNL A   1      39.992  25.507  28.399  1.00  0.00    -0.206 F 
ATOM     79  C   UNL A   1      41.938  25.949  25.376  1.00  0.00     0.006 A 
ENDBRANCH  51  72
BRANCH  63  80
ATOM     80  C   UNL A   1      44.058  27.412  34.154  1.00  0.00     0.057 A 
ATOM     81  C   UNL A   1      43.864  26.143  34.713  1.00  0.00     0.134 A 
ATOM     82  C   UNL A   1      45.359  27.932  34.161  1.00  0.00     0.134 A 
ATOM     83  F   UNL A   1      42.640  25.596  34.748  1.00  0.00    -0.206 F 
ATOM     84  C   UNL A   1      44.922  25.425  35.273  1.00  0.00     0.040 A 
ATOM     85  C   UNL A   1      46.428  27.214  34.698  1.00  0.00     0.040 A 
ATOM     86  F   UNL A   1      45.613  29.139  33.633  1.00  0.00    -0.206 F 
ATOM     87  C   UNL A   1      46.210  25.959  35.261  1.00  0.00     0.006 A 
ENDBRANCH  63  80
ENDBRANCH  37  38
ENDBRANCH  30  32
ENDBRANCH  29  30
ENDBRANCH  28  29
ENDBRANCH  27  28
ENDBRANCH   1  27
TORSDOF 17
ENDMDL
MODEL 2
REMARK VINA RESULT:     -10.9      1.215      2.688
REMARK SMILES [NH3+]Cc1c(-c2ccccc2)c(C(=O)OCCOCCOC(=O)c2ccc(-c3c4nc(c(-c5c(F)cccc5F)c5ccc([nH]5)c(-c5c(F)cccc5F)c5nc(c(-c6c(F)cccc6F)c6ccc3[nH]6)C=C5)C=C4)cc2)c2ccccn12
REMARK SMILES IDX 17 1 16 2 15 3 14 4 12 5 13 6 11 7 3 8 4 9 82 10 77 11 81 12
REMARK SMILES IDX 78 13 80 14 79 15 2 16 1 17 5 21 6 22 10 23 7 24 9 25 8 26
REMARK SMILES IDX 18 27 19 28 20 29 21 30 22 31 23 32 24 33 76 34 25 35 75 36
REMARK SMILES IDX 26 37 27 38 28 39 69 40 29 41 74 42 68 43 70 44 30 45 73 46
REMARK SMILES IDX 67 47 66 48 31 50 57 51 40 52 56 53 41 54 44 55 55 56 71 57
REMARK SMILES IDX 42 58 43 59 54 61 72 62 45 63 32 64 33 65 38 66 34 67 35 68
REMARK SMILES IDX 37 69 39 70 36 71 58 72 59 73 64 74 60 75 61 76 63 77 65 78
REMARK SMILES IDX 62 79 46 80 47 81 52 82 48 83 49 84 51 85 53 86 50 87
REMARK H PARENT 1 18 1 19 1 20 70 49 44 60
REMARK Flexibility Score: inf
ROOT
ATOM      1  O   UNL A   1      34.205  31.315  27.250  1.00  0.00    -0.374 OA
ENDROOT
BRANCH   1   2
ATOM      2  C   UNL A   1      34.799  30.014  27.268  1.00  0.00     0.202 C 
BRANCH   2   3
ATOM      3  C   UNL A   1      34.072  28.972  26.414  1.00  0.00     0.261 C 
BRANCH   3   4
ATOM      4  O   UNL A   1      33.483  27.978  27.273  1.00  0.00    -0.460 OA
BRANCH   4   5
ATOM      5  C   UNL A   1      32.155  27.733  27.078  1.00  0.00     0.341 C 
ATOM      6  O   UNL A   1      31.285  27.966  27.909  1.00  0.00    -0.246 OA
BRANCH   5   7
ATOM      7  C   UNL A   1      31.863  27.260  25.727  1.00  0.00     0.093 A 
ATOM      8  C   UNL A   1      31.720  25.874  23.899  1.00  0.00     0.086 A 
ATOM      9  C   UNL A   1      32.119  25.946  25.230  1.00  0.00     0.024 A 
ATOM     10  N   UNL A   1      31.182  27.113  23.571  1.00  0.00    -0.314 N 
ATOM     11  C   UNL A   1      31.232  27.942  24.699  1.00  0.00     0.061 A 
ATOM     12  C   UNL A   1      30.647  27.559  22.354  1.00  0.00     0.092 A 
ATOM     13  C   UNL A   1      30.674  29.254  24.579  1.00  0.00     0.027 A 
ATOM     14  C   UNL A   1      30.165  28.806  22.241  1.00  0.00     0.018 A 
ATOM     15  C   UNL A   1      30.166  29.667  23.405  1.00  0.00     0.004 A 
BRANCH   8  16
ATOM     16  C   UNL A   1      31.755  24.675  22.998  1.00  0.00     0.315 C 
BRANCH  16  17
ATOM     17  N   UNL A   1      30.531  23.892  23.005  1.00  0.00    -0.353 N 
ATOM     18  H   UNL A   1      30.688  23.012  22.513  1.00  0.00     0.344 HD
ATOM     19  H   UNL A   1      29.790  24.415  22.538  1.00  0.00     0.344 HD
ATOM     20  H   UNL A   1      30.256  23.699  23.967  1.00  0.00     0.344 HD
ENDBRANCH  16  17
ENDBRANCH   8  16
BRANCH   9  21
ATOM     21  C   UNL A   1      32.568  24.795  25.993  1.00  0.00    -0.015 A 
ATOM     22  C   UNL A   1      33.923  24.434  25.963  1.00  0.00     0.009 A 
ATOM     23  C   UNL A   1      31.660  24.019  26.713  1.00  0.00     0.009 A 
ATOM     24  C   UNL A   1      34.362  23.295  26.636  1.00  0.00     0.001 A 
ATOM     25  C   UNL A   1      32.104  22.884  27.396  1.00  0.00     0.001 A 
ATOM     26  C   UNL A   1      33.451  22.520  27.353  1.00  0.00     0.000 A 
ENDBRANCH   9  21
ENDBRANCH   5   7
ENDBRANCH   4   5
ENDBRANCH   3   4
ENDBRANCH   2   3
ENDBRANCH   1   2
BRANCH   1  27
ATOM     27  C   UNL A   1      32.778  31.363  27.245  1.00  0.00     0.202 C 
BRANCH  27  28
ATOM     28  C   UNL A   1      32.176  32.767  27.359  1.00  0.00     0.261 C 
BRANCH  28  29
ATOM     29  O   UNL A   1      33.193  33.781  27.336  1.00  0.00    -0.460 OA
BRANCH  29  30
ATOM     30  C   UNL A   1      33.316  34.474  28.493  1.00  0.00     0.338 C 
ATOM     31  O   UNL A   1      32.570  35.334  28.927  1.00  0.00    -0.246 OA
BRANCH  30  32
ATOM     32  C   UNL A   1      34.440  33.930  29.280  1.00  0.00     0.060 A 
ATOM     33  C   UNL A   1      35.734  34.278  28.872  1.00  0.00     0.016 A 
ATOM     34  C   UNL A   1      34.243  33.061  30.356  1.00  0.00     0.016 A 
ATOM     35  C   UNL A   1      36.838  33.715  29.507  1.00  0.00     0.010 A 
ATOM     36  C   UNL A   1      35.352  32.491  30.987  1.00  0.00     0.010 A 
ATOM     37  C   UNL A   1      36.652  32.789  30.541  1.00  0.00    -0.014 A 
BRANCH  37  38
ATOM     38  C   UNL A   1      37.815  32.026  31.045  1.00  0.00     0.031 A 
ATOM     39  C   UNL A   1      38.320  32.303  32.434  1.00  0.00     0.074 A 
ATOM     40  C   UNL A   1      38.390  31.071  30.294  1.00  0.00     0.049 A 
ATOM     41  N   UNL A   1      39.314  31.752  33.082  1.00  0.00    -0.248 NA
ATOM     42  C   UNL A   1      37.607  33.343  33.194  1.00  0.00     0.031 C 
ATOM     43  C   UNL A   1      37.971  30.690  28.946  1.00  0.00     0.029 A 
ATOM     44  N   UNL A   1      39.454  30.248  30.563  1.00  0.00    -0.354 N 
ATOM     45  C   UNL A   1      39.344  32.372  34.324  1.00  0.00     0.074 A 
ATOM     46  C   UNL A   1      38.290  33.365  34.329  1.00  0.00     0.031 C 
ATOM     47  C   UNL A   1      38.777  29.709  28.502  1.00  0.00     0.029 A 
ATOM     48  C   UNL A   1      39.776  29.409  29.527  1.00  0.00     0.049 A 
ATOM     49  H   UNL A   1      39.939  30.258  31.420  1.00  0.00     0.167 HD
ATOM     50  C   UNL A   1      40.167  32.131  35.370  1.00  0.00     0.037 A 
ATOM     51  C   UNL A   1      40.774  28.512  29.415  1.00  0.00     0.037 A 
ATOM     52  C   UNL A   1      41.216  31.146  35.367  1.00  0.00     0.049 A 
ATOM     53  C   UNL A   1      41.715  28.302  30.571  1.00  0.00     0.074 A 
ATOM     54  C   UNL A   1      42.092  30.814  36.384  1.00  0.00     0.029 A 
ATOM     55  N   UNL A   1      41.530  30.337  34.285  1.00  0.00    -0.354 N 
ATOM     56  N   UNL A   1      41.716  28.875  31.751  1.00  0.00    -0.248 NA
ATOM     57  C   UNL A   1      42.792  27.320  30.379  1.00  0.00     0.031 C 
ATOM     58  C   UNL A   1      42.965  29.831  35.905  1.00  0.00     0.029 A 
ATOM     59  C   UNL A   1      42.605  29.523  34.603  1.00  0.00     0.049 A 
ATOM     60  H   UNL A   1      41.061  30.341  33.420  1.00  0.00     0.167 HD
ATOM     61  C   UNL A   1      42.773  28.305  32.449  1.00  0.00     0.074 A 
ATOM     62  C   UNL A   1      43.386  27.336  31.565  1.00  0.00     0.031 C 
ATOM     63  C   UNL A   1      43.198  28.561  33.711  1.00  0.00     0.037 A 
BRANCH  50  64
ATOM     64  C   UNL A   1      39.973  32.962  36.602  1.00  0.00     0.057 A 
ATOM     65  C   UNL A   1      40.745  34.103  36.850  1.00  0.00     0.134 A 
ATOM     66  C   UNL A   1      38.990  32.626  37.541  1.00  0.00     0.134 A 
ATOM     67  F   UNL A   1      41.713  34.467  35.996  1.00  0.00    -0.206 F 
ATOM     68  C   UNL A   1      40.558  34.874  37.999  1.00  0.00     0.040 A 
ATOM     69  C   UNL A   1      38.780  33.400  38.684  1.00  0.00     0.040 A 
ATOM     70  F   UNL A   1      38.217  31.545  37.363  1.00  0.00    -0.206 F 
ATOM     71  C   UNL A   1      39.569  34.525  38.917  1.00  0.00     0.006 A 
ENDBRANCH  50  64
BRANCH  51  72
ATOM     72  C   UNL A   1      40.940  27.741  28.158  1.00  0.00     0.057 A 
ATOM     73  C   UNL A   1      41.721  28.232  27.106  1.00  0.00     0.134 A 
ATOM     74  C   UNL A   1      40.309  26.506  27.974  1.00  0.00     0.134 A 
ATOM     75  F   UNL A   1      42.330  29.421  27.215  1.00  0.00    -0.206 F 
ATOM     76  C   UNL A   1      41.857  27.528  25.908  1.00  0.00     0.040 A 
ATOM     77  C   UNL A   1      40.452  25.781  26.791  1.00  0.00     0.040 A 
ATOM     78  F   UNL A   1      39.548  25.983  28.947  1.00  0.00    -0.206 F 
ATOM     79  C   UNL A   1      41.224  26.297  25.751  1.00  0.00     0.006 A 
ENDBRANCH  51  72
BRANCH  63  80
ATOM     80  C   UNL A   1      44.361  27.762  34.219  1.00  0.00     0.057 A 
ATOM     81  C   UNL A   1      44.188  26.510  34.822  1.00  0.00     0.134 A 
ATOM     82  C   UNL A   1      45.670  28.232  34.064  1.00  0.00     0.134 A 
ATOM     83  F   UNL A   1      42.957  26.011  35.011  1.00  0.00    -0.206 F 
ATOM     84  C   UNL A   1      45.278  25.761  35.270  1.00  0.00     0.040 A 
ATOM     85  C   UNL A   1      46.769  27.483  34.487  1.00  0.00     0.040 A 
ATOM     86  F   UNL A   1      45.904  29.420  33.486  1.00  0.00    -0.206 F 
ATOM     87  C   UNL A   1      46.574  26.246  35.097  1.00  0.00     0.006 A 
ENDBRANCH  63  80
ENDBRANCH  37  38
ENDBRANCH  30  32
ENDBRANCH  29  30
ENDBRANCH  28  29
ENDBRANCH  27  28
ENDBRANCH   1  27
TORSDOF 17
ENDMDL
MODEL 3
REMARK VINA RESULT:     -10.9      0.534      6.164
REMARK SMILES [NH3+]Cc1c(-c2ccccc2)c(C(=O)OCCOCCOC(=O)c2ccc(-c3c4nc(c(-c5c(F)cccc5F)c5ccc([nH]5)c(-c5c(F)cccc5F)c5nc(c(-c6c(F)cccc6F)c6ccc3[nH]6)C=C5)C=C4)cc2)c2ccccn12
REMARK SMILES IDX 17 1 16 2 15 3 14 4 12 5 13 6 11 7 3 8 4 9 82 10 77 11 81 12
REMARK SMILES IDX 78 13 80 14 79 15 2 16 1 17 5 21 6 22 10 23 7 24 9 25 8 26
REMARK SMILES IDX 18 27 19 28 20 29 21 30 22 31 23 32 24 33 76 34 25 35 75 36
REMARK SMILES IDX 26 37 27 38 28 39 69 40 29 41 74 42 68 43 70 44 30 45 73 46
REMARK SMILES IDX 67 47 66 48 31 50 57 51 40 52 56 53 41 54 44 55 55 56 71 57
REMARK SMILES IDX 42 58 43 59 54 61 72 62 45 63 32 64 33 65 38 66 34 67 35 68
REMARK SMILES IDX 37 69 39 70 36 71 58 72 59 73 64 74 60 75 61 76 63 77 65 78
REMARK SMILES IDX 62 79 46 80 47 81 52 82 48 83 49 84 51 85 53 86 50 87
REMARK H PARENT 1 18 1 19 1 20 70 49 44 60
REMARK Flexibility Score: inf
ROOT
ATOM      1  O   UNL A   1      31.545  30.698  26.768  1.00  0.00    -0.374 OA
ENDROOT
BRANCH   1   2
ATOM      2  C   UNL A   1      32.871  30.262  27.079  1.00  0.00     0.202 C 
BRANCH   2   3
ATOM      3  C   UNL A   1      33.379  29.106  26.213  1.00  0.00     0.261 C 
BRANCH   3   4
ATOM      4  O   UNL A   1      33.194  27.865  26.918  1.00  0.00    -0.460 OA
BRANCH   4   5
ATOM      5  C   UNL A   1      32.138  27.102  26.514  1.00  0.00     0.341 C 
ATOM      6  O   UNL A   1      31.050  27.081  27.077  1.00  0.00    -0.246 OA
BRANCH   5   7
ATOM      7  C   UNL A   1      32.405  26.386  25.269  1.00  0.00     0.093 A 
ATOM      8  C   UNL A   1      32.205  25.672  23.092  1.00  0.00     0.086 A 
ATOM      9  C   UNL A   1      31.665  26.521  24.054  1.00  0.00     0.024 A 
ATOM     10  N   UNL A   1      33.295  25.040  23.678  1.00  0.00    -0.314 N 
ATOM     11  C   UNL A   1      33.439  25.508  24.991  1.00  0.00     0.061 A 
ATOM     12  C   UNL A   1      34.171  24.088  23.137  1.00  0.00     0.092 A 
ATOM     13  C   UNL A   1      34.546  25.012  25.751  1.00  0.00     0.027 A 
ATOM     14  C   UNL A   1      35.180  23.597  23.873  1.00  0.00     0.018 A 
ATOM     15  C   UNL A   1      35.376  24.097  25.217  1.00  0.00     0.004 A 
BRANCH   8  16
ATOM     16  C   UNL A   1      31.779  25.524  21.661  1.00  0.00     0.315 C 
BRANCH  16  17
ATOM     17  N   UNL A   1      32.549  26.328  20.727  1.00  0.00    -0.353 N 
ATOM     18  H   UNL A   1      33.160  26.960  21.247  1.00  0.00     0.344 HD
ATOM     19  H   UNL A   1      31.915  26.872  20.142  1.00  0.00     0.344 HD
ATOM     20  H   UNL A   1      33.115  25.716  20.139  1.00  0.00     0.344 HD
ENDBRANCH  16  17
ENDBRANCH   8  16
BRANCH   9  21
ATOM     21  C   UNL A   1      30.619  27.488  23.770  1.00  0.00    -0.015 A 
ATOM     22  C   UNL A   1      29.278  27.080  23.796  1.00  0.00     0.009 A 
ATOM     23  C   UNL A   1      30.938  28.802  23.425  1.00  0.00     0.009 A 
ATOM     24  C   UNL A   1      28.265  27.977  23.462  1.00  0.00     0.001 A 
ATOM     25  C   UNL A   1      29.920  29.702  23.101  1.00  0.00     0.001 A 
ATOM     26  C   UNL A   1      28.587  29.288  23.115  1.00  0.00     0.000 A 
ENDBRANCH   9  21
ENDBRANCH   5   7
ENDBRANCH   4   5
ENDBRANCH   3   4
ENDBRANCH   2   3
ENDBRANCH   1   2
BRANCH   1  27
ATOM     27  C   UNL A   1      31.379  32.091  26.501  1.00  0.00     0.202 C 
BRANCH  27  28
ATOM     28  C   UNL A   1      32.538  32.982  26.959  1.00  0.00     0.261 C 
BRANCH  28  29
ATOM     29  O   UNL A   1      32.153  33.826  28.054  1.00  0.00    -0.460 OA
BRANCH  29  30
ATOM     30  C   UNL A   1      33.134  34.650  28.495  1.00  0.00     0.338 C 
ATOM     31  O   UNL A   1      33.071  35.855  28.668  1.00  0.00    -0.246 OA
BRANCH  30  32
ATOM     32  C   UNL A   1      34.305  33.851  28.907  1.00  0.00     0.060 A 
ATOM     33  C   UNL A   1      34.060  32.703  29.670  1.00  0.00     0.016 A 
ATOM     34  C   UNL A   1      35.613  34.239  28.603  1.00  0.00     0.016 A 
ATOM     35  C   UNL A   1      35.126  31.965  30.177  1.00  0.00     0.010 A 
ATOM     36  C   UNL A   1      36.682  33.501  29.120  1.00  0.00     0.010 A 
ATOM     37  C   UNL A   1      36.441  32.383  29.938  1.00  0.00    -0.014 A 
BRANCH  37  38
ATOM     38  C   UNL A   1      37.550  31.733  30.672  1.00  0.00     0.031 A 
ATOM     39  C   UNL A   1      38.364  30.679  29.975  1.00  0.00     0.074 A 
ATOM     40  C   UNL A   1      37.854  32.103  31.928  1.00  0.00     0.049 A 
ATOM     41  N   UNL A   1      39.383  29.988  30.418  1.00  0.00    -0.248 NA
ATOM     42  C   UNL A   1      37.977  30.363  28.590  1.00  0.00     0.031 C 
ATOM     43  C   UNL A   1      37.159  33.134  32.697  1.00  0.00     0.029 A 
ATOM     44  N   UNL A   1      38.832  31.650  32.776  1.00  0.00    -0.354 N 
ATOM     45  C   UNL A   1      39.760  29.160  29.369  1.00  0.00     0.074 A 
ATOM     46  C   UNL A   1      38.843  29.410  28.278  1.00  0.00     0.031 C 
ATOM     47  C   UNL A   1      37.730  33.228  33.911  1.00  0.00     0.029 A 
ATOM     48  C   UNL A   1      38.816  32.254  34.007  1.00  0.00     0.049 A 
ATOM     49  H   UNL A   1      39.485  30.956  32.524  1.00  0.00     0.167 HD
ATOM     50  C   UNL A   1      40.785  28.277  29.315  1.00  0.00     0.037 A 
ATOM     51  C   UNL A   1      39.583  32.035  35.092  1.00  0.00     0.037 A 
ATOM     52  C   UNL A   1      41.696  28.026  30.400  1.00  0.00     0.049 A 
ATOM     53  C   UNL A   1      40.679  31.005  35.028  1.00  0.00     0.074 A 
ATOM     54  C   UNL A   1      42.777  27.163  30.436  1.00  0.00     0.029 A 
ATOM     55  N   UNL A   1      41.627  28.637  31.642  1.00  0.00    -0.354 N 
ATOM     56  N   UNL A   1      41.045  30.248  34.022  1.00  0.00    -0.248 NA
ATOM     57  C   UNL A   1      41.470  30.802  36.251  1.00  0.00     0.031 C 
ATOM     58  C   UNL A   1      43.340  27.223  31.717  1.00  0.00     0.029 A 
ATOM     59  C   UNL A   1      42.633  28.152  32.463  1.00  0.00     0.049 A 
ATOM     60  H   UNL A   1      40.962  29.313  31.904  1.00  0.00     0.167 HD
ATOM     61  C   UNL A   1      42.122  29.500  34.480  1.00  0.00     0.074 A 
ATOM     62  C   UNL A   1      42.356  29.899  35.853  1.00  0.00     0.031 C 
ATOM     63  C   UNL A   1      42.853  28.566  33.823  1.00  0.00     0.037 A 
BRANCH  50  64
ATOM     64  C   UNL A   1      40.961  27.506  28.043  1.00  0.00     0.057 A 
ATOM     65  C   UNL A   1      40.340  26.268  27.839  1.00  0.00     0.134 A 
ATOM     66  C   UNL A   1      41.744  28.019  27.001  1.00  0.00     0.134 A 
ATOM     67  F   UNL A   1      39.590  25.717  28.805  1.00  0.00    -0.206 F 
ATOM     68  C   UNL A   1      40.507  25.556  26.650  1.00  0.00     0.040 A 
ATOM     69  C   UNL A   1      41.902  27.326  25.800  1.00  0.00     0.040 A 
ATOM     70  F   UNL A   1      42.366  29.200  27.133  1.00  0.00    -0.206 F 
ATOM     71  C   UNL A   1      41.286  26.088  25.624  1.00  0.00     0.006 A 
ENDBRANCH  50  64
BRANCH  51  72
ATOM     72  C   UNL A   1      39.342  32.802  36.338  1.00  0.00     0.057 A 
ATOM     73  C   UNL A   1      40.011  34.004  36.591  1.00  0.00     0.134 A 
ATOM     74  C   UNL A   1      38.449  32.342  37.313  1.00  0.00     0.134 A 
ATOM     75  F   UNL A   1      40.896  34.483  35.704  1.00  0.00    -0.206 F 
ATOM     76  C   UNL A   1      39.813  34.716  37.775  1.00  0.00     0.040 A 
ATOM     77  C   UNL A   1      38.225  33.052  38.493  1.00  0.00     0.040 A 
ATOM     78  F   UNL A   1      37.777  31.196  37.129  1.00  0.00    -0.206 F 
ATOM     79  C   UNL A   1      38.914  34.241  38.728  1.00  0.00     0.006 A 
ENDBRANCH  51  72
BRANCH  63  80
ATOM     80  C   UNL A   1      43.990  27.935  34.570  1.00  0.00     0.057 A 
ATOM     81  C   UNL A   1      43.832  26.734  35.274  1.00  0.00     0.134 A 
ATOM     82  C   UNL A   1      45.265  28.513  34.549  1.00  0.00     0.134 A 
ATOM     83  F   UNL A   1      42.633  26.138  35.342  1.00  0.00    -0.206 F 
ATOM     84  C   UNL A   1      44.902  26.139  35.946  1.00  0.00     0.040 A 
ATOM     85  C   UNL A   1      46.347  27.916  35.199  1.00  0.00     0.040 A 
ATOM     86  F   UNL A   1      45.483  29.658  33.886  1.00  0.00    -0.206 F 
ATOM     87  C   UNL A   1      46.165  26.728  35.904  1.00  0.00     0.006 A 
ENDBRANCH  63  80
ENDBRANCH  37  38
ENDBRANCH  30  32
ENDBRANCH  29  30
ENDBRANCH  28  29
ENDBRANCH  27  28
ENDBRANCH   1  27
TORSDOF 17
ENDMDL
