MODEL 1
REMARK VINA RESULT:     -11.4      0.000      0.000
REMARK SMILES C[C@@H]1CN(C(=O)Nc2ccc(O)c(C(=O)OCCOCCOC(=O)c3ccc(-c4c5nc(c(-c6c(F)cccc6F)c6ccc([nH]6)c(-c6c(F)cccc6F)c6nc(c(-c7c(F)cccc7F)c7ccc4[nH]7)C=C6)C=C5)cc3)c2)C[C@@H]1C
REMARK SMILES IDX 19 1 18 2 17 3 16 4 14 5 15 6 13 7 8 8 9 9 79 10 10 11 11 12
REMARK SMILES IDX 7 13 5 14 6 15 4 17 1 18 2 19 3 20 81 21 80 22 82 23 12 24
REMARK SMILES IDX 20 26 21 27 22 28 23 29 24 30 25 31 26 32 78 33 27 34 77 35
REMARK SMILES IDX 28 36 29 37 30 38 71 39 31 40 76 41 70 42 72 43 32 44 75 45
REMARK SMILES IDX 69 46 68 47 33 49 59 50 42 51 58 52 43 53 46 54 57 55 73 56
REMARK SMILES IDX 44 57 45 58 56 60 74 61 47 62 34 63 35 64 40 65 36 66 37 67
REMARK SMILES IDX 39 68 41 69 38 70 60 71 61 72 66 73 62 74 63 75 65 76 67 77
REMARK SMILES IDX 64 78 48 79 49 80 54 81 50 82 51 83 53 84 55 85 52 86
REMARK H PARENT 7 16 12 25 72 48 46 59
REMARK Flexibility Score: inf
ROOT
ATOM      1  O   UNL A   1      33.714  33.414  28.649  1.00  0.00    -0.374 OA
ENDROOT
BRANCH   1   2
ATOM      2  C   UNL A   1      34.220  32.317  27.882  1.00  0.00     0.202 C 
BRANCH   2   3
ATOM      3  C   UNL A   1      33.227  31.182  27.625  1.00  0.00     0.261 C 
BRANCH   3   4
ATOM      4  O   UNL A   1      33.618  30.485  26.433  1.00  0.00    -0.460 OA
BRANCH   4   5
ATOM      5  C   UNL A   1      33.798  29.153  26.559  1.00  0.00     0.342 C 
ATOM      6  O   UNL A   1      34.562  28.589  27.329  1.00  0.00    -0.246 OA
BRANCH   5   7
ATOM      7  C   UNL A   1      32.755  28.432  25.797  1.00  0.00     0.103 A 
ATOM      8  C   UNL A   1      31.032  26.745  25.873  1.00  0.00     0.044 A 
ATOM      9  C   UNL A   1      30.746  26.963  24.525  1.00  0.00     0.030 A 
ATOM     10  C   UNL A   1      31.973  27.529  26.530  1.00  0.00     0.045 A 
ATOM     11  C   UNL A   1      31.495  27.890  23.797  1.00  0.00     0.049 A 
ATOM     12  C   UNL A   1      32.523  28.596  24.424  1.00  0.00     0.130 A 
BRANCH   8  13
ATOM     13  N   UNL A   1      30.431  25.704  26.575  1.00  0.00    -0.308 N 
ATOM     14  C   UNL A   1      30.644  24.359  26.501  1.00  0.00     0.321 C 
ATOM     15  O   UNL A   1      29.904  23.645  27.185  1.00  0.00    -0.248 OA
ATOM     16  H   UNL A   1      29.747  25.983  27.226  1.00  0.00     0.171 HD
BRANCH  14  17
ATOM     17  N   UNL A   1      31.705  23.836  25.810  1.00  0.00    -0.324 N 
ATOM     18  C   UNL A   1      33.797  23.341  22.782  1.00  0.00     0.010 C 
ATOM     19  C   UNL A   1      33.306  23.099  24.202  1.00  0.00     0.010 C 
ATOM     20  C   UNL A   1      31.853  23.533  24.391  1.00  0.00     0.125 C 
ATOM     21  C   UNL A   1      34.030  23.826  25.346  1.00  0.00     0.010 C 
ATOM     22  C   UNL A   1      32.993  23.704  26.473  1.00  0.00     0.125 C 
ATOM     23  C   UNL A   1      34.382  25.289  25.053  1.00  0.00     0.010 C 
ENDBRANCH  14  17
ENDBRANCH   8  13
BRANCH  12  24
ATOM     24  O   UNL A   1      33.321  29.414  23.676  1.00  0.00    -0.507 OA
ATOM     25  H   UNL A   1      33.025  29.722  22.842  1.00  0.00     0.293 HD
ENDBRANCH  12  24
ENDBRANCH   5   7
ENDBRANCH   4   5
ENDBRANCH   3   4
ENDBRANCH   2   3
ENDBRANCH   1   2
BRANCH   1  26
ATOM     26  C   UNL A   1      34.622  34.067  29.536  1.00  0.00     0.202 C 
BRANCH  26  27
ATOM     27  C   UNL A   1      34.421  33.796  31.032  1.00  0.00     0.261 C 
BRANCH  27  28
ATOM     28  O   UNL A   1      34.553  32.403  31.359  1.00  0.00    -0.460 OA
BRANCH  28  29
ATOM     29  C   UNL A   1      35.526  32.121  32.255  1.00  0.00     0.338 C 
ATOM     30  O   UNL A   1      35.519  32.352  33.457  1.00  0.00    -0.246 OA
BRANCH  29  31
ATOM     31  C   UNL A   1      36.587  31.326  31.615  1.00  0.00     0.060 A 
ATOM     32  C   UNL A   1      37.633  30.867  32.427  1.00  0.00     0.016 A 
ATOM     33  C   UNL A   1      36.605  31.100  30.237  1.00  0.00     0.016 A 
ATOM     34  C   UNL A   1      38.727  30.219  31.856  1.00  0.00     0.010 A 
ATOM     35  C   UNL A   1      37.708  30.458  29.665  1.00  0.00     0.010 A 
ATOM     36  C   UNL A   1      38.788  30.046  30.468  1.00  0.00    -0.014 A 
BRANCH  36  37
ATOM     37  C   UNL A   1      40.043  29.569  29.840  1.00  0.00     0.031 A 
ATOM     38  C   UNL A   1      41.183  30.534  29.668  1.00  0.00     0.074 A 
ATOM     39  C   UNL A   1      40.171  28.292  29.441  1.00  0.00     0.049 A 
ATOM     40  N   UNL A   1      42.343  30.354  29.088  1.00  0.00    -0.248 NA
ATOM     41  C   UNL A   1      40.988  31.883  30.221  1.00  0.00     0.031 C 
ATOM     42  C   UNL A   1      39.155  27.253  29.593  1.00  0.00     0.029 A 
ATOM     43  N   UNL A   1      41.214  27.657  28.815  1.00  0.00    -0.354 N 
ATOM     44  C   UNL A   1      43.011  31.566  29.199  1.00  0.00     0.074 A 
ATOM     45  C   UNL A   1      42.119  32.482  29.877  1.00  0.00     0.031 C 
ATOM     46  C   UNL A   1      39.620  26.110  29.059  1.00  0.00     0.029 A 
ATOM     47  C   UNL A   1      40.950  26.347  28.502  1.00  0.00     0.049 A 
ATOM     48  H   UNL A   1      42.070  28.098  28.611  1.00  0.00     0.167 HD
ATOM     49  C   UNL A   1      44.258  31.887  28.780  1.00  0.00     0.037 A 
ATOM     50  C   UNL A   1      41.690  25.451  27.820  1.00  0.00     0.037 A 
ATOM     51  C   UNL A   1      45.145  30.974  28.109  1.00  0.00     0.049 A 
ATOM     52  C   UNL A   1      43.047  25.850  27.303  1.00  0.00     0.074 A 
ATOM     53  C   UNL A   1      46.435  31.199  27.660  1.00  0.00     0.029 A 
ATOM     54  N   UNL A   1      44.833  29.662  27.789  1.00  0.00    -0.354 N 
ATOM     55  N   UNL A   1      43.675  26.994  27.425  1.00  0.00    -0.248 NA
ATOM     56  C   UNL A   1      43.796  24.832  26.553  1.00  0.00     0.031 C 
ATOM     57  C   UNL A   1      46.886  30.036  27.027  1.00  0.00     0.029 A 
ATOM     58  C   UNL A   1      45.897  29.071  27.127  1.00  0.00     0.049 A 
ATOM     59  H   UNL A   1      43.981  29.216  28.002  1.00  0.00     0.167 HD
ATOM     60  C   UNL A   1      44.903  26.824  26.798  1.00  0.00     0.074 A 
ATOM     61  C   UNL A   1      44.934  25.464  26.303  1.00  0.00     0.031 C 
ATOM     62  C   UNL A   1      45.917  27.712  26.650  1.00  0.00     0.037 A 
BRANCH  49  63
ATOM     63  C   UNL A   1      44.725  33.293  29.014  1.00  0.00     0.057 A 
ATOM     64  C   UNL A   1      45.448  33.653  30.159  1.00  0.00     0.134 A 
ATOM     65  C   UNL A   1      44.476  34.293  28.065  1.00  0.00     0.134 A 
ATOM     66  F   UNL A   1      45.707  32.745  31.111  1.00  0.00    -0.206 F 
ATOM     67  C   UNL A   1      45.887  34.963  30.362  1.00  0.00     0.040 A 
ATOM     68  C   UNL A   1      44.930  35.600  28.246  1.00  0.00     0.040 A 
ATOM     69  F   UNL A   1      43.792  34.014  26.945  1.00  0.00    -0.206 F 
ATOM     70  C   UNL A   1      45.633  35.939  29.400  1.00  0.00     0.006 A 
ENDBRANCH  49  63
BRANCH  50  71
ATOM     71  C   UNL A   1      41.159  24.087  27.571  1.00  0.00     0.057 A 
ATOM     72  C   UNL A   1      41.657  22.977  28.263  1.00  0.00     0.134 A 
ATOM     73  C   UNL A   1      40.156  23.859  26.622  1.00  0.00     0.134 A 
ATOM     74  F   UNL A   1      42.637  23.129  29.166  1.00  0.00    -0.206 F 
ATOM     75  C   UNL A   1      41.189  21.687  28.009  1.00  0.00     0.040 A 
ATOM     76  C   UNL A   1      39.660  22.577  26.374  1.00  0.00     0.040 A 
ATOM     77  F   UNL A   1      39.636  24.880  25.926  1.00  0.00    -0.206 F 
ATOM     78  C   UNL A   1      40.183  21.486  27.064  1.00  0.00     0.006 A 
ENDBRANCH  50  71
BRANCH  62  79
ATOM     79  C   UNL A   1      47.161  27.232  25.962  1.00  0.00     0.057 A 
ATOM     80  C   UNL A   1      48.199  26.604  26.662  1.00  0.00     0.134 A 
ATOM     81  C   UNL A   1      47.301  27.362  24.574  1.00  0.00     0.134 A 
ATOM     82  F   UNL A   1      48.131  26.460  27.994  1.00  0.00    -0.206 F 
ATOM     83  C   UNL A   1      49.340  26.137  26.006  1.00  0.00     0.040 A 
ATOM     84  C   UNL A   1      48.425  26.877  23.905  1.00  0.00     0.040 A 
ATOM     85  F   UNL A   1      46.339  27.946  23.844  1.00  0.00    -0.206 F 
ATOM     86  C   UNL A   1      49.452  26.267  24.623  1.00  0.00     0.006 A 
ENDBRANCH  62  79
ENDBRANCH  36  37
ENDBRANCH  29  31
ENDBRANCH  28  29
ENDBRANCH  27  28
ENDBRANCH  26  27
ENDBRANCH   1  26
TORSDOF 17
ENDMDL
MODEL 2
REMARK VINA RESULT:     -11.3      4.420      9.483
REMARK SMILES C[C@@H]1CN(C(=O)Nc2ccc(O)c(C(=O)OCCOCCOC(=O)c3ccc(-c4c5nc(c(-c6c(F)cccc6F)c6ccc([nH]6)c(-c6c(F)cccc6F)c6nc(c(-c7c(F)cccc7F)c7ccc4[nH]7)C=C6)C=C5)cc3)c2)C[C@@H]1C
REMARK SMILES IDX 19 1 18 2 17 3 16 4 14 5 15 6 13 7 8 8 9 9 79 10 10 11 11 12
REMARK SMILES IDX 7 13 5 14 6 15 4 17 1 18 2 19 3 20 81 21 80 22 82 23 12 24
REMARK SMILES IDX 20 26 21 27 22 28 23 29 24 30 25 31 26 32 78 33 27 34 77 35
REMARK SMILES IDX 28 36 29 37 30 38 71 39 31 40 76 41 70 42 72 43 32 44 75 45
REMARK SMILES IDX 69 46 68 47 33 49 59 50 42 51 58 52 43 53 46 54 57 55 73 56
REMARK SMILES IDX 44 57 45 58 56 60 74 61 47 62 34 63 35 64 40 65 36 66 37 67
REMARK SMILES IDX 39 68 41 69 38 70 60 71 61 72 66 73 62 74 63 75 65 76 67 77
REMARK SMILES IDX 64 78 48 79 49 80 54 81 50 82 51 83 53 84 55 85 52 86
REMARK H PARENT 7 16 12 25 72 48 46 59
REMARK Flexibility Score: inf
ROOT
ATOM      1  O   UNL A   1      41.284  20.509  26.657  1.00  0.00    -0.374 OA
ENDROOT
BRANCH   1   2
ATOM      2  C   UNL A   1      40.005  20.711  26.051  1.00  0.00     0.202 C 
BRANCH   2   3
ATOM      3  C   UNL A   1      39.291  22.008  26.439  1.00  0.00     0.261 C 
BRANCH   3   4
ATOM      4  O   UNL A   1      38.212  22.235  25.521  1.00  0.00    -0.460 OA
BRANCH   4   5
ATOM      5  C   UNL A   1      37.532  23.391  25.682  1.00  0.00     0.342 C 
ATOM      6  O   UNL A   1      37.973  24.441  26.128  1.00  0.00    -0.246 OA
BRANCH   5   7
ATOM      7  C   UNL A   1      36.218  23.297  25.009  1.00  0.00     0.103 A 
ATOM      8  C   UNL A   1      33.828  23.159  25.304  1.00  0.00     0.044 A 
ATOM      9  C   UNL A   1      33.650  23.113  23.921  1.00  0.00     0.030 A 
ATOM     10  C   UNL A   1      35.096  23.332  25.847  1.00  0.00     0.045 A 
ATOM     11  C   UNL A   1      34.763  23.117  23.077  1.00  0.00     0.049 A 
ATOM     12  C   UNL A   1      36.047  23.172  23.623  1.00  0.00     0.130 A 
BRANCH   8  13
ATOM     13  N   UNL A   1      32.756  22.972  26.172  1.00  0.00    -0.308 N 
ATOM     14  C   UNL A   1      31.894  23.881  26.710  1.00  0.00     0.321 C 
ATOM     15  O   UNL A   1      31.076  23.451  27.529  1.00  0.00    -0.248 OA
ATOM     16  H   UNL A   1      32.597  22.038  26.441  1.00  0.00     0.171 HD
BRANCH  14  17
ATOM     17  N   UNL A   1      31.849  25.178  26.268  1.00  0.00    -0.324 N 
ATOM     18  C   UNL A   1      33.343  28.295  24.912  1.00  0.00     0.010 C 
ATOM     19  C   UNL A   1      32.273  27.406  25.527  1.00  0.00     0.010 C 
ATOM     20  C   UNL A   1      32.872  26.217  26.278  1.00  0.00     0.125 C 
ATOM     21  C   UNL A   1      31.264  26.737  24.580  1.00  0.00     0.010 C 
ATOM     22  C   UNL A   1      30.709  25.625  25.482  1.00  0.00     0.125 C 
ATOM     23  C   UNL A   1      31.872  26.173  23.292  1.00  0.00     0.010 C 
ENDBRANCH  14  17
ENDBRANCH   8  13
BRANCH  12  24
ATOM     24  O   UNL A   1      37.127  23.060  22.795  1.00  0.00    -0.507 OA
ATOM     25  H   UNL A   1      37.689  23.797  22.657  1.00  0.00     0.293 HD
ENDBRANCH  12  24
ENDBRANCH   5   7
ENDBRANCH   4   5
ENDBRANCH   3   4
ENDBRANCH   2   3
ENDBRANCH   1   2
BRANCH   1  26
ATOM     26  C   UNL A   1      42.393  20.281  25.787  1.00  0.00     0.202 C 
BRANCH  26  27
ATOM     27  C   UNL A   1      43.371  21.450  25.617  1.00  0.00     0.261 C 
BRANCH  27  28
ATOM     28  O   UNL A   1      42.759  22.589  24.989  1.00  0.00    -0.460 OA
BRANCH  28  29
ATOM     29  C   UNL A   1      43.497  23.722  25.029  1.00  0.00     0.338 C 
ATOM     30  O   UNL A   1      44.482  23.992  24.353  1.00  0.00    -0.246 OA
BRANCH  29  31
ATOM     31  C   UNL A   1      42.860  24.710  25.916  1.00  0.00     0.060 A 
ATOM     32  C   UNL A   1      43.459  25.972  26.018  1.00  0.00     0.016 A 
ATOM     33  C   UNL A   1      41.747  24.386  26.696  1.00  0.00     0.016 A 
ATOM     34  C   UNL A   1      42.975  26.902  26.936  1.00  0.00     0.010 A 
ATOM     35  C   UNL A   1      41.269  25.317  27.623  1.00  0.00     0.010 A 
ATOM     36  C   UNL A   1      41.902  26.566  27.770  1.00  0.00    -0.014 A 
BRANCH  36  37
ATOM     37  C   UNL A   1      41.536  27.458  28.895  1.00  0.00     0.031 A 
ATOM     38  C   UNL A   1      42.327  27.382  30.172  1.00  0.00     0.074 A 
ATOM     39  C   UNL A   1      40.522  28.333  28.778  1.00  0.00     0.049 A 
ATOM     40  N   UNL A   1      42.143  28.016  31.301  1.00  0.00    -0.248 NA
ATOM     41  C   UNL A   1      43.477  26.465  30.175  1.00  0.00     0.031 C 
ATOM     42  C   UNL A   1      39.711  28.531  27.579  1.00  0.00     0.029 A 
ATOM     43  N   UNL A   1      39.999  29.214  29.691  1.00  0.00    -0.354 N 
ATOM     44  C   UNL A   1      43.146  27.571  32.151  1.00  0.00     0.074 A 
ATOM     45  C   UNL A   1      43.921  26.593  31.417  1.00  0.00     0.031 C 
ATOM     46  C   UNL A   1      38.779  29.466  27.836  1.00  0.00     0.029 A 
ATOM     47  C   UNL A   1      38.910  29.906  29.222  1.00  0.00     0.049 A 
ATOM     48  H   UNL A   1      40.370  29.338  30.594  1.00  0.00     0.167 HD
ATOM     49  C   UNL A   1      43.405  27.946  33.426  1.00  0.00     0.037 A 
ATOM     50  C   UNL A   1      38.098  30.777  29.853  1.00  0.00     0.037 A 
ATOM     51  C   UNL A   1      42.637  28.922  34.153  1.00  0.00     0.049 A 
ATOM     52  C   UNL A   1      38.364  31.129  31.293  1.00  0.00     0.074 A 
ATOM     53  C   UNL A   1      42.829  29.383  35.445  1.00  0.00     0.029 A 
ATOM     54  N   UNL A   1      41.526  29.584  33.653  1.00  0.00    -0.354 N 
ATOM     55  N   UNL A   1      39.323  30.713  32.083  1.00  0.00    -0.248 NA
ATOM     56  C   UNL A   1      37.432  32.072  31.927  1.00  0.00     0.031 C 
ATOM     57  C   UNL A   1      41.807  30.291  35.741  1.00  0.00     0.029 A 
ATOM     58  C   UNL A   1      41.008  30.433  34.617  1.00  0.00     0.049 A 
ATOM     59  H   UNL A   1      41.161  29.468  32.746  1.00  0.00     0.167 HD
ATOM     60  C   UNL A   1      39.131  31.366  33.294  1.00  0.00     0.074 A 
ATOM     61  C   UNL A   1      37.967  32.211  33.132  1.00  0.00     0.031 C 
ATOM     62  C   UNL A   1      39.855  31.277  34.437  1.00  0.00     0.037 A 
BRANCH  49  63
ATOM     63  C   UNL A   1      44.553  27.280  34.123  1.00  0.00     0.057 A 
ATOM     64  C   UNL A   1      45.833  27.850  34.156  1.00  0.00     0.134 A 
ATOM     65  C   UNL A   1      44.370  26.066  34.797  1.00  0.00     0.134 A 
ATOM     66  F   UNL A   1      46.077  29.005  33.519  1.00  0.00    -0.206 F 
ATOM     67  C   UNL A   1      46.893  27.226  34.816  1.00  0.00     0.040 A 
ATOM     68  C   UNL A   1      45.415  25.445  35.481  1.00  0.00     0.040 A 
ATOM     69  F   UNL A   1      43.168  25.468  34.807  1.00  0.00    -0.206 F 
ATOM     70  C   UNL A   1      46.683  26.022  35.487  1.00  0.00     0.006 A 
ENDBRANCH  49  63
BRANCH  50  71
ATOM     71  C   UNL A   1      36.944  31.370  29.131  1.00  0.00     0.057 A 
ATOM     72  C   UNL A   1      35.784  30.627  28.882  1.00  0.00     0.134 A 
ATOM     73  C   UNL A   1      36.982  32.686  28.655  1.00  0.00     0.134 A 
ATOM     74  F   UNL A   1      35.699  29.352  29.292  1.00  0.00    -0.206 F 
ATOM     75  C   UNL A   1      34.710  31.164  28.173  1.00  0.00     0.040 A 
ATOM     76  C   UNL A   1      35.905  33.245  27.965  1.00  0.00     0.040 A 
ATOM     77  F   UNL A   1      38.064  33.450  28.861  1.00  0.00    -0.206 F 
ATOM     78  C   UNL A   1      34.768  32.481  27.716  1.00  0.00     0.006 A 
ENDBRANCH  50  71
BRANCH  62  79
ATOM     79  C   UNL A   1      39.440  32.146  35.588  1.00  0.00     0.057 A 
ATOM     80  C   UNL A   1      39.912  33.456  35.736  1.00  0.00     0.134 A 
ATOM     81  C   UNL A   1      38.519  31.678  36.534  1.00  0.00     0.134 A 
ATOM     82  F   UNL A   1      40.805  33.958  34.870  1.00  0.00    -0.206 F 
ATOM     83  C   UNL A   1      39.497  34.264  36.797  1.00  0.00     0.040 A 
ATOM     84  C   UNL A   1      38.077  32.485  37.584  1.00  0.00     0.040 A 
ATOM     85  F   UNL A   1      38.020  30.436  36.444  1.00  0.00    -0.206 F 
ATOM     86  C   UNL A   1      38.571  33.781  37.720  1.00  0.00     0.006 A 
ENDBRANCH  62  79
ENDBRANCH  36  37
ENDBRANCH  29  31
ENDBRANCH  28  29
ENDBRANCH  27  28
ENDBRANCH  26  27
ENDBRANCH   1  26
TORSDOF 17
ENDMDL
MODEL 3
REMARK VINA RESULT:     -11.2      4.921     11.219
REMARK SMILES C[C@@H]1CN(C(=O)Nc2ccc(O)c(C(=O)OCCOCCOC(=O)c3ccc(-c4c5nc(c(-c6c(F)cccc6F)c6ccc([nH]6)c(-c6c(F)cccc6F)c6nc(c(-c7c(F)cccc7F)c7ccc4[nH]7)C=C6)C=C5)cc3)c2)C[C@@H]1C
REMARK SMILES IDX 19 1 18 2 17 3 16 4 14 5 15 6 13 7 8 8 9 9 79 10 10 11 11 12
REMARK SMILES IDX 7 13 5 14 6 15 4 17 1 18 2 19 3 20 81 21 80 22 82 23 12 24
REMARK SMILES IDX 20 26 21 27 22 28 23 29 24 30 25 31 26 32 78 33 27 34 77 35
REMARK SMILES IDX 28 36 29 37 30 38 71 39 31 40 76 41 70 42 72 43 32 44 75 45
REMARK SMILES IDX 69 46 68 47 33 49 59 50 42 51 58 52 43 53 46 54 57 55 73 56
REMARK SMILES IDX 44 57 45 58 56 60 74 61 47 62 34 63 35 64 40 65 36 66 37 67
REMARK SMILES IDX 39 68 41 69 38 70 60 71 61 72 66 73 62 74 63 75 65 76 67 77
REMARK SMILES IDX 64 78 48 79 49 80 54 81 50 82 51 83 53 84 55 85 52 86
REMARK H PARENT 7 16 12 25 72 48 46 59
REMARK Flexibility Score: inf
ROOT
ATOM      1  O   UNL A   1      46.053  20.884  25.389  1.00  0.00    -0.374 OA
ENDROOT
BRANCH   1   2
ATOM      2  C   UNL A   1      46.451  21.795  24.361  1.00  0.00     0.202 C 
BRANCH   2   3
ATOM      3  C   UNL A   1      46.300  23.279  24.704  1.00  0.00     0.261 C 
BRANCH   3   4
ATOM      4  O   UNL A   1      46.440  23.444  26.121  1.00  0.00    -0.460 OA
BRANCH   4   5
ATOM      5  C   UNL A   1      47.253  24.445  26.523  1.00  0.00     0.342 C 
ATOM      6  O   UNL A   1      48.265  24.337  27.201  1.00  0.00    -0.246 OA
BRANCH   5   7
ATOM      7  C   UNL A   1      46.892  25.696  25.821  1.00  0.00     0.103 A 
ATOM      8  C   UNL A   1      45.149  27.302  25.368  1.00  0.00     0.044 A 
ATOM      9  C   UNL A   1      46.022  28.037  24.566  1.00  0.00     0.030 A 
ATOM     10  C   UNL A   1      45.599  26.182  26.058  1.00  0.00     0.045 A 
ATOM     11  C   UNL A   1      47.324  27.580  24.356  1.00  0.00     0.049 A 
ATOM     12  C   UNL A   1      47.746  26.390  24.953  1.00  0.00     0.130 A 
BRANCH   8  13
ATOM     13  N   UNL A   1      43.799  27.630  25.449  1.00  0.00    -0.308 N 
ATOM     14  C   UNL A   1      43.150  28.471  26.305  1.00  0.00     0.321 C 
ATOM     15  O   UNL A   1      41.920  28.514  26.212  1.00  0.00    -0.248 OA
ATOM     16  H   UNL A   1      43.222  27.186  24.786  1.00  0.00     0.171 HD
BRANCH  14  17
ATOM     17  N   UNL A   1      43.834  29.320  27.135  1.00  0.00    -0.324 N 
ATOM     18  C   UNL A   1      46.691  30.286  29.302  1.00  0.00     0.010 C 
ATOM     19  C   UNL A   1      45.310  30.393  28.673  1.00  0.00     0.010 C 
ATOM     20  C   UNL A   1      44.781  29.037  28.207  1.00  0.00     0.125 C 
ATOM     21  C   UNL A   1      45.160  31.266  27.417  1.00  0.00     0.010 C 
ATOM     22  C   UNL A   1      43.826  30.749  26.858  1.00  0.00     0.125 C 
ATOM     23  C   UNL A   1      46.296  31.122  26.398  1.00  0.00     0.010 C 
ENDBRANCH  14  17
ENDBRANCH   8  13
BRANCH  12  24
ATOM     24  O   UNL A   1      48.982  25.895  24.648  1.00  0.00    -0.507 OA
ATOM     25  H   UNL A   1      49.188  25.663  23.765  1.00  0.00     0.293 HD
ENDBRANCH  12  24
ENDBRANCH   5   7
ENDBRANCH   4   5
ENDBRANCH   3   4
ENDBRANCH   2   3
ENDBRANCH   1   2
BRANCH   1  26
ATOM     26  C   UNL A   1      45.990  19.498  25.048  1.00  0.00     0.202 C 
BRANCH  26  27
ATOM     27  C   UNL A   1      44.602  18.851  25.097  1.00  0.00     0.261 C 
BRANCH  27  28
ATOM     28  O   UNL A   1      43.547  19.796  24.854  1.00  0.00    -0.460 OA
BRANCH  28  29
ATOM     29  C   UNL A   1      42.513  19.728  25.724  1.00  0.00     0.338 C 
ATOM     30  O   UNL A   1      41.883  18.732  26.054  1.00  0.00    -0.246 OA
BRANCH  29  31
ATOM     31  C   UNL A   1      42.317  21.033  26.379  1.00  0.00     0.060 A 
ATOM     32  C   UNL A   1      42.817  22.168  25.727  1.00  0.00     0.016 A 
ATOM     33  C   UNL A   1      41.728  21.139  27.641  1.00  0.00     0.016 A 
ATOM     34  C   UNL A   1      42.773  23.410  26.357  1.00  0.00     0.010 A 
ATOM     35  C   UNL A   1      41.693  22.385  28.275  1.00  0.00     0.010 A 
ATOM     36  C   UNL A   1      42.246  23.519  27.649  1.00  0.00    -0.014 A 
BRANCH  36  37
ATOM     37  C   UNL A   1      42.405  24.783  28.406  1.00  0.00     0.031 A 
ATOM     38  C   UNL A   1      43.685  25.025  29.158  1.00  0.00     0.074 A 
ATOM     39  C   UNL A   1      41.431  25.709  28.413  1.00  0.00     0.049 A 
ATOM     40  N   UNL A   1      44.014  26.024  29.936  1.00  0.00    -0.248 NA
ATOM     41  C   UNL A   1      44.732  24.001  29.014  1.00  0.00     0.031 C 
ATOM     42  C   UNL A   1      40.166  25.610  27.689  1.00  0.00     0.029 A 
ATOM     43  N   UNL A   1      41.356  26.915  29.064  1.00  0.00    -0.354 N 
ATOM     44  C   UNL A   1      45.300  25.746  30.382  1.00  0.00     0.074 A 
ATOM     45  C   UNL A   1      45.681  24.472  29.809  1.00  0.00     0.031 C 
ATOM     46  C   UNL A   1      39.430  26.705  27.949  1.00  0.00     0.029 A 
ATOM     47  C   UNL A   1      40.160  27.564  28.879  1.00  0.00     0.049 A 
ATOM     48  H   UNL A   1      42.089  27.280  29.610  1.00  0.00     0.167 HD
ATOM     49  C   UNL A   1      46.094  26.487  31.190  1.00  0.00     0.037 A 
ATOM     50  C   UNL A   1      39.700  28.708  29.422  1.00  0.00     0.037 A 
ATOM     51  C   UNL A   1      45.715  27.754  31.756  1.00  0.00     0.049 A 
ATOM     52  C   UNL A   1      40.575  29.481  30.372  1.00  0.00     0.074 A 
ATOM     53  C   UNL A   1      46.456  28.590  32.574  1.00  0.00     0.029 A 
ATOM     54  N   UNL A   1      44.486  28.368  31.565  1.00  0.00    -0.354 N 
ATOM     55  N   UNL A   1      41.794  29.217  30.776  1.00  0.00    -0.248 NA
ATOM     56  C   UNL A   1      40.009  30.712  30.942  1.00  0.00     0.031 C 
ATOM     57  C   UNL A   1      45.658  29.688  32.915  1.00  0.00     0.029 A 
ATOM     58  C   UNL A   1      44.439  29.560  32.268  1.00  0.00     0.049 A 
ATOM     59  H   UNL A   1      43.756  28.008  31.010  1.00  0.00     0.167 HD
ATOM     60  C   UNL A   1      42.152  30.262  31.619  1.00  0.00     0.074 A 
ATOM     61  C   UNL A   1      41.024  31.168  31.663  1.00  0.00     0.031 C 
ATOM     62  C   UNL A   1      43.312  30.457  32.293  1.00  0.00     0.037 A 
BRANCH  49  63
ATOM     63  C   UNL A   1      47.445  25.930  31.530  1.00  0.00     0.057 A 
ATOM     64  C   UNL A   1      48.526  26.015  30.643  1.00  0.00     0.134 A 
ATOM     65  C   UNL A   1      47.675  25.329  32.774  1.00  0.00     0.134 A 
ATOM     66  F   UNL A   1      48.367  26.566  29.430  1.00  0.00    -0.206 F 
ATOM     67  C   UNL A   1      49.782  25.502  30.973  1.00  0.00     0.040 A 
ATOM     68  C   UNL A   1      48.932  24.835  33.124  1.00  0.00     0.040 A 
ATOM     69  F   UNL A   1      46.683  25.219  33.671  1.00  0.00    -0.206 F 
ATOM     70  C   UNL A   1      49.989  24.915  32.220  1.00  0.00     0.006 A 
ENDBRANCH  49  63
BRANCH  50  71
ATOM     71  C   UNL A   1      38.335  29.188  29.092  1.00  0.00     0.057 A 
ATOM     72  C   UNL A   1      37.293  29.109  30.023  1.00  0.00     0.134 A 
ATOM     73  C   UNL A   1      38.035  29.718  27.831  1.00  0.00     0.134 A 
ATOM     74  F   UNL A   1      37.513  28.587  31.239  1.00  0.00    -0.206 F 
ATOM     75  C   UNL A   1      35.998  29.524  29.708  1.00  0.00     0.040 A 
ATOM     76  C   UNL A   1      36.751  30.160  27.509  1.00  0.00     0.040 A 
ATOM     77  F   UNL A   1      38.990  29.821  26.895  1.00  0.00    -0.206 F 
ATOM     78  C   UNL A   1      35.726  30.057  28.448  1.00  0.00     0.006 A 
ENDBRANCH  50  71
BRANCH  62  79
ATOM     79  C   UNL A   1      43.440  31.716  33.100  1.00  0.00     0.057 A 
ATOM     80  C   UNL A   1      43.943  32.901  32.550  1.00  0.00     0.134 A 
ATOM     81  C   UNL A   1      43.011  31.750  34.433  1.00  0.00     0.134 A 
ATOM     82  F   UNL A   1      44.382  32.930  31.283  1.00  0.00    -0.206 F 
ATOM     83  C   UNL A   1      44.031  34.073  33.304  1.00  0.00     0.040 A 
ATOM     84  C   UNL A   1      43.071  32.922  35.189  1.00  0.00     0.040 A 
ATOM     85  F   UNL A   1      42.510  30.652  35.017  1.00  0.00    -0.206 F 
ATOM     86  C   UNL A   1      43.587  34.087  34.625  1.00  0.00     0.006 A 
ENDBRANCH  62  79
ENDBRANCH  36  37
ENDBRANCH  29  31
ENDBRANCH  28  29
ENDBRANCH  27  28
ENDBRANCH  26  27
ENDBRANCH   1  26
TORSDOF 17
ENDMDL
