MODEL 1
REMARK VINA RESULT:     -10.8      0.000      0.000
REMARK SMILES CC[C@@H]1CCC[C@@](CC[NH+]2CCOCC2)(C(=O)OCCOCCOC(=O)c2ccc(-c3c4nc(c(-c5c(F)cccc5F)c5ccc([nH]5)c(-c5c(F)cccc5F)c5nc(c(-c6c(F)cccc6F)c6ccc3[nH]6)C=C5)C=C4)cc2)C1
REMARK SMILES IDX 20 1 19 2 18 3 16 4 17 5 7 6 3 7 4 8 81 9 5 10 6 11 2 12
REMARK SMILES IDX 1 13 8 14 9 15 10 16 11 17 15 18 12 20 14 21 13 22 21 23
REMARK SMILES IDX 22 24 23 25 24 26 25 27 26 28 27 29 28 30 80 31 29 32 79 33
REMARK SMILES IDX 30 34 31 35 32 36 73 37 33 38 78 39 72 40 74 41 34 42 77 43
REMARK SMILES IDX 71 44 70 45 35 47 61 48 44 49 60 50 45 51 48 52 59 53 75 54
REMARK SMILES IDX 46 55 47 56 58 58 76 59 49 60 36 61 37 62 42 63 38 64 39 65
REMARK SMILES IDX 41 66 43 67 40 68 62 69 63 70 68 71 64 72 65 73 67 74 69 75
REMARK SMILES IDX 66 76 50 77 51 78 56 79 52 80 53 81 55 82 57 83 54 84
REMARK H PARENT 10 19 74 46 48 57
REMARK Flexibility Score: inf
ROOT
ATOM      1  C   UNL A   1      31.965  30.027  25.597  1.00  0.00     0.202 C 
ENDROOT
BRANCH   1   2
ATOM      2  C   UNL A   1      33.160  29.129  25.276  1.00  0.00     0.261 C 
BRANCH   2   3
ATOM      3  O   UNL A   1      32.804  27.768  24.953  1.00  0.00    -0.463 OA
BRANCH   3   4
ATOM      4  C   UNL A   1      32.542  27.554  23.634  1.00  0.00     0.312 C 
ATOM      5  O   UNL A   1      33.306  27.876  22.725  1.00  0.00    -0.252 OA
BRANCH   4   6
ATOM      6  C   UNL A   1      31.175  26.903  23.340  1.00  0.00     0.074 C 
ATOM      7  C   UNL A   1      32.034  24.481  23.472  1.00  0.00    -0.010 C 
ATOM      8  C   UNL A   1      30.970  24.130  24.514  1.00  0.00     0.003 C 
ATOM      9  C   UNL A   1      31.476  25.586  22.559  1.00  0.00     0.022 C 
ATOM     10  C   UNL A   1      30.634  25.347  25.368  1.00  0.00     0.001 C 
ATOM     11  C   UNL A   1      30.268  26.589  24.554  1.00  0.00     0.019 C 
BRANCH   7  12
ATOM     12  C   UNL A   1      32.490  23.232  22.702  1.00  0.00     0.000 C 
ATOM     13  C   UNL A   1      33.980  22.956  22.868  1.00  0.00     0.004 C 
ENDBRANCH   7  12
BRANCH   6  14
ATOM     14  C   UNL A   1      30.432  27.884  22.370  1.00  0.00     0.080 C 
BRANCH  14  15
ATOM     15  C   UNL A   1      29.628  29.027  23.028  1.00  0.00     0.263 C 
BRANCH  15  16
ATOM     16  N   UNL A   1      28.449  29.429  22.258  1.00  0.00    -0.331 N 
ATOM     17  C   UNL A   1      28.739  30.515  21.300  1.00  0.00     0.291 C 
ATOM     18  C   UNL A   1      27.305  29.838  23.105  1.00  0.00     0.291 C 
ATOM     19  H   UNL A   1      28.187  28.588  21.745  1.00  0.00     0.348 HD
ATOM     20  C   UNL A   1      28.867  31.900  21.950  1.00  0.00     0.221 C 
ATOM     21  C   UNL A   1      27.439  31.246  23.708  1.00  0.00     0.221 C 
ATOM     22  O   UNL A   1      27.688  32.230  22.696  1.00  0.00    -0.370 OA
ENDBRANCH  15  16
ENDBRANCH  14  15
ENDBRANCH   6  14
ENDBRANCH   4   6
ENDBRANCH   3   4
ENDBRANCH   2   3
ENDBRANCH   1   2
BRANCH   1  23
ATOM     23  O   UNL A   1      32.091  30.865  26.745  1.00  0.00    -0.374 OA
BRANCH  23  24
ATOM     24  C   UNL A   1      31.333  32.074  26.742  1.00  0.00     0.202 C 
BRANCH  24  25
ATOM     25  C   UNL A   1      32.153  33.360  26.883  1.00  0.00     0.261 C 
BRANCH  25  26
ATOM     26  O   UNL A   1      32.282  33.753  28.263  1.00  0.00    -0.460 OA
BRANCH  26  27
ATOM     27  C   UNL A   1      33.432  34.409  28.539  1.00  0.00     0.338 C 
ATOM     28  O   UNL A   1      33.557  35.574  28.875  1.00  0.00    -0.246 OA
BRANCH  27  29
ATOM     29  C   UNL A   1      34.573  33.478  28.533  1.00  0.00     0.060 A 
ATOM     30  C   UNL A   1      34.403  32.241  29.167  1.00  0.00     0.016 A 
ATOM     31  C   UNL A   1      35.839  33.898  28.117  1.00  0.00     0.016 A 
ATOM     32  C   UNL A   1      35.515  31.458  29.470  1.00  0.00     0.010 A 
ATOM     33  C   UNL A   1      36.955  33.109  28.426  1.00  0.00     0.010 A 
ATOM     34  C   UNL A   1      36.802  31.921  29.161  1.00  0.00    -0.014 A 
BRANCH  34  35
ATOM     35  C   UNL A   1      37.965  31.273  29.822  1.00  0.00     0.031 A 
ATOM     36  C   UNL A   1      38.227  31.568  31.277  1.00  0.00     0.074 A 
ATOM     37  C   UNL A   1      38.728  30.375  29.177  1.00  0.00     0.049 A 
ATOM     38  N   UNL A   1      39.123  31.055  32.083  1.00  0.00    -0.248 NA
ATOM     39  C   UNL A   1      37.358  32.575  31.909  1.00  0.00     0.031 C 
ATOM     40  C   UNL A   1      38.564  29.967  27.784  1.00  0.00     0.029 A 
ATOM     41  N   UNL A   1      39.789  29.629  29.627  1.00  0.00    -0.354 N 
ATOM     42  C   UNL A   1      38.922  31.669  33.313  1.00  0.00     0.074 A 
ATOM     43  C   UNL A   1      37.844  32.620  33.141  1.00  0.00     0.031 C 
ATOM     44  C   UNL A   1      39.487  29.033  27.494  1.00  0.00     0.029 A 
ATOM     45  C   UNL A   1      40.311  28.787  28.676  1.00  0.00     0.049 A 
ATOM     46  H   UNL A   1      40.143  29.692  30.543  1.00  0.00     0.167 HD
ATOM     47  C   UNL A   1      39.563  31.456  34.487  1.00  0.00     0.037 A 
ATOM     48  C   UNL A   1      41.332  27.912  28.756  1.00  0.00     0.037 A 
ATOM     49  C   UNL A   1      40.629  30.510  34.674  1.00  0.00     0.049 A 
ATOM     50  C   UNL A   1      42.065  27.729  30.057  1.00  0.00     0.074 A 
ATOM     51  C   UNL A   1      41.326  30.212  35.834  1.00  0.00     0.029 A 
ATOM     52  N   UNL A   1      41.157  29.711  33.673  1.00  0.00    -0.354 N 
ATOM     53  N   UNL A   1      41.844  28.292  31.219  1.00  0.00    -0.248 NA
ATOM     54  C   UNL A   1      43.188  26.778  30.057  1.00  0.00     0.031 C 
ATOM     55  C   UNL A   1      42.299  29.255  35.525  1.00  0.00     0.029 A 
ATOM     56  C   UNL A   1      42.185  28.935  34.182  1.00  0.00     0.049 A 
ATOM     57  H   UNL A   1      40.848  29.698  32.739  1.00  0.00     0.167 HD
ATOM     58  C   UNL A   1      42.774  27.742  32.093  1.00  0.00     0.074 A 
ATOM     59  C   UNL A   1      43.563  26.800  31.328  1.00  0.00     0.031 C 
ATOM     60  C   UNL A   1      42.955  27.993  33.413  1.00  0.00     0.037 A 
BRANCH  47  61
ATOM     61  C   UNL A   1      39.130  32.282  35.659  1.00  0.00     0.057 A 
ATOM     62  C   UNL A   1      39.550  33.608  35.822  1.00  0.00     0.134 A 
ATOM     63  C   UNL A   1      38.276  31.748  36.632  1.00  0.00     0.134 A 
ATOM     64  F   UNL A   1      40.381  34.170  34.932  1.00  0.00    -0.206 F 
ATOM     65  C   UNL A   1      39.154  34.367  36.924  1.00  0.00     0.040 A 
ATOM     66  C   UNL A   1      37.857  32.503  37.728  1.00  0.00     0.040 A 
ATOM     67  F   UNL A   1      37.837  30.484  36.532  1.00  0.00    -0.206 F 
ATOM     68  C   UNL A   1      38.302  33.816  37.878  1.00  0.00     0.006 A 
ENDBRANCH  47  61
BRANCH  48  69
ATOM     69  C   UNL A   1      41.713  27.115  27.564  1.00  0.00     0.057 A 
ATOM     70  C   UNL A   1      41.213  25.823  27.371  1.00  0.00     0.134 A 
ATOM     71  C   UNL A   1      42.595  27.622  26.604  1.00  0.00     0.134 A 
ATOM     72  F   UNL A   1      40.384  25.278  28.272  1.00  0.00    -0.206 F 
ATOM     73  C   UNL A   1      41.585  25.056  26.266  1.00  0.00     0.040 A 
ATOM     74  C   UNL A   1      42.961  26.872  25.484  1.00  0.00     0.040 A 
ATOM     75  F   UNL A   1      43.109  28.853  26.739  1.00  0.00    -0.206 F 
ATOM     76  C   UNL A   1      42.458  25.583  25.316  1.00  0.00     0.006 A 
ENDBRANCH  48  69
BRANCH  60  77
ATOM     77  C   UNL A   1      44.021  27.212  34.124  1.00  0.00     0.057 A 
ATOM     78  C   UNL A   1      43.755  25.973  34.718  1.00  0.00     0.134 A 
ATOM     79  C   UNL A   1      45.336  27.690  34.179  1.00  0.00     0.134 A 
ATOM     80  F   UNL A   1      42.513  25.467  34.708  1.00  0.00    -0.206 F 
ATOM     81  C   UNL A   1      44.758  25.244  35.361  1.00  0.00     0.040 A 
ATOM     82  C   UNL A   1      46.351  26.962  34.802  1.00  0.00     0.040 A 
ATOM     83  F   UNL A   1      45.657  28.868  33.622  1.00  0.00    -0.206 F 
ATOM     84  C   UNL A   1      46.061  25.736  35.398  1.00  0.00     0.006 A 
ENDBRANCH  60  77
ENDBRANCH  34  35
ENDBRANCH  27  29
ENDBRANCH  26  27
ENDBRANCH  25  26
ENDBRANCH  24  25
ENDBRANCH  23  24
ENDBRANCH   1  23
TORSDOF 18
ENDMDL
MODEL 2
REMARK VINA RESULT:     -10.4      0.666      6.200
REMARK SMILES CC[C@@H]1CCC[C@@](CC[NH+]2CCOCC2)(C(=O)OCCOCCOC(=O)c2ccc(-c3c4nc(c(-c5c(F)cccc5F)c5ccc([nH]5)c(-c5c(F)cccc5F)c5nc(c(-c6c(F)cccc6F)c6ccc3[nH]6)C=C5)C=C4)cc2)C1
REMARK SMILES IDX 20 1 19 2 18 3 16 4 17 5 7 6 3 7 4 8 81 9 5 10 6 11 2 12
REMARK SMILES IDX 1 13 8 14 9 15 10 16 11 17 15 18 12 20 14 21 13 22 21 23
REMARK SMILES IDX 22 24 23 25 24 26 25 27 26 28 27 29 28 30 80 31 29 32 79 33
REMARK SMILES IDX 30 34 31 35 32 36 73 37 33 38 78 39 72 40 74 41 34 42 77 43
REMARK SMILES IDX 71 44 70 45 35 47 61 48 44 49 60 50 45 51 48 52 59 53 75 54
REMARK SMILES IDX 46 55 47 56 58 58 76 59 49 60 36 61 37 62 42 63 38 64 39 65
REMARK SMILES IDX 41 66 43 67 40 68 62 69 63 70 68 71 64 72 65 73 67 74 69 75
REMARK SMILES IDX 66 76 50 77 51 78 56 79 52 80 53 81 55 82 57 83 54 84
REMARK H PARENT 10 19 74 46 48 57
REMARK Flexibility Score: inf
ROOT
ATOM      1  C   UNL A   1      31.996  29.976  25.823  1.00  0.00     0.202 C 
ENDROOT
BRANCH   1   2
ATOM      2  C   UNL A   1      33.243  29.127  25.575  1.00  0.00     0.261 C 
BRANCH   2   3
ATOM      3  O   UNL A   1      32.963  27.768  25.182  1.00  0.00    -0.463 OA
BRANCH   3   4
ATOM      4  C   UNL A   1      32.609  27.624  23.875  1.00  0.00     0.312 C 
ATOM      5  O   UNL A   1      33.294  28.019  22.933  1.00  0.00    -0.252 OA
BRANCH   4   6
ATOM      6  C   UNL A   1      31.239  26.953  23.644  1.00  0.00     0.074 C 
ATOM      7  C   UNL A   1      32.092  24.550  23.987  1.00  0.00    -0.010 C 
ATOM      8  C   UNL A   1      31.030  24.296  25.059  1.00  0.00     0.003 C 
ATOM      9  C   UNL A   1      31.533  25.572  22.981  1.00  0.00     0.022 C 
ATOM     10  C   UNL A   1      30.699  25.584  25.802  1.00  0.00     0.001 C 
ATOM     11  C   UNL A   1      30.334  26.750  24.883  1.00  0.00     0.019 C 
BRANCH   7  12
ATOM     12  C   UNL A   1      32.542  23.237  23.329  1.00  0.00     0.000 C 
ATOM     13  C   UNL A   1      32.107  22.008  24.121  1.00  0.00     0.004 C 
ENDBRANCH   7  12
BRANCH   6  14
ATOM     14  C   UNL A   1      30.495  27.847  22.593  1.00  0.00     0.080 C 
BRANCH  14  15
ATOM     15  C   UNL A   1      29.466  28.855  23.150  1.00  0.00     0.263 C 
BRANCH  15  16
ATOM     16  N   UNL A   1      29.816  30.252  22.885  1.00  0.00    -0.331 N 
ATOM     17  C   UNL A   1      29.177  31.189  23.830  1.00  0.00     0.291 C 
ATOM     18  C   UNL A   1      29.501  30.684  21.503  1.00  0.00     0.291 C 
ATOM     19  H   UNL A   1      30.828  30.284  23.010  1.00  0.00     0.348 HD
ATOM     20  C   UNL A   1      27.689  31.440  23.546  1.00  0.00     0.221 C 
ATOM     21  C   UNL A   1      28.010  30.971  21.258  1.00  0.00     0.221 C 
ATOM     22  O   UNL A   1      27.493  31.913  22.207  1.00  0.00    -0.370 OA
ENDBRANCH  15  16
ENDBRANCH  14  15
ENDBRANCH   6  14
ENDBRANCH   4   6
ENDBRANCH   3   4
ENDBRANCH   2   3
ENDBRANCH   1   2
BRANCH   1  23
ATOM     23  O   UNL A   1      32.015  30.811  26.978  1.00  0.00    -0.374 OA
BRANCH  23  24
ATOM     24  C   UNL A   1      31.457  32.118  26.835  1.00  0.00     0.202 C 
BRANCH  24  25
ATOM     25  C   UNL A   1      32.461  33.271  26.929  1.00  0.00     0.261 C 
BRANCH  25  26
ATOM     26  O   UNL A   1      32.251  34.056  28.118  1.00  0.00    -0.460 OA
BRANCH  26  27
ATOM     27  C   UNL A   1      33.366  34.676  28.566  1.00  0.00     0.338 C 
ATOM     28  O   UNL A   1      33.469  35.831  28.942  1.00  0.00    -0.246 OA
BRANCH  27  29
ATOM     29  C   UNL A   1      34.474  33.717  28.701  1.00  0.00     0.060 A 
ATOM     30  C   UNL A   1      34.193  32.484  29.304  1.00  0.00     0.016 A 
ATOM     31  C   UNL A   1      35.792  34.103  28.449  1.00  0.00     0.016 A 
ATOM     32  C   UNL A   1      35.238  31.673  29.742  1.00  0.00     0.010 A 
ATOM     33  C   UNL A   1      36.841  33.286  28.893  1.00  0.00     0.010 A 
ATOM     34  C   UNL A   1      36.565  32.101  29.599  1.00  0.00    -0.014 A 
BRANCH  34  35
ATOM     35  C   UNL A   1      37.619  31.424  30.398  1.00  0.00     0.031 A 
ATOM     36  C   UNL A   1      38.520  30.429  29.713  1.00  0.00     0.074 A 
ATOM     37  C   UNL A   1      37.835  31.742  31.686  1.00  0.00     0.049 A 
ATOM     38  N   UNL A   1      39.560  29.785  30.182  1.00  0.00    -0.248 NA
ATOM     39  C   UNL A   1      38.210  30.123  28.307  1.00  0.00     0.031 C 
ATOM     40  C   UNL A   1      37.066  32.711  32.461  1.00  0.00     0.029 A 
ATOM     41  N   UNL A   1      38.788  31.284  32.563  1.00  0.00    -0.354 N 
ATOM     42  C   UNL A   1      40.028  29.006  29.131  1.00  0.00     0.074 A 
ATOM     43  C   UNL A   1      39.140  29.228  28.011  1.00  0.00     0.031 C 
ATOM     44  C   UNL A   1      37.585  32.787  33.699  1.00  0.00     0.029 A 
ATOM     45  C   UNL A   1      38.714  31.863  33.805  1.00  0.00     0.049 A 
ATOM     46  H   UNL A   1      39.459  30.606  32.323  1.00  0.00     0.167 HD
ATOM     47  C   UNL A   1      41.107  28.188  29.092  1.00  0.00     0.037 A 
ATOM     48  C   UNL A   1      39.477  31.674  34.899  1.00  0.00     0.037 A 
ATOM     49  C   UNL A   1      42.002  27.964  30.195  1.00  0.00     0.049 A 
ATOM     50  C   UNL A   1      40.640  30.721  34.849  1.00  0.00     0.074 A 
ATOM     51  C   UNL A   1      43.134  27.167  30.241  1.00  0.00     0.029 A 
ATOM     52  N   UNL A   1      41.863  28.535  31.450  1.00  0.00    -0.354 N 
ATOM     53  N   UNL A   1      41.091  30.016  33.841  1.00  0.00    -0.248 NA
ATOM     54  C   UNL A   1      41.407  30.546  36.093  1.00  0.00     0.031 C 
ATOM     55  C   UNL A   1      43.661  27.231  31.537  1.00  0.00     0.029 A 
ATOM     56  C   UNL A   1      42.876  28.093  32.285  1.00  0.00     0.049 A 
ATOM     57  H   UNL A   1      41.150  29.162  31.709  1.00  0.00     0.167 HD
ATOM     58  C   UNL A   1      42.208  29.341  34.317  1.00  0.00     0.074 A 
ATOM     59  C   UNL A   1      42.369  29.721  35.704  1.00  0.00     0.031 C 
ATOM     60  C   UNL A   1      43.031  28.487  33.660  1.00  0.00     0.037 A 
BRANCH  47  61
ATOM     61  C   UNL A   1      41.365  27.462  27.807  1.00  0.00     0.057 A 
ATOM     62  C   UNL A   1      42.090  28.047  26.762  1.00  0.00     0.134 A 
ATOM     63  C   UNL A   1      40.889  26.158  27.618  1.00  0.00     0.134 A 
ATOM     64  F   UNL A   1      42.558  29.299  26.879  1.00  0.00    -0.206 F 
ATOM     65  C   UNL A   1      42.314  27.370  25.563  1.00  0.00     0.040 A 
ATOM     66  C   UNL A   1      41.124  25.463  26.431  1.00  0.00     0.040 A 
ATOM     67  F   UNL A   1      40.189  25.542  28.582  1.00  0.00    -0.206 F 
ATOM     68  C   UNL A   1      41.834  26.072  25.397  1.00  0.00     0.006 A 
ENDBRANCH  47  61
BRANCH  48  69
ATOM     69  C   UNL A   1      39.180  32.427  36.143  1.00  0.00     0.057 A 
ATOM     70  C   UNL A   1      38.332  31.897  37.122  1.00  0.00     0.134 A 
ATOM     71  C   UNL A   1      39.724  33.695  36.370  1.00  0.00     0.134 A 
ATOM     72  F   UNL A   1      37.763  30.696  36.944  1.00  0.00    -0.206 F 
ATOM     73  C   UNL A   1      38.028  32.609  38.283  1.00  0.00     0.040 A 
ATOM     74  C   UNL A   1      39.443  34.409  37.536  1.00  0.00     0.040 A 
ATOM     75  F   UNL A   1      40.540  34.255  35.466  1.00  0.00    -0.206 F 
ATOM     76  C   UNL A   1      38.588  33.867  38.495  1.00  0.00     0.006 A 
ENDBRANCH  48  69
BRANCH  60  77
ATOM     77  C   UNL A   1      44.199  27.932  34.420  1.00  0.00     0.057 A 
ATOM     78  C   UNL A   1      45.426  28.603  34.478  1.00  0.00     0.134 A 
ATOM     79  C   UNL A   1      44.080  26.733  35.134  1.00  0.00     0.134 A 
ATOM     80  F   UNL A   1      45.607  29.750  33.808  1.00  0.00    -0.206 F 
ATOM     81  C   UNL A   1      46.503  28.089  35.205  1.00  0.00     0.040 A 
ATOM     82  C   UNL A   1      45.142  26.219  35.879  1.00  0.00     0.040 A 
ATOM     83  F   UNL A   1      42.927  26.046  35.124  1.00  0.00    -0.206 F 
ATOM     84  C   UNL A   1      46.359  26.897  35.913  1.00  0.00     0.006 A 
ENDBRANCH  60  77
ENDBRANCH  34  35
ENDBRANCH  27  29
ENDBRANCH  26  27
ENDBRANCH  25  26
ENDBRANCH  24  25
ENDBRANCH  23  24
ENDBRANCH   1  23
TORSDOF 18
ENDMDL
MODEL 3
REMARK VINA RESULT:     -10.3      1.737      3.889
REMARK SMILES CC[C@@H]1CCC[C@@](CC[NH+]2CCOCC2)(C(=O)OCCOCCOC(=O)c2ccc(-c3c4nc(c(-c5c(F)cccc5F)c5ccc([nH]5)c(-c5c(F)cccc5F)c5nc(c(-c6c(F)cccc6F)c6ccc3[nH]6)C=C5)C=C4)cc2)C1
REMARK SMILES IDX 20 1 19 2 18 3 16 4 17 5 7 6 3 7 4 8 81 9 5 10 6 11 2 12
REMARK SMILES IDX 1 13 8 14 9 15 10 16 11 17 15 18 12 20 14 21 13 22 21 23
REMARK SMILES IDX 22 24 23 25 24 26 25 27 26 28 27 29 28 30 80 31 29 32 79 33
REMARK SMILES IDX 30 34 31 35 32 36 73 37 33 38 78 39 72 40 74 41 34 42 77 43
REMARK SMILES IDX 71 44 70 45 35 47 61 48 44 49 60 50 45 51 48 52 59 53 75 54
REMARK SMILES IDX 46 55 47 56 58 58 76 59 49 60 36 61 37 62 42 63 38 64 39 65
REMARK SMILES IDX 41 66 43 67 40 68 62 69 63 70 68 71 64 72 65 73 67 74 69 75
REMARK SMILES IDX 66 76 50 77 51 78 56 79 52 80 53 81 55 82 57 83 54 84
REMARK H PARENT 10 19 74 46 48 57
REMARK Flexibility Score: inf
ROOT
ATOM      1  C   UNL A   1      33.109  29.129  27.191  1.00  0.00     0.202 C 
ENDROOT
BRANCH   1   2
ATOM      2  C   UNL A   1      32.004  28.075  27.269  1.00  0.00     0.261 C 
BRANCH   2   3
ATOM      3  O   UNL A   1      32.268  26.888  26.493  1.00  0.00    -0.463 OA
BRANCH   3   4
ATOM      4  C   UNL A   1      31.167  26.349  25.900  1.00  0.00     0.312 C 
ATOM      5  O   UNL A   1      30.178  25.959  26.519  1.00  0.00    -0.252 OA
BRANCH   4   6
ATOM      6  C   UNL A   1      31.255  26.217  24.365  1.00  0.00     0.074 C 
ATOM      7  C   UNL A   1      30.747  28.693  23.886  1.00  0.00    -0.010 C 
ATOM      8  C   UNL A   1      32.023  28.823  23.051  1.00  0.00     0.003 C 
ATOM      9  C   UNL A   1      30.240  27.245  23.777  1.00  0.00     0.022 C 
ATOM     10  C   UNL A   1      33.103  27.885  23.574  1.00  0.00     0.001 C 
ATOM     11  C   UNL A   1      32.644  26.434  23.717  1.00  0.00     0.019 C 
BRANCH   7  12
ATOM     12  C   UNL A   1      29.699  29.735  23.464  1.00  0.00     0.000 C 
ATOM     13  C   UNL A   1      29.603  29.886  21.950  1.00  0.00     0.004 C 
ENDBRANCH   7  12
BRANCH   6  14
ATOM     14  C   UNL A   1      30.739  24.776  24.028  1.00  0.00     0.080 C 
BRANCH  14  15
ATOM     15  C   UNL A   1      31.813  23.680  23.865  1.00  0.00     0.263 C 
BRANCH  15  16
ATOM     16  N   UNL A   1      32.271  23.118  25.137  1.00  0.00    -0.331 N 
ATOM     17  C   UNL A   1      33.741  23.125  25.268  1.00  0.00     0.291 C 
ATOM     18  C   UNL A   1      31.781  21.741  25.381  1.00  0.00     0.291 C 
ATOM     19  H   UNL A   1      31.867  23.734  25.842  1.00  0.00     0.348 HD
ATOM     20  C   UNL A   1      34.443  22.027  24.456  1.00  0.00     0.221 C 
ATOM     21  C   UNL A   1      32.530  20.656  24.590  1.00  0.00     0.221 C 
ATOM     22  O   UNL A   1      33.945  20.730  24.807  1.00  0.00    -0.370 OA
ENDBRANCH  15  16
ENDBRANCH  14  15
ENDBRANCH   6  14
ENDBRANCH   4   6
ENDBRANCH   3   4
ENDBRANCH   2   3
ENDBRANCH   1   2
BRANCH   1  23
ATOM     23  O   UNL A   1      32.870  30.237  26.325  1.00  0.00    -0.374 OA
BRANCH  23  24
ATOM     24  C   UNL A   1      31.646  30.947  26.515  1.00  0.00     0.202 C 
BRANCH  24  25
ATOM     25  C   UNL A   1      31.798  32.423  26.892  1.00  0.00     0.261 C 
BRANCH  25  26
ATOM     26  O   UNL A   1      33.154  32.734  27.267  1.00  0.00    -0.460 OA
BRANCH  26  27
ATOM     27  C   UNL A   1      33.262  33.799  28.092  1.00  0.00     0.338 C 
ATOM     28  O   UNL A   1      32.498  34.745  28.182  1.00  0.00    -0.246 OA
BRANCH  27  29
ATOM     29  C   UNL A   1      34.383  33.618  29.029  1.00  0.00     0.060 A 
ATOM     30  C   UNL A   1      35.650  34.045  28.613  1.00  0.00     0.016 A 
ATOM     31  C   UNL A   1      34.235  32.848  30.184  1.00  0.00     0.016 A 
ATOM     32  C   UNL A   1      36.785  33.625  29.303  1.00  0.00     0.010 A 
ATOM     33  C   UNL A   1      35.378  32.425  30.875  1.00  0.00     0.010 A 
ATOM     34  C   UNL A   1      36.658  32.759  30.397  1.00  0.00    -0.014 A 
BRANCH  34  35
ATOM     35  C   UNL A   1      37.865  32.030  30.868  1.00  0.00     0.031 A 
ATOM     36  C   UNL A   1      38.393  32.320  32.250  1.00  0.00     0.074 A 
ATOM     37  C   UNL A   1      38.437  31.067  30.125  1.00  0.00     0.049 A 
ATOM     38  N   UNL A   1      39.371  31.747  32.905  1.00  0.00    -0.248 NA
ATOM     39  C   UNL A   1      37.723  33.398  32.995  1.00  0.00     0.031 C 
ATOM     40  C   UNL A   1      38.008  30.658  28.790  1.00  0.00     0.029 A 
ATOM     41  N   UNL A   1      39.501  30.246  30.407  1.00  0.00    -0.354 N 
ATOM     42  C   UNL A   1      39.430  32.389  34.136  1.00  0.00     0.074 A 
ATOM     43  C   UNL A   1      38.413  33.419  34.125  1.00  0.00     0.031 C 
ATOM     44  C   UNL A   1      38.795  29.652  28.371  1.00  0.00     0.029 A 
ATOM     45  C   UNL A   1      39.788  29.355  29.402  1.00  0.00     0.049 A 
ATOM     46  H   UNL A   1      40.009  30.291  31.248  1.00  0.00     0.167 HD
ATOM     47  C   UNL A   1      40.244  32.139  35.189  1.00  0.00     0.037 A 
ATOM     48  C   UNL A   1      40.739  28.404  29.330  1.00  0.00     0.037 A 
ATOM     49  C   UNL A   1      41.252  31.115  35.217  1.00  0.00     0.049 A 
ATOM     50  C   UNL A   1      41.667  28.178  30.493  1.00  0.00     0.074 A 
ATOM     51  C   UNL A   1      42.112  30.776  36.249  1.00  0.00     0.029 A 
ATOM     52  N   UNL A   1      41.541  30.266  34.161  1.00  0.00    -0.354 N 
ATOM     53  N   UNL A   1      41.690  28.769  31.661  1.00  0.00    -0.248 NA
ATOM     54  C   UNL A   1      42.699  27.142  30.325  1.00  0.00     0.031 C 
ATOM     55  C   UNL A   1      42.944  29.743  35.803  1.00  0.00     0.029 A 
ATOM     56  C   UNL A   1      42.579  29.417  34.507  1.00  0.00     0.049 A 
ATOM     57  H   UNL A   1      41.076  30.266  33.292  1.00  0.00     0.167 HD
ATOM     58  C   UNL A   1      42.712  28.159  32.378  1.00  0.00     0.074 A 
ATOM     59  C   UNL A   1      43.285  27.149  31.514  1.00  0.00     0.031 C 
ATOM     60  C   UNL A   1      43.133  28.410  33.642  1.00  0.00     0.037 A 
BRANCH  47  61
ATOM     61  C   UNL A   1      40.080  33.010  36.398  1.00  0.00     0.057 A 
ATOM     62  C   UNL A   1      39.186  32.685  37.425  1.00  0.00     0.134 A 
ATOM     63  C   UNL A   1      40.832  34.183  36.538  1.00  0.00     0.134 A 
ATOM     64  F   UNL A   1      38.426  31.582  37.340  1.00  0.00    -0.206 F 
ATOM     65  C   UNL A   1      39.029  33.507  38.541  1.00  0.00     0.040 A 
ATOM     66  C   UNL A   1      40.699  35.004  37.659  1.00  0.00     0.040 A 
ATOM     67  F   UNL A   1      41.707  34.549  35.589  1.00  0.00    -0.206 F 
ATOM     68  C   UNL A   1      39.790  34.669  38.662  1.00  0.00     0.006 A 
ENDBRANCH  47  61
BRANCH  48  69
ATOM     69  C   UNL A   1      40.850  27.566  28.111  1.00  0.00     0.057 A 
ATOM     70  C   UNL A   1      41.674  27.946  27.046  1.00  0.00     0.134 A 
ATOM     71  C   UNL A   1      40.124  26.377  27.979  1.00  0.00     0.134 A 
ATOM     72  F   UNL A   1      42.373  29.088  27.108  1.00  0.00    -0.206 F 
ATOM     73  C   UNL A   1      41.766  27.176  25.885  1.00  0.00     0.040 A 
ATOM     74  C   UNL A   1      40.222  25.588  26.832  1.00  0.00     0.040 A 
ATOM     75  F   UNL A   1      39.316  25.964  28.966  1.00  0.00    -0.206 F 
ATOM     76  C   UNL A   1      41.041  25.990  25.779  1.00  0.00     0.006 A 
ENDBRANCH  48  69
BRANCH  60  77
ATOM     77  C   UNL A   1      44.243  27.556  34.181  1.00  0.00     0.057 A 
ATOM     78  C   UNL A   1      43.991  26.336  34.819  1.00  0.00     0.134 A 
ATOM     79  C   UNL A   1      45.580  27.943  34.025  1.00  0.00     0.134 A 
ATOM     80  F   UNL A   1      42.732  25.915  35.009  1.00  0.00    -0.206 F 
ATOM     81  C   UNL A   1      45.031  25.538  35.301  1.00  0.00     0.040 A 
ATOM     82  C   UNL A   1      46.629  27.146  34.485  1.00  0.00     0.040 A 
ATOM     83  F   UNL A   1      45.887  29.099  33.416  1.00  0.00    -0.206 F 
ATOM     84  C   UNL A   1      46.354  25.940  35.128  1.00  0.00     0.006 A 
ENDBRANCH  60  77
ENDBRANCH  34  35
ENDBRANCH  27  29
ENDBRANCH  26  27
ENDBRANCH  25  26
ENDBRANCH  24  25
ENDBRANCH  23  24
ENDBRANCH   1  23
TORSDOF 18
ENDMDL
