MODEL 1
REMARK VINA RESULT:     -11.3      0.000      0.000
REMARK SMILES CC(C)CCc1cc2c(cc1Cl)C=C(C(=O)OCCOCCOC(=O)c1ccc(-c3c4nc(c(-c5c(F)cccc5F)c5ccc([nH]5)c(-c5c(F)cccc5F)c5nc(c(-c6c(F)cccc6F)c6ccc3[nH]6)C=C5)C=C4)cc1)[C@@H](C(F)(F)F)O2
REMARK SMILES IDX 19 1 18 2 17 3 15 4 16 5 14 6 6 7 7 8 11 9 8 10 10 11 12 12
REMARK SMILES IDX 9 13 85 14 13 15 80 16 5 17 4 18 2 19 1 20 3 21 81 22 82 23
REMARK SMILES IDX 83 24 84 25 20 26 21 27 22 28 23 29 24 30 25 31 26 32 27 33
REMARK SMILES IDX 79 34 28 35 78 36 29 37 30 38 31 39 72 40 32 41 77 42 71 43
REMARK SMILES IDX 73 44 33 45 76 46 70 47 69 48 34 50 60 51 43 52 59 53 44 54
REMARK SMILES IDX 47 55 58 56 74 57 45 58 46 59 57 61 75 62 48 63 35 64 36 65
REMARK SMILES IDX 41 66 37 67 38 68 40 69 42 70 39 71 61 72 62 73 67 74 63 75
REMARK SMILES IDX 64 76 66 77 68 78 65 79 49 80 50 81 55 82 51 83 52 84 54 85
REMARK SMILES IDX 56 86 53 87
REMARK H PARENT 73 49 47 60
REMARK Flexibility Score: inf
ROOT
ATOM      1  C   UNL A   1      32.276  30.058  26.926  1.00  0.00     0.202 C 
ENDROOT
BRANCH   1   2
ATOM      2  C   UNL A   1      31.784  28.611  27.002  1.00  0.00     0.261 C 
BRANCH   2   3
ATOM      3  O   UNL A   1      32.866  27.668  26.996  1.00  0.00    -0.460 OA
BRANCH   3   4
ATOM      4  C   UNL A   1      33.124  27.148  25.774  1.00  0.00     0.338 C 
ATOM      5  O   UNL A   1      33.680  27.708  24.842  1.00  0.00    -0.246 OA
BRANCH   4   6
ATOM      6  C   UNL A   1      32.761  25.722  25.742  1.00  0.00     0.087 C 
ATOM      7  C   UNL A   1      33.239  20.807  24.878  1.00  0.00    -0.026 A 
ATOM      8  C   UNL A   1      32.136  21.692  24.978  1.00  0.00     0.052 A 
ATOM      9  C   UNL A   1      34.508  21.314  25.208  1.00  0.00     0.045 A 
ATOM     10  C   UNL A   1      32.297  23.026  25.363  1.00  0.00     0.128 A 
ATOM     11  C   UNL A   1      34.654  22.625  25.667  1.00  0.00     0.032 A 
ATOM     12  Cl  UNL A   1      35.992  20.458  24.998  1.00  0.00    -0.084 Cl
ATOM     13  C   UNL A   1      33.560  23.486  25.710  1.00  0.00     0.019 A 
ATOM     14  O   UNL A   1      31.186  23.823  25.357  1.00  0.00    -0.475 OA
ATOM     15  C   UNL A   1      33.780  24.889  25.981  1.00  0.00     0.027 C 
ATOM     16  C   UNL A   1      31.376  25.273  25.375  1.00  0.00     0.316 C 
BRANCH   7  17
ATOM     17  C   UNL A   1      32.949  19.432  24.304  1.00  0.00     0.037 C 
BRANCH  17  18
ATOM     18  C   UNL A   1      33.074  18.177  25.180  1.00  0.00     0.008 C 
BRANCH  18  19
ATOM     19  C   UNL A   1      32.899  16.839  24.438  1.00  0.00    -0.017 C 
ATOM     20  C   UNL A   1      34.045  16.589  23.459  1.00  0.00     0.007 C 
ATOM     21  C   UNL A   1      32.805  15.691  25.447  1.00  0.00     0.007 C 
ENDBRANCH  18  19
ENDBRANCH  17  18
ENDBRANCH   7  17
BRANCH  16  22
ATOM     22  C   UNL A   1      30.911  25.861  24.034  1.00  0.00     0.430 C 
ATOM     23  F   UNL A   1      31.909  25.851  23.120  1.00  0.00    -0.167 F 
ATOM     24  F   UNL A   1      29.893  25.141  23.503  1.00  0.00    -0.167 F 
ATOM     25  F   UNL A   1      30.483  27.137  24.158  1.00  0.00    -0.167 F 
ENDBRANCH  16  22
ENDBRANCH   4   6
ENDBRANCH   3   4
ENDBRANCH   2   3
ENDBRANCH   1   2
BRANCH   1  26
ATOM     26  O   UNL A   1      31.613  30.948  26.032  1.00  0.00    -0.374 OA
BRANCH  26  27
ATOM     27  C   UNL A   1      31.230  32.239  26.500  1.00  0.00     0.202 C 
BRANCH  27  28
ATOM     28  C   UNL A   1      32.325  33.250  26.867  1.00  0.00     0.261 C 
BRANCH  28  29
ATOM     29  O   UNL A   1      32.164  33.797  28.186  1.00  0.00    -0.460 OA
BRANCH  29  30
ATOM     30  C   UNL A   1      33.155  34.633  28.580  1.00  0.00     0.338 C 
ATOM     31  O   UNL A   1      33.083  35.838  28.762  1.00  0.00    -0.246 OA
BRANCH  30  32
ATOM     32  C   UNL A   1      34.331  33.836  28.970  1.00  0.00     0.060 A 
ATOM     33  C   UNL A   1      35.619  34.242  28.621  1.00  0.00     0.016 A 
ATOM     34  C   UNL A   1      34.129  32.684  29.743  1.00  0.00     0.016 A 
ATOM     35  C   UNL A   1      36.712  33.502  29.077  1.00  0.00     0.010 A 
ATOM     36  C   UNL A   1      35.222  31.948  30.196  1.00  0.00     0.010 A 
ATOM     37  C   UNL A   1      36.523  32.366  29.887  1.00  0.00    -0.014 A 
BRANCH  37  38
ATOM     38  C   UNL A   1      37.692  31.709  30.518  1.00  0.00     0.031 A 
ATOM     39  C   UNL A   1      38.107  32.017  31.923  1.00  0.00     0.074 A 
ATOM     40  C   UNL A   1      38.388  30.815  29.788  1.00  0.00     0.049 A 
ATOM     41  N   UNL A   1      39.045  31.458  32.644  1.00  0.00    -0.248 NA
ATOM     42  C   UNL A   1      37.384  33.099  32.605  1.00  0.00     0.031 C 
ATOM     43  C   UNL A   1      38.105  30.469  28.393  1.00  0.00     0.029 A 
ATOM     44  N   UNL A   1      39.461  30.030  30.117  1.00  0.00    -0.354 N 
ATOM     45  C   UNL A   1      39.011  32.098  33.875  1.00  0.00     0.074 A 
ATOM     46  C   UNL A   1      37.997  33.129  33.781  1.00  0.00     0.031 C 
ATOM     47  C   UNL A   1      38.959  29.511  27.999  1.00  0.00     0.029 A 
ATOM     48  C   UNL A   1      39.866  29.202  29.098  1.00  0.00     0.049 A 
ATOM     49  H   UNL A   1      39.900  30.056  30.998  1.00  0.00     0.167 HD
ATOM     50  C   UNL A   1      39.744  31.836  34.985  1.00  0.00     0.037 A 
ATOM     51  C   UNL A   1      40.857  28.293  29.057  1.00  0.00     0.037 A 
ATOM     52  C   UNL A   1      40.776  30.830  35.059  1.00  0.00     0.049 A 
ATOM     53  C   UNL A   1      41.696  28.068  30.285  1.00  0.00     0.074 A 
ATOM     54  C   UNL A   1      41.554  30.469  36.147  1.00  0.00     0.029 A 
ATOM     55  N   UNL A   1      41.192  30.041  33.996  1.00  0.00    -0.354 N 
ATOM     56  N   UNL A   1      41.593  28.616  31.471  1.00  0.00    -0.248 NA
ATOM     57  C   UNL A   1      42.786  27.090  30.165  1.00  0.00     0.031 C 
ATOM     58  C   UNL A   1      42.478  29.505  35.727  1.00  0.00     0.029 A 
ATOM     59  C   UNL A   1      42.237  29.220  34.393  1.00  0.00     0.049 A 
ATOM     60  H   UNL A   1      40.802  30.062  33.093  1.00  0.00     0.167 HD
ATOM     61  C   UNL A   1      42.586  28.031  32.247  1.00  0.00     0.074 A 
ATOM     62  C   UNL A   1      43.262  27.069  31.402  1.00  0.00     0.031 C 
ATOM     63  C   UNL A   1      42.909  28.270  33.541  1.00  0.00     0.037 A 
BRANCH  50  64
ATOM     64  C   UNL A   1      39.459  32.659  36.210  1.00  0.00     0.057 A 
ATOM     65  C   UNL A   1      38.474  32.269  37.126  1.00  0.00     0.134 A 
ATOM     66  C   UNL A   1      40.139  33.857  36.466  1.00  0.00     0.134 A 
ATOM     67  F   UNL A   1      37.774  31.139  36.938  1.00  0.00    -0.206 F 
ATOM     68  C   UNL A   1      38.179  33.038  38.254  1.00  0.00     0.040 A 
ATOM     69  C   UNL A   1      39.873  34.620  37.606  1.00  0.00     0.040 A 
ATOM     70  F   UNL A   1      41.097  34.287  35.632  1.00  0.00    -0.206 F 
ATOM     71  C   UNL A   1      38.887  34.213  38.501  1.00  0.00     0.006 A 
ENDBRANCH  50  64
BRANCH  51  72
ATOM     72  C   UNL A   1      41.109  27.515  27.818  1.00  0.00     0.057 A 
ATOM     73  C   UNL A   1      40.437  26.314  27.561  1.00  0.00     0.134 A 
ATOM     74  C   UNL A   1      42.003  27.975  26.844  1.00  0.00     0.134 A 
ATOM     75  F   UNL A   1      39.574  25.815  28.460  1.00  0.00    -0.206 F 
ATOM     76  C   UNL A   1      40.642  25.600  26.381  1.00  0.00     0.040 A 
ATOM     77  C   UNL A   1      42.194  27.287  25.645  1.00  0.00     0.040 A 
ATOM     78  F   UNL A   1      42.666  29.127  27.025  1.00  0.00    -0.206 F 
ATOM     79  C   UNL A   1      41.513  26.095  25.412  1.00  0.00     0.006 A 
ENDBRANCH  51  72
BRANCH  63  80
ATOM     80  C   UNL A   1      44.028  27.452  34.126  1.00  0.00     0.057 A 
ATOM     81  C   UNL A   1      43.769  26.206  34.711  1.00  0.00     0.134 A 
ATOM     82  C   UNL A   1      45.357  27.895  34.112  1.00  0.00     0.134 A 
ATOM     83  F   UNL A   1      42.518  25.724  34.767  1.00  0.00    -0.206 F 
ATOM     84  C   UNL A   1      44.792  25.429  35.259  1.00  0.00     0.040 A 
ATOM     85  C   UNL A   1      46.393  27.111  34.626  1.00  0.00     0.040 A 
ATOM     86  F   UNL A   1      45.678  29.071  33.552  1.00  0.00    -0.206 F 
ATOM     87  C   UNL A   1      46.110  25.877  35.207  1.00  0.00     0.006 A 
ENDBRANCH  63  80
ENDBRANCH  37  38
ENDBRANCH  30  32
ENDBRANCH  29  30
ENDBRANCH  28  29
ENDBRANCH  27  28
ENDBRANCH  26  27
ENDBRANCH   1  26
TORSDOF 18
ENDMDL
MODEL 2
REMARK VINA RESULT:     -11.2      0.502      6.186
REMARK SMILES CC(C)CCc1cc2c(cc1Cl)C=C(C(=O)OCCOCCOC(=O)c1ccc(-c3c4nc(c(-c5c(F)cccc5F)c5ccc([nH]5)c(-c5c(F)cccc5F)c5nc(c(-c6c(F)cccc6F)c6ccc3[nH]6)C=C5)C=C4)cc1)[C@@H](C(F)(F)F)O2
REMARK SMILES IDX 19 1 18 2 17 3 15 4 16 5 14 6 6 7 7 8 11 9 8 10 10 11 12 12
REMARK SMILES IDX 9 13 85 14 13 15 80 16 5 17 4 18 2 19 1 20 3 21 81 22 82 23
REMARK SMILES IDX 83 24 84 25 20 26 21 27 22 28 23 29 24 30 25 31 26 32 27 33
REMARK SMILES IDX 79 34 28 35 78 36 29 37 30 38 31 39 72 40 32 41 77 42 71 43
REMARK SMILES IDX 73 44 33 45 76 46 70 47 69 48 34 50 60 51 43 52 59 53 44 54
REMARK SMILES IDX 47 55 58 56 74 57 45 58 46 59 57 61 75 62 48 63 35 64 36 65
REMARK SMILES IDX 41 66 37 67 38 68 40 69 42 70 39 71 61 72 62 73 67 74 63 75
REMARK SMILES IDX 64 76 66 77 68 78 65 79 49 80 50 81 55 82 51 83 52 84 54 85
REMARK SMILES IDX 56 86 53 87
REMARK H PARENT 73 49 47 60
REMARK Flexibility Score: inf
ROOT
ATOM      1  C   UNL A   1      32.434  30.077  26.875  1.00  0.00     0.202 C 
ENDROOT
BRANCH   1   2
ATOM      2  C   UNL A   1      31.766  28.730  27.166  1.00  0.00     0.261 C 
BRANCH   2   3
ATOM      3  O   UNL A   1      32.714  27.653  27.208  1.00  0.00    -0.460 OA
BRANCH   3   4
ATOM      4  C   UNL A   1      33.017  27.150  25.989  1.00  0.00     0.338 C 
ATOM      5  O   UNL A   1      33.620  27.719  25.092  1.00  0.00    -0.246 OA
BRANCH   4   6
ATOM      6  C   UNL A   1      32.637  25.731  25.916  1.00  0.00     0.087 C 
ATOM      7  C   UNL A   1      33.035  20.845  24.865  1.00  0.00    -0.026 A 
ATOM      8  C   UNL A   1      31.945  21.738  25.026  1.00  0.00     0.052 A 
ATOM      9  C   UNL A   1      34.318  21.327  25.179  1.00  0.00     0.045 A 
ATOM     10  C   UNL A   1      32.132  23.055  25.453  1.00  0.00     0.128 A 
ATOM     11  C   UNL A   1      34.491  22.618  25.680  1.00  0.00     0.032 A 
ATOM     12  Cl  UNL A   1      35.787  20.463  24.900  1.00  0.00    -0.084 Cl
ATOM     13  C   UNL A   1      33.409  23.489  25.783  1.00  0.00     0.019 A 
ATOM     14  O   UNL A   1      31.030  23.864  25.505  1.00  0.00    -0.475 OA
ATOM     15  C   UNL A   1      33.652  24.879  26.097  1.00  0.00     0.027 C 
ATOM     16  C   UNL A   1      31.237  25.310  25.570  1.00  0.00     0.316 C 
BRANCH   7  17
ATOM     17  C   UNL A   1      32.715  19.495  24.250  1.00  0.00     0.037 C 
BRANCH  17  18
ATOM     18  C   UNL A   1      33.020  18.197  25.012  1.00  0.00     0.008 C 
BRANCH  18  19
ATOM     19  C   UNL A   1      34.192  17.368  24.453  1.00  0.00    -0.017 C 
ATOM     20  C   UNL A   1      34.447  16.122  25.299  1.00  0.00     0.007 C 
ATOM     21  C   UNL A   1      33.907  16.974  23.001  1.00  0.00     0.007 C 
ENDBRANCH  18  19
ENDBRANCH  17  18
ENDBRANCH   7  17
BRANCH  16  22
ATOM     22  C   UNL A   1      30.745  25.951  24.263  1.00  0.00     0.430 C 
ATOM     23  F   UNL A   1      29.808  25.181  23.660  1.00  0.00    -0.167 F 
ATOM     24  F   UNL A   1      30.169  27.156  24.488  1.00  0.00    -0.167 F 
ATOM     25  F   UNL A   1      31.749  26.140  23.378  1.00  0.00    -0.167 F 
ENDBRANCH  16  22
ENDBRANCH   4   6
ENDBRANCH   3   4
ENDBRANCH   2   3
ENDBRANCH   1   2
BRANCH   1  26
ATOM     26  O   UNL A   1      31.667  31.076  26.208  1.00  0.00    -0.374 OA
BRANCH  26  27
ATOM     27  C   UNL A   1      31.421  32.314  26.871  1.00  0.00     0.202 C 
BRANCH  27  28
ATOM     28  C   UNL A   1      32.606  33.237  27.185  1.00  0.00     0.261 C 
BRANCH  28  29
ATOM     29  O   UNL A   1      32.308  34.206  28.202  1.00  0.00    -0.460 OA
BRANCH  29  30
ATOM     30  C   UNL A   1      33.362  34.964  28.592  1.00  0.00     0.338 C 
ATOM     31  O   UNL A   1      33.394  36.177  28.733  1.00  0.00    -0.246 OA
BRANCH  30  32
ATOM     32  C   UNL A   1      34.455  34.081  29.034  1.00  0.00     0.060 A 
ATOM     33  C   UNL A   1      35.776  34.334  28.662  1.00  0.00     0.016 A 
ATOM     34  C   UNL A   1      34.143  33.005  29.877  1.00  0.00     0.016 A 
ATOM     35  C   UNL A   1      36.791  33.519  29.166  1.00  0.00     0.010 A 
ATOM     36  C   UNL A   1      35.159  32.194  30.378  1.00  0.00     0.010 A 
ATOM     37  C   UNL A   1      36.494  32.461  30.045  1.00  0.00    -0.014 A 
BRANCH  37  38
ATOM     38  C   UNL A   1      37.594  31.731  30.719  1.00  0.00     0.031 A 
ATOM     39  C   UNL A   1      38.359  30.645  30.028  1.00  0.00     0.074 A 
ATOM     40  C   UNL A   1      37.896  32.068  31.988  1.00  0.00     0.049 A 
ATOM     41  N   UNL A   1      39.406  29.981  30.449  1.00  0.00    -0.248 NA
ATOM     42  C   UNL A   1      37.883  30.242  28.698  1.00  0.00     0.031 C 
ATOM     43  C   UNL A   1      37.188  33.078  32.778  1.00  0.00     0.029 A 
ATOM     44  N   UNL A   1      38.876  31.611  32.829  1.00  0.00    -0.354 N 
ATOM     45  C   UNL A   1      39.734  29.101  29.428  1.00  0.00     0.074 A 
ATOM     46  C   UNL A   1      38.737  29.274  28.391  1.00  0.00     0.031 C 
ATOM     47  C   UNL A   1      37.784  33.192  33.976  1.00  0.00     0.029 A 
ATOM     48  C   UNL A   1      38.889  32.243  34.048  1.00  0.00     0.049 A 
ATOM     49  H   UNL A   1      39.509  30.898  32.584  1.00  0.00     0.167 HD
ATOM     50  C   UNL A   1      40.782  28.243  29.356  1.00  0.00     0.037 A 
ATOM     51  C   UNL A   1      39.703  32.077  35.106  1.00  0.00     0.037 A 
ATOM     52  C   UNL A   1      41.750  28.051  30.408  1.00  0.00     0.049 A 
ATOM     53  C   UNL A   1      40.819  31.072  35.021  1.00  0.00     0.074 A 
ATOM     54  C   UNL A   1      42.863  27.227  30.418  1.00  0.00     0.029 A 
ATOM     55  N   UNL A   1      41.707  28.673  31.648  1.00  0.00    -0.354 N 
ATOM     56  N   UNL A   1      41.174  30.311  34.015  1.00  0.00    -0.248 NA
ATOM     57  C   UNL A   1      41.650  30.910  36.221  1.00  0.00     0.031 C 
ATOM     58  C   UNL A   1      43.458  27.305  31.683  1.00  0.00     0.029 A 
ATOM     59  C   UNL A   1      42.753  28.226  32.441  1.00  0.00     0.049 A 
ATOM     60  H   UNL A   1      41.033  29.335  31.923  1.00  0.00     0.167 HD
ATOM     61  C   UNL A   1      42.285  29.600  34.450  1.00  0.00     0.074 A 
ATOM     62  C   UNL A   1      42.558  30.040  35.802  1.00  0.00     0.031 C 
ATOM     63  C   UNL A   1      43.012  28.665  33.790  1.00  0.00     0.037 A 
BRANCH  50  64
ATOM     64  C   UNL A   1      40.928  27.438  28.095  1.00  0.00     0.057 A 
ATOM     65  C   UNL A   1      41.681  27.920  27.016  1.00  0.00     0.134 A 
ATOM     66  C   UNL A   1      40.295  26.197  27.936  1.00  0.00     0.134 A 
ATOM     67  F   UNL A   1      42.304  29.106  27.094  1.00  0.00    -0.206 F 
ATOM     68  C   UNL A   1      41.802  27.195  25.829  1.00  0.00     0.040 A 
ATOM     69  C   UNL A   1      40.433  25.450  26.764  1.00  0.00     0.040 A 
ATOM     70  F   UNL A   1      39.563  25.675  28.930  1.00  0.00    -0.206 F 
ATOM     71  C   UNL A   1      41.185  25.952  25.704  1.00  0.00     0.006 A 
ENDBRANCH  50  64
BRANCH  51  72
ATOM     72  C   UNL A   1      39.509  32.886  36.335  1.00  0.00     0.057 A 
ATOM     73  C   UNL A   1      40.182  34.098  36.525  1.00  0.00     0.134 A 
ATOM     74  C   UNL A   1      38.615  32.481  37.334  1.00  0.00     0.134 A 
ATOM     75  F   UNL A   1      41.059  34.537  35.609  1.00  0.00    -0.206 F 
ATOM     76  C   UNL A   1      39.974  34.881  37.661  1.00  0.00     0.040 A 
ATOM     77  C   UNL A   1      38.373  33.268  38.461  1.00  0.00     0.040 A 
ATOM     78  F   UNL A   1      37.929  31.336  37.204  1.00  0.00    -0.206 F 
ATOM     79  C   UNL A   1      39.055  34.472  38.626  1.00  0.00     0.006 A 
ENDBRANCH  51  72
BRANCH  63  80
ATOM     80  C   UNL A   1      44.191  28.081  34.518  1.00  0.00     0.057 A 
ATOM     81  C   UNL A   1      45.447  28.700  34.455  1.00  0.00     0.134 A 
ATOM     82  C   UNL A   1      44.089  26.910  35.280  1.00  0.00     0.134 A 
ATOM     83  F   UNL A   1      45.620  29.820  33.737  1.00  0.00    -0.206 F 
ATOM     84  C   UNL A   1      46.555  28.176  35.123  1.00  0.00     0.040 A 
ATOM     85  C   UNL A   1      45.182  26.396  35.981  1.00  0.00     0.040 A 
ATOM     86  F   UNL A   1      42.912  26.275  35.399  1.00  0.00    -0.206 F 
ATOM     87  C   UNL A   1      46.421  27.028  35.898  1.00  0.00     0.006 A 
ENDBRANCH  63  80
ENDBRANCH  37  38
ENDBRANCH  30  32
ENDBRANCH  29  30
ENDBRANCH  28  29
ENDBRANCH  27  28
ENDBRANCH  26  27
ENDBRANCH   1  26
TORSDOF 18
ENDMDL
MODEL 3
REMARK VINA RESULT:     -11.0      3.234      8.604
REMARK SMILES CC(C)CCc1cc2c(cc1Cl)C=C(C(=O)OCCOCCOC(=O)c1ccc(-c3c4nc(c(-c5c(F)cccc5F)c5ccc([nH]5)c(-c5c(F)cccc5F)c5nc(c(-c6c(F)cccc6F)c6ccc3[nH]6)C=C5)C=C4)cc1)[C@@H](C(F)(F)F)O2
REMARK SMILES IDX 19 1 18 2 17 3 15 4 16 5 14 6 6 7 7 8 11 9 8 10 10 11 12 12
REMARK SMILES IDX 9 13 85 14 13 15 80 16 5 17 4 18 2 19 1 20 3 21 81 22 82 23
REMARK SMILES IDX 83 24 84 25 20 26 21 27 22 28 23 29 24 30 25 31 26 32 27 33
REMARK SMILES IDX 79 34 28 35 78 36 29 37 30 38 31 39 72 40 32 41 77 42 71 43
REMARK SMILES IDX 73 44 33 45 76 46 70 47 69 48 34 50 60 51 43 52 59 53 44 54
REMARK SMILES IDX 47 55 58 56 74 57 45 58 46 59 57 61 75 62 48 63 35 64 36 65
REMARK SMILES IDX 41 66 37 67 38 68 40 69 42 70 39 71 61 72 62 73 67 74 63 75
REMARK SMILES IDX 64 76 66 77 68 78 65 79 49 80 50 81 55 82 51 83 52 84 54 85
REMARK SMILES IDX 56 86 53 87
REMARK H PARENT 73 49 47 60
REMARK Flexibility Score: inf
ROOT
ATOM      1  C   UNL A   1      39.199  22.121  26.147  1.00  0.00     0.202 C 
ENDROOT
BRANCH   1   2
ATOM      2  C   UNL A   1      38.055  21.493  25.347  1.00  0.00     0.261 C 
BRANCH   2   3
ATOM      3  O   UNL A   1      36.885  22.324  25.330  1.00  0.00    -0.460 OA
BRANCH   3   4
ATOM      4  C   UNL A   1      35.745  21.650  25.052  1.00  0.00     0.338 C 
ATOM      5  O   UNL A   1      35.608  20.438  24.992  1.00  0.00    -0.246 OA
BRANCH   4   6
ATOM      6  C   UNL A   1      34.612  22.584  24.959  1.00  0.00     0.087 C 
ATOM      7  C   UNL A   1      32.198  26.958  24.542  1.00  0.00    -0.026 A 
ATOM      8  C   UNL A   1      31.876  25.699  25.112  1.00  0.00     0.052 A 
ATOM      9  C   UNL A   1      33.386  27.046  23.795  1.00  0.00     0.045 A 
ATOM     10  C   UNL A   1      32.715  24.592  24.966  1.00  0.00     0.128 A 
ATOM     11  C   UNL A   1      34.181  25.917  23.586  1.00  0.00     0.032 A 
ATOM     12  Cl  UNL A   1      34.039  28.512  23.160  1.00  0.00    -0.084 Cl
ATOM     13  C   UNL A   1      33.866  24.706  24.197  1.00  0.00     0.019 A 
ATOM     14  O   UNL A   1      32.360  23.441  25.614  1.00  0.00    -0.475 OA
ATOM     15  C   UNL A   1      34.819  23.620  24.139  1.00  0.00     0.027 C 
ATOM     16  C   UNL A   1      33.380  22.410  25.800  1.00  0.00     0.316 C 
BRANCH   7  17
ATOM     17  C   UNL A   1      31.282  28.114  24.903  1.00  0.00     0.037 C 
BRANCH  17  18
ATOM     18  C   UNL A   1      30.991  29.227  23.885  1.00  0.00     0.008 C 
BRANCH  18  19
ATOM     19  C   UNL A   1      30.080  28.820  22.711  1.00  0.00    -0.017 C 
ATOM     20  C   UNL A   1      29.006  27.828  23.156  1.00  0.00     0.007 C 
ATOM     21  C   UNL A   1      29.430  30.064  22.099  1.00  0.00     0.007 C 
ENDBRANCH  18  19
ENDBRANCH  17  18
ENDBRANCH   7  17
BRANCH  16  22
ATOM     22  C   UNL A   1      33.711  22.288  27.296  1.00  0.00     0.430 C 
ATOM     23  F   UNL A   1      34.761  23.074  27.633  1.00  0.00    -0.167 F 
ATOM     24  F   UNL A   1      32.669  22.683  28.067  1.00  0.00    -0.167 F 
ATOM     25  F   UNL A   1      34.019  21.020  27.648  1.00  0.00    -0.167 F 
ENDBRANCH  16  22
ENDBRANCH   4   6
ENDBRANCH   3   4
ENDBRANCH   2   3
ENDBRANCH   1   2
BRANCH   1  26
ATOM     26  O   UNL A   1      39.916  21.292  27.057  1.00  0.00    -0.374 OA
BRANCH  26  27
ATOM     27  C   UNL A   1      41.270  20.955  26.763  1.00  0.00     0.202 C 
BRANCH  27  28
ATOM     28  C   UNL A   1      42.045  21.809  25.751  1.00  0.00     0.261 C 
BRANCH  28  29
ATOM     29  O   UNL A   1      43.033  22.650  26.368  1.00  0.00    -0.460 OA
BRANCH  29  30
ATOM     30  C   UNL A   1      43.182  23.869  25.793  1.00  0.00     0.338 C 
ATOM     31  O   UNL A   1      43.544  24.114  24.653  1.00  0.00    -0.246 OA
BRANCH  30  32
ATOM     32  C   UNL A   1      42.636  24.898  26.695  1.00  0.00     0.060 A 
ATOM     33  C   UNL A   1      41.531  24.631  27.502  1.00  0.00     0.016 A 
ATOM     34  C   UNL A   1      43.285  26.139  26.759  1.00  0.00     0.016 A 
ATOM     35  C   UNL A   1      41.093  25.606  28.401  1.00  0.00     0.010 A 
ATOM     36  C   UNL A   1      42.846  27.110  27.657  1.00  0.00     0.010 A 
ATOM     37  C   UNL A   1      41.761  26.841  28.502  1.00  0.00    -0.014 A 
BRANCH  37  38
ATOM     38  C   UNL A   1      41.406  27.783  29.589  1.00  0.00     0.031 A 
ATOM     39  C   UNL A   1      40.272  28.752  29.453  1.00  0.00     0.074 A 
ATOM     40  C   UNL A   1      42.137  27.753  30.720  1.00  0.00     0.049 A 
ATOM     41  N   UNL A   1      39.780  29.572  30.347  1.00  0.00    -0.248 NA
ATOM     42  C   UNL A   1      39.611  28.819  28.143  1.00  0.00     0.031 C 
ATOM     43  C   UNL A   1      43.295  26.885  30.947  1.00  0.00     0.029 A 
ATOM     44  N   UNL A   1      42.012  28.458  31.889  1.00  0.00    -0.354 N 
ATOM     45  C   UNL A   1      38.734  30.235  29.721  1.00  0.00     0.074 A 
ATOM     46  C   UNL A   1      38.702  29.763  28.351  1.00  0.00     0.031 C 
ATOM     47  C   UNL A   1      43.748  27.080  32.196  1.00  0.00     0.029 A 
ATOM     48  C   UNL A   1      42.938  28.107  32.840  1.00  0.00     0.049 A 
ATOM     49  H   UNL A   1      41.326  29.149  32.032  1.00  0.00     0.167 HD
ATOM     50  C   UNL A   1      37.869  31.137  30.246  1.00  0.00     0.037 A 
ATOM     51  C   UNL A   1      43.112  28.562  34.094  1.00  0.00     0.037 A 
ATOM     52  C   UNL A   1      37.930  31.628  31.602  1.00  0.00     0.049 A 
ATOM     53  C   UNL A   1      42.177  29.610  34.630  1.00  0.00     0.074 A 
ATOM     54  C   UNL A   1      37.083  32.521  32.237  1.00  0.00     0.029 A 
ATOM     55  N   UNL A   1      38.908  31.287  32.525  1.00  0.00    -0.354 N 
ATOM     56  N   UNL A   1      41.135  30.161  34.057  1.00  0.00    -0.248 NA
ATOM     57  C   UNL A   1      42.441  30.093  35.992  1.00  0.00     0.031 C 
ATOM     58  C   UNL A   1      37.582  32.764  33.522  1.00  0.00     0.029 A 
ATOM     59  C   UNL A   1      38.705  31.976  33.711  1.00  0.00     0.049 A 
ATOM     60  H   UNL A   1      39.639  30.648  32.362  1.00  0.00     0.167 HD
ATOM     61  C   UNL A   1      40.603  31.036  34.997  1.00  0.00     0.074 A 
ATOM     62  C   UNL A   1      41.425  30.921  36.184  1.00  0.00     0.031 C 
ATOM     63  C   UNL A   1      39.533  31.860  34.886  1.00  0.00     0.037 A 
BRANCH  50  64
ATOM     64  C   UNL A   1      36.786  31.660  29.346  1.00  0.00     0.057 A 
ATOM     65  C   UNL A   1      36.854  32.954  28.813  1.00  0.00     0.134 A 
ATOM     66  C   UNL A   1      35.656  30.892  29.031  1.00  0.00     0.134 A 
ATOM     67  F   UNL A   1      37.901  33.749  29.082  1.00  0.00    -0.206 F 
ATOM     68  C   UNL A   1      35.841  33.462  27.997  1.00  0.00     0.040 A 
ATOM     69  C   UNL A   1      34.650  31.380  28.193  1.00  0.00     0.040 A 
ATOM     70  F   UNL A   1      35.529  29.644  29.504  1.00  0.00    -0.206 F 
ATOM     71  C   UNL A   1      34.740  32.671  27.677  1.00  0.00     0.006 A 
ENDBRANCH  50  64
BRANCH  51  72
ATOM     72  C   UNL A   1      44.207  28.024  34.941  1.00  0.00     0.057 A 
ATOM     73  C   UNL A   1      44.038  26.860  35.700  1.00  0.00     0.134 A 
ATOM     74  C   UNL A   1      45.461  28.644  34.981  1.00  0.00     0.134 A 
ATOM     75  F   UNL A   1      42.857  26.224  35.711  1.00  0.00    -0.206 F 
ATOM     76  C   UNL A   1      45.076  26.330  36.467  1.00  0.00     0.040 A 
ATOM     77  C   UNL A   1      46.518  28.108  35.719  1.00  0.00     0.040 A 
ATOM     78  F   UNL A   1      45.690  29.754  34.264  1.00  0.00    -0.206 F 
ATOM     79  C   UNL A   1      46.325  26.948  36.466  1.00  0.00     0.006 A 
ENDBRANCH  51  72
BRANCH  63  80
ATOM     80  C   UNL A   1      39.177  32.679  36.096  1.00  0.00     0.057 A 
ATOM     81  C   UNL A   1      38.312  32.170  37.073  1.00  0.00     0.134 A 
ATOM     82  C   UNL A   1      39.686  33.970  36.296  1.00  0.00     0.134 A 
ATOM     83  F   UNL A   1      37.781  30.944  36.942  1.00  0.00    -0.206 F 
ATOM     84  C   UNL A   1      37.968  32.911  38.204  1.00  0.00     0.040 A 
ATOM     85  C   UNL A   1      39.376  34.708  37.440  1.00  0.00     0.040 A 
ATOM     86  F   UNL A   1      40.533  34.513  35.409  1.00  0.00    -0.206 F 
ATOM     87  C   UNL A   1      38.510  34.180  38.396  1.00  0.00     0.006 A 
ENDBRANCH  63  80
ENDBRANCH  37  38
ENDBRANCH  30  32
ENDBRANCH  29  30
ENDBRANCH  28  29
ENDBRANCH  27  28
ENDBRANCH  26  27
ENDBRANCH   1  26
TORSDOF 18
ENDMDL
