MODEL 1
REMARK VINA RESULT:     -11.6      0.000      0.000
REMARK SMILES CCc1ccc(S(=O)(=O)c2nnn(-c3ccc(C(=O)OCCOCCOC(=O)c4ccc(-c5c6nc(c(-c7c(F)cccc7F)c7ccc([nH]7)c(-c7c(F)cccc7F)c7nc(c(-c8c(F)cccc8F)c8ccc5[nH]8)C=C7)C=C6)cc4)cc3)c2C)cc1
REMARK SMILES IDX 22 1 21 2 20 3 18 4 19 5 17 6 14 7 15 8 84 9 16 10 83 11
REMARK SMILES IDX 13 12 10 13 11 14 85 15 12 16 86 17 7 18 8 19 9 20 6 21 3 22
REMARK SMILES IDX 4 23 88 24 5 25 87 26 2 27 1 28 23 29 24 30 25 31 26 32
REMARK SMILES IDX 27 33 28 34 29 35 30 36 82 37 31 38 81 39 32 40 33 41 34 42
REMARK SMILES IDX 75 43 35 44 80 45 74 46 76 47 36 48 79 49 73 50 72 51 37 53
REMARK SMILES IDX 63 54 46 55 62 56 47 57 50 58 61 59 77 60 48 61 49 62 60 64
REMARK SMILES IDX 78 65 51 66 38 67 39 68 44 69 40 70 41 71 43 72 45 73 42 74
REMARK SMILES IDX 64 75 65 76 70 77 66 78 67 79 69 80 71 81 68 82 52 83 53 84
REMARK SMILES IDX 58 85 54 86 55 87 57 88 59 89 56 90
REMARK H PARENT 76 52 50 63
REMARK Flexibility Score: inf
ROOT
ATOM      1  C   UNL A   1      33.426  37.054  29.830  1.00  0.00     0.202 C 
ENDROOT
BRANCH   1   2
ATOM      2  C   UNL A   1      32.811  35.725  29.388  1.00  0.00     0.261 C 
BRANCH   2   3
ATOM      3  O   UNL A   1      33.781  34.669  29.312  1.00  0.00    -0.460 OA
BRANCH   3   4
ATOM      4  C   UNL A   1      34.067  34.266  28.052  1.00  0.00     0.338 C 
ATOM      5  O   UNL A   1      34.859  34.773  27.277  1.00  0.00    -0.246 OA
BRANCH   4   6
ATOM      6  C   UNL A   1      33.377  32.997  27.754  1.00  0.00     0.060 A 
ATOM      7  C   UNL A   1      32.359  30.605  26.811  1.00  0.00     0.067 A 
ATOM      8  C   UNL A   1      33.560  30.590  27.524  1.00  0.00     0.029 A 
ATOM      9  C   UNL A   1      31.593  31.777  26.708  1.00  0.00     0.029 A 
ATOM     10  C   UNL A   1      34.083  31.802  27.967  1.00  0.00     0.018 A 
ATOM     11  C   UNL A   1      32.100  32.980  27.191  1.00  0.00     0.018 A 
BRANCH   7  12
ATOM     12  N   UNL A   1      32.017  29.481  26.030  1.00  0.00    -0.216 N 
ATOM     13  C   UNL A   1      31.337  27.529  25.351  1.00  0.00     0.205 A 
ATOM     14  N   UNL A   1      31.400  28.370  24.272  1.00  0.00    -0.117 NA
ATOM     15  C   UNL A   1      31.659  28.228  26.502  1.00  0.00     0.081 A 
ATOM     16  N   UNL A   1      31.736  29.576  24.711  1.00  0.00    -0.061 NA
ATOM     17  C   UNL A   1      31.487  27.883  27.937  1.00  0.00     0.070 C 
BRANCH  13  18
ATOM     18  S   UNL A   1      30.734  25.914  25.234  1.00  0.00     0.227 S 
ATOM     19  O   UNL A   1      30.448  25.754  23.817  1.00  0.00    -0.217 OA
ATOM     20  O   UNL A   1      29.714  25.790  26.250  1.00  0.00    -0.217 OA
BRANCH  18  21
ATOM     21  C   UNL A   1      32.060  24.810  25.642  1.00  0.00     0.073 A 
ATOM     22  C   UNL A   1      34.075  22.964  26.290  1.00  0.00    -0.048 A 
ATOM     23  C   UNL A   1      32.752  22.749  26.700  1.00  0.00     0.005 A 
ATOM     24  C   UNL A   1      34.365  24.104  25.524  1.00  0.00     0.005 A 
ATOM     25  C   UNL A   1      31.747  23.665  26.380  1.00  0.00     0.021 A 
ATOM     26  C   UNL A   1      33.370  25.033  25.213  1.00  0.00     0.021 A 
BRANCH  22  27
ATOM     27  C   UNL A   1      35.185  21.984  26.599  1.00  0.00     0.032 C 
ATOM     28  C   UNL A   1      35.710  21.211  25.395  1.00  0.00     0.009 C 
ENDBRANCH  22  27
ENDBRANCH  18  21
ENDBRANCH  13  18
ENDBRANCH   7  12
ENDBRANCH   4   6
ENDBRANCH   3   4
ENDBRANCH   2   3
ENDBRANCH   1   2
BRANCH   1  29
ATOM     29  O   UNL A   1      32.949  37.665  31.027  1.00  0.00    -0.374 OA
BRANCH  29  30
ATOM     30  C   UNL A   1      33.837  37.940  32.103  1.00  0.00     0.202 C 
BRANCH  30  31
ATOM     31  C   UNL A   1      33.724  37.116  33.376  1.00  0.00     0.261 C 
BRANCH  31  32
ATOM     32  O   UNL A   1      34.650  36.042  33.403  1.00  0.00    -0.460 OA
BRANCH  32  33
ATOM     33  C   UNL A   1      34.115  34.856  33.037  1.00  0.00     0.338 C 
ATOM     34  O   UNL A   1      32.978  34.641  32.656  1.00  0.00    -0.246 OA
BRANCH  33  35
ATOM     35  C   UNL A   1      35.083  33.800  33.347  1.00  0.00     0.060 A 
ATOM     36  C   UNL A   1      36.292  34.237  33.887  1.00  0.00     0.016 A 
ATOM     37  C   UNL A   1      34.928  32.529  32.774  1.00  0.00     0.016 A 
ATOM     38  C   UNL A   1      37.419  33.509  33.598  1.00  0.00     0.010 A 
ATOM     39  C   UNL A   1      36.057  31.810  32.476  1.00  0.00     0.010 A 
ATOM     40  C   UNL A   1      37.289  32.367  32.801  1.00  0.00    -0.014 A 
BRANCH  40  41
ATOM     41  C   UNL A   1      38.498  31.700  32.388  1.00  0.00     0.031 A 
ATOM     42  C   UNL A   1      39.384  31.411  33.531  1.00  0.00     0.074 A 
ATOM     43  C   UNL A   1      38.718  31.322  31.116  1.00  0.00     0.049 A 
ATOM     44  N   UNL A   1      40.512  31.971  33.808  1.00  0.00    -0.248 NA
ATOM     45  C   UNL A   1      38.849  30.559  34.606  1.00  0.00     0.031 C 
ATOM     46  C   UNL A   1      37.797  31.334  29.978  1.00  0.00     0.029 A 
ATOM     47  N   UNL A   1      39.831  30.740  30.599  1.00  0.00    -0.354 N 
ATOM     48  C   UNL A   1      40.939  31.366  34.983  1.00  0.00     0.074 A 
ATOM     49  C   UNL A   1      39.798  30.685  35.533  1.00  0.00     0.031 C 
ATOM     50  C   UNL A   1      38.309  30.573  28.982  1.00  0.00     0.029 A 
ATOM     51  C   UNL A   1      39.642  30.136  29.363  1.00  0.00     0.049 A 
ATOM     52  H   UNL A   1      40.700  30.746  31.062  1.00  0.00     0.167 HD
ATOM     53  C   UNL A   1      42.264  31.228  35.247  1.00  0.00     0.037 A 
ATOM     54  C   UNL A   1      40.508  29.266  28.783  1.00  0.00     0.037 A 
ATOM     55  C   UNL A   1      43.054  32.145  34.463  1.00  0.00     0.049 A 
ATOM     56  C   UNL A   1      41.832  29.467  29.435  1.00  0.00     0.074 A 
ATOM     57  C   UNL A   1      43.085  33.520  34.328  1.00  0.00     0.029 A 
ATOM     58  N   UNL A   1      43.707  31.649  33.359  1.00  0.00    -0.354 N 
ATOM     59  N   UNL A   1      42.550  30.547  29.287  1.00  0.00    -0.248 NA
ATOM     60  C   UNL A   1      42.114  28.689  30.635  1.00  0.00     0.031 C 
ATOM     61  C   UNL A   1      43.303  33.750  32.937  1.00  0.00     0.029 A 
ATOM     62  C   UNL A   1      43.464  32.510  32.320  1.00  0.00     0.049 A 
ATOM     63  H   UNL A   1      44.250  30.828  33.323  1.00  0.00     0.167 HD
ATOM     64  C   UNL A   1      43.054  30.814  30.553  1.00  0.00     0.074 A 
ATOM     65  C   UNL A   1      42.800  29.602  31.330  1.00  0.00     0.031 C 
ATOM     66  C   UNL A   1      43.354  32.088  30.945  1.00  0.00     0.037 A 
BRANCH  53  67
ATOM     67  C   UNL A   1      42.845  29.990  35.880  1.00  0.00     0.057 A 
ATOM     68  C   UNL A   1      43.778  30.136  36.920  1.00  0.00     0.134 A 
ATOM     69  C   UNL A   1      42.762  28.694  35.325  1.00  0.00     0.134 A 
ATOM     70  F   UNL A   1      43.961  31.323  37.517  1.00  0.00    -0.206 F 
ATOM     71  C   UNL A   1      44.621  29.092  37.318  1.00  0.00     0.040 A 
ATOM     72  C   UNL A   1      43.558  27.633  35.753  1.00  0.00     0.040 A 
ATOM     73  F   UNL A   1      41.988  28.403  34.273  1.00  0.00    -0.206 F 
ATOM     74  C   UNL A   1      44.519  27.839  36.729  1.00  0.00     0.006 A 
ENDBRANCH  53  67
BRANCH  54  75
ATOM     75  C   UNL A   1      40.197  28.048  27.995  1.00  0.00     0.057 A 
ATOM     76  C   UNL A   1      40.812  27.814  26.755  1.00  0.00     0.134 A 
ATOM     77  C   UNL A   1      39.519  26.954  28.559  1.00  0.00     0.134 A 
ATOM     78  F   UNL A   1      41.520  28.782  26.154  1.00  0.00    -0.206 F 
ATOM     79  C   UNL A   1      40.779  26.560  26.129  1.00  0.00     0.040 A 
ATOM     80  C   UNL A   1      39.472  25.699  27.942  1.00  0.00     0.040 A 
ATOM     81  F   UNL A   1      38.955  27.035  29.773  1.00  0.00    -0.206 F 
ATOM     82  C   UNL A   1      40.118  25.494  26.729  1.00  0.00     0.006 A 
ENDBRANCH  54  75
BRANCH  66  83
ATOM     83  C   UNL A   1      43.334  33.173  29.903  1.00  0.00     0.057 A 
ATOM     84  C   UNL A   1      42.213  33.970  29.619  1.00  0.00     0.134 A 
ATOM     85  C   UNL A   1      44.536  33.533  29.288  1.00  0.00     0.134 A 
ATOM     86  F   UNL A   1      41.042  33.768  30.237  1.00  0.00    -0.206 F 
ATOM     87  C   UNL A   1      42.281  35.048  28.729  1.00  0.00     0.040 A 
ATOM     88  C   UNL A   1      44.625  34.627  28.424  1.00  0.00     0.040 A 
ATOM     89  F   UNL A   1      45.662  32.854  29.557  1.00  0.00    -0.206 F 
ATOM     90  C   UNL A   1      43.494  35.384  28.135  1.00  0.00     0.006 A 
ENDBRANCH  66  83
ENDBRANCH  40  41
ENDBRANCH  33  35
ENDBRANCH  32  33
ENDBRANCH  31  32
ENDBRANCH  30  31
ENDBRANCH  29  30
ENDBRANCH   1  29
TORSDOF 18
ENDMDL
MODEL 2
REMARK VINA RESULT:     -11.2      4.129      9.137
REMARK SMILES CCc1ccc(S(=O)(=O)c2nnn(-c3ccc(C(=O)OCCOCCOC(=O)c4ccc(-c5c6nc(c(-c7c(F)cccc7F)c7ccc([nH]7)c(-c7c(F)cccc7F)c7nc(c(-c8c(F)cccc8F)c8ccc5[nH]8)C=C7)C=C6)cc4)cc3)c2C)cc1
REMARK SMILES IDX 22 1 21 2 20 3 18 4 19 5 17 6 14 7 15 8 84 9 16 10 83 11
REMARK SMILES IDX 13 12 10 13 11 14 85 15 12 16 86 17 7 18 8 19 9 20 6 21 3 22
REMARK SMILES IDX 4 23 88 24 5 25 87 26 2 27 1 28 23 29 24 30 25 31 26 32
REMARK SMILES IDX 27 33 28 34 29 35 30 36 82 37 31 38 81 39 32 40 33 41 34 42
REMARK SMILES IDX 75 43 35 44 80 45 74 46 76 47 36 48 79 49 73 50 72 51 37 53
REMARK SMILES IDX 63 54 46 55 62 56 47 57 50 58 61 59 77 60 48 61 49 62 60 64
REMARK SMILES IDX 78 65 51 66 38 67 39 68 44 69 40 70 41 71 43 72 45 73 42 74
REMARK SMILES IDX 64 75 65 76 70 77 66 78 67 79 69 80 71 81 68 82 52 83 53 84
REMARK SMILES IDX 58 85 54 86 55 87 57 88 59 89 56 90
REMARK H PARENT 76 52 50 63
REMARK Flexibility Score: inf
ROOT
ATOM      1  C   UNL A   1      43.325  22.608  25.843  1.00  0.00     0.202 C 
ENDROOT
BRANCH   1   2
ATOM      2  C   UNL A   1      43.493  21.090  25.766  1.00  0.00     0.261 C 
BRANCH   2   3
ATOM      3  O   UNL A   1      42.282  20.422  25.384  1.00  0.00    -0.460 OA
BRANCH   3   4
ATOM      4  C   UNL A   1      41.470  20.107  26.421  1.00  0.00     0.338 C 
ATOM      5  O   UNL A   1      41.794  19.624  27.492  1.00  0.00    -0.246 OA
BRANCH   4   6
ATOM      6  C   UNL A   1      40.095  20.564  26.148  1.00  0.00     0.060 A 
ATOM      7  C   UNL A   1      37.664  21.471  25.191  1.00  0.00     0.067 A 
ATOM      8  C   UNL A   1      37.995  20.125  25.017  1.00  0.00     0.029 A 
ATOM      9  C   UNL A   1      38.464  22.317  25.975  1.00  0.00     0.029 A 
ATOM     10  C   UNL A   1      39.235  19.683  25.472  1.00  0.00     0.018 A 
ATOM     11  C   UNL A   1      39.683  21.859  26.465  1.00  0.00     0.018 A 
BRANCH   7  12
ATOM     12  N   UNL A   1      36.623  22.022  24.415  1.00  0.00    -0.216 N 
ATOM     13  C   UNL A   1      34.742  22.879  23.737  1.00  0.00     0.205 A 
ATOM     14  N   UNL A   1      35.694  23.101  22.778  1.00  0.00    -0.117 NA
ATOM     15  C   UNL A   1      35.320  22.253  24.828  1.00  0.00     0.081 A 
ATOM     16  N   UNL A   1      36.852  22.647  23.238  1.00  0.00    -0.061 NA
ATOM     17  C   UNL A   1      34.821  22.035  26.210  1.00  0.00     0.070 C 
BRANCH  13  18
ATOM     18  S   UNL A   1      33.137  23.508  23.613  1.00  0.00     0.227 S 
ATOM     19  O   UNL A   1      32.307  22.442  24.154  1.00  0.00    -0.217 OA
ATOM     20  O   UNL A   1      32.995  23.990  22.259  1.00  0.00    -0.217 OA
BRANCH  18  21
ATOM     21  C   UNL A   1      33.012  24.894  24.711  1.00  0.00     0.073 A 
ATOM     22  C   UNL A   1      32.861  27.166  26.355  1.00  0.00    -0.048 A 
ATOM     23  C   UNL A   1      33.827  27.082  25.343  1.00  0.00     0.005 A 
ATOM     24  C   UNL A   1      31.953  26.106  26.510  1.00  0.00     0.005 A 
ATOM     25  C   UNL A   1      33.905  25.953  24.523  1.00  0.00     0.021 A 
ATOM     26  C   UNL A   1      32.034  24.968  25.705  1.00  0.00     0.021 A 
BRANCH  22  27
ATOM     27  C   UNL A   1      32.732  28.381  27.247  1.00  0.00     0.032 C 
ATOM     28  C   UNL A   1      33.989  29.235  27.353  1.00  0.00     0.009 C 
ENDBRANCH  22  27
ENDBRANCH  18  21
ENDBRANCH  13  18
ENDBRANCH   7  12
ENDBRANCH   4   6
ENDBRANCH   3   4
ENDBRANCH   2   3
ENDBRANCH   1   2
BRANCH   1  29
ATOM     29  O   UNL A   1      43.827  23.408  24.774  1.00  0.00    -0.374 OA
BRANCH  29  30
ATOM     30  C   UNL A   1      44.203  24.762  24.997  1.00  0.00     0.202 C 
BRANCH  30  31
ATOM     31  C   UNL A   1      43.545  25.527  26.133  1.00  0.00     0.261 C 
BRANCH  31  32
ATOM     32  O   UNL A   1      42.543  26.417  25.670  1.00  0.00    -0.460 OA
BRANCH  32  33
ATOM     33  C   UNL A   1      41.285  25.941  25.817  1.00  0.00     0.338 C 
ATOM     34  O   UNL A   1      40.779  24.994  25.241  1.00  0.00    -0.246 OA
BRANCH  33  35
ATOM     35  C   UNL A   1      40.538  26.872  26.666  1.00  0.00     0.060 A 
ATOM     36  C   UNL A   1      40.813  28.224  26.459  1.00  0.00     0.016 A 
ATOM     37  C   UNL A   1      39.914  26.400  27.830  1.00  0.00     0.016 A 
ATOM     38  C   UNL A   1      40.722  29.066  27.539  1.00  0.00     0.010 A 
ATOM     39  C   UNL A   1      39.836  27.240  28.911  1.00  0.00     0.010 A 
ATOM     40  C   UNL A   1      40.340  28.528  28.773  1.00  0.00    -0.014 A 
BRANCH  40  41
ATOM     41  C   UNL A   1      40.391  29.395  29.923  1.00  0.00     0.031 A 
ATOM     42  C   UNL A   1      39.165  30.204  30.056  1.00  0.00     0.074 A 
ATOM     43  C   UNL A   1      41.412  29.377  30.799  1.00  0.00     0.049 A 
ATOM     44  N   UNL A   1      39.041  31.473  29.867  1.00  0.00    -0.248 NA
ATOM     45  C   UNL A   1      37.889  29.484  30.201  1.00  0.00     0.031 C 
ATOM     46  C   UNL A   1      42.533  28.439  30.889  1.00  0.00     0.029 A 
ATOM     47  N   UNL A   1      41.598  30.177  31.881  1.00  0.00    -0.354 N 
ATOM     48  C   UNL A   1      37.699  31.746  30.099  1.00  0.00     0.074 A 
ATOM     49  C   UNL A   1      37.013  30.481  30.079  1.00  0.00     0.031 C 
ATOM     50  C   UNL A   1      43.135  28.580  32.093  1.00  0.00     0.029 A 
ATOM     51  C   UNL A   1      42.529  29.699  32.794  1.00  0.00     0.049 A 
ATOM     52  H   UNL A   1      41.112  31.024  32.007  1.00  0.00     0.167 HD
ATOM     53  C   UNL A   1      37.312  32.954  30.583  1.00  0.00     0.037 A 
ATOM     54  C   UNL A   1      42.682  30.163  34.061  1.00  0.00     0.037 A 
ATOM     55  C   UNL A   1      38.326  33.955  30.363  1.00  0.00     0.049 A 
ATOM     56  C   UNL A   1      42.064  31.517  34.108  1.00  0.00     0.074 A 
ATOM     57  C   UNL A   1      38.962  34.455  29.242  1.00  0.00     0.029 A 
ATOM     58  N   UNL A   1      39.118  34.313  31.429  1.00  0.00    -0.354 N 
ATOM     59  N   UNL A   1      42.554  32.555  33.487  1.00  0.00    -0.248 NA
ATOM     60  C   UNL A   1      40.644  31.596  34.429  1.00  0.00     0.031 C 
ATOM     61  C   UNL A   1      40.319  34.640  29.639  1.00  0.00     0.029 A 
ATOM     62  C   UNL A   1      40.417  34.312  30.991  1.00  0.00     0.049 A 
ATOM     63  H   UNL A   1      38.808  34.531  32.338  1.00  0.00     0.167 HD
ATOM     64  C   UNL A   1      41.448  33.210  32.963  1.00  0.00     0.074 A 
ATOM     65  C   UNL A   1      40.294  32.605  33.626  1.00  0.00     0.031 C 
ATOM     66  C   UNL A   1      41.540  33.963  31.827  1.00  0.00     0.037 A 
BRANCH  53  67
ATOM     67  C   UNL A   1      36.225  33.110  31.614  1.00  0.00     0.057 A 
ATOM     68  C   UNL A   1      35.180  34.014  31.365  1.00  0.00     0.134 A 
ATOM     69  C   UNL A   1      36.315  32.648  32.946  1.00  0.00     0.134 A 
ATOM     70  F   UNL A   1      35.000  34.536  30.142  1.00  0.00    -0.206 F 
ATOM     71  C   UNL A   1      34.342  34.485  32.382  1.00  0.00     0.040 A 
ATOM     72  C   UNL A   1      35.450  33.069  33.955  1.00  0.00     0.040 A 
ATOM     73  F   UNL A   1      37.301  31.852  33.374  1.00  0.00    -0.206 F 
ATOM     74  C   UNL A   1      34.480  34.019  33.683  1.00  0.00     0.006 A 
ENDBRANCH  53  67
BRANCH  54  75
ATOM     75  C   UNL A   1      42.978  29.391  35.292  1.00  0.00     0.057 A 
ATOM     76  C   UNL A   1      42.291  28.202  35.581  1.00  0.00     0.134 A 
ATOM     77  C   UNL A   1      44.128  29.638  36.064  1.00  0.00     0.134 A 
ATOM     78  F   UNL A   1      41.207  27.854  34.873  1.00  0.00    -0.206 F 
ATOM     79  C   UNL A   1      42.736  27.299  36.558  1.00  0.00     0.040 A 
ATOM     80  C   UNL A   1      44.579  28.750  37.045  1.00  0.00     0.040 A 
ATOM     81  F   UNL A   1      44.906  30.704  35.830  1.00  0.00    -0.206 F 
ATOM     82  C   UNL A   1      43.892  27.566  37.285  1.00  0.00     0.006 A 
ENDBRANCH  54  75
BRANCH  66  83
ATOM     83  C   UNL A   1      42.910  34.249  31.275  1.00  0.00     0.057 A 
ATOM     84  C   UNL A   1      43.542  33.466  30.295  1.00  0.00     0.134 A 
ATOM     85  C   UNL A   1      43.537  35.448  31.625  1.00  0.00     0.134 A 
ATOM     86  F   UNL A   1      42.969  32.353  29.819  1.00  0.00    -0.206 F 
ATOM     87  C   UNL A   1      44.763  33.843  29.724  1.00  0.00     0.040 A 
ATOM     88  C   UNL A   1      44.738  35.852  31.039  1.00  0.00     0.040 A 
ATOM     89  F   UNL A   1      42.963  36.276  32.512  1.00  0.00    -0.206 F 
ATOM     90  C   UNL A   1      45.360  35.045  30.091  1.00  0.00     0.006 A 
ENDBRANCH  66  83
ENDBRANCH  40  41
ENDBRANCH  33  35
ENDBRANCH  32  33
ENDBRANCH  31  32
ENDBRANCH  30  31
ENDBRANCH  29  30
ENDBRANCH   1  29
TORSDOF 18
ENDMDL
MODEL 3
REMARK VINA RESULT:     -11.0      4.456      8.448
REMARK SMILES CCc1ccc(S(=O)(=O)c2nnn(-c3ccc(C(=O)OCCOCCOC(=O)c4ccc(-c5c6nc(c(-c7c(F)cccc7F)c7ccc([nH]7)c(-c7c(F)cccc7F)c7nc(c(-c8c(F)cccc8F)c8ccc5[nH]8)C=C7)C=C6)cc4)cc3)c2C)cc1
REMARK SMILES IDX 22 1 21 2 20 3 18 4 19 5 17 6 14 7 15 8 84 9 16 10 83 11
REMARK SMILES IDX 13 12 10 13 11 14 85 15 12 16 86 17 7 18 8 19 9 20 6 21 3 22
REMARK SMILES IDX 4 23 88 24 5 25 87 26 2 27 1 28 23 29 24 30 25 31 26 32
REMARK SMILES IDX 27 33 28 34 29 35 30 36 82 37 31 38 81 39 32 40 33 41 34 42
REMARK SMILES IDX 75 43 35 44 80 45 74 46 76 47 36 48 79 49 73 50 72 51 37 53
REMARK SMILES IDX 63 54 46 55 62 56 47 57 50 58 61 59 77 60 48 61 49 62 60 64
REMARK SMILES IDX 78 65 51 66 38 67 39 68 44 69 40 70 41 71 43 72 45 73 42 74
REMARK SMILES IDX 64 75 65 76 70 77 66 78 67 79 69 80 71 81 68 82 52 83 53 84
REMARK SMILES IDX 58 85 54 86 55 87 57 88 59 89 56 90
REMARK H PARENT 76 52 50 63
REMARK Flexibility Score: inf
ROOT
ATOM      1  C   UNL A   1      32.868  29.670  25.205  1.00  0.00     0.202 C 
ENDROOT
BRANCH   1   2
ATOM      2  C   UNL A   1      31.520  29.451  24.517  1.00  0.00     0.261 C 
BRANCH   2   3
ATOM      3  O   UNL A   1      31.636  29.394  23.088  1.00  0.00    -0.460 OA
BRANCH   3   4
ATOM      4  C   UNL A   1      30.584  28.808  22.468  1.00  0.00     0.338 C 
ATOM      5  O   UNL A   1      29.777  29.337  21.724  1.00  0.00    -0.246 OA
BRANCH   4   6
ATOM      6  C   UNL A   1      30.605  27.351  22.696  1.00  0.00     0.060 A 
ATOM      7  C   UNL A   1      30.890  24.724  23.514  1.00  0.00     0.067 A 
ATOM      8  C   UNL A   1      29.881  25.502  24.088  1.00  0.00     0.029 A 
ATOM      9  C   UNL A   1      31.644  25.203  22.431  1.00  0.00     0.029 A 
ATOM     10  C   UNL A   1      29.765  26.833  23.695  1.00  0.00     0.018 A 
ATOM     11  C   UNL A   1      31.494  26.521  22.012  1.00  0.00     0.018 A 
BRANCH   7  12
ATOM     12  N   UNL A   1      31.277  23.530  24.156  1.00  0.00    -0.216 N 
ATOM     13  C   UNL A   1      32.366  21.773  24.837  1.00  0.00     0.205 A 
ATOM     14  N   UNL A   1      31.327  22.004  25.699  1.00  0.00    -0.117 NA
ATOM     15  C   UNL A   1      32.404  22.772  23.878  1.00  0.00     0.081 A 
ATOM     16  N   UNL A   1      30.722  23.122  25.320  1.00  0.00    -0.061 NA
ATOM     17  C   UNL A   1      33.455  23.150  22.899  1.00  0.00     0.070 C 
BRANCH  13  18
ATOM     18  S   UNL A   1      33.530  20.525  25.102  1.00  0.00     0.227 S 
ATOM     19  O   UNL A   1      33.603  19.843  23.819  1.00  0.00    -0.217 OA
ATOM     20  O   UNL A   1      33.131  19.851  26.316  1.00  0.00    -0.217 OA
BRANCH  18  21
ATOM     21  C   UNL A   1      35.099  21.299  25.388  1.00  0.00     0.073 A 
ATOM     22  C   UNL A   1      37.538  22.572  25.953  1.00  0.00    -0.048 A 
ATOM     23  C   UNL A   1      36.332  23.097  26.435  1.00  0.00     0.005 A 
ATOM     24  C   UNL A   1      37.505  21.383  25.208  1.00  0.00     0.005 A 
ATOM     25  C   UNL A   1      35.116  22.466  26.156  1.00  0.00     0.021 A 
ATOM     26  C   UNL A   1      36.294  20.754  24.911  1.00  0.00     0.021 A 
BRANCH  22  27
ATOM     27  C   UNL A   1      38.874  23.214  26.252  1.00  0.00     0.032 C 
ATOM     28  C   UNL A   1      38.793  24.562  26.959  1.00  0.00     0.009 C 
ENDBRANCH  22  27
ENDBRANCH  18  21
ENDBRANCH  13  18
ENDBRANCH   7  12
ENDBRANCH   4   6
ENDBRANCH   3   4
ENDBRANCH   2   3
ENDBRANCH   1   2
BRANCH   1  29
ATOM     29  O   UNL A   1      33.160  28.932  26.390  1.00  0.00    -0.374 OA
BRANCH  29  30
ATOM     30  C   UNL A   1      34.446  29.009  26.993  1.00  0.00     0.202 C 
BRANCH  30  31
ATOM     31  C   UNL A   1      34.862  30.306  27.668  1.00  0.00     0.261 C 
BRANCH  31  32
ATOM     32  O   UNL A   1      36.267  30.492  27.653  1.00  0.00    -0.460 OA
BRANCH  32  33
ATOM     33  C   UNL A   1      36.895  29.968  28.729  1.00  0.00     0.338 C 
ATOM     34  O   UNL A   1      36.744  30.276  29.899  1.00  0.00    -0.246 OA
BRANCH  33  35
ATOM     35  C   UNL A   1      37.950  29.070  28.253  1.00  0.00     0.060 A 
ATOM     36  C   UNL A   1      38.377  28.108  29.170  1.00  0.00     0.016 A 
ATOM     37  C   UNL A   1      38.708  29.426  27.128  1.00  0.00     0.016 A 
ATOM     38  C   UNL A   1      39.689  27.711  29.113  1.00  0.00     0.010 A 
ATOM     39  C   UNL A   1      40.022  29.037  27.080  1.00  0.00     0.010 A 
ATOM     40  C   UNL A   1      40.513  28.272  28.132  1.00  0.00    -0.014 A 
BRANCH  40  41
ATOM     41  C   UNL A   1      41.918  27.954  28.179  1.00  0.00     0.031 A 
ATOM     42  C   UNL A   1      42.215  26.676  27.504  1.00  0.00     0.074 A 
ATOM     43  C   UNL A   1      42.832  28.788  28.705  1.00  0.00     0.049 A 
ATOM     44  N   UNL A   1      42.569  25.565  28.054  1.00  0.00    -0.248 NA
ATOM     45  C   UNL A   1      41.866  26.564  26.078  1.00  0.00     0.031 C 
ATOM     46  C   UNL A   1      42.666  30.171  29.157  1.00  0.00     0.029 A 
ATOM     47  N   UNL A   1      44.166  28.579  28.854  1.00  0.00    -0.354 N 
ATOM     48  C   UNL A   1      42.710  24.668  27.002  1.00  0.00     0.074 A 
ATOM     49  C   UNL A   1      42.062  25.264  25.864  1.00  0.00     0.031 C 
ATOM     50  C   UNL A   1      43.886  30.742  29.302  1.00  0.00     0.029 A 
ATOM     51  C   UNL A   1      44.907  29.732  29.082  1.00  0.00     0.049 A 
ATOM     52  H   UNL A   1      44.574  27.683  28.805  1.00  0.00     0.167 HD
ATOM     53  C   UNL A   1      43.605  23.650  27.078  1.00  0.00     0.037 A 
ATOM     54  C   UNL A   1      46.258  29.817  28.987  1.00  0.00     0.037 A 
ATOM     55  C   UNL A   1      43.972  23.375  28.445  1.00  0.00     0.049 A 
ATOM     56  C   UNL A   1      46.793  28.431  29.090  1.00  0.00     0.074 A 
ATOM     57  C   UNL A   1      43.267  23.021  29.581  1.00  0.00     0.029 A 
ATOM     58  N   UNL A   1      45.185  23.843  28.892  1.00  0.00    -0.354 N 
ATOM     59  N   UNL A   1      46.744  27.720  30.183  1.00  0.00    -0.248 NA
ATOM     60  C   UNL A   1      46.921  27.667  27.855  1.00  0.00     0.031 C 
ATOM     61  C   UNL A   1      43.885  23.750  30.640  1.00  0.00     0.029 A 
ATOM     62  C   UNL A   1      44.968  24.446  30.104  1.00  0.00     0.049 A 
ATOM     63  H   UNL A   1      46.049  23.760  28.427  1.00  0.00     0.167 HD
ATOM     64  C   UNL A   1      46.404  26.442  29.762  1.00  0.00     0.074 A 
ATOM     65  C   UNL A   1      46.584  26.457  28.310  1.00  0.00     0.031 C 
ATOM     66  C   UNL A   1      45.720  25.584  30.574  1.00  0.00     0.037 A 
BRANCH  53  67
ATOM     67  C   UNL A   1      44.447  23.215  25.907  1.00  0.00     0.057 A 
ATOM     68  C   UNL A   1      44.519  21.847  25.596  1.00  0.00     0.134 A 
ATOM     69  C   UNL A   1      45.411  24.028  25.270  1.00  0.00     0.134 A 
ATOM     70  F   UNL A   1      43.668  20.971  26.150  1.00  0.00    -0.206 F 
ATOM     71  C   UNL A   1      45.526  21.320  24.780  1.00  0.00     0.040 A 
ATOM     72  C   UNL A   1      46.384  23.518  24.411  1.00  0.00     0.040 A 
ATOM     73  F   UNL A   1      45.538  25.336  25.519  1.00  0.00    -0.206 F 
ATOM     74  C   UNL A   1      46.467  22.154  24.191  1.00  0.00     0.006 A 
ENDBRANCH  53  67
BRANCH  54  75
ATOM     75  C   UNL A   1      47.072  30.935  28.450  1.00  0.00     0.057 A 
ATOM     76  C   UNL A   1      46.939  31.349  27.116  1.00  0.00     0.134 A 
ATOM     77  C   UNL A   1      47.783  31.806  29.293  1.00  0.00     0.134 A 
ATOM     78  F   UNL A   1      46.242  30.609  26.241  1.00  0.00    -0.206 F 
ATOM     79  C   UNL A   1      47.455  32.568  26.655  1.00  0.00     0.040 A 
ATOM     80  C   UNL A   1      48.310  33.022  28.846  1.00  0.00     0.040 A 
ATOM     81  F   UNL A   1      47.914  31.554  30.604  1.00  0.00    -0.206 F 
ATOM     82  C   UNL A   1      48.133  33.416  27.526  1.00  0.00     0.006 A 
ENDBRANCH  54  75
BRANCH  66  83
ATOM     83  C   UNL A   1      45.533  25.970  32.016  1.00  0.00     0.057 A 
ATOM     84  C   UNL A   1      44.390  26.614  32.516  1.00  0.00     0.134 A 
ATOM     85  C   UNL A   1      46.468  25.525  32.956  1.00  0.00     0.134 A 
ATOM     86  F   UNL A   1      43.391  26.986  31.705  1.00  0.00    -0.206 F 
ATOM     87  C   UNL A   1      44.210  26.841  33.885  1.00  0.00     0.040 A 
ATOM     88  C   UNL A   1      46.284  25.715  34.327  1.00  0.00     0.040 A 
ATOM     89  F   UNL A   1      47.557  24.849  32.557  1.00  0.00    -0.206 F 
ATOM     90  C   UNL A   1      45.157  26.382  34.796  1.00  0.00     0.006 A 
ENDBRANCH  66  83
ENDBRANCH  40  41
ENDBRANCH  33  35
ENDBRANCH  32  33
ENDBRANCH  31  32
ENDBRANCH  30  31
ENDBRANCH  29  30
ENDBRANCH   1  29
TORSDOF 18
ENDMDL
