MODEL 1
REMARK VINA RESULT:      -8.7      0.000      0.000
REMARK SMILES CSCC[NH2+]CC(C)(C)C(=O)OCCOCCOC(=O)c1ccc(-c2c3nc(c(-c4c(F)cccc4F)c4ccc([nH]4)c(-c4c(F)cccc4F)c4nc(c(-c5c(F)cccc5F)c5ccc2[nH]5)C=C4)C=C3)cc1
REMARK SMILES IDX 13 1 12 2 10 3 11 4 7 5 8 6 9 7 6 8 5 9 4 12 3 13 2 14 1 15
REMARK SMILES IDX 14 16 15 17 16 18 17 19 18 20 19 21 20 22 21 23 22 24 74 25
REMARK SMILES IDX 23 26 73 27 24 28 25 29 26 30 67 31 27 32 72 33 66 34 68 35
REMARK SMILES IDX 28 36 71 37 65 38 64 39 29 41 55 42 38 43 54 44 39 45 42 46
REMARK SMILES IDX 53 47 69 48 40 49 41 50 52 52 70 53 43 54 30 55 31 56 36 57
REMARK SMILES IDX 32 58 33 59 35 60 37 61 34 62 56 63 57 64 62 65 58 66 59 67
REMARK SMILES IDX 61 68 63 69 60 70 44 71 45 72 50 73 46 74 47 75 49 76 51 77
REMARK SMILES IDX 48 78
REMARK H PARENT 5 10 5 11 68 40 42 51
REMARK Flexibility Score: inf
ROOT
ATOM      1  C   UNL A   1      32.977  21.924  23.844  1.00  0.00     0.261 C 
ENDROOT
BRANCH   1   2
ATOM      2  O   UNL A   1      32.433  23.246  23.942  1.00  0.00    -0.463 OA
BRANCH   2   3
ATOM      3  C   UNL A   1      33.339  24.217  23.641  1.00  0.00     0.317 C 
ATOM      4  O   UNL A   1      33.932  24.227  22.572  1.00  0.00    -0.251 OA
BRANCH   3   5
ATOM      5  C   UNL A   1      33.577  25.234  24.778  1.00  0.00     0.111 C 
ATOM      6  C   UNL A   1      34.953  24.909  25.372  1.00  0.00     0.029 C 
ATOM      7  C   UNL A   1      32.530  25.061  25.910  1.00  0.00     0.029 C 
BRANCH   5   8
ATOM      8  C   UNL A   1      33.489  26.730  24.305  1.00  0.00     0.278 C 
BRANCH   8   9
ATOM      9  N   UNL A   1      32.675  27.161  23.153  1.00  0.00    -0.345 N 
ATOM     10  H   UNL A   1      33.152  27.937  22.693  1.00  0.00     0.346 HD
ATOM     11  H   UNL A   1      32.573  26.355  22.537  1.00  0.00     0.346 HD
BRANCH   9  12
ATOM     12  C   UNL A   1      31.325  27.598  23.526  1.00  0.00     0.271 C 
BRANCH  12  13
ATOM     13  C   UNL A   1      30.433  28.131  22.398  1.00  0.00     0.130 C 
BRANCH  13  14
ATOM     14  S   UNL A   1      29.136  29.313  22.947  1.00  0.00    -0.160 SA
ATOM     15  C   UNL A   1      29.134  30.469  21.562  1.00  0.00     0.085 C 
ENDBRANCH  13  14
ENDBRANCH  12  13
ENDBRANCH   9  12
ENDBRANCH   8   9
ENDBRANCH   5   8
ENDBRANCH   3   5
ENDBRANCH   2   3
ENDBRANCH   1   2
BRANCH   1  16
ATOM     16  C   UNL A   1      33.774  21.477  25.082  1.00  0.00     0.202 C 
BRANCH  16  17
ATOM     17  O   UNL A   1      35.187  21.346  25.008  1.00  0.00    -0.374 OA
BRANCH  17  18
ATOM     18  C   UNL A   1      35.775  20.049  25.005  1.00  0.00     0.202 C 
BRANCH  18  19
ATOM     19  C   UNL A   1      37.297  19.883  24.959  1.00  0.00     0.261 C 
BRANCH  19  20
ATOM     20  O   UNL A   1      37.999  21.076  25.347  1.00  0.00    -0.460 OA
BRANCH  20  21
ATOM     21  C   UNL A   1      39.182  20.849  25.970  1.00  0.00     0.338 C 
ATOM     22  O   UNL A   1      39.880  19.854  25.899  1.00  0.00    -0.246 OA
BRANCH  21  23
ATOM     23  C   UNL A   1      39.650  22.090  26.605  1.00  0.00     0.060 A 
ATOM     24  C   UNL A   1      39.088  23.294  26.162  1.00  0.00     0.016 A 
ATOM     25  C   UNL A   1      40.682  22.081  27.543  1.00  0.00     0.016 A 
ATOM     26  C   UNL A   1      39.587  24.505  26.624  1.00  0.00     0.010 A 
ATOM     27  C   UNL A   1      41.199  23.299  27.989  1.00  0.00     0.010 A 
ATOM     28  C   UNL A   1      40.678  24.512  27.500  1.00  0.00    -0.014 A 
BRANCH  28  29
ATOM     29  C   UNL A   1      41.389  25.786  27.745  1.00  0.00     0.031 A 
ATOM     30  C   UNL A   1      40.674  26.872  28.498  1.00  0.00     0.074 A 
ATOM     31  C   UNL A   1      42.662  25.948  27.349  1.00  0.00     0.049 A 
ATOM     32  N   UNL A   1      41.077  28.080  28.794  1.00  0.00    -0.248 NA
ATOM     33  C   UNL A   1      39.321  26.552  28.983  1.00  0.00     0.031 C 
ATOM     34  C   UNL A   1      43.469  24.939  26.664  1.00  0.00     0.029 A 
ATOM     35  N   UNL A   1      43.496  27.029  27.464  1.00  0.00    -0.354 N 
ATOM     36  C   UNL A   1      40.027  28.666  29.490  1.00  0.00     0.074 A 
ATOM     37  C   UNL A   1      38.958  27.694  29.547  1.00  0.00     0.031 C 
ATOM     38  C   UNL A   1      44.681  25.457  26.405  1.00  0.00     0.029 A 
ATOM     39  C   UNL A   1      44.720  26.841  26.874  1.00  0.00     0.049 A 
ATOM     40  H   UNL A   1      43.241  27.860  27.926  1.00  0.00     0.167 HD
ATOM     41  C   UNL A   1      39.967  29.902  30.041  1.00  0.00     0.037 A 
ATOM     42  C   UNL A   1      45.741  27.703  26.707  1.00  0.00     0.037 A 
ATOM     43  C   UNL A   1      41.037  30.861  29.978  1.00  0.00     0.049 A 
ATOM     44  C   UNL A   1      45.618  29.099  27.256  1.00  0.00     0.074 A 
ATOM     45  C   UNL A   1      41.082  32.138  30.507  1.00  0.00     0.029 A 
ATOM     46  N   UNL A   1      42.250  30.648  29.339  1.00  0.00    -0.354 N 
ATOM     47  N   UNL A   1      44.628  29.643  27.924  1.00  0.00    -0.248 NA
ATOM     48  C   UNL A   1      46.757  30.002  27.033  1.00  0.00     0.031 C 
ATOM     49  C   UNL A   1      42.301  32.718  30.141  1.00  0.00     0.029 A 
ATOM     50  C   UNL A   1      43.041  31.780  29.438  1.00  0.00     0.049 A 
ATOM     51  H   UNL A   1      42.509  29.815  28.883  1.00  0.00     0.167 HD
ATOM     52  C   UNL A   1      45.035  30.938  28.225  1.00  0.00     0.074 A 
ATOM     53  C   UNL A   1      46.368  31.091  27.679  1.00  0.00     0.031 C 
ATOM     54  C   UNL A   1      44.369  31.910  28.894  1.00  0.00     0.037 A 
BRANCH  41  55
ATOM     55  C   UNL A   1      38.691  30.293  30.729  1.00  0.00     0.057 A 
ATOM     56  C   UNL A   1      37.650  30.943  30.053  1.00  0.00     0.134 A 
ATOM     57  C   UNL A   1      38.491  29.989  32.081  1.00  0.00     0.134 A 
ATOM     58  F   UNL A   1      37.784  31.279  28.761  1.00  0.00    -0.206 F 
ATOM     59  C   UNL A   1      36.466  31.295  30.703  1.00  0.00     0.040 A 
ATOM     60  C   UNL A   1      37.300  30.311  32.734  1.00  0.00     0.040 A 
ATOM     61  F   UNL A   1      39.447  29.366  32.789  1.00  0.00    -0.206 F 
ATOM     62  C   UNL A   1      36.286  30.971  32.046  1.00  0.00     0.006 A 
ENDBRANCH  41  55
BRANCH  42  63
ATOM     63  C   UNL A   1      46.959  27.280  25.970  1.00  0.00     0.057 A 
ATOM     64  C   UNL A   1      47.050  27.404  24.579  1.00  0.00     0.134 A 
ATOM     65  C   UNL A   1      48.054  26.719  26.639  1.00  0.00     0.134 A 
ATOM     66  F   UNL A   1      46.025  27.914  23.880  1.00  0.00    -0.206 F 
ATOM     67  C   UNL A   1      48.174  26.967  23.878  1.00  0.00     0.040 A 
ATOM     68  C   UNL A   1      49.196  26.303  25.954  1.00  0.00     0.040 A 
ATOM     69  F   UNL A   1      48.033  26.574  27.973  1.00  0.00    -0.206 F 
ATOM     70  C   UNL A   1      49.255  26.419  24.567  1.00  0.00     0.006 A 
ENDBRANCH  42  63
BRANCH  54  71
ATOM     71  C   UNL A   1      45.086  33.212  29.112  1.00  0.00     0.057 A 
ATOM     72  C   UNL A   1      45.915  33.427  30.221  1.00  0.00     0.134 A 
ATOM     73  C   UNL A   1      44.978  34.248  28.175  1.00  0.00     0.134 A 
ATOM     74  F   UNL A   1      46.055  32.480  31.160  1.00  0.00    -0.206 F 
ATOM     75  C   UNL A   1      46.588  34.637  30.403  1.00  0.00     0.040 A 
ATOM     76  C   UNL A   1      45.669  35.450  28.331  1.00  0.00     0.040 A 
ATOM     77  F   UNL A   1      44.210  34.103  27.085  1.00  0.00    -0.206 F 
ATOM     78  C   UNL A   1      46.472  35.649  29.451  1.00  0.00     0.006 A 
ENDBRANCH  54  71
ENDBRANCH  28  29
ENDBRANCH  21  23
ENDBRANCH  20  21
ENDBRANCH  19  20
ENDBRANCH  18  19
ENDBRANCH  17  18
ENDBRANCH  16  17
ENDBRANCH   1  16
TORSDOF 19
ENDMDL
MODEL 2
REMARK VINA RESULT:      -8.6      2.842      7.618
REMARK SMILES CSCC[NH2+]CC(C)(C)C(=O)OCCOCCOC(=O)c1ccc(-c2c3nc(c(-c4c(F)cccc4F)c4ccc([nH]4)c(-c4c(F)cccc4F)c4nc(c(-c5c(F)cccc5F)c5ccc2[nH]5)C=C4)C=C3)cc1
REMARK SMILES IDX 13 1 12 2 10 3 11 4 7 5 8 6 9 7 6 8 5 9 4 12 3 13 2 14 1 15
REMARK SMILES IDX 14 16 15 17 16 18 17 19 18 20 19 21 20 22 21 23 22 24 74 25
REMARK SMILES IDX 23 26 73 27 24 28 25 29 26 30 67 31 27 32 72 33 66 34 68 35
REMARK SMILES IDX 28 36 71 37 65 38 64 39 29 41 55 42 38 43 54 44 39 45 42 46
REMARK SMILES IDX 53 47 69 48 40 49 41 50 52 52 70 53 43 54 30 55 31 56 36 57
REMARK SMILES IDX 32 58 33 59 35 60 37 61 34 62 56 63 57 64 62 65 58 66 59 67
REMARK SMILES IDX 61 68 63 69 60 70 44 71 45 72 50 73 46 74 47 75 49 76 51 77
REMARK SMILES IDX 48 78
REMARK H PARENT 5 10 5 11 68 40 42 51
REMARK Flexibility Score: inf
ROOT
ATOM      1  C   UNL A   1      35.895  21.307  25.546  1.00  0.00     0.261 C 
ENDROOT
BRANCH   1   2
ATOM      2  O   UNL A   1      34.915  21.593  24.540  1.00  0.00    -0.463 OA
BRANCH   2   3
ATOM      3  C   UNL A   1      33.934  22.430  24.977  1.00  0.00     0.317 C 
ATOM      4  O   UNL A   1      34.181  23.369  25.720  1.00  0.00    -0.251 OA
BRANCH   3   5
ATOM      5  C   UNL A   1      32.516  22.046  24.503  1.00  0.00     0.111 C 
ATOM      6  C   UNL A   1      32.531  22.131  22.972  1.00  0.00     0.029 C 
ATOM      7  C   UNL A   1      31.462  23.064  25.014  1.00  0.00     0.029 C 
BRANCH   5   8
ATOM      8  C   UNL A   1      32.054  20.629  24.999  1.00  0.00     0.278 C 
BRANCH   8   9
ATOM      9  N   UNL A   1      32.822  19.831  25.973  1.00  0.00    -0.345 N 
ATOM     10  H   UNL A   1      33.752  20.241  26.067  1.00  0.00     0.346 HD
ATOM     11  H   UNL A   1      32.305  19.846  26.851  1.00  0.00     0.346 HD
BRANCH   9  12
ATOM     12  C   UNL A   1      32.972  18.425  25.581  1.00  0.00     0.271 C 
BRANCH  12  13
ATOM     13  C   UNL A   1      34.124  18.091  24.624  1.00  0.00     0.130 C 
BRANCH  13  14
ATOM     14  S   UNL A   1      33.655  17.002  23.219  1.00  0.00    -0.160 SA
ATOM     15  C   UNL A   1      32.498  18.072  22.341  1.00  0.00     0.085 C 
ENDBRANCH  13  14
ENDBRANCH  12  13
ENDBRANCH   9  12
ENDBRANCH   8   9
ENDBRANCH   5   8
ENDBRANCH   3   5
ENDBRANCH   2   3
ENDBRANCH   1   2
BRANCH   1  16
ATOM     16  C   UNL A   1      37.348  21.377  25.047  1.00  0.00     0.202 C 
BRANCH  16  17
ATOM     17  O   UNL A   1      38.320  22.103  25.788  1.00  0.00    -0.374 OA
BRANCH  17  18
ATOM     18  C   UNL A   1      39.590  21.516  26.049  1.00  0.00     0.202 C 
BRANCH  18  19
ATOM     19  C   UNL A   1      39.743  19.994  26.138  1.00  0.00     0.261 C 
BRANCH  19  20
ATOM     20  O   UNL A   1      40.857  19.501  25.376  1.00  0.00    -0.460 OA
BRANCH  20  21
ATOM     21  C   UNL A   1      41.972  19.263  26.110  1.00  0.00     0.338 C 
ATOM     22  O   UNL A   1      42.452  18.184  26.404  1.00  0.00    -0.246 OA
BRANCH  21  23
ATOM     23  C   UNL A   1      42.688  20.528  26.341  1.00  0.00     0.060 A 
ATOM     24  C   UNL A   1      42.737  21.012  27.655  1.00  0.00     0.016 A 
ATOM     25  C   UNL A   1      43.213  21.269  25.283  1.00  0.00     0.016 A 
ATOM     26  C   UNL A   1      43.276  22.265  27.914  1.00  0.00     0.010 A 
ATOM     27  C   UNL A   1      43.734  22.538  25.541  1.00  0.00     0.010 A 
ATOM     28  C   UNL A   1      43.730  23.053  26.851  1.00  0.00    -0.014 A 
BRANCH  28  29
ATOM     29  C   UNL A   1      44.016  24.484  27.095  1.00  0.00     0.031 A 
ATOM     30  C   UNL A   1      45.430  24.969  26.940  1.00  0.00     0.074 A 
ATOM     31  C   UNL A   1      43.025  25.339  27.397  1.00  0.00     0.049 A 
ATOM     32  N   UNL A   1      45.924  26.163  27.140  1.00  0.00    -0.248 NA
ATOM     33  C   UNL A   1      46.419  23.972  26.499  1.00  0.00     0.031 C 
ATOM     34  C   UNL A   1      41.611  24.987  27.514  1.00  0.00     0.029 A 
ATOM     35  N   UNL A   1      43.064  26.682  27.665  1.00  0.00    -0.354 N 
ATOM     36  C   UNL A   1      47.280  26.059  26.859  1.00  0.00     0.074 A 
ATOM     37  C   UNL A   1      47.539  24.681  26.504  1.00  0.00     0.031 C 
ATOM     38  C   UNL A   1      40.917  26.088  27.847  1.00  0.00     0.029 A 
ATOM     39  C   UNL A   1      41.842  27.209  28.000  1.00  0.00     0.049 A 
ATOM     40  H   UNL A   1      43.889  27.218  27.620  1.00  0.00     0.167 HD
ATOM     41  C   UNL A   1      48.223  27.030  26.886  1.00  0.00     0.037 A 
ATOM     42  C   UNL A   1      41.519  28.449  28.413  1.00  0.00     0.037 A 
ATOM     43  C   UNL A   1      47.955  28.399  27.241  1.00  0.00     0.049 A 
ATOM     44  C   UNL A   1      42.600  29.492  28.514  1.00  0.00     0.074 A 
ATOM     45  C   UNL A   1      48.836  29.463  27.293  1.00  0.00     0.029 A 
ATOM     46  N   UNL A   1      46.711  28.888  27.610  1.00  0.00    -0.354 N 
ATOM     47  N   UNL A   1      43.878  29.391  28.236  1.00  0.00    -0.248 NA
ATOM     48  C   UNL A   1      42.193  30.825  28.983  1.00  0.00     0.031 C 
ATOM     49  C   UNL A   1      48.135  30.585  27.749  1.00  0.00     0.029 A 
ATOM     50  C   UNL A   1      46.805  30.234  27.918  1.00  0.00     0.049 A 
ATOM     51  H   UNL A   1      45.883  28.356  27.647  1.00  0.00     0.167 HD
ATOM     52  C   UNL A   1      44.421  30.650  28.466  1.00  0.00     0.074 A 
ATOM     53  C   UNL A   1      43.329  31.501  28.894  1.00  0.00     0.031 C 
ATOM     54  C   UNL A   1      45.704  31.066  28.334  1.00  0.00     0.037 A 
BRANCH  41  55
ATOM     55  C   UNL A   1      49.633  26.638  26.552  1.00  0.00     0.057 A 
ATOM     56  C   UNL A   1      50.526  26.174  27.527  1.00  0.00     0.134 A 
ATOM     57  C   UNL A   1      50.095  26.700  25.232  1.00  0.00     0.134 A 
ATOM     58  F   UNL A   1      50.154  26.107  28.814  1.00  0.00    -0.206 F 
ATOM     59  C   UNL A   1      51.834  25.805  27.202  1.00  0.00     0.040 A 
ATOM     60  C   UNL A   1      51.390  26.307  24.891  1.00  0.00     0.040 A 
ATOM     61  F   UNL A   1      49.291  27.134  24.248  1.00  0.00    -0.206 F 
ATOM     62  C   UNL A   1      52.265  25.864  25.879  1.00  0.00     0.006 A 
ENDBRANCH  41  55
BRANCH  42  63
ATOM     63  C   UNL A   1      40.116  28.768  28.782  1.00  0.00     0.057 A 
ATOM     64  C   UNL A   1      39.663  28.644  30.100  1.00  0.00     0.134 A 
ATOM     65  C   UNL A   1      39.189  29.186  27.819  1.00  0.00     0.134 A 
ATOM     66  F   UNL A   1      40.499  28.228  31.064  1.00  0.00    -0.206 F 
ATOM     67  C   UNL A   1      38.335  28.899  30.444  1.00  0.00     0.040 A 
ATOM     68  C   UNL A   1      37.865  29.472  28.153  1.00  0.00     0.040 A 
ATOM     69  F   UNL A   1      39.559  29.328  26.537  1.00  0.00    -0.206 F 
ATOM     70  C   UNL A   1      37.433  29.321  29.469  1.00  0.00     0.006 A 
ENDBRANCH  42  63
BRANCH  54  71
ATOM     71  C   UNL A   1      45.991  32.513  28.613  1.00  0.00     0.057 A 
ATOM     72  C   UNL A   1      45.883  33.497  27.623  1.00  0.00     0.134 A 
ATOM     73  C   UNL A   1      46.341  32.932  29.904  1.00  0.00     0.134 A 
ATOM     74  F   UNL A   1      45.562  33.163  26.364  1.00  0.00    -0.206 F 
ATOM     75  C   UNL A   1      46.138  34.842  27.900  1.00  0.00     0.040 A 
ATOM     76  C   UNL A   1      46.569  34.276  30.200  1.00  0.00     0.040 A 
ATOM     77  F   UNL A   1      46.452  32.043  30.903  1.00  0.00    -0.206 F 
ATOM     78  C   UNL A   1      46.474  35.235  29.194  1.00  0.00     0.006 A 
ENDBRANCH  54  71
ENDBRANCH  28  29
ENDBRANCH  21  23
ENDBRANCH  20  21
ENDBRANCH  19  20
ENDBRANCH  18  19
ENDBRANCH  17  18
ENDBRANCH  16  17
ENDBRANCH   1  16
TORSDOF 19
ENDMDL
MODEL 3
REMARK VINA RESULT:      -8.6      4.596      9.548
REMARK SMILES CSCC[NH2+]CC(C)(C)C(=O)OCCOCCOC(=O)c1ccc(-c2c3nc(c(-c4c(F)cccc4F)c4ccc([nH]4)c(-c4c(F)cccc4F)c4nc(c(-c5c(F)cccc5F)c5ccc2[nH]5)C=C4)C=C3)cc1
REMARK SMILES IDX 13 1 12 2 10 3 11 4 7 5 8 6 9 7 6 8 5 9 4 12 3 13 2 14 1 15
REMARK SMILES IDX 14 16 15 17 16 18 17 19 18 20 19 21 20 22 21 23 22 24 74 25
REMARK SMILES IDX 23 26 73 27 24 28 25 29 26 30 67 31 27 32 72 33 66 34 68 35
REMARK SMILES IDX 28 36 71 37 65 38 64 39 29 41 55 42 38 43 54 44 39 45 42 46
REMARK SMILES IDX 53 47 69 48 40 49 41 50 52 52 70 53 43 54 30 55 31 56 36 57
REMARK SMILES IDX 32 58 33 59 35 60 37 61 34 62 56 63 57 64 62 65 58 66 59 67
REMARK SMILES IDX 61 68 63 69 60 70 44 71 45 72 50 73 46 74 47 75 49 76 51 77
REMARK SMILES IDX 48 78
REMARK H PARENT 5 10 5 11 68 40 42 51
REMARK Flexibility Score: inf
ROOT
ATOM      1  C   UNL A   1      32.638  28.465  24.927  1.00  0.00     0.261 C 
ENDROOT
BRANCH   1   2
ATOM      2  O   UNL A   1      31.686  27.419  25.158  1.00  0.00    -0.463 OA
BRANCH   2   3
ATOM      3  C   UNL A   1      31.293  26.797  24.012  1.00  0.00     0.317 C 
ATOM      4  O   UNL A   1      31.729  27.136  22.920  1.00  0.00    -0.251 OA
BRANCH   3   5
ATOM      5  C   UNL A   1      30.229  25.698  24.221  1.00  0.00     0.111 C 
ATOM      6  C   UNL A   1      28.867  26.363  23.993  1.00  0.00     0.029 C 
ATOM      7  C   UNL A   1      30.251  25.172  25.680  1.00  0.00     0.029 C 
BRANCH   5   8
ATOM      8  C   UNL A   1      30.429  24.451  23.287  1.00  0.00     0.278 C 
BRANCH   8   9
ATOM      9  N   UNL A   1      31.670  24.206  22.529  1.00  0.00    -0.345 N 
ATOM     10  H   UNL A   1      31.440  23.658  21.699  1.00  0.00     0.346 HD
ATOM     11  H   UNL A   1      32.063  25.116  22.291  1.00  0.00     0.346 HD
BRANCH   9  12
ATOM     12  C   UNL A   1      32.687  23.480  23.298  1.00  0.00     0.271 C 
BRANCH  12  13
ATOM     13  C   UNL A   1      32.445  21.983  23.527  1.00  0.00     0.130 C 
BRANCH  13  14
ATOM     14  S   UNL A   1      32.008  21.538  25.256  1.00  0.00    -0.160 SA
ATOM     15  C   UNL A   1      33.613  20.991  25.874  1.00  0.00     0.085 C 
ENDBRANCH  13  14
ENDBRANCH  12  13
ENDBRANCH   9  12
ENDBRANCH   8   9
ENDBRANCH   5   8
ENDBRANCH   3   5
ENDBRANCH   2   3
ENDBRANCH   1   2
BRANCH   1  16
ATOM     16  C   UNL A   1      33.068  29.216  26.198  1.00  0.00     0.202 C 
BRANCH  16  17
ATOM     17  O   UNL A   1      32.952  30.632  26.261  1.00  0.00    -0.374 OA
BRANCH  17  18
ATOM     18  C   UNL A   1      31.672  31.226  26.449  1.00  0.00     0.202 C 
BRANCH  18  19
ATOM     19  C   UNL A   1      31.543  32.625  27.061  1.00  0.00     0.261 C 
BRANCH  19  20
ATOM     20  O   UNL A   1      32.741  33.406  26.920  1.00  0.00    -0.460 OA
BRANCH  20  21
ATOM     21  C   UNL A   1      33.224  33.901  28.085  1.00  0.00     0.338 C 
ATOM     22  O   UNL A   1      32.671  34.668  28.853  1.00  0.00    -0.246 OA
BRANCH  21  23
ATOM     23  C   UNL A   1      34.470  33.203  28.438  1.00  0.00     0.060 A 
ATOM     24  C   UNL A   1      34.361  31.902  28.944  1.00  0.00     0.016 A 
ATOM     25  C   UNL A   1      35.706  33.844  28.366  1.00  0.00     0.016 A 
ATOM     26  C   UNL A   1      35.487  31.245  29.423  1.00  0.00     0.010 A 
ATOM     27  C   UNL A   1      36.834  33.193  28.869  1.00  0.00     0.010 A 
ATOM     28  C   UNL A   1      36.719  31.909  29.433  1.00  0.00    -0.014 A 
BRANCH  28  29
ATOM     29  C   UNL A   1      37.834  31.329  30.213  1.00  0.00     0.031 A 
ATOM     30  C   UNL A   1      38.733  30.328  29.542  1.00  0.00     0.074 A 
ATOM     31  C   UNL A   1      38.070  31.727  31.474  1.00  0.00     0.049 A 
ATOM     32  N   UNL A   1      39.743  29.660  30.033  1.00  0.00    -0.248 NA
ATOM     33  C   UNL A   1      38.454  30.044  28.125  1.00  0.00     0.031 C 
ATOM     34  C   UNL A   1      37.298  32.734  32.200  1.00  0.00     0.029 A 
ATOM     35  N   UNL A   1      39.029  31.325  32.366  1.00  0.00    -0.354 N 
ATOM     36  C   UNL A   1      40.214  28.871  28.991  1.00  0.00     0.074 A 
ATOM     37  C   UNL A   1      39.362  29.119  27.850  1.00  0.00     0.031 C 
ATOM     38  C   UNL A   1      37.806  32.859  33.437  1.00  0.00     0.029 A 
ATOM     39  C   UNL A   1      38.912  31.918  33.598  1.00  0.00     0.049 A 
ATOM     40  H   UNL A   1      39.733  30.673  32.145  1.00  0.00     0.167 HD
ATOM     41  C   UNL A   1      41.269  28.022  28.987  1.00  0.00     0.037 A 
ATOM     42  C   UNL A   1      39.604  31.698  34.732  1.00  0.00     0.037 A 
ATOM     43  C   UNL A   1      42.110  27.782  30.129  1.00  0.00     0.049 A 
ATOM     44  C   UNL A   1      40.721  30.688  34.725  1.00  0.00     0.074 A 
ATOM     45  C   UNL A   1      43.209  26.948  30.230  1.00  0.00     0.029 A 
ATOM     46  N   UNL A   1      41.940  28.375  31.372  1.00  0.00    -0.354 N 
ATOM     47  N   UNL A   1      41.169  29.954  33.734  1.00  0.00    -0.248 NA
ATOM     48  C   UNL A   1      41.433  30.479  35.994  1.00  0.00     0.031 C 
ATOM     49  C   UNL A   1      43.669  26.994  31.550  1.00  0.00     0.029 A 
ATOM     50  C   UNL A   1      42.897  27.904  32.255  1.00  0.00     0.049 A 
ATOM     51  H   UNL A   1      41.241  29.032  31.593  1.00  0.00     0.167 HD
ATOM     52  C   UNL A   1      42.230  29.221  34.249  1.00  0.00     0.074 A 
ATOM     53  C   UNL A   1      42.368  29.610  35.638  1.00  0.00     0.031 C 
ATOM     54  C   UNL A   1      43.022  28.310  33.632  1.00  0.00     0.037 A 
BRANCH  41  55
ATOM     55  C   UNL A   1      41.549  27.271  27.718  1.00  0.00     0.057 A 
ATOM     56  C   UNL A   1      41.030  25.991  27.481  1.00  0.00     0.134 A 
ATOM     57  C   UNL A   1      42.328  27.849  26.707  1.00  0.00     0.134 A 
ATOM     58  F   UNL A   1      40.292  25.374  28.414  1.00  0.00    -0.206 F 
ATOM     59  C   UNL A   1      41.293  25.306  26.293  1.00  0.00     0.040 A 
ATOM     60  C   UNL A   1      42.574  27.185  25.504  1.00  0.00     0.040 A 
ATOM     61  F   UNL A   1      42.856  29.072  26.868  1.00  0.00    -0.206 F 
ATOM     62  C   UNL A   1      42.060  25.907  25.297  1.00  0.00     0.006 A 
ENDBRANCH  41  55
BRANCH  42  63
ATOM     63  C   UNL A   1      39.249  32.431  35.974  1.00  0.00     0.057 A 
ATOM     64  C   UNL A   1      38.347  31.898  36.901  1.00  0.00     0.134 A 
ATOM     65  C   UNL A   1      39.788  33.693  36.252  1.00  0.00     0.134 A 
ATOM     66  F   UNL A   1      37.780  30.702  36.681  1.00  0.00    -0.206 F 
ATOM     67  C   UNL A   1      37.975  32.602  38.048  1.00  0.00     0.040 A 
ATOM     68  C   UNL A   1      39.447  34.396  37.408  1.00  0.00     0.040 A 
ATOM     69  F   UNL A   1      40.661  34.259  35.406  1.00  0.00    -0.206 F 
ATOM     70  C   UNL A   1      38.531  33.853  38.306  1.00  0.00     0.006 A 
ENDBRANCH  42  63
BRANCH  54  71
ATOM     71  C   UNL A   1      44.134  27.703  34.438  1.00  0.00     0.057 A 
ATOM     72  C   UNL A   1      43.988  26.478  35.101  1.00  0.00     0.134 A 
ATOM     73  C   UNL A   1      45.381  28.337  34.518  1.00  0.00     0.134 A 
ATOM     74  F   UNL A   1      42.817  25.824  35.074  1.00  0.00    -0.206 F 
ATOM     75  C   UNL A   1      45.036  25.917  35.835  1.00  0.00     0.040 A 
ATOM     76  C   UNL A   1      46.444  27.772  35.223  1.00  0.00     0.040 A 
ATOM     77  F   UNL A   1      45.592  29.508  33.898  1.00  0.00    -0.206 F 
ATOM     78  C   UNL A   1      46.270  26.561  35.890  1.00  0.00     0.006 A 
ENDBRANCH  54  71
ENDBRANCH  28  29
ENDBRANCH  21  23
ENDBRANCH  20  21
ENDBRANCH  19  20
ENDBRANCH  18  19
ENDBRANCH  17  18
ENDBRANCH  16  17
ENDBRANCH   1  16
TORSDOF 19
ENDMDL
