MODEL 1
REMARK VINA RESULT:      -9.1      0.000      0.000
REMARK SMILES C[C@@H]1CC[C@H](C)[N@H+]1Cc1cc2c(cc1Cl)C=C(C(=O)OCCOCCOC(=O)c1ccc(-c3c4nc(c(-c5c(F)cccc5F)c5ccc([nH]5)c(-c5c(F)cccc5F)c5nc(c(-c6c(F)cccc6F)c6ccc3[nH]6)C=C5)C=C4)cc1)[C@@H](C(F)(F)F)O2
REMARK SMILES IDX 23 1 22 2 21 3 20 4 18 5 19 6 17 7 9 8 10 9 14 10 11 11
REMARK SMILES IDX 13 12 15 13 12 14 88 15 16 16 83 17 8 18 7 19 6 20 5 21 4 22
REMARK SMILES IDX 3 23 2 24 1 26 84 27 85 28 86 29 87 30 24 31 25 32 26 33
REMARK SMILES IDX 27 34 28 35 29 36 30 37 82 38 31 39 81 40 32 41 33 42 34 43
REMARK SMILES IDX 75 44 35 45 80 46 74 47 76 48 36 49 79 50 73 51 72 52 37 54
REMARK SMILES IDX 63 55 46 56 62 57 47 58 50 59 61 60 77 61 48 62 49 63 60 65
REMARK SMILES IDX 78 66 51 67 38 68 39 69 44 70 40 71 41 72 43 73 45 74 42 75
REMARK SMILES IDX 64 76 65 77 70 78 66 79 67 80 69 81 71 82 68 83 52 84 53 85
REMARK SMILES IDX 58 86 54 87 55 88 57 89 59 90 56 91
REMARK H PARENT 7 25 76 53 50 64
REMARK Flexibility Score: inf
ROOT
ATOM      1  O   UNL A   1      46.255  20.056  25.410  1.00  0.00    -0.374 OA
ENDROOT
BRANCH   1   2
ATOM      2  C   UNL A   1      46.034  21.373  24.918  1.00  0.00     0.202 C 
BRANCH   2   3
ATOM      3  C   UNL A   1      46.037  22.529  25.923  1.00  0.00     0.261 C 
BRANCH   3   4
ATOM      4  O   UNL A   1      46.775  23.663  25.443  1.00  0.00    -0.460 OA
BRANCH   4   5
ATOM      5  C   UNL A   1      45.994  24.724  25.139  1.00  0.00     0.338 C 
ATOM      6  O   UNL A   1      44.982  24.714  24.456  1.00  0.00    -0.246 OA
BRANCH   5   7
ATOM      7  C   UNL A   1      46.447  25.922  25.864  1.00  0.00     0.087 C 
ATOM      8  C   UNL A   1      46.232  30.446  28.003  1.00  0.00     0.029 A 
ATOM      9  C   UNL A   1      47.295  29.638  27.528  1.00  0.00     0.058 A 
ATOM     10  C   UNL A   1      44.930  29.926  27.922  1.00  0.00     0.050 A 
ATOM     11  C   UNL A   1      47.061  28.348  27.045  1.00  0.00     0.128 A 
ATOM     12  C   UNL A   1      44.719  28.595  27.570  1.00  0.00     0.033 A 
ATOM     13  Cl  UNL A   1      43.501  30.888  28.080  1.00  0.00    -0.084 Cl
ATOM     14  C   UNL A   1      45.780  27.813  27.124  1.00  0.00     0.019 A 
ATOM     15  O   UNL A   1      48.118  27.657  26.511  1.00  0.00    -0.475 OA
ATOM     16  C   UNL A   1      45.503  26.488  26.622  1.00  0.00     0.027 C 
ATOM     17  C   UNL A   1      47.814  26.507  25.656  1.00  0.00     0.316 C 
BRANCH   8  18
ATOM     18  C   UNL A   1      46.540  31.824  28.569  1.00  0.00     0.301 C 
BRANCH  18  19
ATOM     19  N   UNL A   1      46.614  32.940  27.608  1.00  0.00    -0.327 N 
ATOM     20  C   UNL A   1      48.963  33.523  27.070  1.00  0.00     0.075 C 
ATOM     21  C   UNL A   1      47.698  33.910  27.824  1.00  0.00     0.181 C 
ATOM     22  C   UNL A   1      47.137  35.242  27.333  1.00  0.00     0.071 C 
ATOM     23  C   UNL A   1      45.668  35.127  27.671  1.00  0.00     0.071 C 
ATOM     24  C   UNL A   1      45.357  33.666  27.376  1.00  0.00     0.181 C 
ATOM     25  H   UNL A   1      46.835  32.417  26.761  1.00  0.00     0.348 HD
ATOM     26  C   UNL A   1      44.887  33.446  25.940  1.00  0.00     0.075 C 
ENDBRANCH  18  19
ENDBRANCH   8  18
BRANCH  17  27
ATOM     27  C   UNL A   1      48.057  26.859  24.180  1.00  0.00     0.430 C 
ATOM     28  F   UNL A   1      48.300  25.752  23.440  1.00  0.00    -0.167 F 
ATOM     29  F   UNL A   1      46.971  27.460  23.634  1.00  0.00    -0.167 F 
ATOM     30  F   UNL A   1      49.105  27.697  24.020  1.00  0.00    -0.167 F 
ENDBRANCH  17  27
ENDBRANCH   5   7
ENDBRANCH   4   5
ENDBRANCH   3   4
ENDBRANCH   2   3
ENDBRANCH   1   2
BRANCH   1  31
ATOM     31  C   UNL A   1      45.480  18.982  24.882  1.00  0.00     0.202 C 
BRANCH  31  32
ATOM     32  C   UNL A   1      44.083  18.719  25.460  1.00  0.00     0.261 C 
BRANCH  32  33
ATOM     33  O   UNL A   1      43.078  19.606  24.938  1.00  0.00    -0.460 OA
BRANCH  33  34
ATOM     34  C   UNL A   1      41.961  19.713  25.700  1.00  0.00     0.338 C 
ATOM     35  O   UNL A   1      41.124  18.849  25.916  1.00  0.00    -0.246 OA
BRANCH  34  36
ATOM     36  C   UNL A   1      41.990  20.995  26.425  1.00  0.00     0.060 A 
ATOM     37  C   UNL A   1      41.613  21.071  27.766  1.00  0.00     0.016 A 
ATOM     38  C   UNL A   1      42.441  22.134  25.744  1.00  0.00     0.016 A 
ATOM     39  C   UNL A   1      41.707  22.296  28.431  1.00  0.00     0.010 A 
ATOM     40  C   UNL A   1      42.530  23.355  26.410  1.00  0.00     0.010 A 
ATOM     41  C   UNL A   1      42.178  23.442  27.764  1.00  0.00    -0.014 A 
BRANCH  41  42
ATOM     42  C   UNL A   1      42.382  24.710  28.508  1.00  0.00     0.031 A 
ATOM     43  C   UNL A   1      43.661  24.981  29.242  1.00  0.00     0.074 A 
ATOM     44  C   UNL A   1      41.386  25.617  28.526  1.00  0.00     0.049 A 
ATOM     45  N   UNL A   1      44.014  26.048  29.914  1.00  0.00    -0.248 NA
ATOM     46  C   UNL A   1      44.676  23.918  29.222  1.00  0.00     0.031 C 
ATOM     47  C   UNL A   1      40.084  25.451  27.878  1.00  0.00     0.029 A 
ATOM     48  N   UNL A   1      41.314  26.856  29.109  1.00  0.00    -0.354 N 
ATOM     49  C   UNL A   1      45.303  25.800  30.370  1.00  0.00     0.074 A 
ATOM     50  C   UNL A   1      45.643  24.455  29.952  1.00  0.00     0.031 C 
ATOM     51  C   UNL A   1      39.348  26.555  28.086  1.00  0.00     0.029 A 
ATOM     52  C   UNL A   1      40.112  27.489  28.906  1.00  0.00     0.049 A 
ATOM     53  H   UNL A   1      42.053  27.254  29.623  1.00  0.00     0.167 HD
ATOM     54  C   UNL A   1      46.132  26.627  31.052  1.00  0.00     0.037 A 
ATOM     55  C   UNL A   1      39.673  28.685  29.342  1.00  0.00     0.037 A 
ATOM     56  C   UNL A   1      45.779  27.950  31.499  1.00  0.00     0.049 A 
ATOM     57  C   UNL A   1      40.590  29.546  30.169  1.00  0.00     0.074 A 
ATOM     58  C   UNL A   1      46.550  28.861  32.202  1.00  0.00     0.029 A 
ATOM     59  N   UNL A   1      44.544  28.549  31.298  1.00  0.00    -0.354 N 
ATOM     60  N   UNL A   1      41.829  29.325  30.539  1.00  0.00    -0.248 NA
ATOM     61  C   UNL A   1      40.048  30.831  30.634  1.00  0.00     0.031 C 
ATOM     62  C   UNL A   1      45.767  29.990  32.465  1.00  0.00     0.029 A 
ATOM     63  C   UNL A   1      44.528  29.808  31.877  1.00  0.00     0.049 A 
ATOM     64  H   UNL A   1      43.789  28.140  30.815  1.00  0.00     0.167 HD
ATOM     65  C   UNL A   1      42.223  30.456  31.244  1.00  0.00     0.074 A 
ATOM     66  C   UNL A   1      41.099  31.368  31.234  1.00  0.00     0.031 C 
ATOM     67  C   UNL A   1      43.408  30.715  31.847  1.00  0.00     0.037 A 
BRANCH  54  68
ATOM     68  C   UNL A   1      47.516  26.124  31.348  1.00  0.00     0.057 A 
ATOM     69  C   UNL A   1      48.530  26.180  30.384  1.00  0.00     0.134 A 
ATOM     70  C   UNL A   1      47.829  25.535  32.581  1.00  0.00     0.134 A 
ATOM     71  F   UNL A   1      48.297  26.720  29.179  1.00  0.00    -0.206 F 
ATOM     72  C   UNL A   1      49.804  25.667  30.636  1.00  0.00     0.040 A 
ATOM     73  C   UNL A   1      49.107  25.043  32.853  1.00  0.00     0.040 A 
ATOM     74  F   UNL A   1      46.905  25.456  33.551  1.00  0.00    -0.206 F 
ATOM     75  C   UNL A   1      50.098  25.102  31.875  1.00  0.00     0.006 A 
ENDBRANCH  54  68
BRANCH  55  76
ATOM     76  C   UNL A   1      38.298  29.149  29.023  1.00  0.00     0.057 A 
ATOM     77  C   UNL A   1      37.288  29.147  29.994  1.00  0.00     0.134 A 
ATOM     78  C   UNL A   1      37.980  29.672  27.765  1.00  0.00     0.134 A 
ATOM     79  F   UNL A   1      37.525  28.651  31.217  1.00  0.00    -0.206 F 
ATOM     80  C   UNL A   1      36.018  29.660  29.728  1.00  0.00     0.040 A 
ATOM     81  C   UNL A   1      36.724  30.220  27.496  1.00  0.00     0.040 A 
ATOM     82  F   UNL A   1      38.908  29.716  26.797  1.00  0.00    -0.206 F 
ATOM     83  C   UNL A   1      35.740  30.215  28.482  1.00  0.00     0.006 A 
ENDBRANCH  55  76
BRANCH  67  84
ATOM     84  C   UNL A   1      43.568  32.061  32.497  1.00  0.00     0.057 A 
ATOM     85  C   UNL A   1      43.327  32.220  33.868  1.00  0.00     0.134 A 
ATOM     86  C   UNL A   1      43.942  33.200  31.771  1.00  0.00     0.134 A 
ATOM     87  F   UNL A   1      42.958  31.174  34.621  1.00  0.00    -0.206 F 
ATOM     88  C   UNL A   1      43.452  33.462  34.493  1.00  0.00     0.040 A 
ATOM     89  C   UNL A   1      44.101  34.441  32.392  1.00  0.00     0.040 A 
ATOM     90  F   UNL A   1      44.204  33.115  30.458  1.00  0.00    -0.206 F 
ATOM     91  C   UNL A   1      43.848  34.575  33.756  1.00  0.00     0.006 A 
ENDBRANCH  67  84
ENDBRANCH  41  42
ENDBRANCH  34  36
ENDBRANCH  33  34
ENDBRANCH  32  33
ENDBRANCH  31  32
ENDBRANCH   1  31
TORSDOF 17
ENDMDL
MODEL 2
REMARK VINA RESULT:      -9.1      5.750     12.434
REMARK SMILES C[C@@H]1CC[C@H](C)[N@H+]1Cc1cc2c(cc1Cl)C=C(C(=O)OCCOCCOC(=O)c1ccc(-c3c4nc(c(-c5c(F)cccc5F)c5ccc([nH]5)c(-c5c(F)cccc5F)c5nc(c(-c6c(F)cccc6F)c6ccc3[nH]6)C=C5)C=C4)cc1)[C@@H](C(F)(F)F)O2
REMARK SMILES IDX 23 1 22 2 21 3 20 4 18 5 19 6 17 7 9 8 10 9 14 10 11 11
REMARK SMILES IDX 13 12 15 13 12 14 88 15 16 16 83 17 8 18 7 19 6 20 5 21 4 22
REMARK SMILES IDX 3 23 2 24 1 26 84 27 85 28 86 29 87 30 24 31 25 32 26 33
REMARK SMILES IDX 27 34 28 35 29 36 30 37 82 38 31 39 81 40 32 41 33 42 34 43
REMARK SMILES IDX 75 44 35 45 80 46 74 47 76 48 36 49 79 50 73 51 72 52 37 54
REMARK SMILES IDX 63 55 46 56 62 57 47 58 50 59 61 60 77 61 48 62 49 63 60 65
REMARK SMILES IDX 78 66 51 67 38 68 39 69 44 70 40 71 41 72 43 73 45 74 42 75
REMARK SMILES IDX 64 76 65 77 70 78 66 79 67 80 69 81 71 82 68 83 52 84 53 85
REMARK SMILES IDX 58 86 54 87 55 88 57 89 59 90 56 91
REMARK H PARENT 7 25 76 53 50 64
REMARK Flexibility Score: inf
ROOT
ATOM      1  O   UNL A   1      34.595  32.300  28.156  1.00  0.00    -0.374 OA
ENDROOT
BRANCH   1   2
ATOM      2  C   UNL A   1      33.528  31.521  27.626  1.00  0.00     0.202 C 
BRANCH   2   3
ATOM      3  C   UNL A   1      33.872  30.192  26.946  1.00  0.00     0.261 C 
BRANCH   3   4
ATOM      4  O   UNL A   1      32.700  29.477  26.528  1.00  0.00    -0.460 OA
BRANCH   4   5
ATOM      5  C   UNL A   1      32.911  28.677  25.459  1.00  0.00     0.338 C 
ATOM      6  O   UNL A   1      33.328  29.017  24.363  1.00  0.00    -0.246 OA
BRANCH   5   7
ATOM      7  C   UNL A   1      32.697  27.266  25.821  1.00  0.00     0.087 C 
ATOM      8  C   UNL A   1      33.430  22.313  25.944  1.00  0.00     0.029 A 
ATOM      9  C   UNL A   1      32.320  23.144  26.232  1.00  0.00     0.058 A 
ATOM     10  C   UNL A   1      34.632  22.935  25.567  1.00  0.00     0.050 A 
ATOM     11  C   UNL A   1      32.431  24.537  26.193  1.00  0.00     0.128 A 
ATOM     12  C   UNL A   1      34.775  24.317  25.662  1.00  0.00     0.033 A 
ATOM     13  Cl  UNL A   1      35.948  22.103  24.814  1.00  0.00    -0.084 Cl
ATOM     14  C   UNL A   1      33.676  25.114  25.965  1.00  0.00     0.019 A 
ATOM     15  O   UNL A   1      31.296  25.281  26.387  1.00  0.00    -0.475 OA
ATOM     16  C   UNL A   1      33.821  26.550  25.906  1.00  0.00     0.027 C 
ATOM     17  C   UNL A   1      31.320  26.680  25.953  1.00  0.00     0.316 C 
BRANCH   8  18
ATOM     18  C   UNL A   1      33.277  20.803  26.051  1.00  0.00     0.301 C 
BRANCH  18  19
ATOM     19  N   UNL A   1      33.376  20.031  24.798  1.00  0.00    -0.327 N 
ATOM     20  C   UNL A   1      32.552  21.339  22.858  1.00  0.00     0.075 C 
ATOM     21  C   UNL A   1      32.274  20.209  23.841  1.00  0.00     0.181 C 
ATOM     22  C   UNL A   1      32.152  18.864  23.129  1.00  0.00     0.071 C 
ATOM     23  C   UNL A   1      32.533  17.881  24.213  1.00  0.00     0.071 C 
ATOM     24  C   UNL A   1      33.654  18.597  24.953  1.00  0.00     0.181 C 
ATOM     25  H   UNL A   1      34.205  20.470  24.396  1.00  0.00     0.348 HD
ATOM     26  C   UNL A   1      35.033  18.270  24.385  1.00  0.00     0.075 C 
ENDBRANCH  18  19
ENDBRANCH   8  18
BRANCH  17  27
ATOM     27  C   UNL A   1      30.508  26.854  24.660  1.00  0.00     0.430 C 
ATOM     28  F   UNL A   1      31.152  26.322  23.595  1.00  0.00    -0.167 F 
ATOM     29  F   UNL A   1      29.311  26.221  24.745  1.00  0.00    -0.167 F 
ATOM     30  F   UNL A   1      30.259  28.152  24.383  1.00  0.00    -0.167 F 
ENDBRANCH  17  27
ENDBRANCH   5   7
ENDBRANCH   4   5
ENDBRANCH   3   4
ENDBRANCH   2   3
ENDBRANCH   1   2
BRANCH   1  31
ATOM     31  C   UNL A   1      34.291  33.379  29.036  1.00  0.00     0.202 C 
BRANCH  31  32
ATOM     32  C   UNL A   1      34.502  33.189  30.545  1.00  0.00     0.261 C 
BRANCH  32  33
ATOM     33  O   UNL A   1      35.054  31.905  30.882  1.00  0.00    -0.460 OA
BRANCH  33  34
ATOM     34  C   UNL A   1      35.980  31.925  31.873  1.00  0.00     0.338 C 
ATOM     35  O   UNL A   1      35.783  32.073  33.070  1.00  0.00    -0.246 OA
BRANCH  34  36
ATOM     36  C   UNL A   1      37.288  31.529  31.322  1.00  0.00     0.060 A 
ATOM     37  C   UNL A   1      38.293  31.025  32.148  1.00  0.00     0.016 A 
ATOM     38  C   UNL A   1      37.487  31.637  29.939  1.00  0.00     0.016 A 
ATOM     39  C   UNL A   1      39.499  30.611  31.578  1.00  0.00     0.010 A 
ATOM     40  C   UNL A   1      38.693  31.226  29.374  1.00  0.00     0.010 A 
ATOM     41  C   UNL A   1      39.703  30.695  30.188  1.00  0.00    -0.014 A 
BRANCH  41  42
ATOM     42  C   UNL A   1      40.941  30.148  29.579  1.00  0.00     0.031 A 
ATOM     43  C   UNL A   1      41.028  28.712  29.156  1.00  0.00     0.074 A 
ATOM     44  C   UNL A   1      42.001  30.965  29.423  1.00  0.00     0.049 A 
ATOM     45  N   UNL A   1      42.022  28.082  28.581  1.00  0.00    -0.248 NA
ATOM     46  C   UNL A   1      39.849  27.873  29.413  1.00  0.00     0.031 C 
ATOM     47  C   UNL A   1      42.048  32.371  29.828  1.00  0.00     0.029 A 
ATOM     48  N   UNL A   1      43.240  30.731  28.884  1.00  0.00    -0.354 N 
ATOM     49  C   UNL A   1      41.579  26.781  28.377  1.00  0.00     0.074 A 
ATOM     50  C   UNL A   1      40.250  26.697  28.949  1.00  0.00     0.031 C 
ATOM     51  C   UNL A   1      43.248  32.879  29.507  1.00  0.00     0.029 A 
ATOM     52  C   UNL A   1      44.065  31.829  28.906  1.00  0.00     0.049 A 
ATOM     53  H   UNL A   1      43.512  29.860  28.516  1.00  0.00     0.167 HD
ATOM     54  C   UNL A   1      42.212  25.761  27.748  1.00  0.00     0.037 A 
ATOM     55  C   UNL A   1      45.339  31.969  28.497  1.00  0.00     0.037 A 
ATOM     56  C   UNL A   1      43.547  25.836  27.214  1.00  0.00     0.049 A 
ATOM     57  C   UNL A   1      46.045  30.792  27.877  1.00  0.00     0.074 A 
ATOM     58  C   UNL A   1      44.276  24.853  26.565  1.00  0.00     0.029 A 
ATOM     59  N   UNL A   1      44.363  26.957  27.277  1.00  0.00    -0.354 N 
ATOM     60  N   UNL A   1      45.592  29.586  27.633  1.00  0.00    -0.248 NA
ATOM     61  C   UNL A   1      47.442  30.999  27.470  1.00  0.00     0.031 C 
ATOM     62  C   UNL A   1      45.546  25.364  26.277  1.00  0.00     0.029 A 
ATOM     63  C   UNL A   1      45.590  26.683  26.694  1.00  0.00     0.049 A 
ATOM     64  H   UNL A   1      44.107  27.820  27.677  1.00  0.00     0.167 HD
ATOM     65  C   UNL A   1      46.632  28.907  27.010  1.00  0.00     0.074 A 
ATOM     66  C   UNL A   1      47.733  29.841  26.898  1.00  0.00     0.031 C 
ATOM     67  C   UNL A   1      46.673  27.626  26.572  1.00  0.00     0.037 A 
BRANCH  54  68
ATOM     68  C   UNL A   1      41.458  24.472  27.596  1.00  0.00     0.057 A 
ATOM     69  C   UNL A   1      41.775  23.349  28.370  1.00  0.00     0.134 A 
ATOM     70  C   UNL A   1      40.443  24.329  26.638  1.00  0.00     0.134 A 
ATOM     71  F   UNL A   1      42.743  23.412  29.297  1.00  0.00    -0.206 F 
ATOM     72  C   UNL A   1      41.113  22.132  28.197  1.00  0.00     0.040 A 
ATOM     73  C   UNL A   1      39.756  23.125  26.474  1.00  0.00     0.040 A 
ATOM     74  F   UNL A   1      40.085  25.368  25.868  1.00  0.00    -0.206 F 
ATOM     75  C   UNL A   1      40.096  22.019  27.252  1.00  0.00     0.006 A 
ENDBRANCH  54  68
BRANCH  55  76
ATOM     76  C   UNL A   1      46.050  33.264  28.662  1.00  0.00     0.057 A 
ATOM     77  C   UNL A   1      46.785  33.546  29.820  1.00  0.00     0.134 A 
ATOM     78  C   UNL A   1      46.070  34.218  27.638  1.00  0.00     0.134 A 
ATOM     79  F   UNL A   1      46.800  32.678  30.842  1.00  0.00    -0.206 F 
ATOM     80  C   UNL A   1      47.525  34.722  29.947  1.00  0.00     0.040 A 
ATOM     81  C   UNL A   1      46.834  35.383  27.738  1.00  0.00     0.040 A 
ATOM     82  F   UNL A   1      45.399  33.999  26.497  1.00  0.00    -0.206 F 
ATOM     83  C   UNL A   1      47.565  35.635  28.896  1.00  0.00     0.006 A 
ENDBRANCH  55  76
BRANCH  67  84
ATOM     84  C   UNL A   1      47.930  27.177  25.881  1.00  0.00     0.057 A 
ATOM     85  C   UNL A   1      48.984  26.618  26.616  1.00  0.00     0.134 A 
ATOM     86  C   UNL A   1      48.109  27.311  24.498  1.00  0.00     0.134 A 
ATOM     87  F   UNL A   1      48.883  26.468  27.945  1.00  0.00    -0.206 F 
ATOM     88  C   UNL A   1      50.168  26.208  26.001  1.00  0.00     0.040 A 
ATOM     89  C   UNL A   1      49.276  26.874  23.867  1.00  0.00     0.040 A 
ATOM     90  F   UNL A   1      47.134  27.823  23.732  1.00  0.00    -0.206 F 
ATOM     91  C   UNL A   1      50.313  26.328  24.621  1.00  0.00     0.006 A 
ENDBRANCH  67  84
ENDBRANCH  41  42
ENDBRANCH  34  36
ENDBRANCH  33  34
ENDBRANCH  32  33
ENDBRANCH  31  32
ENDBRANCH   1  31
TORSDOF 17
ENDMDL
MODEL 3
REMARK VINA RESULT:      -8.9      6.585     12.855
REMARK SMILES C[C@@H]1CC[C@H](C)[N@H+]1Cc1cc2c(cc1Cl)C=C(C(=O)OCCOCCOC(=O)c1ccc(-c3c4nc(c(-c5c(F)cccc5F)c5ccc([nH]5)c(-c5c(F)cccc5F)c5nc(c(-c6c(F)cccc6F)c6ccc3[nH]6)C=C5)C=C4)cc1)[C@@H](C(F)(F)F)O2
REMARK SMILES IDX 23 1 22 2 21 3 20 4 18 5 19 6 17 7 9 8 10 9 14 10 11 11
REMARK SMILES IDX 13 12 15 13 12 14 88 15 16 16 83 17 8 18 7 19 6 20 5 21 4 22
REMARK SMILES IDX 3 23 2 24 1 26 84 27 85 28 86 29 87 30 24 31 25 32 26 33
REMARK SMILES IDX 27 34 28 35 29 36 30 37 82 38 31 39 81 40 32 41 33 42 34 43
REMARK SMILES IDX 75 44 35 45 80 46 74 47 76 48 36 49 79 50 73 51 72 52 37 54
REMARK SMILES IDX 63 55 46 56 62 57 47 58 50 59 61 60 77 61 48 62 49 63 60 65
REMARK SMILES IDX 78 66 51 67 38 68 39 69 44 70 40 71 41 72 43 73 45 74 42 75
REMARK SMILES IDX 64 76 65 77 70 78 66 79 67 80 69 81 71 82 68 83 52 84 53 85
REMARK SMILES IDX 58 86 54 87 55 88 57 89 59 90 56 91
REMARK H PARENT 7 25 76 53 50 64
REMARK Flexibility Score: inf
ROOT
ATOM      1  O   UNL A   1      31.152  31.870  26.212  1.00  0.00    -0.374 OA
ENDROOT
BRANCH   1   2
ATOM      2  C   UNL A   1      31.406  30.613  25.594  1.00  0.00     0.202 C 
BRANCH   2   3
ATOM      3  C   UNL A   1      32.758  29.940  25.854  1.00  0.00     0.261 C 
BRANCH   3   4
ATOM      4  O   UNL A   1      32.620  28.543  26.153  1.00  0.00    -0.460 OA
BRANCH   4   5
ATOM      5  C   UNL A   1      33.040  27.735  25.153  1.00  0.00     0.338 C 
ATOM      6  O   UNL A   1      33.716  28.059  24.188  1.00  0.00    -0.246 OA
BRANCH   5   7
ATOM      7  C   UNL A   1      32.688  26.335  25.438  1.00  0.00     0.087 C 
ATOM      8  C   UNL A   1      33.179  21.358  25.712  1.00  0.00     0.029 A 
ATOM      9  C   UNL A   1      32.064  22.232  25.711  1.00  0.00     0.058 A 
ATOM     10  C   UNL A   1      34.460  21.933  25.660  1.00  0.00     0.050 A 
ATOM     11  C   UNL A   1      32.234  23.619  25.711  1.00  0.00     0.128 A 
ATOM     12  C   UNL A   1      34.626  23.309  25.798  1.00  0.00     0.033 A 
ATOM     13  Cl  UNL A   1      35.894  21.049  25.265  1.00  0.00    -0.084 Cl
ATOM     14  C   UNL A   1      33.516  24.148  25.814  1.00  0.00     0.019 A 
ATOM     15  O   UNL A   1      31.116  24.406  25.611  1.00  0.00    -0.475 OA
ATOM     16  C   UNL A   1      33.725  25.577  25.804  1.00  0.00     0.027 C 
ATOM     17  C   UNL A   1      31.303  25.802  25.207  1.00  0.00     0.316 C 
BRANCH   8  18
ATOM     18  C   UNL A   1      32.948  19.855  25.765  1.00  0.00     0.301 C 
BRANCH  18  19
ATOM     19  N   UNL A   1      33.253  19.088  24.544  1.00  0.00    -0.327 N 
ATOM     20  C   UNL A   1      32.269  20.154  22.532  1.00  0.00     0.075 C 
ATOM     21  C   UNL A   1      32.180  19.016  23.540  1.00  0.00     0.181 C 
ATOM     22  C   UNL A   1      32.362  17.657  22.869  1.00  0.00     0.071 C 
ATOM     23  C   UNL A   1      32.885  16.798  23.999  1.00  0.00     0.071 C 
ATOM     24  C   UNL A   1      33.807  17.744  24.756  1.00  0.00     0.181 C 
ATOM     25  H   UNL A   1      33.994  19.675  24.158  1.00  0.00     0.348 HD
ATOM     26  C   UNL A   1      35.246  17.687  24.251  1.00  0.00     0.075 C 
ENDBRANCH  18  19
ENDBRANCH   8  18
BRANCH  17  27
ATOM     27  C   UNL A   1      30.857  26.002  23.751  1.00  0.00     0.430 C 
ATOM     28  F   UNL A   1      31.824  25.627  22.880  1.00  0.00    -0.167 F 
ATOM     29  F   UNL A   1      29.765  25.250  23.465  1.00  0.00    -0.167 F 
ATOM     30  F   UNL A   1      30.542  27.289  23.485  1.00  0.00    -0.167 F 
ENDBRANCH  17  27
ENDBRANCH   5   7
ENDBRANCH   4   5
ENDBRANCH   3   4
ENDBRANCH   2   3
ENDBRANCH   1   2
BRANCH   1  31
ATOM     31  C   UNL A   1      32.028  32.323  27.241  1.00  0.00     0.202 C 
BRANCH  31  32
ATOM     32  C   UNL A   1      32.526  33.775  27.207  1.00  0.00     0.261 C 
BRANCH  32  33
ATOM     33  O   UNL A   1      32.152  34.529  28.372  1.00  0.00    -0.460 OA
BRANCH  33  34
ATOM     34  C   UNL A   1      33.134  35.314  28.883  1.00  0.00     0.338 C 
ATOM     35  O   UNL A   1      33.080  36.512  29.118  1.00  0.00    -0.246 OA
BRANCH  34  36
ATOM     36  C   UNL A   1      34.253  34.464  29.323  1.00  0.00     0.060 A 
ATOM     37  C   UNL A   1      35.514  34.574  28.736  1.00  0.00     0.016 A 
ATOM     38  C   UNL A   1      34.032  33.564  30.375  1.00  0.00     0.016 A 
ATOM     39  C   UNL A   1      36.562  33.788  29.220  1.00  0.00     0.010 A 
ATOM     40  C   UNL A   1      35.079  32.778  30.853  1.00  0.00     0.010 A 
ATOM     41  C   UNL A   1      36.357  32.896  30.288  1.00  0.00    -0.014 A 
BRANCH  41  42
ATOM     42  C   UNL A   1      37.501  32.150  30.870  1.00  0.00     0.031 A 
ATOM     43  C   UNL A   1      38.003  32.453  32.250  1.00  0.00     0.074 A 
ATOM     44  C   UNL A   1      38.096  31.196  30.128  1.00  0.00     0.049 A 
ATOM     45  N   UNL A   1      38.970  31.876  32.920  1.00  0.00    -0.248 NA
ATOM     46  C   UNL A   1      37.338  33.546  32.973  1.00  0.00     0.031 C 
ATOM     47  C   UNL A   1      37.718  30.835  28.760  1.00  0.00     0.029 A 
ATOM     48  N   UNL A   1      39.141  30.357  30.419  1.00  0.00    -0.354 N 
ATOM     49  C   UNL A   1      39.008  32.512  34.153  1.00  0.00     0.074 A 
ATOM     50  C   UNL A   1      38.011  33.562  34.114  1.00  0.00     0.031 C 
ATOM     51  C   UNL A   1      38.509  29.837  28.337  1.00  0.00     0.029 A 
ATOM     52  C   UNL A   1      39.468  29.511  29.387  1.00  0.00     0.049 A 
ATOM     53  H   UNL A   1      39.611  30.361  31.282  1.00  0.00     0.167 HD
ATOM     54  C   UNL A   1      39.786  32.229  35.227  1.00  0.00     0.037 A 
ATOM     55  C   UNL A   1      40.440  28.583  29.297  1.00  0.00     0.037 A 
ATOM     56  C   UNL A   1      40.803  31.209  35.250  1.00  0.00     0.049 A 
ATOM     57  C   UNL A   1      41.343  28.349  30.479  1.00  0.00     0.074 A 
ATOM     58  C   UNL A   1      41.646  30.852  36.289  1.00  0.00     0.029 A 
ATOM     59  N   UNL A   1      41.125  30.388  34.180  1.00  0.00    -0.354 N 
ATOM     60  N   UNL A   1      41.327  28.915  31.662  1.00  0.00    -0.248 NA
ATOM     61  C   UNL A   1      42.399  27.340  30.314  1.00  0.00     0.031 C 
ATOM     62  C   UNL A   1      42.508  29.849  35.833  1.00  0.00     0.029 A 
ATOM     63  C   UNL A   1      42.164  29.539  34.529  1.00  0.00     0.049 A 
ATOM     64  H   UNL A   1      40.681  30.405  33.300  1.00  0.00     0.167 HD
ATOM     65  C   UNL A   1      42.341  28.304  32.390  1.00  0.00     0.074 A 
ATOM     66  C   UNL A   1      42.939  27.311  31.522  1.00  0.00     0.031 C 
ATOM     67  C   UNL A   1      42.741  28.543  33.662  1.00  0.00     0.037 A 
BRANCH  54  68
ATOM     68  C   UNL A   1      39.558  33.033  36.474  1.00  0.00     0.057 A 
ATOM     69  C   UNL A   1      40.299  34.193  36.736  1.00  0.00     0.134 A 
ATOM     70  C   UNL A   1      38.633  32.626  37.445  1.00  0.00     0.134 A 
ATOM     71  F   UNL A   1      41.209  34.633  35.855  1.00  0.00    -0.206 F 
ATOM     72  C   UNL A   1      40.129  34.916  37.918  1.00  0.00     0.040 A 
ATOM     73  C   UNL A   1      38.435  33.356  38.619  1.00  0.00     0.040 A 
ATOM     74  F   UNL A   1      37.886  31.528  37.254  1.00  0.00    -0.206 F 
ATOM     75  C   UNL A   1      39.190  34.502  38.860  1.00  0.00     0.006 A 
ENDBRANCH  54  68
BRANCH  55  76
ATOM     76  C   UNL A   1      40.630  27.805  28.045  1.00  0.00     0.057 A 
ATOM     77  C   UNL A   1      41.447  28.280  27.012  1.00  0.00     0.134 A 
ATOM     78  C   UNL A   1      40.060  26.537  27.884  1.00  0.00     0.134 A 
ATOM     79  F   UNL A   1      42.017  29.491  27.101  1.00  0.00    -0.206 F 
ATOM     80  C   UNL A   1      41.700  27.518  25.871  1.00  0.00     0.040 A 
ATOM     81  C   UNL A   1      40.332  25.750  26.763  1.00  0.00     0.040 A 
ATOM     82  F   UNL A   1      39.280  26.019  28.845  1.00  0.00    -0.206 F 
ATOM     83  C   UNL A   1      41.156  26.241  25.754  1.00  0.00     0.006 A 
ENDBRANCH  55  76
BRANCH  67  84
ATOM     84  C   UNL A   1      43.842  27.679  34.209  1.00  0.00     0.057 A 
ATOM     85  C   UNL A   1      43.547  26.452  34.817  1.00  0.00     0.134 A 
ATOM     86  C   UNL A   1      45.189  28.062  34.152  1.00  0.00     0.134 A 
ATOM     87  F   UNL A   1      42.278  26.028  34.913  1.00  0.00    -0.206 F 
ATOM     88  C   UNL A   1      44.549  25.639  35.348  1.00  0.00     0.040 A 
ATOM     89  C   UNL A   1      46.203  27.241  34.651  1.00  0.00     0.040 A 
ATOM     90  F   UNL A   1      45.544  29.217  33.568  1.00  0.00    -0.206 F 
ATOM     91  C   UNL A   1      45.882  26.029  35.258  1.00  0.00     0.006 A 
ENDBRANCH  67  84
ENDBRANCH  41  42
ENDBRANCH  34  36
ENDBRANCH  33  34
ENDBRANCH  32  33
ENDBRANCH  31  32
ENDBRANCH   1  31
TORSDOF 17
ENDMDL
