MODEL 1
REMARK VINA RESULT:      -8.6      0.000      0.000
REMARK SMILES COc1ncccc1C[C@H](C(=O)OCCOCCOC(=O)c1ccc(-c2c3nc(c(-c4c(F)cccc4F)c4ccc([nH]4)c(-c4c(F)cccc4F)c4nc(c(-c5c(F)cccc5F)c5ccc2[nH]5)C=C4)C=C3)cc1)c1ccc(F)cc1
REMARK SMILES IDX 15 1 14 2 13 3 11 4 12 5 10 6 9 7 8 8 3 9 4 10 5 11 7 12
REMARK SMILES IDX 6 13 2 14 1 15 76 16 77 17 82 18 78 19 81 20 79 21 80 22
REMARK SMILES IDX 16 23 17 24 18 25 19 26 20 27 21 28 22 29 23 30 75 31 24 32
REMARK SMILES IDX 74 33 25 34 26 35 27 36 68 37 28 38 73 39 67 40 69 41 29 42
REMARK SMILES IDX 72 43 66 44 65 45 30 47 56 48 39 49 55 50 40 51 43 52 54 53
REMARK SMILES IDX 70 54 41 55 42 56 53 58 71 59 44 60 31 61 32 62 37 63 33 64
REMARK SMILES IDX 34 65 36 66 38 67 35 68 57 69 58 70 63 71 59 72 60 73 62 74
REMARK SMILES IDX 64 75 61 76 45 77 46 78 51 79 47 80 48 81 50 82 52 83 49 84
REMARK H PARENT 69 46 43 57
REMARK Flexibility Score: inf
ROOT
ATOM      1  C   UNL A   1      35.272  34.584  34.268  1.00  0.00     0.202 C 
ENDROOT
BRANCH   1   2
ATOM      2  C   UNL A   1      36.484  33.649  34.270  1.00  0.00     0.261 C 
BRANCH   2   3
ATOM      3  O   UNL A   1      36.741  33.061  35.553  1.00  0.00    -0.463 OA
BRANCH   3   4
ATOM      4  C   UNL A   1      37.674  32.068  35.530  1.00  0.00     0.313 C 
ATOM      5  O   UNL A   1      37.736  31.175  36.370  1.00  0.00    -0.252 OA
BRANCH   4   6
ATOM      6  C   UNL A   1      38.564  32.106  34.278  1.00  0.00     0.134 C 
BRANCH   6   7
ATOM      7  C   UNL A   1      40.014  32.603  34.516  1.00  0.00     0.061 C 
BRANCH   7   8
ATOM      8  C   UNL A   1      40.104  33.746  35.508  1.00  0.00     0.015 A 
ATOM      9  C   UNL A   1      40.537  33.542  36.819  1.00  0.00     0.216 A 
ATOM     10  N   UNL A   1      40.633  34.508  37.759  1.00  0.00    -0.222 NA
ATOM     11  C   UNL A   1      40.262  35.750  37.382  1.00  0.00     0.115 A 
ATOM     12  C   UNL A   1      39.755  35.053  35.154  1.00  0.00     0.011 A 
ATOM     13  C   UNL A   1      39.822  36.069  36.106  1.00  0.00     0.021 A 
BRANCH   9  14
ATOM     14  O   UNL A   1      40.775  32.251  37.223  1.00  0.00    -0.481 OA
ATOM     15  C   UNL A   1      41.912  32.200  38.075  1.00  0.00     0.280 C 
ENDBRANCH   9  14
ENDBRANCH   7   8
ENDBRANCH   6   7
BRANCH   6  16
ATOM     16  C   UNL A   1      38.521  30.718  33.638  1.00  0.00    -0.033 A 
ATOM     17  C   UNL A   1      37.319  30.214  33.108  1.00  0.00     0.007 A 
ATOM     18  C   UNL A   1      39.708  29.991  33.440  1.00  0.00     0.007 A 
ATOM     19  C   UNL A   1      37.304  29.005  32.415  1.00  0.00     0.039 A 
ATOM     20  C   UNL A   1      39.686  28.774  32.760  1.00  0.00     0.039 A 
ATOM     21  C   UNL A   1      38.485  28.295  32.252  1.00  0.00     0.123 A 
ATOM     22  F   UNL A   1      38.470  27.137  31.579  1.00  0.00    -0.207 F 
ENDBRANCH   6  16
ENDBRANCH   4   6
ENDBRANCH   3   4
ENDBRANCH   2   3
ENDBRANCH   1   2
BRANCH   1  23
ATOM     23  O   UNL A   1      35.266  35.669  33.348  1.00  0.00    -0.374 OA
BRANCH  23  24
ATOM     24  C   UNL A   1      34.076  36.444  33.210  1.00  0.00     0.202 C 
BRANCH  24  25
ATOM     25  C   UNL A   1      33.275  36.300  31.911  1.00  0.00     0.261 C 
BRANCH  25  26
ATOM     26  O   UNL A   1      33.350  34.968  31.370  1.00  0.00    -0.460 OA
BRANCH  26  27
ATOM     27  C   UNL A   1      33.671  34.904  30.058  1.00  0.00     0.338 C 
ATOM     28  O   UNL A   1      33.203  35.570  29.142  1.00  0.00    -0.246 OA
BRANCH  27  29
ATOM     29  C   UNL A   1      34.838  34.027  29.871  1.00  0.00     0.060 A 
ATOM     30  C   UNL A   1      35.117  33.092  30.878  1.00  0.00     0.016 A 
ATOM     31  C   UNL A   1      35.697  34.181  28.782  1.00  0.00     0.016 A 
ATOM     32  C   UNL A   1      36.287  32.340  30.823  1.00  0.00     0.010 A 
ATOM     33  C   UNL A   1      36.877  33.434  28.735  1.00  0.00     0.010 A 
ATOM     34  C   UNL A   1      37.194  32.541  29.775  1.00  0.00    -0.014 A 
BRANCH  34  35
ATOM     35  C   UNL A   1      38.545  31.940  29.862  1.00  0.00     0.031 A 
ATOM     36  C   UNL A   1      39.650  32.730  30.506  1.00  0.00     0.074 A 
ATOM     37  C   UNL A   1      38.775  30.697  29.408  1.00  0.00     0.049 A 
ATOM     38  N   UNL A   1      40.912  32.423  30.655  1.00  0.00    -0.248 NA
ATOM     39  C   UNL A   1      39.280  34.044  31.057  1.00  0.00     0.031 C 
ATOM     40  C   UNL A   1      37.775  29.819  28.804  1.00  0.00     0.029 A 
ATOM     41  N   UNL A   1      39.933  29.961  29.381  1.00  0.00    -0.354 N 
ATOM     42  C   UNL A   1      41.487  33.501  31.314  1.00  0.00     0.074 A 
ATOM     43  C   UNL A   1      40.445  34.486  31.509  1.00  0.00     0.031 C 
ATOM     44  C   UNL A   1      38.367  28.666  28.450  1.00  0.00     0.029 A 
ATOM     45  C   UNL A   1      39.791  28.738  28.776  1.00  0.00     0.049 A 
ATOM     46  H   UNL A   1      40.784  30.281  29.759  1.00  0.00     0.167 HD
ATOM     47  C   UNL A   1      42.767  33.655  31.729  1.00  0.00     0.037 A 
ATOM     48  C   UNL A   1      40.711  27.795  28.496  1.00  0.00     0.037 A 
ATOM     49  C   UNL A   1      43.803  32.676  31.531  1.00  0.00     0.049 A 
ATOM     50  C   UNL A   1      42.142  28.013  28.908  1.00  0.00     0.074 A 
ATOM     51  C   UNL A   1      45.132  32.738  31.912  1.00  0.00     0.029 A 
ATOM     52  N   UNL A   1      43.625  31.458  30.892  1.00  0.00    -0.354 N 
ATOM     53  N   UNL A   1      42.675  29.035  29.534  1.00  0.00    -0.248 NA
ATOM     54  C   UNL A   1      43.098  26.946  28.581  1.00  0.00     0.031 C 
ATOM     55  C   UNL A   1      45.767  31.572  31.468  1.00  0.00     0.029 A 
ATOM     56  C   UNL A   1      44.823  30.766  30.853  1.00  0.00     0.049 A 
ATOM     57  H   UNL A   1      42.773  31.134  30.522  1.00  0.00     0.167 HD
ATOM     58  C   UNL A   1      44.020  28.725  29.694  1.00  0.00     0.074 A 
ATOM     59  C   UNL A   1      44.219  27.414  29.111  1.00  0.00     0.031 C 
ATOM     60  C   UNL A   1      45.002  29.460  30.271  1.00  0.00     0.037 A 
BRANCH  47  61
ATOM     61  C   UNL A   1      43.120  34.937  32.420  1.00  0.00     0.057 A 
ATOM     62  C   UNL A   1      43.385  36.112  31.704  1.00  0.00     0.134 A 
ATOM     63  C   UNL A   1      43.164  35.008  33.818  1.00  0.00     0.134 A 
ATOM     64  F   UNL A   1      43.376  36.108  30.363  1.00  0.00    -0.206 F 
ATOM     65  C   UNL A   1      43.700  37.307  32.354  1.00  0.00     0.040 A 
ATOM     66  C   UNL A   1      43.454  36.201  34.479  1.00  0.00     0.040 A 
ATOM     67  F   UNL A   1      42.918  33.919  34.562  1.00  0.00    -0.206 F 
ATOM     68  C   UNL A   1      43.728  37.354  33.747  1.00  0.00     0.006 A 
ENDBRANCH  47  61
BRANCH  48  69
ATOM     69  C   UNL A   1      40.307  26.565  27.771  1.00  0.00     0.057 A 
ATOM     70  C   UNL A   1      39.542  25.572  28.392  1.00  0.00     0.134 A 
ATOM     71  C   UNL A   1      40.683  26.353  26.440  1.00  0.00     0.134 A 
ATOM     72  F   UNL A   1      39.171  25.708  29.674  1.00  0.00    -0.206 F 
ATOM     73  C   UNL A   1      39.173  24.406  27.717  1.00  0.00     0.040 A 
ATOM     74  C   UNL A   1      40.302  25.204  25.746  1.00  0.00     0.040 A 
ATOM     75  F   UNL A   1      41.416  27.270  25.789  1.00  0.00    -0.206 F 
ATOM     76  C   UNL A   1      39.549  24.224  26.388  1.00  0.00     0.006 A 
ENDBRANCH  48  69
BRANCH  60  77
ATOM     77  C   UNL A   1      46.373  28.853  30.329  1.00  0.00     0.057 A 
ATOM     78  C   UNL A   1      47.331  29.097  29.336  1.00  0.00     0.134 A 
ATOM     79  C   UNL A   1      46.755  28.057  31.416  1.00  0.00     0.134 A 
ATOM     80  F   UNL A   1      47.025  29.842  28.265  1.00  0.00    -0.206 F 
ATOM     81  C   UNL A   1      48.614  28.552  29.414  1.00  0.00     0.040 A 
ATOM     82  C   UNL A   1      48.042  27.528  31.517  1.00  0.00     0.040 A 
ATOM     83  F   UNL A   1      45.888  27.795  32.406  1.00  0.00    -0.206 F 
ATOM     84  C   UNL A   1      48.975  27.772  30.511  1.00  0.00     0.006 A 
ENDBRANCH  60  77
ENDBRANCH  34  35
ENDBRANCH  27  29
ENDBRANCH  26  27
ENDBRANCH  25  26
ENDBRANCH  24  25
ENDBRANCH  23  24
ENDBRANCH   1  23
TORSDOF 18
ENDMDL
MODEL 2
REMARK VINA RESULT:      -8.6      5.404     11.494
REMARK SMILES COc1ncccc1C[C@H](C(=O)OCCOCCOC(=O)c1ccc(-c2c3nc(c(-c4c(F)cccc4F)c4ccc([nH]4)c(-c4c(F)cccc4F)c4nc(c(-c5c(F)cccc5F)c5ccc2[nH]5)C=C4)C=C3)cc1)c1ccc(F)cc1
REMARK SMILES IDX 15 1 14 2 13 3 11 4 12 5 10 6 9 7 8 8 3 9 4 10 5 11 7 12
REMARK SMILES IDX 6 13 2 14 1 15 76 16 77 17 82 18 78 19 81 20 79 21 80 22
REMARK SMILES IDX 16 23 17 24 18 25 19 26 20 27 21 28 22 29 23 30 75 31 24 32
REMARK SMILES IDX 74 33 25 34 26 35 27 36 68 37 28 38 73 39 67 40 69 41 29 42
REMARK SMILES IDX 72 43 66 44 65 45 30 47 56 48 39 49 55 50 40 51 43 52 54 53
REMARK SMILES IDX 70 54 41 55 42 56 53 58 71 59 44 60 31 61 32 62 37 63 33 64
REMARK SMILES IDX 34 65 36 66 38 67 35 68 57 69 58 70 63 71 59 72 60 73 62 74
REMARK SMILES IDX 64 75 61 76 45 77 46 78 51 79 47 80 48 81 50 82 52 83 49 84
REMARK H PARENT 69 46 43 57
REMARK Flexibility Score: inf
ROOT
ATOM      1  C   UNL A   1      45.162  22.247  24.181  1.00  0.00     0.202 C 
ENDROOT
BRANCH   1   2
ATOM      2  C   UNL A   1      45.492  22.658  25.618  1.00  0.00     0.261 C 
BRANCH   2   3
ATOM      3  O   UNL A   1      46.706  23.415  25.725  1.00  0.00    -0.463 OA
BRANCH   3   4
ATOM      4  C   UNL A   1      47.026  24.109  24.597  1.00  0.00     0.313 C 
ATOM      5  O   UNL A   1      47.238  23.578  23.510  1.00  0.00    -0.252 OA
BRANCH   4   6
ATOM      6  C   UNL A   1      46.974  25.633  24.790  1.00  0.00     0.134 C 
BRANCH   6   7
ATOM      7  C   UNL A   1      46.318  26.106  26.114  1.00  0.00     0.061 C 
BRANCH   7   8
ATOM      8  C   UNL A   1      44.978  26.788  25.914  1.00  0.00     0.015 A 
ATOM      9  C   UNL A   1      44.758  28.101  26.332  1.00  0.00     0.216 A 
ATOM     10  N   UNL A   1      43.592  28.769  26.196  1.00  0.00    -0.222 NA
ATOM     11  C   UNL A   1      42.574  28.088  25.627  1.00  0.00     0.115 A 
ATOM     12  C   UNL A   1      43.906  26.131  25.305  1.00  0.00     0.011 A 
ATOM     13  C   UNL A   1      42.681  26.784  25.170  1.00  0.00     0.021 A 
BRANCH   9  14
ATOM     14  O   UNL A   1      45.759  28.727  27.034  1.00  0.00    -0.481 OA
ATOM     15  C   UNL A   1      46.243  29.852  26.311  1.00  0.00     0.280 C 
ENDBRANCH   9  14
ENDBRANCH   7   8
ENDBRANCH   6   7
BRANCH   6  16
ATOM     16  C   UNL A   1      48.395  26.170  24.617  1.00  0.00    -0.033 A 
ATOM     17  C   UNL A   1      49.402  25.829  25.538  1.00  0.00     0.007 A 
ATOM     18  C   UNL A   1      48.745  26.888  23.460  1.00  0.00     0.007 A 
ATOM     19  C   UNL A   1      50.723  26.214  25.315  1.00  0.00     0.039 A 
ATOM     20  C   UNL A   1      50.065  27.285  23.248  1.00  0.00     0.039 A 
ATOM     21  C   UNL A   1      51.041  26.942  24.176  1.00  0.00     0.123 A 
ATOM     22  F   UNL A   1      52.312  27.305  23.960  1.00  0.00    -0.207 F 
ENDBRANCH   6  16
ENDBRANCH   4   6
ENDBRANCH   3   4
ENDBRANCH   2   3
ENDBRANCH   1   2
BRANCH   1  23
ATOM     23  O   UNL A   1      44.534  20.987  23.973  1.00  0.00    -0.374 OA
BRANCH  23  24
ATOM     24  C   UNL A   1      44.784  19.936  24.904  1.00  0.00     0.202 C 
BRANCH  24  25
ATOM     25  C   UNL A   1      43.705  18.861  25.077  1.00  0.00     0.261 C 
BRANCH  25  26
ATOM     26  O   UNL A   1      42.930  19.054  26.275  1.00  0.00    -0.460 OA
BRANCH  26  27
ATOM     27  C   UNL A   1      41.721  19.629  26.083  1.00  0.00     0.338 C 
ATOM     28  O   UNL A   1      40.714  19.110  25.616  1.00  0.00    -0.246 OA
BRANCH  27  29
ATOM     29  C   UNL A   1      41.698  20.964  26.701  1.00  0.00     0.060 A 
ATOM     30  C   UNL A   1      41.882  22.072  25.863  1.00  0.00     0.016 A 
ATOM     31  C   UNL A   1      41.595  21.124  28.084  1.00  0.00     0.016 A 
ATOM     32  C   UNL A   1      42.015  23.344  26.412  1.00  0.00     0.010 A 
ATOM     33  C   UNL A   1      41.742  22.400  28.634  1.00  0.00     0.010 A 
ATOM     34  C   UNL A   1      41.991  23.507  27.802  1.00  0.00    -0.014 A 
BRANCH  34  35
ATOM     35  C   UNL A   1      42.395  24.807  28.385  1.00  0.00     0.031 A 
ATOM     36  C   UNL A   1      41.366  25.895  28.519  1.00  0.00     0.074 A 
ATOM     37  C   UNL A   1      43.651  25.004  28.823  1.00  0.00     0.049 A 
ATOM     38  N   UNL A   1      41.503  27.118  28.960  1.00  0.00    -0.248 NA
ATOM     39  C   UNL A   1      39.996  25.555  28.099  1.00  0.00     0.031 C 
ATOM     40  C   UNL A   1      44.723  24.011  28.786  1.00  0.00     0.029 A 
ATOM     41  N   UNL A   1      44.234  26.114  29.380  1.00  0.00    -0.354 N 
ATOM     42  C   UNL A   1      40.243  27.694  28.871  1.00  0.00     0.074 A 
ATOM     43  C   UNL A   1      39.359  26.698  28.303  1.00  0.00     0.031 C 
ATOM     44  C   UNL A   1      45.843  24.564  29.285  1.00  0.00     0.029 A 
ATOM     45  C   UNL A   1      45.570  25.955  29.647  1.00  0.00     0.049 A 
ATOM     46  H   UNL A   1      43.741  26.944  29.570  1.00  0.00     0.167 HD
ATOM     47  C   UNL A   1      39.853  28.938  29.237  1.00  0.00     0.037 A 
ATOM     48  C   UNL A   1      46.475  26.839  30.110  1.00  0.00     0.037 A 
ATOM     49  C   UNL A   1      40.734  29.928  29.798  1.00  0.00     0.049 A 
ATOM     50  C   UNL A   1      46.035  28.237  30.450  1.00  0.00     0.074 A 
ATOM     51  C   UNL A   1      40.437  31.218  30.200  1.00  0.00     0.029 A 
ATOM     52  N   UNL A   1      42.088  29.736  30.031  1.00  0.00    -0.354 N 
ATOM     53  N   UNL A   1      44.840  28.771  30.365  1.00  0.00    -0.248 NA
ATOM     54  C   UNL A   1      47.066  29.153  30.956  1.00  0.00     0.031 C 
ATOM     55  C   UNL A   1      41.621  31.821  30.641  1.00  0.00     0.029 A 
ATOM     56  C   UNL A   1      42.644  30.890  30.557  1.00  0.00     0.049 A 
ATOM     57  H   UNL A   1      42.580  28.903  29.851  1.00  0.00     0.167 HD
ATOM     58  C   UNL A   1      44.972  30.075  30.825  1.00  0.00     0.074 A 
ATOM     59  C   UNL A   1      46.360  30.248  31.201  1.00  0.00     0.031 C 
ATOM     60  C   UNL A   1      44.028  31.043  30.928  1.00  0.00     0.037 A 
BRANCH  47  61
ATOM     61  C   UNL A   1      38.415  29.302  29.023  1.00  0.00     0.057 A 
ATOM     62  C   UNL A   1      37.491  29.304  30.077  1.00  0.00     0.134 A 
ATOM     63  C   UNL A   1      37.955  29.687  27.759  1.00  0.00     0.134 A 
ATOM     64  F   UNL A   1      37.863  28.930  31.309  1.00  0.00    -0.206 F 
ATOM     65  C   UNL A   1      36.155  29.659  29.874  1.00  0.00     0.040 A 
ATOM     66  C   UNL A   1      36.628  30.065  27.548  1.00  0.00     0.040 A 
ATOM     67  F   UNL A   1      38.790  29.708  26.708  1.00  0.00    -0.206 F 
ATOM     68  C   UNL A   1      35.723  30.047  28.607  1.00  0.00     0.006 A 
ENDBRANCH  47  61
BRANCH  48  69
ATOM     69  C   UNL A   1      47.893  26.430  30.260  1.00  0.00     0.057 A 
ATOM     70  C   UNL A   1      48.344  25.769  31.407  1.00  0.00     0.134 A 
ATOM     71  C   UNL A   1      48.833  26.696  29.257  1.00  0.00     0.134 A 
ATOM     72  F   UNL A   1      47.494  25.507  32.412  1.00  0.00    -0.206 F 
ATOM     73  C   UNL A   1      49.681  25.396  31.558  1.00  0.00     0.040 A 
ATOM     74  C   UNL A   1      50.168  26.309  29.384  1.00  0.00     0.040 A 
ATOM     75  F   UNL A   1      48.463  27.325  28.132  1.00  0.00    -0.206 F 
ATOM     76  C   UNL A   1      50.595  25.661  30.541  1.00  0.00     0.006 A 
ENDBRANCH  48  69
BRANCH  60  77
ATOM     77  C   UNL A   1      44.456  32.365  31.495  1.00  0.00     0.057 A 
ATOM     78  C   UNL A   1      44.897  33.412  30.675  1.00  0.00     0.134 A 
ATOM     79  C   UNL A   1      44.376  32.610  32.872  1.00  0.00     0.134 A 
ATOM     80  F   UNL A   1      45.005  33.238  29.350  1.00  0.00    -0.206 F 
ATOM     81  C   UNL A   1      45.265  34.648  31.209  1.00  0.00     0.040 A 
ATOM     82  C   UNL A   1      44.717  33.849  33.414  1.00  0.00     0.040 A 
ATOM     83  F   UNL A   1      43.951  31.652  33.709  1.00  0.00    -0.206 F 
ATOM     84  C   UNL A   1      45.167  34.872  32.581  1.00  0.00     0.006 A 
ENDBRANCH  60  77
ENDBRANCH  34  35
ENDBRANCH  27  29
ENDBRANCH  26  27
ENDBRANCH  25  26
ENDBRANCH  24  25
ENDBRANCH  23  24
ENDBRANCH   1  23
TORSDOF 18
ENDMDL
MODEL 3
REMARK VINA RESULT:      -8.3      0.741      6.245
REMARK SMILES COc1ncccc1C[C@H](C(=O)OCCOCCOC(=O)c1ccc(-c2c3nc(c(-c4c(F)cccc4F)c4ccc([nH]4)c(-c4c(F)cccc4F)c4nc(c(-c5c(F)cccc5F)c5ccc2[nH]5)C=C4)C=C3)cc1)c1ccc(F)cc1
REMARK SMILES IDX 15 1 14 2 13 3 11 4 12 5 10 6 9 7 8 8 3 9 4 10 5 11 7 12
REMARK SMILES IDX 6 13 2 14 1 15 76 16 77 17 82 18 78 19 81 20 79 21 80 22
REMARK SMILES IDX 16 23 17 24 18 25 19 26 20 27 21 28 22 29 23 30 75 31 24 32
REMARK SMILES IDX 74 33 25 34 26 35 27 36 68 37 28 38 73 39 67 40 69 41 29 42
REMARK SMILES IDX 72 43 66 44 65 45 30 47 56 48 39 49 55 50 40 51 43 52 54 53
REMARK SMILES IDX 70 54 41 55 42 56 53 58 71 59 44 60 31 61 32 62 37 63 33 64
REMARK SMILES IDX 34 65 36 66 38 67 35 68 57 69 58 70 63 71 59 72 60 73 62 74
REMARK SMILES IDX 64 75 61 76 45 77 46 78 51 79 47 80 48 81 50 82 52 83 49 84
REMARK H PARENT 69 46 43 57
REMARK Flexibility Score: inf
ROOT
ATOM      1  C   UNL A   1      35.454  34.598  34.594  1.00  0.00     0.202 C 
ENDROOT
BRANCH   1   2
ATOM      2  C   UNL A   1      36.729  33.772  34.784  1.00  0.00     0.261 C 
BRANCH   2   3
ATOM      3  O   UNL A   1      36.687  32.928  35.944  1.00  0.00    -0.463 OA
BRANCH   3   4
ATOM      4  C   UNL A   1      37.661  31.976  35.971  1.00  0.00     0.313 C 
ATOM      5  O   UNL A   1      37.611  30.973  36.678  1.00  0.00    -0.252 OA
BRANCH   4   6
ATOM      6  C   UNL A   1      38.772  32.219  34.938  1.00  0.00     0.134 C 
BRANCH   6   7
ATOM      7  C   UNL A   1      40.152  32.603  35.533  1.00  0.00     0.061 C 
BRANCH   7   8
ATOM      8  C   UNL A   1      40.141  33.922  36.281  1.00  0.00     0.015 A 
ATOM      9  C   UNL A   1      40.226  33.973  37.673  1.00  0.00     0.216 A 
ATOM     10  N   UNL A   1      40.212  35.107  38.406  1.00  0.00    -0.222 NA
ATOM     11  C   UNL A   1      40.090  36.263  37.719  1.00  0.00     0.115 A 
ATOM     12  C   UNL A   1      40.043  35.144  35.610  1.00  0.00     0.011 A 
ATOM     13  C   UNL A   1      40.004  36.332  36.338  1.00  0.00     0.021 A 
BRANCH   9  14
ATOM     14  O   UNL A   1      40.207  32.784  38.361  1.00  0.00    -0.481 OA
ATOM     15  C   UNL A   1      39.829  33.000  39.714  1.00  0.00     0.280 C 
ENDBRANCH   9  14
ENDBRANCH   7   8
ENDBRANCH   6   7
BRANCH   6  16
ATOM     16  C   UNL A   1      38.846  30.984  34.039  1.00  0.00    -0.033 A 
ATOM     17  C   UNL A   1      40.070  30.322  33.838  1.00  0.00     0.007 A 
ATOM     18  C   UNL A   1      37.670  30.412  33.523  1.00  0.00     0.007 A 
ATOM     19  C   UNL A   1      40.118  29.127  33.122  1.00  0.00     0.039 A 
ATOM     20  C   UNL A   1      37.723  29.225  32.794  1.00  0.00     0.039 A 
ATOM     21  C   UNL A   1      38.946  28.593  32.603  1.00  0.00     0.123 A 
ATOM     22  F   UNL A   1      38.993  27.441  31.921  1.00  0.00    -0.207 F 
ENDBRANCH   6  16
ENDBRANCH   4   6
ENDBRANCH   3   4
ENDBRANCH   2   3
ENDBRANCH   1   2
BRANCH   1  23
ATOM     23  O   UNL A   1      35.416  35.530  33.520  1.00  0.00    -0.374 OA
BRANCH  23  24
ATOM     24  C   UNL A   1      34.167  36.129  33.177  1.00  0.00     0.202 C 
BRANCH  24  25
ATOM     25  C   UNL A   1      33.768  36.154  31.697  1.00  0.00     0.261 C 
BRANCH  25  26
ATOM     26  O   UNL A   1      33.238  34.891  31.254  1.00  0.00    -0.460 OA
BRANCH  26  27
ATOM     27  C   UNL A   1      33.512  34.580  29.966  1.00  0.00     0.338 C 
ATOM     28  O   UNL A   1      32.944  34.994  28.963  1.00  0.00    -0.246 OA
BRANCH  27  29
ATOM     29  C   UNL A   1      34.751  33.790  29.895  1.00  0.00     0.060 A 
ATOM     30  C   UNL A   1      35.033  32.925  30.962  1.00  0.00     0.016 A 
ATOM     31  C   UNL A   1      35.665  33.963  28.855  1.00  0.00     0.016 A 
ATOM     32  C   UNL A   1      36.257  32.265  31.016  1.00  0.00     0.010 A 
ATOM     33  C   UNL A   1      36.899  33.309  28.918  1.00  0.00     0.010 A 
ATOM     34  C   UNL A   1      37.213  32.490  30.018  1.00  0.00    -0.014 A 
BRANCH  34  35
ATOM     35  C   UNL A   1      38.597  32.001  30.218  1.00  0.00     0.031 A 
ATOM     36  C   UNL A   1      38.988  30.670  29.636  1.00  0.00     0.074 A 
ATOM     37  C   UNL A   1      39.501  32.747  30.874  1.00  0.00     0.049 A 
ATOM     38  N   UNL A   1      40.124  30.030  29.721  1.00  0.00    -0.248 NA
ATOM     39  C   UNL A   1      37.956  29.969  28.854  1.00  0.00     0.031 C 
ATOM     40  C   UNL A   1      39.253  34.070  31.443  1.00  0.00     0.029 A 
ATOM     41  N   UNL A   1      40.815  32.489  31.176  1.00  0.00    -0.354 N 
ATOM     42  C   UNL A   1      39.947  28.853  29.006  1.00  0.00     0.074 A 
ATOM     43  C   UNL A   1      38.583  28.851  28.521  1.00  0.00     0.031 C 
ATOM     44  C   UNL A   1      40.375  34.502  32.043  1.00  0.00     0.029 A 
ATOM     45  C   UNL A   1      41.409  33.475  31.923  1.00  0.00     0.049 A 
ATOM     46  H   UNL A   1      41.285  31.674  30.885  1.00  0.00     0.167 HD
ATOM     47  C   UNL A   1      40.841  27.865  28.766  1.00  0.00     0.037 A 
ATOM     48  C   UNL A   1      42.640  33.529  32.467  1.00  0.00     0.037 A 
ATOM     49  C   UNL A   1      42.195  27.867  29.252  1.00  0.00     0.049 A 
ATOM     50  C   UNL A   1      43.598  32.391  32.243  1.00  0.00     0.074 A 
ATOM     51  C   UNL A   1      43.180  26.912  29.066  1.00  0.00     0.029 A 
ATOM     52  N   UNL A   1      42.754  28.874  30.027  1.00  0.00    -0.354 N 
ATOM     53  N   UNL A   1      43.422  31.284  31.562  1.00  0.00    -0.248 NA
ATOM     54  C   UNL A   1      44.928  32.512  32.856  1.00  0.00     0.031 C 
ATOM     55  C   UNL A   1      44.323  27.324  29.761  1.00  0.00     0.029 A 
ATOM     56  C   UNL A   1      44.064  28.556  30.339  1.00  0.00     0.049 A 
ATOM     57  H   UNL A   1      42.288  29.692  30.310  1.00  0.00     0.167 HD
ATOM     58  C   UNL A   1      44.621  30.588  31.648  1.00  0.00     0.074 A 
ATOM     59  C   UNL A   1      45.523  31.404  32.436  1.00  0.00     0.031 C 
ATOM     60  C   UNL A   1      44.948  29.382  31.123  1.00  0.00     0.037 A 
BRANCH  47  61
ATOM     61  C   UNL A   1      40.375  26.692  27.958  1.00  0.00     0.057 A 
ATOM     62  C   UNL A   1      39.501  25.733  28.486  1.00  0.00     0.134 A 
ATOM     63  C   UNL A   1      40.779  26.536  26.626  1.00  0.00     0.134 A 
ATOM     64  F   UNL A   1      39.091  25.816  29.761  1.00  0.00    -0.206 F 
ATOM     65  C   UNL A   1      39.059  24.650  27.724  1.00  0.00     0.040 A 
ATOM     66  C   UNL A   1      40.326  25.470  25.847  1.00  0.00     0.040 A 
ATOM     67  F   UNL A   1      41.614  27.420  26.060  1.00  0.00    -0.206 F 
ATOM     68  C   UNL A   1      39.468  24.521  26.397  1.00  0.00     0.006 A 
ENDBRANCH  47  61
BRANCH  48  69
ATOM     69  C   UNL A   1      43.028  34.699  33.293  1.00  0.00     0.057 A 
ATOM     70  C   UNL A   1      43.180  35.970  32.730  1.00  0.00     0.134 A 
ATOM     71  C   UNL A   1      43.259  34.570  34.668  1.00  0.00     0.134 A 
ATOM     72  F   UNL A   1      42.994  36.153  31.414  1.00  0.00    -0.206 F 
ATOM     73  C   UNL A   1      43.560  37.070  33.502  1.00  0.00     0.040 A 
ATOM     74  C   UNL A   1      43.617  35.664  35.455  1.00  0.00     0.040 A 
ATOM     75  F   UNL A   1      43.128  33.377  35.267  1.00  0.00    -0.206 F 
ATOM     76  C   UNL A   1      43.772  36.919  34.870  1.00  0.00     0.006 A 
ENDBRANCH  48  69
BRANCH  60  77
ATOM     77  C   UNL A   1      46.345  28.884  31.355  1.00  0.00     0.057 A 
ATOM     78  C   UNL A   1      47.396  29.205  30.487  1.00  0.00     0.134 A 
ATOM     79  C   UNL A   1      46.649  28.118  32.487  1.00  0.00     0.134 A 
ATOM     80  F   UNL A   1      47.169  29.926  29.381  1.00  0.00    -0.206 F 
ATOM     81  C   UNL A   1      48.698  28.762  30.728  1.00  0.00     0.040 A 
ATOM     82  C   UNL A   1      47.950  27.691  32.752  1.00  0.00     0.040 A 
ATOM     83  F   UNL A   1      45.688  27.787  33.363  1.00  0.00    -0.206 F 
ATOM     84  C   UNL A   1      48.979  28.010  31.867  1.00  0.00     0.006 A 
ENDBRANCH  60  77
ENDBRANCH  34  35
ENDBRANCH  27  29
ENDBRANCH  26  27
ENDBRANCH  25  26
ENDBRANCH  24  25
ENDBRANCH  23  24
ENDBRANCH   1  23
TORSDOF 18
ENDMDL
