MODEL 1
REMARK VINA RESULT:      -9.7      0.000      0.000
REMARK SMILES CCN(C(=O)c1ccccc1C(=O)OCCOCCOC(=O)c1ccc(-c2c3nc(c(-c4c(F)cccc4F)c4ccc([nH]4)c(-c4c(F)cccc4F)c4nc(c(-c5c(F)cccc5F)c5ccc2[nH]5)C=C4)C=C3)cc1)[C@H](CCO)c1ccccc1
REMARK SMILES IDX 15 1 14 2 12 3 13 4 11 5 6 6 7 7 8 8 10 9 9 10 4 11 5 12
REMARK SMILES IDX 3 13 2 14 1 15 77 16 81 17 82 18 86 19 83 20 85 21 84 22
REMARK SMILES IDX 78 23 79 24 80 25 16 27 17 28 18 29 19 30 20 31 21 32 22 33
REMARK SMILES IDX 23 34 24 35 76 36 25 37 75 38 26 39 27 40 28 41 69 42 29 43
REMARK SMILES IDX 74 44 68 45 70 46 30 47 73 48 67 49 66 50 31 52 57 53 40 54
REMARK SMILES IDX 56 55 41 56 44 57 55 58 71 59 42 60 43 61 54 63 72 64 45 65
REMARK SMILES IDX 32 66 33 67 38 68 34 69 35 70 37 71 39 72 36 73 58 74 59 75
REMARK SMILES IDX 64 76 60 77 61 78 63 79 65 80 62 81 46 82 47 83 52 84 48 85
REMARK SMILES IDX 49 86 51 87 53 88 50 89
REMARK H PARENT 80 26 70 51 44 62
REMARK Flexibility Score: inf
ROOT
ATOM      1  C   UNL A   1      33.366  29.020  23.666  1.00  0.00     0.261 C 
ENDROOT
BRANCH   1   2
ATOM      2  O   UNL A   1      33.988  27.729  23.591  1.00  0.00    -0.460 OA
BRANCH   2   3
ATOM      3  C   UNL A   1      33.322  26.804  22.865  1.00  0.00     0.339 C 
ATOM      4  O   UNL A   1      33.661  26.355  21.774  1.00  0.00    -0.246 OA
BRANCH   3   5
ATOM      5  C   UNL A   1      32.093  26.336  23.537  1.00  0.00     0.072 A 
ATOM      6  C   UNL A   1      32.071  25.615  24.737  1.00  0.00     0.054 A 
ATOM      7  C   UNL A   1      30.836  25.269  25.317  1.00  0.00     0.015 A 
ATOM      8  C   UNL A   1      29.636  25.660  24.720  1.00  0.00     0.001 A 
ATOM      9  C   UNL A   1      30.876  26.733  22.951  1.00  0.00     0.016 A 
ATOM     10  C   UNL A   1      29.657  26.393  23.536  1.00  0.00     0.001 A 
BRANCH   6  11
ATOM     11  C   UNL A   1      33.268  25.052  25.393  1.00  0.00     0.255 C 
ATOM     12  O   UNL A   1      33.834  25.834  26.155  1.00  0.00    -0.269 OA
BRANCH  11  13
ATOM     13  N   UNL A   1      33.747  23.753  25.058  1.00  0.00    -0.332 N 
BRANCH  13  14
ATOM     14  C   UNL A   1      33.520  22.696  26.069  1.00  0.00     0.117 C 
ATOM     15  C   UNL A   1      34.226  22.652  27.409  1.00  0.00     0.027 C 
ENDBRANCH  13  14
BRANCH  13  16
ATOM     16  C   UNL A   1      34.949  23.726  24.137  1.00  0.00     0.118 C 
BRANCH  16  17
ATOM     17  C   UNL A   1      36.214  23.166  24.765  1.00  0.00    -0.025 A 
ATOM     18  C   UNL A   1      36.673  21.871  24.476  1.00  0.00     0.006 A 
ATOM     19  C   UNL A   1      36.972  23.968  25.636  1.00  0.00     0.006 A 
ATOM     20  C   UNL A   1      37.837  21.382  25.073  1.00  0.00     0.000 A 
ATOM     21  C   UNL A   1      38.146  23.486  26.213  1.00  0.00     0.000 A 
ATOM     22  C   UNL A   1      38.574  22.189  25.938  1.00  0.00     0.000 A 
ENDBRANCH  16  17
BRANCH  16  23
ATOM     23  C   UNL A   1      34.666  23.022  22.762  1.00  0.00     0.058 C 
BRANCH  23  24
ATOM     24  C   UNL A   1      33.226  22.952  22.250  1.00  0.00     0.158 C 
BRANCH  24  25
ATOM     25  O   UNL A   1      33.060  23.766  21.095  1.00  0.00    -0.396 OA
ATOM     26  H   UNL A   1      32.986  23.201  20.309  1.00  0.00     0.210 HD
ENDBRANCH  24  25
ENDBRANCH  23  24
ENDBRANCH  16  23
ENDBRANCH  13  16
ENDBRANCH  11  13
ENDBRANCH   6  11
ENDBRANCH   3   5
ENDBRANCH   2   3
ENDBRANCH   1   2
BRANCH   1  27
ATOM     27  C   UNL A   1      32.439  29.174  24.872  1.00  0.00     0.202 C 
BRANCH  27  28
ATOM     28  O   UNL A   1      32.194  30.492  25.350  1.00  0.00    -0.374 OA
BRANCH  28  29
ATOM     29  C   UNL A   1      31.970  30.672  26.746  1.00  0.00     0.202 C 
BRANCH  29  30
ATOM     30  C   UNL A   1      33.048  31.389  27.572  1.00  0.00     0.261 C 
BRANCH  30  31
ATOM     31  O   UNL A   1      34.399  30.993  27.274  1.00  0.00    -0.460 OA
BRANCH  31  32
ATOM     32  C   UNL A   1      34.766  29.804  27.800  1.00  0.00     0.338 C 
ATOM     33  O   UNL A   1      34.099  28.775  27.850  1.00  0.00    -0.246 OA
BRANCH  32  34
ATOM     34  C   UNL A   1      36.168  29.817  28.249  1.00  0.00     0.060 A 
ATOM     35  C   UNL A   1      37.162  30.078  27.298  1.00  0.00     0.016 A 
ATOM     36  C   UNL A   1      36.509  29.373  29.528  1.00  0.00     0.016 A 
ATOM     37  C   UNL A   1      38.501  29.837  27.604  1.00  0.00     0.010 A 
ATOM     38  C   UNL A   1      37.853  29.123  29.830  1.00  0.00     0.010 A 
ATOM     39  C   UNL A   1      38.850  29.312  28.856  1.00  0.00    -0.014 A 
BRANCH  39  40
ATOM     40  C   UNL A   1      40.239  28.854  29.105  1.00  0.00     0.031 A 
ATOM     41  C   UNL A   1      41.226  29.781  29.757  1.00  0.00     0.074 A 
ATOM     42  C   UNL A   1      40.622  27.613  28.761  1.00  0.00     0.049 A 
ATOM     43  N   UNL A   1      42.489  29.580  30.037  1.00  0.00    -0.248 NA
ATOM     44  C   UNL A   1      40.721  31.105  30.151  1.00  0.00     0.031 C 
ATOM     45  C   UNL A   1      39.753  26.605  28.161  1.00  0.00     0.029 A 
ATOM     46  N   UNL A   1      41.844  26.996  28.854  1.00  0.00    -0.354 N 
ATOM     47  C   UNL A   1      42.930  30.745  30.649  1.00  0.00     0.074 A 
ATOM     48  C   UNL A   1      41.809  31.663  30.666  1.00  0.00     0.031 C 
ATOM     49  C   UNL A   1      40.476  25.503  27.909  1.00  0.00     0.029 A 
ATOM     50  C   UNL A   1      41.862  25.737  28.310  1.00  0.00     0.049 A 
ATOM     51  H   UNL A   1      42.630  27.416  29.269  1.00  0.00     0.167 HD
ATOM     52  C   UNL A   1      44.152  31.022  31.164  1.00  0.00     0.037 A 
ATOM     53  C   UNL A   1      42.883  24.877  28.130  1.00  0.00     0.037 A 
ATOM     54  C   UNL A   1      45.271  30.117  31.143  1.00  0.00     0.049 A 
ATOM     55  C   UNL A   1      44.258  25.246  28.611  1.00  0.00     0.074 A 
ATOM     56  C   UNL A   1      46.535  30.293  31.681  1.00  0.00     0.029 A 
ATOM     57  N   UNL A   1      45.266  28.870  30.537  1.00  0.00    -0.354 N 
ATOM     58  N   UNL A   1      44.650  26.331  29.234  1.00  0.00    -0.248 NA
ATOM     59  C   UNL A   1      45.329  24.269  28.372  1.00  0.00     0.031 C 
ATOM     60  C   UNL A   1      47.308  29.170  31.361  1.00  0.00     0.029 A 
ATOM     61  C   UNL A   1      46.513  28.277  30.660  1.00  0.00     0.049 A 
ATOM     62  H   UNL A   1      44.490  28.464  30.087  1.00  0.00     0.167 HD
ATOM     63  C   UNL A   1      46.003  26.153  29.491  1.00  0.00     0.074 A 
ATOM     64  C   UNL A   1      46.366  24.857  28.955  1.00  0.00     0.031 C 
ATOM     65  C   UNL A   1      46.864  26.986  30.127  1.00  0.00     0.037 A 
BRANCH  52  66
ATOM     66  C   UNL A   1      44.340  32.373  31.784  1.00  0.00     0.057 A 
ATOM     67  C   UNL A   1      44.094  32.599  33.145  1.00  0.00     0.134 A 
ATOM     68  C   UNL A   1      44.788  33.456  31.018  1.00  0.00     0.134 A 
ATOM     69  F   UNL A   1      43.653  31.604  33.929  1.00  0.00    -0.206 F 
ATOM     70  C   UNL A   1      44.262  33.861  33.717  1.00  0.00     0.040 A 
ATOM     71  C   UNL A   1      44.979  34.718  31.584  1.00  0.00     0.040 A 
ATOM     72  F   UNL A   1      45.047  33.305  29.711  1.00  0.00    -0.206 F 
ATOM     73  C   UNL A   1      44.710  34.924  32.935  1.00  0.00     0.006 A 
ENDBRANCH  52  66
BRANCH  53  74
ATOM     74  C   UNL A   1      42.638  23.582  27.453  1.00  0.00     0.057 A 
ATOM     75  C   UNL A   1      42.750  23.457  26.064  1.00  0.00     0.134 A 
ATOM     76  C   UNL A   1      42.291  22.437  28.182  1.00  0.00     0.134 A 
ATOM     77  F   UNL A   1      43.061  24.522  25.313  1.00  0.00    -0.206 F 
ATOM     78  C   UNL A   1      42.518  22.240  25.422  1.00  0.00     0.040 A 
ATOM     79  C   UNL A   1      42.076  21.210  27.554  1.00  0.00     0.040 A 
ATOM     80  F   UNL A   1      42.171  22.496  29.516  1.00  0.00    -0.206 F 
ATOM     81  C   UNL A   1      42.185  21.110  26.169  1.00  0.00     0.006 A 
ENDBRANCH  53  74
BRANCH  65  82
ATOM     82  C   UNL A   1      48.271  26.503  30.317  1.00  0.00     0.057 A 
ATOM     83  C   UNL A   1      48.653  25.763  31.443  1.00  0.00     0.134 A 
ATOM     84  C   UNL A   1      49.248  26.758  29.347  1.00  0.00     0.134 A 
ATOM     85  F   UNL A   1      47.768  25.499  32.416  1.00  0.00    -0.206 F 
ATOM     86  C   UNL A   1      49.964  25.311  31.606  1.00  0.00     0.040 A 
ATOM     87  C   UNL A   1      50.556  26.293  29.488  1.00  0.00     0.040 A 
ATOM     88  F   UNL A   1      48.945  27.457  28.242  1.00  0.00    -0.206 F 
ATOM     89  C   UNL A   1      50.918  25.570  30.623  1.00  0.00     0.006 A 
ENDBRANCH  65  82
ENDBRANCH  39  40
ENDBRANCH  32  34
ENDBRANCH  31  32
ENDBRANCH  30  31
ENDBRANCH  29  30
ENDBRANCH  28  29
ENDBRANCH  27  28
ENDBRANCH   1  27
TORSDOF 22
ENDMDL
MODEL 2
REMARK VINA RESULT:      -9.5      3.548      8.314
REMARK SMILES CCN(C(=O)c1ccccc1C(=O)OCCOCCOC(=O)c1ccc(-c2c3nc(c(-c4c(F)cccc4F)c4ccc([nH]4)c(-c4c(F)cccc4F)c4nc(c(-c5c(F)cccc5F)c5ccc2[nH]5)C=C4)C=C3)cc1)[C@H](CCO)c1ccccc1
REMARK SMILES IDX 15 1 14 2 12 3 13 4 11 5 6 6 7 7 8 8 10 9 9 10 4 11 5 12
REMARK SMILES IDX 3 13 2 14 1 15 77 16 81 17 82 18 86 19 83 20 85 21 84 22
REMARK SMILES IDX 78 23 79 24 80 25 16 27 17 28 18 29 19 30 20 31 21 32 22 33
REMARK SMILES IDX 23 34 24 35 76 36 25 37 75 38 26 39 27 40 28 41 69 42 29 43
REMARK SMILES IDX 74 44 68 45 70 46 30 47 73 48 67 49 66 50 31 52 57 53 40 54
REMARK SMILES IDX 56 55 41 56 44 57 55 58 71 59 42 60 43 61 54 63 72 64 45 65
REMARK SMILES IDX 32 66 33 67 38 68 34 69 35 70 37 71 39 72 36 73 58 74 59 75
REMARK SMILES IDX 64 76 60 77 61 78 63 79 65 80 62 81 46 82 47 83 52 84 48 85
REMARK SMILES IDX 49 86 51 87 53 88 50 89
REMARK H PARENT 80 26 70 51 44 62
REMARK Flexibility Score: inf
ROOT
ATOM      1  C   UNL A   1      37.984  20.760  25.278  1.00  0.00     0.261 C 
ENDROOT
BRANCH   1   2
ATOM      2  O   UNL A   1      37.048  21.566  24.546  1.00  0.00    -0.460 OA
BRANCH   2   3
ATOM      3  C   UNL A   1      35.965  21.976  25.241  1.00  0.00     0.339 C 
ATOM      4  O   UNL A   1      35.969  22.702  26.230  1.00  0.00    -0.246 OA
BRANCH   3   5
ATOM      5  C   UNL A   1      34.702  21.466  24.671  1.00  0.00     0.072 A 
ATOM      6  C   UNL A   1      33.828  22.220  23.878  1.00  0.00     0.054 A 
ATOM      7  C   UNL A   1      32.678  21.613  23.341  1.00  0.00     0.015 A 
ATOM      8  C   UNL A   1      32.415  20.261  23.570  1.00  0.00     0.001 A 
ATOM      9  C   UNL A   1      34.430  20.101  24.886  1.00  0.00     0.016 A 
ATOM     10  C   UNL A   1      33.292  19.505  24.344  1.00  0.00     0.001 A 
BRANCH   6  11
ATOM     11  C   UNL A   1      33.944  23.677  23.665  1.00  0.00     0.255 C 
ATOM     12  O   UNL A   1      34.952  24.012  23.047  1.00  0.00    -0.269 OA
BRANCH  11  13
ATOM     13  N   UNL A   1      33.004  24.580  24.239  1.00  0.00    -0.332 N 
BRANCH  13  14
ATOM     14  C   UNL A   1      32.514  25.659  23.350  1.00  0.00     0.117 C 
ATOM     15  C   UNL A   1      31.588  25.421  22.174  1.00  0.00     0.027 C 
ENDBRANCH  13  14
BRANCH  13  16
ATOM     16  C   UNL A   1      33.128  24.779  25.734  1.00  0.00     0.118 C 
BRANCH  16  17
ATOM     17  C   UNL A   1      32.938  26.212  26.200  1.00  0.00    -0.025 A 
ATOM     18  C   UNL A   1      33.971  27.160  26.120  1.00  0.00     0.006 A 
ATOM     19  C   UNL A   1      31.688  26.623  26.698  1.00  0.00     0.006 A 
ATOM     20  C   UNL A   1      33.768  28.470  26.561  1.00  0.00     0.000 A 
ATOM     21  C   UNL A   1      31.481  27.936  27.115  1.00  0.00     0.000 A 
ATOM     22  C   UNL A   1      32.524  28.857  27.055  1.00  0.00     0.000 A 
ENDBRANCH  16  17
BRANCH  16  23
ATOM     23  C   UNL A   1      32.221  23.809  26.572  1.00  0.00     0.058 C 
BRANCH  23  24
ATOM     24  C   UNL A   1      30.899  23.329  25.969  1.00  0.00     0.158 C 
BRANCH  24  25
ATOM     25  O   UNL A   1      30.713  21.938  26.202  1.00  0.00    -0.396 OA
ATOM     26  H   UNL A   1      31.430  21.440  25.779  1.00  0.00     0.210 HD
ENDBRANCH  24  25
ENDBRANCH  23  24
ENDBRANCH  16  23
ENDBRANCH  13  16
ENDBRANCH  11  13
ENDBRANCH   6  11
ENDBRANCH   3   5
ENDBRANCH   2   3
ENDBRANCH   1   2
BRANCH   1  27
ATOM     27  C   UNL A   1      39.203  21.543  25.765  1.00  0.00     0.202 C 
BRANCH  27  28
ATOM     28  O   UNL A   1      40.112  20.875  26.633  1.00  0.00    -0.374 OA
BRANCH  28  29
ATOM     29  C   UNL A   1      40.641  19.618  26.217  1.00  0.00     0.202 C 
BRANCH  29  30
ATOM     30  C   UNL A   1      42.166  19.458  26.134  1.00  0.00     0.261 C 
BRANCH  30  31
ATOM     31  O   UNL A   1      42.729  19.714  24.835  1.00  0.00    -0.460 OA
BRANCH  31  32
ATOM     32  C   UNL A   1      44.079  19.692  24.793  1.00  0.00     0.338 C 
ATOM     33  O   UNL A   1      44.799  18.733  24.535  1.00  0.00    -0.246 OA
BRANCH  32  34
ATOM     34  C   UNL A   1      44.652  21.033  24.996  1.00  0.00     0.060 A 
ATOM     35  C   UNL A   1      45.229  21.321  26.239  1.00  0.00     0.016 A 
ATOM     36  C   UNL A   1      44.434  22.047  24.062  1.00  0.00     0.016 A 
ATOM     37  C   UNL A   1      45.536  22.639  26.577  1.00  0.00     0.010 A 
ATOM     38  C   UNL A   1      44.734  23.371  24.407  1.00  0.00     0.010 A 
ATOM     39  C   UNL A   1      45.246  23.677  25.681  1.00  0.00    -0.014 A 
BRANCH  39  40
ATOM     40  C   UNL A   1      45.369  25.089  26.120  1.00  0.00     0.031 A 
ATOM     41  C   UNL A   1      46.711  25.764  26.099  1.00  0.00     0.074 A 
ATOM     42  C   UNL A   1      44.288  25.775  26.529  1.00  0.00     0.049 A 
ATOM     43  N   UNL A   1      47.033  26.979  26.465  1.00  0.00    -0.248 NA
ATOM     44  C   UNL A   1      47.838  24.967  25.592  1.00  0.00     0.031 C 
ATOM     45  C   UNL A   1      42.926  25.251  26.557  1.00  0.00     0.029 A 
ATOM     46  N   UNL A   1      44.171  27.054  27.011  1.00  0.00    -0.354 N 
ATOM     47  C   UNL A   1      48.394  27.098  26.225  1.00  0.00     0.074 A 
ATOM     48  C   UNL A   1      48.847  25.820  25.716  1.00  0.00     0.031 C 
ATOM     49  C   UNL A   1      42.111  26.190  27.064  1.00  0.00     0.029 A 
ATOM     50  C   UNL A   1      42.898  27.370  27.413  1.00  0.00     0.049 A 
ATOM     51  H   UNL A   1      44.926  27.682  27.065  1.00  0.00     0.167 HD
ATOM     52  C   UNL A   1      49.194  28.179  26.397  1.00  0.00     0.037 A 
ATOM     53  C   UNL A   1      42.422  28.476  28.017  1.00  0.00     0.037 A 
ATOM     54  C   UNL A   1      48.751  29.449  26.909  1.00  0.00     0.049 A 
ATOM     55  C   UNL A   1      43.348  29.625  28.301  1.00  0.00     0.074 A 
ATOM     56  C   UNL A   1      49.480  30.614  27.076  1.00  0.00     0.029 A 
ATOM     57  N   UNL A   1      47.465  29.715  27.354  1.00  0.00    -0.354 N 
ATOM     58  N   UNL A   1      44.623  29.744  28.022  1.00  0.00    -0.248 NA
ATOM     59  C   UNL A   1      42.768  30.795  28.974  1.00  0.00     0.031 C 
ATOM     60  C   UNL A   1      48.645  31.573  27.664  1.00  0.00     0.029 A 
ATOM     61  C   UNL A   1      47.386  31.017  27.824  1.00  0.00     0.049 A 
ATOM     62  H   UNL A   1      46.718  29.075  27.337  1.00  0.00     0.167 HD
ATOM     63  C   UNL A   1      44.990  31.012  28.453  1.00  0.00     0.074 A 
ATOM     64  C   UNL A   1      43.803  31.624  29.016  1.00  0.00     0.031 C 
ATOM     65  C   UNL A   1      46.200  31.619  28.378  1.00  0.00     0.037 A 
BRANCH  52  66
ATOM     66  C   UNL A   1      50.640  28.021  26.037  1.00  0.00     0.057 A 
ATOM     67  C   UNL A   1      51.621  27.806  27.013  1.00  0.00     0.134 A 
ATOM     68  C   UNL A   1      51.055  28.069  24.700  1.00  0.00     0.134 A 
ATOM     69  F   UNL A   1      51.289  27.760  28.312  1.00  0.00    -0.206 F 
ATOM     70  C   UNL A   1      52.969  27.668  26.674  1.00  0.00     0.040 A 
ATOM     71  C   UNL A   1      52.396  27.913  24.348  1.00  0.00     0.040 A 
ATOM     72  F   UNL A   1      50.163  28.267  23.718  1.00  0.00    -0.206 F 
ATOM     73  C   UNL A   1      53.358  27.718  25.337  1.00  0.00     0.006 A 
ENDBRANCH  52  66
BRANCH  53  74
ATOM     74  C   UNL A   1      40.992  28.541  28.403  1.00  0.00     0.057 A 
ATOM     75  C   UNL A   1      40.576  28.225  29.700  1.00  0.00     0.134 A 
ATOM     76  C   UNL A   1      40.010  28.926  27.482  1.00  0.00     0.134 A 
ATOM     77  F   UNL A   1      41.469  27.833  30.620  1.00  0.00    -0.206 F 
ATOM     78  C   UNL A   1      39.231  28.282  30.067  1.00  0.00     0.040 A 
ATOM     79  C   UNL A   1      38.665  29.006  27.841  1.00  0.00     0.040 A 
ATOM     80  F   UNL A   1      40.350  29.242  26.223  1.00  0.00    -0.206 F 
ATOM     81  C   UNL A   1      38.271  28.680  29.136  1.00  0.00     0.006 A 
ENDBRANCH  53  74
BRANCH  65  82
ATOM     82  C   UNL A   1      46.292  33.031  28.876  1.00  0.00     0.057 A 
ATOM     83  C   UNL A   1      46.025  34.126  28.045  1.00  0.00     0.134 A 
ATOM     84  C   UNL A   1      46.624  33.294  30.210  1.00  0.00     0.134 A 
ATOM     85  F   UNL A   1      45.716  33.941  26.753  1.00  0.00    -0.206 F 
ATOM     86  C   UNL A   1      46.104  35.436  28.521  1.00  0.00     0.040 A 
ATOM     87  C   UNL A   1      46.686  34.598  30.703  1.00  0.00     0.040 A 
ATOM     88  F   UNL A   1      46.887  32.288  31.058  1.00  0.00    -0.206 F 
ATOM     89  C   UNL A   1      46.430  35.674  29.856  1.00  0.00     0.006 A 
ENDBRANCH  65  82
ENDBRANCH  39  40
ENDBRANCH  32  34
ENDBRANCH  31  32
ENDBRANCH  30  31
ENDBRANCH  29  30
ENDBRANCH  28  29
ENDBRANCH  27  28
ENDBRANCH   1  27
TORSDOF 22
ENDMDL
MODEL 3
REMARK VINA RESULT:      -9.3      2.391      6.500
REMARK SMILES CCN(C(=O)c1ccccc1C(=O)OCCOCCOC(=O)c1ccc(-c2c3nc(c(-c4c(F)cccc4F)c4ccc([nH]4)c(-c4c(F)cccc4F)c4nc(c(-c5c(F)cccc5F)c5ccc2[nH]5)C=C4)C=C3)cc1)[C@H](CCO)c1ccccc1
REMARK SMILES IDX 15 1 14 2 12 3 13 4 11 5 6 6 7 7 8 8 10 9 9 10 4 11 5 12
REMARK SMILES IDX 3 13 2 14 1 15 77 16 81 17 82 18 86 19 83 20 85 21 84 22
REMARK SMILES IDX 78 23 79 24 80 25 16 27 17 28 18 29 19 30 20 31 21 32 22 33
REMARK SMILES IDX 23 34 24 35 76 36 25 37 75 38 26 39 27 40 28 41 69 42 29 43
REMARK SMILES IDX 74 44 68 45 70 46 30 47 73 48 67 49 66 50 31 52 57 53 40 54
REMARK SMILES IDX 56 55 41 56 44 57 55 58 71 59 42 60 43 61 54 63 72 64 45 65
REMARK SMILES IDX 32 66 33 67 38 68 34 69 35 70 37 71 39 72 36 73 58 74 59 75
REMARK SMILES IDX 64 76 60 77 61 78 63 79 65 80 62 81 46 82 47 83 52 84 48 85
REMARK SMILES IDX 49 86 51 87 53 88 50 89
REMARK H PARENT 80 26 70 51 44 62
REMARK Flexibility Score: inf
ROOT
ATOM      1  C   UNL A   1      32.009  28.882  25.734  1.00  0.00     0.261 C 
ENDROOT
BRANCH   1   2
ATOM      2  O   UNL A   1      32.087  27.481  26.034  1.00  0.00    -0.460 OA
BRANCH   2   3
ATOM      3  C   UNL A   1      33.180  26.844  25.558  1.00  0.00     0.339 C 
ATOM      4  O   UNL A   1      34.247  26.695  26.146  1.00  0.00    -0.246 OA
BRANCH   3   5
ATOM      5  C   UNL A   1      32.967  26.294  24.205  1.00  0.00     0.072 A 
ATOM      6  C   UNL A   1      32.287  25.100  23.932  1.00  0.00     0.054 A 
ATOM      7  C   UNL A   1      32.095  24.700  22.597  1.00  0.00     0.015 A 
ATOM      8  C   UNL A   1      32.554  25.493  21.544  1.00  0.00     0.001 A 
ATOM      9  C   UNL A   1      33.415  27.090  23.134  1.00  0.00     0.016 A 
ATOM     10  C   UNL A   1      33.215  26.689  21.813  1.00  0.00     0.001 A 
BRANCH   6  11
ATOM     11  C   UNL A   1      31.862  24.129  24.961  1.00  0.00     0.255 C 
ATOM     12  O   UNL A   1      30.715  24.305  25.369  1.00  0.00    -0.269 OA
BRANCH  11  13
ATOM     13  N   UNL A   1      32.771  23.164  25.480  1.00  0.00    -0.332 N 
BRANCH  13  14
ATOM     14  C   UNL A   1      33.190  23.359  26.888  1.00  0.00     0.117 C 
ATOM     15  C   UNL A   1      33.243  22.241  27.909  1.00  0.00     0.027 C 
ENDBRANCH  13  14
BRANCH  13  16
ATOM     16  C   UNL A   1      33.689  22.526  24.460  1.00  0.00     0.118 C 
BRANCH  16  17
ATOM     17  C   UNL A   1      35.156  22.506  24.854  1.00  0.00    -0.025 A 
ATOM     18  C   UNL A   1      35.852  21.304  25.055  1.00  0.00     0.006 A 
ATOM     19  C   UNL A   1      35.856  23.718  24.993  1.00  0.00     0.006 A 
ATOM     20  C   UNL A   1      37.200  21.317  25.423  1.00  0.00     0.000 A 
ATOM     21  C   UNL A   1      37.206  23.729  25.337  1.00  0.00     0.000 A 
ATOM     22  C   UNL A   1      37.876  22.528  25.560  1.00  0.00     0.000 A 
ENDBRANCH  16  17
BRANCH  16  23
ATOM     23  C   UNL A   1      33.226  21.094  24.013  1.00  0.00     0.058 C 
BRANCH  23  24
ATOM     24  C   UNL A   1      32.180  20.359  24.853  1.00  0.00     0.158 C 
BRANCH  24  25
ATOM     25  O   UNL A   1      32.803  19.596  25.880  1.00  0.00    -0.396 OA
ATOM     26  H   UNL A   1      32.124  19.245  26.479  1.00  0.00     0.210 HD
ENDBRANCH  24  25
ENDBRANCH  23  24
ENDBRANCH  16  23
ENDBRANCH  13  16
ENDBRANCH  11  13
ENDBRANCH   6  11
ENDBRANCH   3   5
ENDBRANCH   2   3
ENDBRANCH   1   2
BRANCH   1  27
ATOM     27  C   UNL A   1      33.218  29.675  26.233  1.00  0.00     0.202 C 
BRANCH  27  28
ATOM     28  O   UNL A   1      33.014  30.570  27.321  1.00  0.00    -0.374 OA
BRANCH  28  29
ATOM     29  C   UNL A   1      34.030  31.530  27.603  1.00  0.00     0.202 C 
BRANCH  29  30
ATOM     30  C   UNL A   1      34.958  31.281  28.800  1.00  0.00     0.261 C 
BRANCH  30  31
ATOM     31  O   UNL A   1      35.565  29.977  28.831  1.00  0.00    -0.460 OA
BRANCH  31  32
ATOM     32  C   UNL A   1      36.363  29.753  29.898  1.00  0.00     0.338 C 
ATOM     33  O   UNL A   1      36.018  29.431  31.030  1.00  0.00    -0.246 OA
BRANCH  32  34
ATOM     34  C   UNL A   1      37.788  29.835  29.538  1.00  0.00     0.060 A 
ATOM     35  C   UNL A   1      38.133  29.734  28.185  1.00  0.00     0.016 A 
ATOM     36  C   UNL A   1      38.774  29.794  30.526  1.00  0.00     0.016 A 
ATOM     37  C   UNL A   1      39.462  29.533  27.816  1.00  0.00     0.010 A 
ATOM     38  C   UNL A   1      40.108  29.583  30.154  1.00  0.00     0.010 A 
ATOM     39  C   UNL A   1      40.451  29.408  28.801  1.00  0.00    -0.014 A 
BRANCH  39  40
ATOM     40  C   UNL A   1      41.821  28.980  28.424  1.00  0.00     0.031 A 
ATOM     41  C   UNL A   1      42.090  27.537  28.101  1.00  0.00     0.074 A 
ATOM     42  C   UNL A   1      42.824  29.872  28.360  1.00  0.00     0.049 A 
ATOM     43  N   UNL A   1      43.219  26.959  27.775  1.00  0.00    -0.248 NA
ATOM     44  C   UNL A   1      40.934  26.629  28.143  1.00  0.00     0.031 C 
ATOM     45  C   UNL A   1      42.686  31.304  28.609  1.00  0.00     0.029 A 
ATOM     46  N   UNL A   1      44.156  29.701  28.081  1.00  0.00    -0.354 N 
ATOM     47  C   UNL A   1      42.910  25.622  27.563  1.00  0.00     0.074 A 
ATOM     48  C   UNL A   1      41.496  25.467  27.834  1.00  0.00     0.031 C 
ATOM     49  C   UNL A   1      43.894  31.880  28.503  1.00  0.00     0.029 A 
ATOM     50  C   UNL A   1      44.890  30.854  28.200  1.00  0.00     0.049 A 
ATOM     51  H   UNL A   1      44.547  28.837  27.821  1.00  0.00     0.167 HD
ATOM     52  C   UNL A   1      43.727  24.617  27.165  1.00  0.00     0.037 A 
ATOM     53  C   UNL A   1      46.218  31.059  28.102  1.00  0.00     0.037 A 
ATOM     54  C   UNL A   1      45.135  24.764  26.902  1.00  0.00     0.049 A 
ATOM     55  C   UNL A   1      47.124  29.908  27.766  1.00  0.00     0.074 A 
ATOM     56  C   UNL A   1      46.033  23.812  26.451  1.00  0.00     0.029 A 
ATOM     57  N   UNL A   1      45.853  25.936  27.084  1.00  0.00    -0.354 N 
ATOM     58  N   UNL A   1      46.813  28.659  27.519  1.00  0.00    -0.248 NA
ATOM     59  C   UNL A   1      48.562  30.197  27.687  1.00  0.00     0.031 C 
ATOM     60  C   UNL A   1      47.305  24.397  26.403  1.00  0.00     0.029 A 
ATOM     61  C   UNL A   1      47.190  25.724  26.784  1.00  0.00     0.049 A 
ATOM     62  H   UNL A   1      45.470  26.793  27.381  1.00  0.00     0.167 HD
ATOM     63  C   UNL A   1      48.010  28.020  27.222  1.00  0.00     0.074 A 
ATOM     64  C   UNL A   1      49.054  29.020  27.322  1.00  0.00     0.031 C 
ATOM     65  C   UNL A   1      48.222  26.725  26.883  1.00  0.00     0.037 A 
BRANCH  52  66
ATOM     66  C   UNL A   1      43.111  23.261  27.003  1.00  0.00     0.057 A 
ATOM     67  C   UNL A   1      42.809  22.736  25.740  1.00  0.00     0.134 A 
ATOM     68  C   UNL A   1      42.829  22.464  28.120  1.00  0.00     0.134 A 
ATOM     69  F   UNL A   1      43.045  23.455  24.632  1.00  0.00    -0.206 F 
ATOM     70  C   UNL A   1      42.226  21.476  25.594  1.00  0.00     0.040 A 
ATOM     71  C   UNL A   1      42.265  21.195  27.985  1.00  0.00     0.040 A 
ATOM     72  F   UNL A   1      43.099  22.907  29.357  1.00  0.00    -0.206 F 
ATOM     73  C   UNL A   1      41.956  20.700  26.719  1.00  0.00     0.006 A 
ENDBRANCH  52  66
BRANCH  53  74
ATOM     74  C   UNL A   1      46.768  32.415  28.335  1.00  0.00     0.057 A 
ATOM     75  C   UNL A   1      46.803  33.369  27.313  1.00  0.00     0.134 A 
ATOM     76  C   UNL A   1      47.265  32.789  29.590  1.00  0.00     0.134 A 
ATOM     77  F   UNL A   1      46.357  33.062  26.087  1.00  0.00    -0.206 F 
ATOM     78  C   UNL A   1      47.322  34.647  27.527  1.00  0.00     0.040 A 
ATOM     79  C   UNL A   1      47.768  34.069  29.823  1.00  0.00     0.040 A 
ATOM     80  F   UNL A   1      47.255  31.918  30.609  1.00  0.00    -0.206 F 
ATOM     81  C   UNL A   1      47.801  35.002  28.788  1.00  0.00     0.006 A 
ENDBRANCH  53  74
BRANCH  65  82
ATOM     82  C   UNL A   1      49.629  26.323  26.555  1.00  0.00     0.057 A 
ATOM     83  C   UNL A   1      50.469  25.730  27.505  1.00  0.00     0.134 A 
ATOM     84  C   UNL A   1      50.138  26.507  25.263  1.00  0.00     0.134 A 
ATOM     85  F   UNL A   1      50.046  25.542  28.764  1.00  0.00    -0.206 F 
ATOM     86  C   UNL A   1      51.774  25.352  27.186  1.00  0.00     0.040 A 
ATOM     87  C   UNL A   1      51.433  26.113  24.927  1.00  0.00     0.040 A 
ATOM     88  F   UNL A   1      49.381  27.065  24.306  1.00  0.00    -0.206 F 
ATOM     89  C   UNL A   1      52.258  25.537  25.891  1.00  0.00     0.006 A 
ENDBRANCH  65  82
ENDBRANCH  39  40
ENDBRANCH  32  34
ENDBRANCH  31  32
ENDBRANCH  30  31
ENDBRANCH  29  30
ENDBRANCH  28  29
ENDBRANCH  27  28
ENDBRANCH   1  27
TORSDOF 22
ENDMDL
