MODEL 1
REMARK VINA RESULT:     -11.4      0.000      0.000
REMARK SMILES CC(=O)Nc1ccc(/C=N/c2ccccc2C(=O)OCCOCCOC(=O)c2ccc(-c3c4nc(c(-c5c(F)cccc5F)c5ccc([nH]5)c(-c5c(F)cccc5F)c5nc(c(-c6c(F)cccc6F)c6ccc3[nH]6)C=C5)C=C4)cc2)cc1
REMARK SMILES IDX 21 1 20 2 19 3 17 4 18 5 16 6 11 7 12 8 13 9 15 10 14 11
REMARK SMILES IDX 10 12 9 13 8 14 5 15 6 16 83 17 7 18 82 19 4 20 1 21 2 22
REMARK SMILES IDX 3 23 22 25 23 26 24 27 25 28 26 29 27 30 28 31 29 32 81 33
REMARK SMILES IDX 30 34 80 35 31 36 32 37 33 38 74 39 34 40 79 41 73 42 75 43
REMARK SMILES IDX 35 44 78 45 72 46 71 47 36 49 62 50 45 51 61 52 46 53 49 54
REMARK SMILES IDX 60 55 76 56 47 57 48 58 59 60 77 61 50 62 37 63 38 64 43 65
REMARK SMILES IDX 39 66 40 67 42 68 44 69 41 70 63 71 64 72 69 73 65 74 66 75
REMARK SMILES IDX 68 76 70 77 67 78 51 79 52 80 57 81 53 82 54 83 56 84 58 85
REMARK SMILES IDX 55 86
REMARK H PARENT 4 24 75 48 49 59
REMARK Flexibility Score: inf
ROOT
ATOM      1  C   UNL A   1      33.506  29.343  26.385  1.00  0.00     0.202 C 
ENDROOT
BRANCH   1   2
ATOM      2  C   UNL A   1      33.398  28.049  25.578  1.00  0.00     0.261 C 
BRANCH   2   3
ATOM      3  O   UNL A   1      33.246  26.930  26.465  1.00  0.00    -0.460 OA
BRANCH   3   4
ATOM      4  C   UNL A   1      31.984  26.520  26.715  1.00  0.00     0.340 C 
ATOM      5  O   UNL A   1      31.132  27.176  27.303  1.00  0.00    -0.246 OA
BRANCH   4   6
ATOM      6  C   UNL A   1      31.682  25.189  26.117  1.00  0.00     0.085 A 
ATOM      7  C   UNL A   1      30.860  24.954  24.996  1.00  0.00     0.077 A 
ATOM      8  C   UNL A   1      30.731  23.639  24.518  1.00  0.00     0.029 A 
ATOM      9  C   UNL A   1      31.366  22.569  25.147  1.00  0.00     0.002 A 
ATOM     10  C   UNL A   1      32.301  24.098  26.756  1.00  0.00     0.018 A 
ATOM     11  C   UNL A   1      32.135  22.796  26.280  1.00  0.00     0.001 A 
BRANCH   7  12
ATOM     12  N   UNL A   1      30.060  25.897  24.337  1.00  0.00    -0.255 NA
ATOM     13  C   UNL A   1      30.632  26.783  23.596  1.00  0.00     0.119 C 
BRANCH  13  14
ATOM     14  C   UNL A   1      29.845  27.826  22.941  1.00  0.00    -0.007 A 
ATOM     15  C   UNL A   1      28.408  30.011  22.065  1.00  0.00     0.041 A 
ATOM     16  C   UNL A   1      29.724  29.833  21.631  1.00  0.00     0.027 A 
ATOM     17  C   UNL A   1      27.765  28.997  22.775  1.00  0.00     0.027 A 
ATOM     18  C   UNL A   1      30.455  28.740  22.083  1.00  0.00     0.012 A 
ATOM     19  C   UNL A   1      28.488  27.907  23.237  1.00  0.00     0.012 A 
BRANCH  15  20
ATOM     20  N   UNL A   1      27.868  31.281  21.858  1.00  0.00    -0.326 N 
ATOM     21  C   UNL A   1      29.093  32.533  23.654  1.00  0.00     0.114 C 
ATOM     22  C   UNL A   1      28.230  32.466  22.423  1.00  0.00     0.221 C 
ATOM     23  O   UNL A   1      27.894  33.497  21.841  1.00  0.00    -0.275 OA
ATOM     24  H   UNL A   1      27.123  31.327  21.215  1.00  0.00     0.169 HD
ENDBRANCH  15  20
ENDBRANCH  13  14
ENDBRANCH   7  12
ENDBRANCH   4   6
ENDBRANCH   3   4
ENDBRANCH   2   3
ENDBRANCH   1   2
BRANCH   1  25
ATOM     25  O   UNL A   1      32.928  30.498  25.776  1.00  0.00    -0.374 OA
BRANCH  25  26
ATOM     26  C   UNL A   1      31.619  30.875  26.204  1.00  0.00     0.202 C 
BRANCH  26  27
ATOM     27  C   UNL A   1      31.513  32.163  27.030  1.00  0.00     0.261 C 
BRANCH  27  28
ATOM     28  O   UNL A   1      32.566  33.106  26.757  1.00  0.00    -0.460 OA
BRANCH  28  29
ATOM     29  C   UNL A   1      33.141  33.644  27.855  1.00  0.00     0.338 C 
ATOM     30  O   UNL A   1      32.675  34.515  28.584  1.00  0.00    -0.246 OA
BRANCH  29  31
ATOM     31  C   UNL A   1      34.406  32.962  28.184  1.00  0.00     0.060 A 
ATOM     32  C   UNL A   1      34.331  31.700  28.787  1.00  0.00     0.016 A 
ATOM     33  C   UNL A   1      35.640  33.596  28.038  1.00  0.00     0.016 A 
ATOM     34  C   UNL A   1      35.477  31.095  29.309  1.00  0.00     0.010 A 
ATOM     35  C   UNL A   1      36.789  32.986  28.560  1.00  0.00     0.010 A 
ATOM     36  C   UNL A   1      36.711  31.749  29.236  1.00  0.00    -0.014 A 
BRANCH  36  37
ATOM     37  C   UNL A   1      37.890  31.252  29.999  1.00  0.00     0.031 A 
ATOM     38  C   UNL A   1      38.743  30.166  29.395  1.00  0.00     0.074 A 
ATOM     39  C   UNL A   1      38.235  31.752  31.202  1.00  0.00     0.049 A 
ATOM     40  N   UNL A   1      39.746  29.510  29.920  1.00  0.00    -0.248 NA
ATOM     41  C   UNL A   1      38.446  29.797  28.000  1.00  0.00     0.031 C 
ATOM     42  C   UNL A   1      37.621  32.904  31.853  1.00  0.00     0.029 A 
ATOM     43  N   UNL A   1      39.172  31.317  32.112  1.00  0.00    -0.354 N 
ATOM     44  C   UNL A   1      40.233  28.693  28.908  1.00  0.00     0.074 A 
ATOM     45  C   UNL A   1      39.357  28.863  27.769  1.00  0.00     0.031 C 
ATOM     46  C   UNL A   1      38.128  33.025  33.093  1.00  0.00     0.029 A 
ATOM     47  C   UNL A   1      39.073  31.941  33.335  1.00  0.00     0.049 A 
ATOM     48  H   UNL A   1      39.846  30.629  31.908  1.00  0.00     0.167 HD
ATOM     49  C   UNL A   1      41.344  27.917  28.909  1.00  0.00     0.037 A 
ATOM     50  C   UNL A   1      39.633  31.633  34.523  1.00  0.00     0.037 A 
ATOM     51  C   UNL A   1      42.211  27.744  30.043  1.00  0.00     0.049 A 
ATOM     52  C   UNL A   1      40.643  30.528  34.593  1.00  0.00     0.074 A 
ATOM     53  C   UNL A   1      43.407  27.051  30.123  1.00  0.00     0.029 A 
ATOM     54  N   UNL A   1      41.959  28.249  31.310  1.00  0.00    -0.354 N 
ATOM     55  N   UNL A   1      41.102  29.768  33.631  1.00  0.00    -0.248 NA
ATOM     56  C   UNL A   1      41.262  30.284  35.904  1.00  0.00     0.031 C 
ATOM     57  C   UNL A   1      43.846  27.085  31.454  1.00  0.00     0.029 A 
ATOM     58  C   UNL A   1      42.949  27.841  32.189  1.00  0.00     0.049 A 
ATOM     59  H   UNL A   1      41.188  28.812  31.549  1.00  0.00     0.167 HD
ATOM     60  C   UNL A   1      42.116  29.012  34.200  1.00  0.00     0.074 A 
ATOM     61  C   UNL A   1      42.159  29.356  35.606  1.00  0.00     0.031 C 
ATOM     62  C   UNL A   1      42.978  28.164  33.591  1.00  0.00     0.037 A 
BRANCH  49  63
ATOM     63  C   UNL A   1      41.686  27.211  27.629  1.00  0.00     0.057 A 
ATOM     64  C   UNL A   1      42.407  27.846  26.608  1.00  0.00     0.134 A 
ATOM     65  C   UNL A   1      41.308  25.879  27.422  1.00  0.00     0.134 A 
ATOM     66  F   UNL A   1      42.791  29.125  26.741  1.00  0.00    -0.206 F 
ATOM     67  C   UNL A   1      42.709  27.194  25.413  1.00  0.00     0.040 A 
ATOM     68  C   UNL A   1      41.629  25.208  26.240  1.00  0.00     0.040 A 
ATOM     69  F   UNL A   1      40.624  25.211  28.361  1.00  0.00    -0.206 F 
ATOM     70  C   UNL A   1      42.323  25.868  25.228  1.00  0.00     0.006 A 
ENDBRANCH  49  63
BRANCH  50  71
ATOM     71  C   UNL A   1      39.226  32.336  35.767  1.00  0.00     0.057 A 
ATOM     72  C   UNL A   1      39.776  33.562  36.144  1.00  0.00     0.134 A 
ATOM     73  C   UNL A   1      38.285  31.762  36.633  1.00  0.00     0.134 A 
ATOM     74  F   UNL A   1      40.734  34.130  35.398  1.00  0.00    -0.206 F 
ATOM     75  C   UNL A   1      39.359  34.222  37.303  1.00  0.00     0.040 A 
ATOM     76  C   UNL A   1      37.835  32.424  37.776  1.00  0.00     0.040 A 
ATOM     77  F   UNL A   1      37.836  30.519  36.411  1.00  0.00    -0.206 F 
ATOM     78  C   UNL A   1      38.368  33.665  38.109  1.00  0.00     0.006 A 
ENDBRANCH  50  71
BRANCH  62  79
ATOM     79  C   UNL A   1      44.095  27.626  34.432  1.00  0.00     0.057 A 
ATOM     80  C   UNL A   1      45.289  28.327  34.632  1.00  0.00     0.134 A 
ATOM     81  C   UNL A   1      43.974  26.364  35.030  1.00  0.00     0.134 A 
ATOM     82  F   UNL A   1      45.478  29.526  34.061  1.00  0.00    -0.206 F 
ATOM     83  C   UNL A   1      46.335  27.780  35.378  1.00  0.00     0.040 A 
ATOM     84  C   UNL A   1      45.001  25.820  35.799  1.00  0.00     0.040 A 
ATOM     85  F   UNL A   1      42.856  25.640  34.871  1.00  0.00    -0.206 F 
ATOM     86  C   UNL A   1      46.191  26.525  35.967  1.00  0.00     0.006 A 
ENDBRANCH  62  79
ENDBRANCH  36  37
ENDBRANCH  29  31
ENDBRANCH  28  29
ENDBRANCH  27  28
ENDBRANCH  26  27
ENDBRANCH  25  26
ENDBRANCH   1  25
TORSDOF 17
ENDMDL
MODEL 2
REMARK VINA RESULT:     -11.4      5.109      9.381
REMARK SMILES CC(=O)Nc1ccc(/C=N/c2ccccc2C(=O)OCCOCCOC(=O)c2ccc(-c3c4nc(c(-c5c(F)cccc5F)c5ccc([nH]5)c(-c5c(F)cccc5F)c5nc(c(-c6c(F)cccc6F)c6ccc3[nH]6)C=C5)C=C4)cc2)cc1
REMARK SMILES IDX 21 1 20 2 19 3 17 4 18 5 16 6 11 7 12 8 13 9 15 10 14 11
REMARK SMILES IDX 10 12 9 13 8 14 5 15 6 16 83 17 7 18 82 19 4 20 1 21 2 22
REMARK SMILES IDX 3 23 22 25 23 26 24 27 25 28 26 29 27 30 28 31 29 32 81 33
REMARK SMILES IDX 30 34 80 35 31 36 32 37 33 38 74 39 34 40 79 41 73 42 75 43
REMARK SMILES IDX 35 44 78 45 72 46 71 47 36 49 62 50 45 51 61 52 46 53 49 54
REMARK SMILES IDX 60 55 76 56 47 57 48 58 59 60 77 61 50 62 37 63 38 64 43 65
REMARK SMILES IDX 39 66 40 67 42 68 44 69 41 70 63 71 64 72 69 73 65 74 66 75
REMARK SMILES IDX 68 76 70 77 67 78 51 79 52 80 57 81 53 82 54 83 56 84 58 85
REMARK SMILES IDX 55 86
REMARK H PARENT 4 24 75 48 49 59
REMARK Flexibility Score: inf
ROOT
ATOM      1  C   UNL A   1      37.540  23.132  25.553  1.00  0.00     0.202 C 
ENDROOT
BRANCH   1   2
ATOM      2  C   UNL A   1      36.041  23.070  25.845  1.00  0.00     0.261 C 
BRANCH   2   3
ATOM      3  O   UNL A   1      35.456  24.371  25.684  1.00  0.00    -0.460 OA
BRANCH   3   4
ATOM      4  C   UNL A   1      34.108  24.439  25.694  1.00  0.00     0.340 C 
ATOM      5  O   UNL A   1      33.403  24.330  26.690  1.00  0.00    -0.246 OA
BRANCH   4   6
ATOM      6  C   UNL A   1      33.538  24.753  24.354  1.00  0.00     0.085 A 
ATOM      7  C   UNL A   1      32.666  23.930  23.613  1.00  0.00     0.077 A 
ATOM      8  C   UNL A   1      32.166  24.405  22.389  1.00  0.00     0.029 A 
ATOM      9  C   UNL A   1      32.541  25.648  21.882  1.00  0.00     0.002 A 
ATOM     10  C   UNL A   1      33.925  25.997  23.821  1.00  0.00     0.018 A 
ATOM     11  C   UNL A   1      33.439  26.437  22.589  1.00  0.00     0.001 A 
BRANCH   7  12
ATOM     12  N   UNL A   1      32.300  22.613  23.922  1.00  0.00    -0.255 NA
ATOM     13  C   UNL A   1      33.118  21.660  23.634  1.00  0.00     0.119 C 
BRANCH  13  14
ATOM     14  C   UNL A   1      32.753  20.266  23.879  1.00  0.00    -0.007 A 
ATOM     15  C   UNL A   1      32.474  17.550  24.269  1.00  0.00     0.041 A 
ATOM     16  C   UNL A   1      32.529  18.402  25.375  1.00  0.00     0.027 A 
ATOM     17  C   UNL A   1      32.366  18.081  22.984  1.00  0.00     0.027 A 
ATOM     18  C   UNL A   1      32.684  19.770  25.181  1.00  0.00     0.012 A 
ATOM     19  C   UNL A   1      32.529  19.444  22.780  1.00  0.00     0.012 A 
BRANCH  15  20
ATOM     20  N   UNL A   1      32.667  16.194  24.538  1.00  0.00    -0.326 N 
ATOM     21  C   UNL A   1      35.133  16.227  25.001  1.00  0.00     0.114 C 
ATOM     22  C   UNL A   1      33.781  15.567  25.008  1.00  0.00     0.221 C 
ATOM     23  O   UNL A   1      33.632  14.460  25.524  1.00  0.00    -0.275 OA
ATOM     24  H   UNL A   1      31.893  15.612  24.365  1.00  0.00     0.169 HD
ENDBRANCH  15  20
ENDBRANCH  13  14
ENDBRANCH   7  12
ENDBRANCH   4   6
ENDBRANCH   3   4
ENDBRANCH   2   3
ENDBRANCH   1   2
BRANCH   1  25
ATOM     25  O   UNL A   1      38.278  21.952  25.871  1.00  0.00    -0.374 OA
BRANCH  25  26
ATOM     26  C   UNL A   1      38.004  20.784  25.097  1.00  0.00     0.202 C 
BRANCH  26  27
ATOM     27  C   UNL A   1      38.912  19.572  25.340  1.00  0.00     0.261 C 
BRANCH  27  28
ATOM     28  O   UNL A   1      39.772  19.723  26.485  1.00  0.00    -0.460 OA
BRANCH  28  29
ATOM     29  C   UNL A   1      41.092  19.623  26.217  1.00  0.00     0.338 C 
ATOM     30  O   UNL A   1      41.683  18.651  25.751  1.00  0.00    -0.246 OA
BRANCH  29  31
ATOM     31  C   UNL A   1      41.781  20.907  26.437  1.00  0.00     0.060 A 
ATOM     32  C   UNL A   1      41.829  21.406  27.746  1.00  0.00     0.016 A 
ATOM     33  C   UNL A   1      42.248  21.681  25.375  1.00  0.00     0.016 A 
ATOM     34  C   UNL A   1      42.280  22.705  27.992  1.00  0.00     0.010 A 
ATOM     35  C   UNL A   1      42.702  22.983  25.624  1.00  0.00     0.010 A 
ATOM     36  C   UNL A   1      42.684  23.521  26.929  1.00  0.00    -0.014 A 
BRANCH  36  37
ATOM     37  C   UNL A   1      42.926  24.978  27.128  1.00  0.00     0.031 A 
ATOM     38  C   UNL A   1      44.319  25.518  26.931  1.00  0.00     0.074 A 
ATOM     39  C   UNL A   1      41.940  25.834  27.458  1.00  0.00     0.049 A 
ATOM     40  N   UNL A   1      44.781  26.723  27.153  1.00  0.00    -0.248 NA
ATOM     41  C   UNL A   1      45.314  24.585  26.378  1.00  0.00     0.031 C 
ATOM     42  C   UNL A   1      40.519  25.511  27.529  1.00  0.00     0.029 A 
ATOM     43  N   UNL A   1      41.998  27.157  27.837  1.00  0.00    -0.354 N 
ATOM     44  C   UNL A   1      46.099  26.707  26.717  1.00  0.00     0.074 A 
ATOM     45  C   UNL A   1      46.393  25.350  26.309  1.00  0.00     0.031 C 
ATOM     46  C   UNL A   1      39.854  26.573  28.020  1.00  0.00     0.029 A 
ATOM     47  C   UNL A   1      40.805  27.635  28.329  1.00  0.00     0.049 A 
ATOM     48  H   UNL A   1      42.812  27.706  27.763  1.00  0.00     0.167 HD
ATOM     49  C   UNL A   1      46.966  27.742  26.610  1.00  0.00     0.037 A 
ATOM     50  C   UNL A   1      40.527  28.769  29.005  1.00  0.00     0.037 A 
ATOM     51  C   UNL A   1      46.675  29.090  27.021  1.00  0.00     0.049 A 
ATOM     52  C   UNL A   1      41.602  29.798  29.181  1.00  0.00     0.074 A 
ATOM     53  C   UNL A   1      47.451  30.228  26.877  1.00  0.00     0.029 A 
ATOM     54  N   UNL A   1      45.522  29.477  27.686  1.00  0.00    -0.354 N 
ATOM     55  N   UNL A   1      42.841  29.777  28.759  1.00  0.00    -0.248 NA
ATOM     56  C   UNL A   1      41.219  31.038  29.872  1.00  0.00     0.031 C 
ATOM     57  C   UNL A   1      46.794  31.290  27.510  1.00  0.00     0.029 A 
ATOM     58  C   UNL A   1      45.587  30.824  28.003  1.00  0.00     0.049 A 
ATOM     59  H   UNL A   1      44.769  28.881  27.902  1.00  0.00     0.167 HD
ATOM     60  C   UNL A   1      43.362  31.027  29.062  1.00  0.00     0.074 A 
ATOM     61  C   UNL A   1      42.327  31.757  29.763  1.00  0.00     0.031 C 
ATOM     62  C   UNL A   1      44.567  31.542  28.721  1.00  0.00     0.037 A 
BRANCH  49  63
ATOM     63  C   UNL A   1      48.310  27.450  26.008  1.00  0.00     0.057 A 
ATOM     64  C   UNL A   1      49.423  27.147  26.803  1.00  0.00     0.134 A 
ATOM     65  C   UNL A   1      48.489  27.453  24.619  1.00  0.00     0.134 A 
ATOM     66  F   UNL A   1      49.320  27.136  28.142  1.00  0.00    -0.206 F 
ATOM     67  C   UNL A   1      50.675  26.892  26.242  1.00  0.00     0.040 A 
ATOM     68  C   UNL A   1      49.731  27.173  24.045  1.00  0.00     0.040 A 
ATOM     69  F   UNL A   1      47.464  27.727  23.800  1.00  0.00    -0.206 F 
ATOM     70  C   UNL A   1      50.831  26.901  24.858  1.00  0.00     0.006 A 
ENDBRANCH  49  63
BRANCH  50  71
ATOM     71  C   UNL A   1      39.192  28.989  29.617  1.00  0.00     0.057 A 
ATOM     72  C   UNL A   1      38.913  28.646  30.940  1.00  0.00     0.134 A 
ATOM     73  C   UNL A   1      38.142  29.526  28.860  1.00  0.00     0.134 A 
ATOM     74  F   UNL A   1      39.851  28.059  31.698  1.00  0.00    -0.206 F 
ATOM     75  C   UNL A   1      37.659  28.887  31.508  1.00  0.00     0.040 A 
ATOM     76  C   UNL A   1      36.895  29.803  29.420  1.00  0.00     0.040 A 
ATOM     77  F   UNL A   1      38.297  29.730  27.544  1.00  0.00    -0.206 F 
ATOM     78  C   UNL A   1      36.653  29.490  30.754  1.00  0.00     0.006 A 
ENDBRANCH  50  71
BRANCH  62  79
ATOM     79  C   UNL A   1      44.785  32.993  29.025  1.00  0.00     0.057 A 
ATOM     80  C   UNL A   1      44.382  34.012  28.155  1.00  0.00     0.134 A 
ATOM     81  C   UNL A   1      45.439  33.368  30.206  1.00  0.00     0.134 A 
ATOM     82  F   UNL A   1      43.779  33.715  26.993  1.00  0.00    -0.206 F 
ATOM     83  C   UNL A   1      44.644  35.353  28.438  1.00  0.00     0.040 A 
ATOM     84  C   UNL A   1      45.683  34.706  30.512  1.00  0.00     0.040 A 
ATOM     85  F   UNL A   1      45.856  32.439  31.079  1.00  0.00    -0.206 F 
ATOM     86  C   UNL A   1      45.292  35.704  29.621  1.00  0.00     0.006 A 
ENDBRANCH  62  79
ENDBRANCH  36  37
ENDBRANCH  29  31
ENDBRANCH  28  29
ENDBRANCH  27  28
ENDBRANCH  26  27
ENDBRANCH  25  26
ENDBRANCH   1  25
TORSDOF 17
ENDMDL
MODEL 3
REMARK VINA RESULT:     -11.1      3.866      8.292
REMARK SMILES CC(=O)Nc1ccc(/C=N/c2ccccc2C(=O)OCCOCCOC(=O)c2ccc(-c3c4nc(c(-c5c(F)cccc5F)c5ccc([nH]5)c(-c5c(F)cccc5F)c5nc(c(-c6c(F)cccc6F)c6ccc3[nH]6)C=C5)C=C4)cc2)cc1
REMARK SMILES IDX 21 1 20 2 19 3 17 4 18 5 16 6 11 7 12 8 13 9 15 10 14 11
REMARK SMILES IDX 10 12 9 13 8 14 5 15 6 16 83 17 7 18 82 19 4 20 1 21 2 22
REMARK SMILES IDX 3 23 22 25 23 26 24 27 25 28 26 29 27 30 28 31 29 32 81 33
REMARK SMILES IDX 30 34 80 35 31 36 32 37 33 38 74 39 34 40 79 41 73 42 75 43
REMARK SMILES IDX 35 44 78 45 72 46 71 47 36 49 62 50 45 51 61 52 46 53 49 54
REMARK SMILES IDX 60 55 76 56 47 57 48 58 59 60 77 61 50 62 37 63 38 64 43 65
REMARK SMILES IDX 39 66 40 67 42 68 44 69 41 70 63 71 64 72 69 73 65 74 66 75
REMARK SMILES IDX 68 76 70 77 67 78 51 79 52 80 57 81 53 82 54 83 56 84 58 85
REMARK SMILES IDX 55 86
REMARK H PARENT 4 24 75 48 49 59
REMARK Flexibility Score: inf
ROOT
ATOM      1  C   UNL A   1      33.731  31.505  27.614  1.00  0.00     0.202 C 
ENDROOT
BRANCH   1   2
ATOM      2  C   UNL A   1      34.369  30.124  27.466  1.00  0.00     0.261 C 
BRANCH   2   3
ATOM      3  O   UNL A   1      33.760  29.417  26.375  1.00  0.00    -0.460 OA
BRANCH   3   4
ATOM      4  C   UNL A   1      32.623  28.741  26.646  1.00  0.00     0.340 C 
ATOM      5  O   UNL A   1      32.260  28.392  27.763  1.00  0.00    -0.246 OA
BRANCH   4   6
ATOM      6  C   UNL A   1      31.780  28.525  25.438  1.00  0.00     0.085 A 
ATOM      7  C   UNL A   1      31.532  27.285  24.813  1.00  0.00     0.077 A 
ATOM      8  C   UNL A   1      30.658  27.245  23.715  1.00  0.00     0.029 A 
ATOM      9  C   UNL A   1      30.063  28.402  23.214  1.00  0.00     0.002 A 
ATOM     10  C   UNL A   1      31.190  29.689  24.909  1.00  0.00     0.018 A 
ATOM     11  C   UNL A   1      30.347  29.629  23.799  1.00  0.00     0.001 A 
BRANCH   7  12
ATOM     12  N   UNL A   1      32.149  26.063  25.115  1.00  0.00    -0.255 NA
ATOM     13  C   UNL A   1      33.339  25.845  24.672  1.00  0.00     0.119 C 
BRANCH  13  14
ATOM     14  C   UNL A   1      33.997  24.561  24.906  1.00  0.00    -0.007 A 
ATOM     15  C   UNL A   1      34.873  21.966  25.225  1.00  0.00     0.041 A 
ATOM     16  C   UNL A   1      35.269  22.693  24.099  1.00  0.00     0.027 A 
ATOM     17  C   UNL A   1      34.206  22.606  26.269  1.00  0.00     0.027 A 
ATOM     18  C   UNL A   1      34.817  23.996  23.929  1.00  0.00     0.012 A 
ATOM     19  C   UNL A   1      33.743  23.904  26.105  1.00  0.00     0.012 A 
BRANCH  15  20
ATOM     20  N   UNL A   1      35.072  20.586  25.156  1.00  0.00    -0.326 N 
ATOM     21  C   UNL A   1      32.683  19.850  24.943  1.00  0.00     0.114 C 
ATOM     22  C   UNL A   1      34.166  19.606  24.886  1.00  0.00     0.221 C 
ATOM     23  O   UNL A   1      34.604  18.519  24.507  1.00  0.00    -0.275 OA
ATOM     24  H   UNL A   1      35.992  20.280  25.325  1.00  0.00     0.169 HD
ENDBRANCH  15  20
ENDBRANCH  13  14
ENDBRANCH   7  12
ENDBRANCH   4   6
ENDBRANCH   3   4
ENDBRANCH   2   3
ENDBRANCH   1   2
BRANCH   1  25
ATOM     25  O   UNL A   1      34.597  32.535  28.090  1.00  0.00    -0.374 OA
BRANCH  25  26
ATOM     26  C   UNL A   1      33.994  33.616  28.801  1.00  0.00     0.202 C 
BRANCH  26  27
ATOM     27  C   UNL A   1      34.392  33.775  30.274  1.00  0.00     0.261 C 
BRANCH  27  28
ATOM     28  O   UNL A   1      34.344  32.541  31.015  1.00  0.00    -0.460 OA
BRANCH  28  29
ATOM     29  C   UNL A   1      35.322  32.397  31.936  1.00  0.00     0.338 C 
ATOM     30  O   UNL A   1      35.344  32.862  33.073  1.00  0.00    -0.246 OA
BRANCH  29  31
ATOM     31  C   UNL A   1      36.371  31.476  31.462  1.00  0.00     0.060 A 
ATOM     32  C   UNL A   1      37.409  31.158  32.347  1.00  0.00     0.016 A 
ATOM     33  C   UNL A   1      36.420  31.041  30.138  1.00  0.00     0.016 A 
ATOM     34  C   UNL A   1      38.534  30.462  31.897  1.00  0.00     0.010 A 
ATOM     35  C   UNL A   1      37.549  30.341  29.690  1.00  0.00     0.010 A 
ATOM     36  C   UNL A   1      38.634  30.081  30.555  1.00  0.00    -0.014 A 
BRANCH  36  37
ATOM     37  C   UNL A   1      39.916  29.570  29.995  1.00  0.00     0.031 A 
ATOM     38  C   UNL A   1      41.051  30.538  29.774  1.00  0.00     0.074 A 
ATOM     39  C   UNL A   1      40.108  28.270  29.699  1.00  0.00     0.049 A 
ATOM     40  N   UNL A   1      42.211  30.339  29.202  1.00  0.00    -0.248 NA
ATOM     41  C   UNL A   1      40.864  31.901  30.298  1.00  0.00     0.031 C 
ATOM     42  C   UNL A   1      39.182  27.183  29.998  1.00  0.00     0.029 A 
ATOM     43  N   UNL A   1      41.143  27.650  29.036  1.00  0.00    -0.354 N 
ATOM     44  C   UNL A   1      42.911  31.529  29.346  1.00  0.00     0.074 A 
ATOM     45  C   UNL A   1      42.011  32.475  29.971  1.00  0.00     0.031 C 
ATOM     46  C   UNL A   1      39.642  26.051  29.437  1.00  0.00     0.029 A 
ATOM     47  C   UNL A   1      40.874  26.340  28.710  1.00  0.00     0.049 A 
ATOM     48  H   UNL A   1      41.991  28.100  28.816  1.00  0.00     0.167 HD
ATOM     49  C   UNL A   1      44.204  31.793  29.040  1.00  0.00     0.037 A 
ATOM     50  C   UNL A   1      41.514  25.495  27.876  1.00  0.00     0.037 A 
ATOM     51  C   UNL A   1      45.096  30.854  28.414  1.00  0.00     0.049 A 
ATOM     52  C   UNL A   1      42.812  25.919  27.258  1.00  0.00     0.074 A 
ATOM     53  C   UNL A   1      46.447  30.990  28.140  1.00  0.00     0.029 A 
ATOM     54  N   UNL A   1      44.717  29.609  27.936  1.00  0.00    -0.354 N 
ATOM     55  N   UNL A   1      43.468  27.042  27.406  1.00  0.00    -0.248 NA
ATOM     56  C   UNL A   1      43.490  24.930  26.408  1.00  0.00     0.031 C 
ATOM     57  C   UNL A   1      46.870  29.852  27.441  1.00  0.00     0.029 A 
ATOM     58  C   UNL A   1      45.795  28.987  27.325  1.00  0.00     0.049 A 
ATOM     59  H   UNL A   1      43.816  29.224  28.018  1.00  0.00     0.167 HD
ATOM     60  C   UNL A   1      44.669  26.867  26.735  1.00  0.00     0.074 A 
ATOM     61  C   UNL A   1      44.623  25.555  26.123  1.00  0.00     0.031 C 
ATOM     62  C   UNL A   1      45.741  27.694  26.696  1.00  0.00     0.037 A 
BRANCH  49  63
ATOM     63  C   UNL A   1      44.729  33.152  29.398  1.00  0.00     0.057 A 
ATOM     64  C   UNL A   1      45.309  33.412  30.647  1.00  0.00     0.134 A 
ATOM     65  C   UNL A   1      44.672  34.208  28.481  1.00  0.00     0.134 A 
ATOM     66  F   UNL A   1      45.386  32.445  31.575  1.00  0.00    -0.206 F 
ATOM     67  C   UNL A   1      45.781  34.681  30.985  1.00  0.00     0.040 A 
ATOM     68  C   UNL A   1      45.166  35.476  28.797  1.00  0.00     0.040 A 
ATOM     69  F   UNL A   1      44.137  34.026  27.265  1.00  0.00    -0.206 F 
ATOM     70  C   UNL A   1      45.714  35.717  30.056  1.00  0.00     0.006 A 
ENDBRANCH  49  63
BRANCH  50  71
ATOM     71  C   UNL A   1      40.928  24.177  27.523  1.00  0.00     0.057 A 
ATOM     72  C   UNL A   1      39.866  24.049  26.626  1.00  0.00     0.134 A 
ATOM     73  C   UNL A   1      41.410  23.002  28.116  1.00  0.00     0.134 A 
ATOM     74  F   UNL A   1      39.310  25.139  26.079  1.00  0.00    -0.206 F 
ATOM     75  C   UNL A   1      39.348  22.797  26.284  1.00  0.00     0.040 A 
ATOM     76  C   UNL A   1      40.925  21.743  27.761  1.00  0.00     0.040 A 
ATOM     77  F   UNL A   1      42.319  23.069  29.099  1.00  0.00    -0.206 F 
ATOM     78  C   UNL A   1      39.894  21.638  26.833  1.00  0.00     0.006 A 
ENDBRANCH  50  71
BRANCH  62  79
ATOM     79  C   UNL A   1      46.977  27.157  26.043  1.00  0.00     0.057 A 
ATOM     80  C   UNL A   1      47.263  27.364  24.689  1.00  0.00     0.134 A 
ATOM     81  C   UNL A   1      47.885  26.393  26.789  1.00  0.00     0.134 A 
ATOM     82  F   UNL A   1      46.417  28.061  23.915  1.00  0.00    -0.206 F 
ATOM     83  C   UNL A   1      48.396  26.809  24.093  1.00  0.00     0.040 A 
ATOM     84  C   UNL A   1      49.034  25.856  26.211  1.00  0.00     0.040 A 
ATOM     85  F   UNL A   1      47.666  26.153  28.090  1.00  0.00    -0.206 F 
ATOM     86  C   UNL A   1      49.288  26.056  24.856  1.00  0.00     0.006 A 
ENDBRANCH  62  79
ENDBRANCH  36  37
ENDBRANCH  29  31
ENDBRANCH  28  29
ENDBRANCH  27  28
ENDBRANCH  26  27
ENDBRANCH  25  26
ENDBRANCH   1  25
TORSDOF 17
ENDMDL
