MODEL 1
REMARK VINA RESULT:     -12.1      0.000      0.000
REMARK SMILES Cc1cc(C(=O)N[C@H](C(=O)OCCOCCOC(=O)c2ccc(-c3c4nc(c(-c5c(F)cccc5F)c5ccc([nH]5)c(-c5c(F)cccc5F)c5nc(c(-c6c(F)cccc6F)c6ccc3[nH]6)C=C5)C=C4)cc2)c2c(C)n[nH]c2C)c2ccc(C)c(C)c2n1
REMARK SMILES IDX 14 1 13 2 12 3 11 4 9 5 10 6 8 7 7 8 5 9 6 10 4 12 1 13 2 14
REMARK SMILES IDX 3 15 89 16 88 17 81 18 86 19 82 20 84 21 87 22 83 23 85 24
REMARK SMILES IDX 74 25 75 26 79 27 76 28 77 29 78 30 80 31 15 33 16 34 17 35
REMARK SMILES IDX 18 36 19 37 20 38 21 39 73 40 22 41 72 42 23 43 24 44 25 45
REMARK SMILES IDX 66 46 26 47 71 48 65 49 67 50 27 51 70 52 64 53 63 54 28 56
REMARK SMILES IDX 54 57 37 58 53 59 38 60 41 61 52 62 68 63 39 64 40 65 51 67
REMARK SMILES IDX 69 68 42 69 29 70 30 71 35 72 31 73 32 74 34 75 36 76 33 77
REMARK SMILES IDX 55 78 56 79 61 80 57 81 58 82 60 83 62 84 59 85 43 86 44 87
REMARK SMILES IDX 49 88 45 89 46 90 48 91 50 92 47 93
REMARK H PARENT 7 11 78 32 67 55 41 66
REMARK Flexibility Score: inf
ROOT
ATOM      1  O   UNL A   1      40.196  21.115  25.695  1.00  0.00    -0.374 OA
ENDROOT
BRANCH   1   2
ATOM      2  C   UNL A   1      39.069  21.863  26.125  1.00  0.00     0.202 C 
BRANCH   2   3
ATOM      3  C   UNL A   1      37.753  21.584  25.393  1.00  0.00     0.261 C 
BRANCH   3   4
ATOM      4  O   UNL A   1      37.064  22.806  25.076  1.00  0.00    -0.461 OA
BRANCH   4   5
ATOM      5  C   UNL A   1      36.310  22.725  23.954  1.00  0.00     0.333 C 
ATOM      6  O   UNL A   1      36.798  22.842  22.829  1.00  0.00    -0.249 OA
BRANCH   5   7
ATOM      7  C   UNL A   1      34.794  22.624  24.177  1.00  0.00     0.227 C 
BRANCH   7   8
ATOM      8  N   UNL A   1      34.044  23.124  23.036  1.00  0.00    -0.335 N 
ATOM      9  C   UNL A   1      32.889  23.848  22.895  1.00  0.00     0.252 C 
ATOM     10  O   UNL A   1      32.528  24.025  21.729  1.00  0.00    -0.269 OA
ATOM     11  H   UNL A   1      34.457  22.890  22.174  1.00  0.00     0.165 HD
BRANCH   9  12
ATOM     12  C   UNL A   1      32.074  24.448  24.011  1.00  0.00     0.051 A 
ATOM     13  C   UNL A   1      30.025  23.278  26.993  1.00  0.00     0.067 C 
ATOM     14  C   UNL A   1      30.803  24.118  26.028  1.00  0.00     0.039 A 
ATOM     15  C   UNL A   1      31.254  23.650  24.806  1.00  0.00     0.038 A 
ATOM     16  N   UNL A   1      31.063  25.364  26.435  1.00  0.00    -0.253 NA
ATOM     17  C   UNL A   1      31.755  26.195  25.647  1.00  0.00     0.074 A 
ATOM     18  C   UNL A   1      32.275  25.799  24.396  1.00  0.00     0.013 A 
ATOM     19  C   UNL A   1      31.969  27.486  26.134  1.00  0.00    -0.022 A 
ATOM     20  C   UNL A   1      32.936  26.775  23.618  1.00  0.00     0.011 A 
ATOM     21  C   UNL A   1      32.665  28.435  25.361  1.00  0.00    -0.046 A 
ATOM     22  C   UNL A   1      31.422  27.808  27.506  1.00  0.00     0.047 C 
ATOM     23  C   UNL A   1      33.124  28.072  24.094  1.00  0.00     0.004 A 
ATOM     24  C   UNL A   1      32.947  29.815  25.880  1.00  0.00     0.044 C 
ENDBRANCH   9  12
ENDBRANCH   7   8
BRANCH   7  25
ATOM     25  C   UNL A   1      34.046  21.469  24.852  1.00  0.00     0.029 A 
ATOM     26  C   UNL A   1      33.110  20.462  24.375  1.00  0.00     0.065 A 
ATOM     27  C   UNL A   1      33.921  21.322  26.241  1.00  0.00     0.038 A 
ATOM     28  C   UNL A   1      32.515  20.145  23.048  1.00  0.00     0.069 C 
ATOM     29  N   UNL A   1      32.671  19.675  25.365  1.00  0.00    -0.180 NA
ATOM     30  N   UNL A   1      33.099  20.259  26.472  1.00  0.00    -0.282 N 
ATOM     31  C   UNL A   1      34.407  22.123  27.391  1.00  0.00     0.066 C 
ATOM     32  H   UNL A   1      32.848  19.957  27.375  1.00  0.00     0.190 HD
ENDBRANCH   7  25
ENDBRANCH   5   7
ENDBRANCH   4   5
ENDBRANCH   3   4
ENDBRANCH   2   3
ENDBRANCH   1   2
BRANCH   1  33
ATOM     33  C   UNL A   1      41.391  21.189  26.473  1.00  0.00     0.202 C 
BRANCH  33  34
ATOM     34  C   UNL A   1      42.608  21.762  25.757  1.00  0.00     0.261 C 
BRANCH  34  35
ATOM     35  O   UNL A   1      42.304  23.108  25.376  1.00  0.00    -0.460 OA
BRANCH  35  36
ATOM     36  C   UNL A   1      43.250  24.025  25.682  1.00  0.00     0.338 C 
ATOM     37  O   UNL A   1      44.340  24.163  25.173  1.00  0.00    -0.246 OA
BRANCH  36  38
ATOM     38  C   UNL A   1      42.592  25.043  26.534  1.00  0.00     0.060 A 
ATOM     39  C   UNL A   1      43.164  26.324  26.557  1.00  0.00     0.016 A 
ATOM     40  C   UNL A   1      41.397  24.780  27.212  1.00  0.00     0.016 A 
ATOM     41  C   UNL A   1      42.561  27.340  27.282  1.00  0.00     0.010 A 
ATOM     42  C   UNL A   1      40.812  25.787  27.973  1.00  0.00     0.010 A 
ATOM     43  C   UNL A   1      41.421  27.050  28.040  1.00  0.00    -0.014 A 
BRANCH  43  44
ATOM     44  C   UNL A   1      41.076  27.956  29.148  1.00  0.00     0.031 A 
ATOM     45  C   UNL A   1      41.878  27.808  30.411  1.00  0.00     0.074 A 
ATOM     46  C   UNL A   1      40.108  28.877  29.025  1.00  0.00     0.049 A 
ATOM     47  N   UNL A   1      41.767  28.444  31.544  1.00  0.00    -0.248 NA
ATOM     48  C   UNL A   1      42.954  26.798  30.388  1.00  0.00     0.031 C 
ATOM     49  C   UNL A   1      39.312  29.118  27.823  1.00  0.00     0.029 A 
ATOM     50  N   UNL A   1      39.626  29.773  29.939  1.00  0.00    -0.354 N 
ATOM     51  C   UNL A   1      42.755  27.913  32.365  1.00  0.00     0.074 A 
ATOM     52  C   UNL A   1      43.440  26.887  31.614  1.00  0.00     0.031 C 
ATOM     53  C   UNL A   1      38.417  30.089  28.085  1.00  0.00     0.029 A 
ATOM     54  C   UNL A   1      38.564  30.510  29.477  1.00  0.00     0.049 A 
ATOM     55  H   UNL A   1      40.006  29.881  30.842  1.00  0.00     0.167 HD
ATOM     56  C   UNL A   1      43.062  28.256  33.634  1.00  0.00     0.037 A 
ATOM     57  C   UNL A   1      37.790  31.396  30.131  1.00  0.00     0.037 A 
ATOM     58  C   UNL A   1      42.355  29.263  34.373  1.00  0.00     0.049 A 
ATOM     59  C   UNL A   1      38.100  31.691  31.579  1.00  0.00     0.074 A 
ATOM     60  C   UNL A   1      42.583  29.709  35.660  1.00  0.00     0.029 A 
ATOM     61  N   UNL A   1      41.262  29.965  33.885  1.00  0.00    -0.354 N 
ATOM     62  N   UNL A   1      39.065  31.222  32.335  1.00  0.00    -0.248 NA
ATOM     63  C   UNL A   1      37.211  32.641  32.262  1.00  0.00     0.031 C 
ATOM     64  C   UNL A   1      41.587  30.638  35.975  1.00  0.00     0.029 A 
ATOM     65  C   UNL A   1      40.780  30.817  34.861  1.00  0.00     0.049 A 
ATOM     66  H   UNL A   1      40.887  29.871  32.980  1.00  0.00     0.167 HD
ATOM     67  C   UNL A   1      38.919  31.844  33.570  1.00  0.00     0.074 A 
ATOM     68  C   UNL A   1      37.785  32.737  33.452  1.00  0.00     0.031 C 
ATOM     69  C   UNL A   1      39.649  31.695  34.703  1.00  0.00     0.037 A 
BRANCH  56  70
ATOM     70  C   UNL A   1      44.171  27.503  34.306  1.00  0.00     0.057 A 
ATOM     71  C   UNL A   1      45.476  28.009  34.297  1.00  0.00     0.134 A 
ATOM     72  C   UNL A   1      43.956  26.277  34.950  1.00  0.00     0.134 A 
ATOM     73  F   UNL A   1      45.747  29.183  33.707  1.00  0.00    -0.206 F 
ATOM     74  C   UNL A   1      46.531  27.316  34.892  1.00  0.00     0.040 A 
ATOM     75  C   UNL A   1      44.998  25.588  35.572  1.00  0.00     0.040 A 
ATOM     76  F   UNL A   1      42.723  25.753  35.020  1.00  0.00    -0.206 F 
ATOM     77  C   UNL A   1      46.292  26.104  35.536  1.00  0.00     0.006 A 
ENDBRANCH  56  70
BRANCH  57  78
ATOM     78  C   UNL A   1      36.632  32.039  29.460  1.00  0.00     0.057 A 
ATOM     79  C   UNL A   1      36.697  33.361  29.003  1.00  0.00     0.134 A 
ATOM     80  C   UNL A   1      35.458  31.325  29.189  1.00  0.00     0.134 A 
ATOM     81  F   UNL A   1      37.790  34.104  29.232  1.00  0.00    -0.206 F 
ATOM     82  C   UNL A   1      35.647  33.944  28.292  1.00  0.00     0.040 A 
ATOM     83  C   UNL A   1      34.413  31.885  28.453  1.00  0.00     0.040 A 
ATOM     84  F   UNL A   1      35.340  30.048  29.581  1.00  0.00    -0.206 F 
ATOM     85  C   UNL A   1      34.507  33.200  28.001  1.00  0.00     0.006 A 
ENDBRANCH  57  78
BRANCH  69  86
ATOM     86  C   UNL A   1      39.264  32.547  35.878  1.00  0.00     0.057 A 
ATOM     87  C   UNL A   1      38.340  32.079  36.820  1.00  0.00     0.134 A 
ATOM     88  C   UNL A   1      39.783  33.834  36.062  1.00  0.00     0.134 A 
ATOM     89  F   UNL A   1      37.793  30.860  36.694  1.00  0.00    -0.206 F 
ATOM     90  C   UNL A   1      37.947  32.861  37.905  1.00  0.00     0.040 A 
ATOM     91  C   UNL A   1      39.424  34.612  37.162  1.00  0.00     0.040 A 
ATOM     92  F   UNL A   1      40.681  34.336  35.200  1.00  0.00    -0.206 F 
ATOM     93  C   UNL A   1      38.498  34.128  38.084  1.00  0.00     0.006 A 
ENDBRANCH  69  86
ENDBRANCH  43  44
ENDBRANCH  36  38
ENDBRANCH  35  36
ENDBRANCH  34  35
ENDBRANCH  33  34
ENDBRANCH   1  33
TORSDOF 17
ENDMDL
MODEL 2
REMARK VINA RESULT:     -12.0      3.808      7.546
REMARK SMILES Cc1cc(C(=O)N[C@H](C(=O)OCCOCCOC(=O)c2ccc(-c3c4nc(c(-c5c(F)cccc5F)c5ccc([nH]5)c(-c5c(F)cccc5F)c5nc(c(-c6c(F)cccc6F)c6ccc3[nH]6)C=C5)C=C4)cc2)c2c(C)n[nH]c2C)c2ccc(C)c(C)c2n1
REMARK SMILES IDX 14 1 13 2 12 3 11 4 9 5 10 6 8 7 7 8 5 9 6 10 4 12 1 13 2 14
REMARK SMILES IDX 3 15 89 16 88 17 81 18 86 19 82 20 84 21 87 22 83 23 85 24
REMARK SMILES IDX 74 25 75 26 79 27 76 28 77 29 78 30 80 31 15 33 16 34 17 35
REMARK SMILES IDX 18 36 19 37 20 38 21 39 73 40 22 41 72 42 23 43 24 44 25 45
REMARK SMILES IDX 66 46 26 47 71 48 65 49 67 50 27 51 70 52 64 53 63 54 28 56
REMARK SMILES IDX 54 57 37 58 53 59 38 60 41 61 52 62 68 63 39 64 40 65 51 67
REMARK SMILES IDX 69 68 42 69 29 70 30 71 35 72 31 73 32 74 34 75 36 76 33 77
REMARK SMILES IDX 55 78 56 79 61 80 57 81 58 82 60 83 62 84 59 85 43 86 44 87
REMARK SMILES IDX 49 88 45 89 46 90 48 91 50 92 47 93
REMARK H PARENT 7 11 78 32 67 55 41 66
REMARK Flexibility Score: inf
ROOT
ATOM      1  O   UNL A   1      35.025  19.001  24.604  1.00  0.00    -0.374 OA
ENDROOT
BRANCH   1   2
ATOM      2  C   UNL A   1      33.666  18.787  24.952  1.00  0.00     0.202 C 
BRANCH   2   3
ATOM      3  C   UNL A   1      32.625  19.258  23.932  1.00  0.00     0.261 C 
BRANCH   3   4
ATOM      4  O   UNL A   1      31.830  20.336  24.458  1.00  0.00    -0.461 OA
BRANCH   4   5
ATOM      5  C   UNL A   1      31.969  21.493  23.770  1.00  0.00     0.333 C 
ATOM      6  O   UNL A   1      32.000  21.523  22.538  1.00  0.00    -0.249 OA
BRANCH   5   7
ATOM      7  C   UNL A   1      32.231  22.745  24.621  1.00  0.00     0.227 C 
BRANCH   7   8
ATOM      8  N   UNL A   1      31.235  22.906  25.668  1.00  0.00    -0.335 N 
ATOM      9  C   UNL A   1      30.748  23.981  26.366  1.00  0.00     0.252 C 
ATOM     10  O   UNL A   1      29.932  23.698  27.247  1.00  0.00    -0.269 OA
ATOM     11  H   UNL A   1      30.819  22.055  25.936  1.00  0.00     0.165 HD
BRANCH   9  12
ATOM     12  C   UNL A   1      31.097  25.426  26.129  1.00  0.00     0.051 A 
ATOM     13  C   UNL A   1      34.102  27.731  26.480  1.00  0.00     0.067 C 
ATOM     14  C   UNL A   1      32.772  27.154  26.101  1.00  0.00     0.039 A 
ATOM     15  C   UNL A   1      32.287  25.965  26.615  1.00  0.00     0.038 A 
ATOM     16  N   UNL A   1      32.080  27.858  25.201  1.00  0.00    -0.253 NA
ATOM     17  C   UNL A   1      30.881  27.426  24.793  1.00  0.00     0.074 A 
ATOM     18  C   UNL A   1      30.315  26.214  25.243  1.00  0.00     0.013 A 
ATOM     19  C   UNL A   1      30.210  28.227  23.865  1.00  0.00    -0.022 A 
ATOM     20  C   UNL A   1      29.017  25.887  24.796  1.00  0.00     0.011 A 
ATOM     21  C   UNL A   1      28.932  27.864  23.400  1.00  0.00    -0.046 A 
ATOM     22  C   UNL A   1      30.913  29.482  23.398  1.00  0.00     0.047 C 
ATOM     23  C   UNL A   1      28.337  26.700  23.892  1.00  0.00     0.004 A 
ATOM     24  C   UNL A   1      28.210  28.682  22.370  1.00  0.00     0.044 C 
ENDBRANCH   9  12
ENDBRANCH   7   8
BRANCH   7  25
ATOM     25  C   UNL A   1      33.596  23.261  25.088  1.00  0.00     0.029 A 
ATOM     26  C   UNL A   1      34.348  23.136  26.328  1.00  0.00     0.065 A 
ATOM     27  C   UNL A   1      34.323  24.262  24.428  1.00  0.00     0.038 A 
ATOM     28  C   UNL A   1      34.100  22.453  27.627  1.00  0.00     0.069 C 
ATOM     29  N   UNL A   1      35.500  23.818  26.288  1.00  0.00    -0.180 NA
ATOM     30  N   UNL A   1      35.420  24.546  25.186  1.00  0.00    -0.282 N 
ATOM     31  C   UNL A   1      34.063  25.063  23.206  1.00  0.00     0.066 C 
ATOM     32  H   UNL A   1      36.087  25.225  24.938  1.00  0.00     0.190 HD
ENDBRANCH   7  25
ENDBRANCH   5   7
ENDBRANCH   4   5
ENDBRANCH   3   4
ENDBRANCH   2   3
ENDBRANCH   1   2
BRANCH   1  33
ATOM     33  C   UNL A   1      35.655  20.202  25.053  1.00  0.00     0.202 C 
BRANCH  33  34
ATOM     34  C   UNL A   1      37.129  20.346  24.696  1.00  0.00     0.261 C 
BRANCH  34  35
ATOM     35  O   UNL A   1      37.730  21.231  25.647  1.00  0.00    -0.460 OA
BRANCH  35  36
ATOM     36  C   UNL A   1      38.993  20.915  26.015  1.00  0.00     0.338 C 
ATOM     37  O   UNL A   1      39.626  19.927  25.716  1.00  0.00    -0.246 OA
BRANCH  36  38
ATOM     38  C   UNL A   1      39.587  22.145  26.588  1.00  0.00     0.060 A 
ATOM     39  C   UNL A   1      39.024  23.369  26.197  1.00  0.00     0.016 A 
ATOM     40  C   UNL A   1      40.599  22.098  27.553  1.00  0.00     0.016 A 
ATOM     41  C   UNL A   1      39.491  24.554  26.745  1.00  0.00     0.010 A 
ATOM     42  C   UNL A   1      41.096  23.288  28.074  1.00  0.00     0.010 A 
ATOM     43  C   UNL A   1      40.570  24.513  27.635  1.00  0.00    -0.014 A 
BRANCH  43  44
ATOM     44  C   UNL A   1      41.353  25.744  27.833  1.00  0.00     0.031 A 
ATOM     45  C   UNL A   1      40.657  26.875  28.537  1.00  0.00     0.074 A 
ATOM     46  C   UNL A   1      42.626  25.838  27.421  1.00  0.00     0.049 A 
ATOM     47  N   UNL A   1      41.091  28.074  28.812  1.00  0.00    -0.248 NA
ATOM     48  C   UNL A   1      39.278  26.614  28.993  1.00  0.00     0.031 C 
ATOM     49  C   UNL A   1      43.391  24.777  26.770  1.00  0.00     0.029 A 
ATOM     50  N   UNL A   1      43.494  26.895  27.483  1.00  0.00    -0.354 N 
ATOM     51  C   UNL A   1      40.042  28.706  29.469  1.00  0.00     0.074 A 
ATOM     52  C   UNL A   1      38.942  27.773  29.532  1.00  0.00     0.031 C 
ATOM     53  C   UNL A   1      44.615  25.249  26.469  1.00  0.00     0.029 A 
ATOM     54  C   UNL A   1      44.701  26.648  26.881  1.00  0.00     0.049 A 
ATOM     55  H   UNL A   1      43.273  27.750  27.920  1.00  0.00     0.167 HD
ATOM     56  C   UNL A   1      40.005  29.956  29.977  1.00  0.00     0.037 A 
ATOM     57  C   UNL A   1      45.736  27.482  26.668  1.00  0.00     0.037 A 
ATOM     58  C   UNL A   1      41.100  30.879  29.885  1.00  0.00     0.049 A 
ATOM     59  C   UNL A   1      45.629  28.904  27.165  1.00  0.00     0.074 A 
ATOM     60  C   UNL A   1      41.187  32.167  30.374  1.00  0.00     0.029 A 
ATOM     61  N   UNL A   1      42.297  30.606  29.238  1.00  0.00    -0.354 N 
ATOM     62  N   UNL A   1      44.655  29.481  27.828  1.00  0.00    -0.248 NA
ATOM     63  C   UNL A   1      46.768  29.788  26.884  1.00  0.00     0.031 C 
ATOM     64  C   UNL A   1      42.414  32.699  29.967  1.00  0.00     0.029 A 
ATOM     65  C   UNL A   1      43.116  31.719  29.281  1.00  0.00     0.049 A 
ATOM     66  H   UNL A   1      42.528  29.750  28.811  1.00  0.00     0.167 HD
ATOM     67  C   UNL A   1      45.077  30.784  28.071  1.00  0.00     0.074 A 
ATOM     68  C   UNL A   1      46.403  30.901  27.501  1.00  0.00     0.031 C 
ATOM     69  C   UNL A   1      44.434  31.796  28.705  1.00  0.00     0.037 A 
BRANCH  56  70
ATOM     70  C   UNL A   1      38.729  30.403  30.624  1.00  0.00     0.057 A 
ATOM     71  C   UNL A   1      37.734  31.034  29.868  1.00  0.00     0.134 A 
ATOM     72  C   UNL A   1      38.485  30.222  31.993  1.00  0.00     0.134 A 
ATOM     73  F   UNL A   1      37.901  31.228  28.551  1.00  0.00    -0.206 F 
ATOM     74  C   UNL A   1      36.549  31.483  30.451  1.00  0.00     0.040 A 
ATOM     75  C   UNL A   1      37.291  30.643  32.582  1.00  0.00     0.040 A 
ATOM     76  F   UNL A   1      39.384  29.598  32.767  1.00  0.00    -0.206 F 
ATOM     77  C   UNL A   1      36.323  31.284  31.811  1.00  0.00     0.006 A 
ENDBRANCH  56  70
BRANCH  57  78
ATOM     78  C   UNL A   1      46.940  27.032  25.924  1.00  0.00     0.057 A 
ATOM     79  C   UNL A   1      47.092  27.296  24.557  1.00  0.00     0.134 A 
ATOM     80  C   UNL A   1      48.004  26.395  26.575  1.00  0.00     0.134 A 
ATOM     81  F   UNL A   1      46.110  27.899  23.869  1.00  0.00    -0.206 F 
ATOM     82  C   UNL A   1      48.258  26.956  23.869  1.00  0.00     0.040 A 
ATOM     83  C   UNL A   1      49.187  26.077  25.908  1.00  0.00     0.040 A 
ATOM     84  F   UNL A   1      47.930  26.133  27.888  1.00  0.00    -0.206 F 
ATOM     85  C   UNL A   1      49.317  26.360  24.549  1.00  0.00     0.006 A 
ENDBRANCH  57  78
BRANCH  69  86
ATOM     86  C   UNL A   1      45.177  33.092  28.846  1.00  0.00     0.057 A 
ATOM     87  C   UNL A   1      46.010  33.316  29.949  1.00  0.00     0.134 A 
ATOM     88  C   UNL A   1      45.048  34.125  27.909  1.00  0.00     0.134 A 
ATOM     89  F   UNL A   1      46.164  32.373  30.890  1.00  0.00    -0.206 F 
ATOM     90  C   UNL A   1      46.690  34.522  30.115  1.00  0.00     0.040 A 
ATOM     91  C   UNL A   1      45.751  35.323  28.047  1.00  0.00     0.040 A 
ATOM     92  F   UNL A   1      44.274  33.969  26.825  1.00  0.00    -0.206 F 
ATOM     93  C   UNL A   1      46.569  35.526  29.156  1.00  0.00     0.006 A 
ENDBRANCH  69  86
ENDBRANCH  43  44
ENDBRANCH  36  38
ENDBRANCH  35  36
ENDBRANCH  34  35
ENDBRANCH  33  34
ENDBRANCH   1  33
TORSDOF 17
ENDMDL
MODEL 3
REMARK VINA RESULT:     -11.9      3.658      7.289
REMARK SMILES Cc1cc(C(=O)N[C@H](C(=O)OCCOCCOC(=O)c2ccc(-c3c4nc(c(-c5c(F)cccc5F)c5ccc([nH]5)c(-c5c(F)cccc5F)c5nc(c(-c6c(F)cccc6F)c6ccc3[nH]6)C=C5)C=C4)cc2)c2c(C)n[nH]c2C)c2ccc(C)c(C)c2n1
REMARK SMILES IDX 14 1 13 2 12 3 11 4 9 5 10 6 8 7 7 8 5 9 6 10 4 12 1 13 2 14
REMARK SMILES IDX 3 15 89 16 88 17 81 18 86 19 82 20 84 21 87 22 83 23 85 24
REMARK SMILES IDX 74 25 75 26 79 27 76 28 77 29 78 30 80 31 15 33 16 34 17 35
REMARK SMILES IDX 18 36 19 37 20 38 21 39 73 40 22 41 72 42 23 43 24 44 25 45
REMARK SMILES IDX 66 46 26 47 71 48 65 49 67 50 27 51 70 52 64 53 63 54 28 56
REMARK SMILES IDX 54 57 37 58 53 59 38 60 41 61 52 62 68 63 39 64 40 65 51 67
REMARK SMILES IDX 69 68 42 69 29 70 30 71 35 72 31 73 32 74 34 75 36 76 33 77
REMARK SMILES IDX 55 78 56 79 61 80 57 81 58 82 60 83 62 84 59 85 43 86 44 87
REMARK SMILES IDX 49 88 45 89 46 90 48 91 50 92 47 93
REMARK H PARENT 7 11 78 32 67 55 41 66
REMARK Flexibility Score: inf
ROOT
ATOM      1  O   UNL A   1      37.612  19.760  25.341  1.00  0.00    -0.374 OA
ENDROOT
BRANCH   1   2
ATOM      2  C   UNL A   1      37.432  20.983  24.644  1.00  0.00     0.202 C 
BRANCH   2   3
ATOM      3  C   UNL A   1      37.018  22.190  25.491  1.00  0.00     0.261 C 
BRANCH   3   4
ATOM      4  O   UNL A   1      36.805  23.353  24.671  1.00  0.00    -0.461 OA
BRANCH   4   5
ATOM      5  C   UNL A   1      36.006  23.121  23.603  1.00  0.00     0.333 C 
ATOM      6  O   UNL A   1      36.460  22.960  22.469  1.00  0.00    -0.249 OA
BRANCH   5   7
ATOM      7  C   UNL A   1      34.496  23.214  23.870  1.00  0.00     0.227 C 
BRANCH   7   8
ATOM      8  N   UNL A   1      33.799  23.915  22.803  1.00  0.00    -0.335 N 
ATOM      9  C   UNL A   1      32.712  24.747  22.758  1.00  0.00     0.252 C 
ATOM     10  O   UNL A   1      32.376  25.099  21.624  1.00  0.00    -0.269 OA
ATOM     11  H   UNL A   1      34.197  23.756  21.916  1.00  0.00     0.165 HD
BRANCH   9  12
ATOM     12  C   UNL A   1      31.944  25.271  23.943  1.00  0.00     0.051 A 
ATOM     13  C   UNL A   1      29.728  23.926  26.725  1.00  0.00     0.067 C 
ATOM     14  C   UNL A   1      30.608  24.804  25.889  1.00  0.00     0.039 A 
ATOM     15  C   UNL A   1      31.030  24.463  24.616  1.00  0.00     0.038 A 
ATOM     16  N   UNL A   1      30.989  25.946  26.467  1.00  0.00    -0.253 NA
ATOM     17  C   UNL A   1      31.779  26.799  25.805  1.00  0.00     0.074 A 
ATOM     18  C   UNL A   1      32.278  26.527  24.513  1.00  0.00     0.013 A 
ATOM     19  C   UNL A   1      32.119  27.981  26.468  1.00  0.00    -0.022 A 
ATOM     20  C   UNL A   1      33.052  27.525  23.882  1.00  0.00     0.011 A 
ATOM     21  C   UNL A   1      32.925  28.948  25.838  1.00  0.00    -0.046 A 
ATOM     22  C   UNL A   1      31.582  28.167  27.869  1.00  0.00     0.047 C 
ATOM     23  C   UNL A   1      33.367  28.716  24.533  1.00  0.00     0.004 A 
ATOM     24  C   UNL A   1      33.340  30.205  26.544  1.00  0.00     0.044 C 
ENDBRANCH   9  12
ENDBRANCH   7   8
BRANCH   7  25
ATOM     25  C   UNL A   1      33.606  22.118  24.468  1.00  0.00     0.029 A 
ATOM     26  C   UNL A   1      32.639  21.189  23.904  1.00  0.00     0.065 A 
ATOM     27  C   UNL A   1      33.351  21.979  25.840  1.00  0.00     0.038 A 
ATOM     28  C   UNL A   1      32.137  20.922  22.529  1.00  0.00     0.069 C 
ATOM     29  N   UNL A   1      32.057  20.436  24.846  1.00  0.00    -0.180 NA
ATOM     30  N   UNL A   1      32.432  20.983  25.991  1.00  0.00    -0.282 N 
ATOM     31  C   UNL A   1      33.797  22.738  27.034  1.00  0.00     0.066 C 
ATOM     32  H   UNL A   1      32.082  20.699  26.866  1.00  0.00     0.190 HD
ENDBRANCH   7  25
ENDBRANCH   5   7
ENDBRANCH   4   5
ENDBRANCH   3   4
ENDBRANCH   2   3
ENDBRANCH   1   2
BRANCH   1  33
ATOM     33  C   UNL A   1      38.912  19.168  25.341  1.00  0.00     0.202 C 
BRANCH  33  34
ATOM     34  C   UNL A   1      39.993  19.951  26.075  1.00  0.00     0.261 C 
BRANCH  34  35
ATOM     35  O   UNL A   1      41.141  19.106  26.206  1.00  0.00    -0.460 OA
BRANCH  35  36
ATOM     36  C   UNL A   1      42.311  19.652  25.803  1.00  0.00     0.338 C 
ATOM     37  O   UNL A   1      43.051  19.255  24.931  1.00  0.00    -0.246 OA
BRANCH  36  38
ATOM     38  C   UNL A   1      42.371  21.008  26.395  1.00  0.00     0.060 A 
ATOM     39  C   UNL A   1      42.560  22.083  25.514  1.00  0.00     0.016 A 
ATOM     40  C   UNL A   1      42.153  21.230  27.759  1.00  0.00     0.016 A 
ATOM     41  C   UNL A   1      42.560  23.384  25.996  1.00  0.00     0.010 A 
ATOM     42  C   UNL A   1      42.194  22.530  28.251  1.00  0.00     0.010 A 
ATOM     43  C   UNL A   1      42.442  23.598  27.374  1.00  0.00    -0.014 A 
BRANCH  43  44
ATOM     44  C   UNL A   1      42.913  24.882  27.918  1.00  0.00     0.031 A 
ATOM     45  C   UNL A   1      41.860  25.920  28.194  1.00  0.00     0.074 A 
ATOM     46  C   UNL A   1      44.211  25.102  28.171  1.00  0.00     0.049 A 
ATOM     47  N   UNL A   1      41.993  27.139  28.638  1.00  0.00    -0.248 NA
ATOM     48  C   UNL A   1      40.464  25.523  27.930  1.00  0.00     0.031 C 
ATOM     49  C   UNL A   1      45.292  24.138  27.975  1.00  0.00     0.029 A 
ATOM     50  N   UNL A   1      44.838  26.225  28.639  1.00  0.00    -0.354 N 
ATOM     51  C   UNL A   1      40.703  27.651  28.705  1.00  0.00     0.074 A 
ATOM     52  C   UNL A   1      39.802  26.626  28.234  1.00  0.00     0.031 C 
ATOM     53  C   UNL A   1      46.459  24.724  28.300  1.00  0.00     0.029 A 
ATOM     54  C   UNL A   1      46.204  26.107  28.695  1.00  0.00     0.049 A 
ATOM     55  H   UNL A   1      44.355  27.039  28.911  1.00  0.00     0.167 HD
ATOM     56  C   UNL A   1      40.308  28.872  29.125  1.00  0.00     0.037 A 
ATOM     57  C   UNL A   1      47.129  27.035  29.003  1.00  0.00     0.037 A 
ATOM     58  C   UNL A   1      41.220  29.887  29.569  1.00  0.00     0.049 A 
ATOM     59  C   UNL A   1      46.662  28.420  29.380  1.00  0.00     0.074 A 
ATOM     60  C   UNL A   1      40.939  31.158  30.032  1.00  0.00     0.029 A 
ATOM     61  N   UNL A   1      42.600  29.745  29.580  1.00  0.00    -0.354 N 
ATOM     62  N   UNL A   1      45.440  28.885  29.488  1.00  0.00    -0.248 NA
ATOM     63  C   UNL A   1      47.707  29.409  29.678  1.00  0.00     0.031 C 
ATOM     64  C   UNL A   1      42.154  31.809  30.265  1.00  0.00     0.029 A 
ATOM     65  C   UNL A   1      43.188  30.921  30.008  1.00  0.00     0.049 A 
ATOM     66  H   UNL A   1      43.088  28.930  29.322  1.00  0.00     0.167 HD
ATOM     67  C   UNL A   1      45.567  30.207  29.898  1.00  0.00     0.074 A 
ATOM     68  C   UNL A   1      46.987  30.461  30.038  1.00  0.00     0.031 C 
ATOM     69  C   UNL A   1      44.607  31.134  30.138  1.00  0.00     0.037 A 
BRANCH  56  70
ATOM     70  C   UNL A   1      38.842  29.181  29.075  1.00  0.00     0.057 A 
ATOM     71  C   UNL A   1      38.057  29.077  30.229  1.00  0.00     0.134 A 
ATOM     72  C   UNL A   1      38.202  29.567  27.889  1.00  0.00     0.134 A 
ATOM     73  F   UNL A   1      38.611  28.723  31.399  1.00  0.00    -0.206 F 
ATOM     74  C   UNL A   1      36.686  29.334  30.205  1.00  0.00     0.040 A 
ATOM     75  C   UNL A   1      36.836  29.853  27.859  1.00  0.00     0.040 A 
ATOM     76  F   UNL A   1      38.902  29.714  26.755  1.00  0.00    -0.206 F 
ATOM     77  C   UNL A   1      36.073  29.727  29.018  1.00  0.00     0.006 A 
ENDBRANCH  56  70
BRANCH  57  78
ATOM     78  C   UNL A   1      48.579  26.720  28.934  1.00  0.00     0.057 A 
ATOM     79  C   UNL A   1      49.269  26.218  30.045  1.00  0.00     0.134 A 
ATOM     80  C   UNL A   1      49.295  26.836  27.735  1.00  0.00     0.134 A 
ATOM     81  F   UNL A   1      48.646  26.085  31.226  1.00  0.00    -0.206 F 
ATOM     82  C   UNL A   1      50.608  25.834  29.965  1.00  0.00     0.040 A 
ATOM     83  C   UNL A   1      50.625  26.427  27.633  1.00  0.00     0.040 A 
ATOM     84  F   UNL A   1      48.686  27.290  26.629  1.00  0.00    -0.206 F 
ATOM     85  C   UNL A   1      51.286  25.923  28.752  1.00  0.00     0.006 A 
ENDBRANCH  57  78
BRANCH  69  86
ATOM     86  C   UNL A   1      45.064  32.482  30.613  1.00  0.00     0.057 A 
ATOM     87  C   UNL A   1      45.329  33.505  29.695  1.00  0.00     0.134 A 
ATOM     88  C   UNL A   1      45.270  32.758  31.971  1.00  0.00     0.134 A 
ATOM     89  F   UNL A   1      45.168  33.300  28.379  1.00  0.00    -0.206 F 
ATOM     90  C   UNL A   1      45.780  34.757  30.110  1.00  0.00     0.040 A 
ATOM     91  C   UNL A   1      45.687  34.018  32.400  1.00  0.00     0.040 A 
ATOM     92  F   UNL A   1      45.024  31.824  32.901  1.00  0.00    -0.206 F 
ATOM     93  C   UNL A   1      45.950  35.020  31.468  1.00  0.00     0.006 A 
ENDBRANCH  69  86
ENDBRANCH  43  44
ENDBRANCH  36  38
ENDBRANCH  35  36
ENDBRANCH  34  35
ENDBRANCH  33  34
ENDBRANCH   1  33
TORSDOF 17
ENDMDL
