MODEL 1
REMARK VINA RESULT:     -12.9      0.000      0.000
REMARK SMILES O=C(OCCOCCOC(=O)c1ccc(-c2c3nc(c(-c4c(F)cccc4F)c4ccc([nH]4)c(-c4c(F)cccc4F)c4nc(c(-c5c(F)cccc5F)c5ccc2[nH]5)C=C4)C=C3)cc1)C1=Cc2c(ccc(Cl)c2-c2ccccc2)O[C@H]1C(F)(F)F
REMARK SMILES IDX 7 1 6 2 5 3 4 4 3 5 2 6 1 7 66 8 67 9 82 10 68 11 81 12
REMARK SMILES IDX 69 13 74 14 70 15 72 16 71 17 73 18 83 19 84 20 85 21 86 22
REMARK SMILES IDX 75 23 76 24 80 25 77 26 79 27 78 28 8 29 9 30 10 31 11 32
REMARK SMILES IDX 12 33 13 34 65 35 14 36 64 37 15 38 16 39 17 40 58 41 18 42
REMARK SMILES IDX 63 43 57 44 59 45 19 46 62 47 56 48 55 49 20 51 46 52 29 53
REMARK SMILES IDX 45 54 30 55 33 56 44 57 60 58 31 59 32 60 43 62 61 63 34 64
REMARK SMILES IDX 21 65 22 66 27 67 23 68 24 69 26 70 28 71 25 72 47 73 48 74
REMARK SMILES IDX 53 75 49 76 50 77 52 78 54 79 51 80 35 81 36 82 41 83 37 84
REMARK SMILES IDX 38 85 40 86 42 87 39 88
REMARK H PARENT 59 50 33 61
REMARK Flexibility Score: inf
ROOT
ATOM      1  C   UNL A   1      33.326  33.321  27.618  1.00  0.00     0.202 C 
ENDROOT
BRANCH   1   2
ATOM      2  O   UNL A   1      31.933  33.228  27.352  1.00  0.00    -0.374 OA
BRANCH   2   3
ATOM      3  C   UNL A   1      31.424  32.114  26.654  1.00  0.00     0.202 C 
BRANCH   3   4
ATOM      4  C   UNL A   1      32.280  30.842  26.529  1.00  0.00     0.261 C 
BRANCH   4   5
ATOM      5  O   UNL A   1      31.544  29.743  25.975  1.00  0.00    -0.460 OA
BRANCH   5   6
ATOM      6  C   UNL A   1      31.953  29.056  24.886  1.00  0.00     0.338 C 
ATOM      7  O   UNL A   1      33.077  29.248  24.433  1.00  0.00    -0.246 OA
BRANCH   6   8
ATOM      8  C   UNL A   1      30.998  28.198  24.137  1.00  0.00     0.087 C 
ATOM      9  C   UNL A   1      30.743  26.882  24.284  1.00  0.00     0.028 C 
ATOM     10  C   UNL A   1      30.539  28.804  22.833  1.00  0.00     0.316 C 
ATOM     11  C   UNL A   1      31.491  26.113  23.283  1.00  0.00     0.027 A 
ATOM     12  O   UNL A   1      30.519  27.798  21.763  1.00  0.00    -0.475 OA
ATOM     13  C   UNL A   1      31.351  26.708  21.985  1.00  0.00     0.128 A 
ATOM     14  C   UNL A   1      32.335  24.999  23.577  1.00  0.00     0.011 A 
ATOM     15  C   UNL A   1      32.050  26.216  20.910  1.00  0.00     0.049 A 
ATOM     16  C   UNL A   1      33.129  24.646  22.460  1.00  0.00     0.049 A 
ATOM     17  C   UNL A   1      32.964  25.207  21.163  1.00  0.00     0.025 A 
ATOM     18  Cl  UNL A   1      34.481  23.599  22.547  1.00  0.00    -0.084 Cl
BRANCH  10  19
ATOM     19  C   UNL A   1      29.165  29.452  23.090  1.00  0.00     0.430 C 
ATOM     20  F   UNL A   1      28.268  28.552  23.574  1.00  0.00    -0.167 F 
ATOM     21  F   UNL A   1      29.233  30.456  23.990  1.00  0.00    -0.167 F 
ATOM     22  F   UNL A   1      28.626  29.949  21.952  1.00  0.00    -0.167 F 
ENDBRANCH  10  19
BRANCH  14  23
ATOM     23  C   UNL A   1      32.393  24.264  24.949  1.00  0.00    -0.016 A 
ATOM     24  C   UNL A   1      33.967  24.003  25.820  1.00  0.00     0.009 A 
ATOM     25  C   UNL A   1      30.899  23.575  25.706  1.00  0.00     0.009 A 
ATOM     26  C   UNL A   1      34.074  23.019  27.339  1.00  0.00     0.001 A 
ATOM     27  C   UNL A   1      30.973  22.597  27.243  1.00  0.00     0.001 A 
ATOM     28  C   UNL A   1      32.570  22.324  28.064  1.00  0.00     0.000 A 
ENDBRANCH  14  23
ENDBRANCH   6   8
ENDBRANCH   5   6
ENDBRANCH   4   5
ENDBRANCH   3   4
ENDBRANCH   2   3
ENDBRANCH   1   2
BRANCH   1  29
ATOM     29  C   UNL A   1      33.919  33.800  29.070  1.00  0.00     0.261 C 
BRANCH  29  30
ATOM     30  O   UNL A   1      34.627  32.827  30.679  1.00  0.00    -0.460 OA
BRANCH  30  31
ATOM     31  C   UNL A   1      35.397  32.446  31.807  1.00  0.00     0.338 C 
ATOM     32  O   UNL A   1      35.188  32.637  32.997  1.00  0.00    -0.246 OA
BRANCH  31  33
ATOM     33  C   UNL A   1      36.605  31.732  31.380  1.00  0.00     0.060 A 
ATOM     34  C   UNL A   1      37.336  31.021  32.330  1.00  0.00     0.016 A 
ATOM     35  C   UNL A   1      36.980  31.752  30.034  1.00  0.00     0.016 A 
ATOM     36  C   UNL A   1      38.412  30.247  31.910  1.00  0.00     0.010 A 
ATOM     37  C   UNL A   1      37.993  30.921  29.601  1.00  0.00     0.010 A 
ATOM     38  C   UNL A   1      38.722  30.184  30.545  1.00  0.00    -0.014 A 
BRANCH  38  39
ATOM     39  C   UNL A   1      40.009  29.643  30.087  1.00  0.00     0.031 A 
ATOM     40  C   UNL A   1      41.102  30.650  29.934  1.00  0.00     0.074 A 
ATOM     41  C   UNL A   1      40.131  28.367  29.689  1.00  0.00     0.049 A 
ATOM     42  N   UNL A   1      42.260  30.532  29.352  1.00  0.00    -0.248 NA
ATOM     43  C   UNL A   1      40.821  31.999  30.465  1.00  0.00     0.031 C 
ATOM     44  C   UNL A   1      39.089  27.350  29.778  1.00  0.00     0.029 A 
ATOM     45  N   UNL A   1      41.175  27.724  29.082  1.00  0.00    -0.354 N 
ATOM     46  C   UNL A   1      42.834  31.793  29.429  1.00  0.00     0.074 A 
ATOM     47  C   UNL A   1      41.888  32.670  30.075  1.00  0.00     0.031 C 
ATOM     48  C   UNL A   1      39.536  26.207  29.231  1.00  0.00     0.029 A 
ATOM     49  C   UNL A   1      40.875  26.438  28.702  1.00  0.00     0.049 A 
ATOM     50  H   UNL A   1      42.054  28.140  28.934  1.00  0.00     0.167 HD
ATOM     51  C   UNL A   1      44.050  32.177  28.989  1.00  0.00     0.037 A 
ATOM     52  C   UNL A   1      41.593  25.573  27.963  1.00  0.00     0.037 A 
ATOM     53  C   UNL A   1      44.942  31.285  28.311  1.00  0.00     0.049 A 
ATOM     54  C   UNL A   1      42.935  26.026  27.461  1.00  0.00     0.074 A 
ATOM     55  C   UNL A   1      46.212  31.532  27.832  1.00  0.00     0.029 A 
ATOM     56  N   UNL A   1      44.632  29.967  27.997  1.00  0.00    -0.354 N 
ATOM     57  N   UNL A   1      43.511  27.199  27.597  1.00  0.00    -0.248 NA
ATOM     58  C   UNL A   1      43.729  25.050  26.706  1.00  0.00     0.031 C 
ATOM     59  C   UNL A   1      46.651  30.375  27.181  1.00  0.00     0.029 A 
ATOM     60  C   UNL A   1      45.679  29.391  27.306  1.00  0.00     0.049 A 
ATOM     61  H   UNL A   1      43.791  29.512  28.231  1.00  0.00     0.167 HD
ATOM     62  C   UNL A   1      44.743  27.097  26.967  1.00  0.00     0.074 A 
ATOM     63  C   UNL A   1      44.831  25.743  26.454  1.00  0.00     0.031 C 
ATOM     64  C   UNL A   1      45.718  28.030  26.826  1.00  0.00     0.037 A 
BRANCH  51  65
ATOM     65  C   UNL A   1      44.416  33.615  29.194  1.00  0.00     0.057 A 
ATOM     66  C   UNL A   1      44.124  34.599  28.237  1.00  0.00     0.134 A 
ATOM     67  C   UNL A   1      45.133  34.012  30.329  1.00  0.00     0.134 A 
ATOM     68  F   UNL A   1      43.471  34.278  27.109  1.00  0.00    -0.206 F 
ATOM     69  C   UNL A   1      44.564  35.915  28.384  1.00  0.00     0.040 A 
ATOM     70  C   UNL A   1      45.552  35.332  30.501  1.00  0.00     0.040 A 
ATOM     71  F   UNL A   1      45.461  33.120  31.274  1.00  0.00    -0.206 F 
ATOM     72  C   UNL A   1      45.278  36.285  29.521  1.00  0.00     0.006 A 
ENDBRANCH  51  65
BRANCH  52  73
ATOM     73  C   UNL A   1      41.049  24.226  27.657  1.00  0.00     0.057 A 
ATOM     74  C   UNL A   1      40.054  24.049  26.689  1.00  0.00     0.134 A 
ATOM     75  C   UNL A   1      41.533  23.076  28.296  1.00  0.00     0.134 A 
ATOM     76  F   UNL A   1      39.540  25.110  26.050  1.00  0.00    -0.206 F 
ATOM     77  C   UNL A   1      39.554  22.783  26.373  1.00  0.00     0.040 A 
ATOM     78  C   UNL A   1      41.060  21.803  27.973  1.00  0.00     0.040 A 
ATOM     79  F   UNL A   1      42.494  23.172  29.225  1.00  0.00    -0.206 F 
ATOM     80  C   UNL A   1      40.063  21.654  27.011  1.00  0.00     0.006 A 
ENDBRANCH  52  73
BRANCH  64  81
ATOM     81  C   UNL A   1      46.974  27.603  26.132  1.00  0.00     0.057 A 
ATOM     82  C   UNL A   1      48.061  27.072  26.834  1.00  0.00     0.134 A 
ATOM     83  C   UNL A   1      47.048  27.637  24.734  1.00  0.00     0.134 A 
ATOM     84  F   UNL A   1      48.049  27.025  28.175  1.00  0.00    -0.206 F 
ATOM     85  C   UNL A   1      49.187  26.594  26.165  1.00  0.00     0.040 A 
ATOM     86  C   UNL A   1      48.156  27.136  24.055  1.00  0.00     0.040 A 
ATOM     87  F   UNL A   1      46.029  28.124  24.009  1.00  0.00    -0.206 F 
ATOM     88  C   UNL A   1      49.231  26.614  24.772  1.00  0.00     0.006 A 
ENDBRANCH  64  81
ENDBRANCH  38  39
ENDBRANCH  31  33
ENDBRANCH  30  31
ENDBRANCH  29  30
ENDBRANCH   1  29
TORSDOF 16
ENDMDL
MODEL 2
REMARK VINA RESULT:     -12.8      3.643      8.319
REMARK SMILES O=C(OCCOCCOC(=O)c1ccc(-c2c3nc(c(-c4c(F)cccc4F)c4ccc([nH]4)c(-c4c(F)cccc4F)c4nc(c(-c5c(F)cccc5F)c5ccc2[nH]5)C=C4)C=C3)cc1)C1=Cc2c(ccc(Cl)c2-c2ccccc2)O[C@H]1C(F)(F)F
REMARK SMILES IDX 7 1 6 2 5 3 4 4 3 5 2 6 1 7 66 8 67 9 82 10 68 11 81 12
REMARK SMILES IDX 69 13 74 14 70 15 72 16 71 17 73 18 83 19 84 20 85 21 86 22
REMARK SMILES IDX 75 23 76 24 80 25 77 26 79 27 78 28 8 29 9 30 10 31 11 32
REMARK SMILES IDX 12 33 13 34 65 35 14 36 64 37 15 38 16 39 17 40 58 41 18 42
REMARK SMILES IDX 63 43 57 44 59 45 19 46 62 47 56 48 55 49 20 51 46 52 29 53
REMARK SMILES IDX 45 54 30 55 33 56 44 57 60 58 31 59 32 60 43 62 61 63 34 64
REMARK SMILES IDX 21 65 22 66 27 67 23 68 24 69 26 70 28 71 25 72 47 73 48 74
REMARK SMILES IDX 53 75 49 76 50 77 52 78 54 79 51 80 35 81 36 82 41 83 37 84
REMARK SMILES IDX 38 85 40 86 42 87 39 88
REMARK H PARENT 59 50 33 61
REMARK Flexibility Score: inf
ROOT
ATOM      1  C   UNL A   1      36.483  19.026  25.005  1.00  0.00     0.202 C 
ENDROOT
BRANCH   1   2
ATOM      2  O   UNL A   1      35.358  19.810  24.630  1.00  0.00    -0.374 OA
BRANCH   2   3
ATOM      3  C   UNL A   1      34.115  19.603  25.263  1.00  0.00     0.202 C 
BRANCH   3   4
ATOM      4  C   UNL A   1      33.453  20.758  26.031  1.00  0.00     0.261 C 
BRANCH   4   5
ATOM      5  O   UNL A   1      34.377  21.813  26.330  1.00  0.00    -0.460 OA
BRANCH   5   6
ATOM      6  C   UNL A   1      34.084  23.120  26.158  1.00  0.00     0.338 C 
ATOM      7  O   UNL A   1      33.179  23.631  26.811  1.00  0.00    -0.246 OA
BRANCH   6   8
ATOM      8  C   UNL A   1      34.733  23.899  25.071  1.00  0.00     0.087 C 
ATOM      9  C   UNL A   1      34.662  25.220  24.814  1.00  0.00     0.028 C 
ATOM     10  C   UNL A   1      35.226  23.043  23.930  1.00  0.00     0.316 C 
ATOM     11  C   UNL A   1      33.670  25.473  23.762  1.00  0.00     0.027 A 
ATOM     12  O   UNL A   1      34.911  23.661  22.635  1.00  0.00    -0.475 OA
ATOM     13  C   UNL A   1      33.853  24.560  22.670  1.00  0.00     0.128 A 
ATOM     14  C   UNL A   1      32.601  26.413  23.861  1.00  0.00     0.011 A 
ATOM     15  C   UNL A   1      32.972  24.543  21.617  1.00  0.00     0.049 A 
ATOM     16  C   UNL A   1      31.660  26.235  22.820  1.00  0.00     0.049 A 
ATOM     17  C   UNL A   1      31.858  25.359  21.716  1.00  0.00     0.025 A 
ATOM     18  Cl  UNL A   1      30.100  26.941  22.816  1.00  0.00    -0.084 Cl
BRANCH  10  19
ATOM     19  C   UNL A   1      36.734  22.815  24.149  1.00  0.00     0.430 C 
ATOM     20  F   UNL A   1      37.425  23.987  24.144  1.00  0.00    -0.167 F 
ATOM     21  F   UNL A   1      36.994  22.215  25.330  1.00  0.00    -0.167 F 
ATOM     22  F   UNL A   1      37.272  22.054  23.167  1.00  0.00    -0.167 F 
ENDBRANCH  10  19
BRANCH  14  23
ATOM     23  C   UNL A   1      32.468  27.496  24.974  1.00  0.00    -0.016 A 
ATOM     24  C   UNL A   1      31.694  27.121  26.575  1.00  0.00     0.009 A 
ATOM     25  C   UNL A   1      33.017  29.199  24.693  1.00  0.00     0.009 A 
ATOM     26  C   UNL A   1      31.392  28.402  27.822  1.00  0.00     0.001 A 
ATOM     27  C   UNL A   1      32.744  30.506  25.935  1.00  0.00     0.001 A 
ATOM     28  C   UNL A   1      31.932  30.101  27.509  1.00  0.00     0.000 A 
ENDBRANCH  14  23
ENDBRANCH   6   8
ENDBRANCH   5   6
ENDBRANCH   4   5
ENDBRANCH   3   4
ENDBRANCH   2   3
ENDBRANCH   1   2
BRANCH   1  29
ATOM     29  C   UNL A   1      38.025  19.480  24.681  1.00  0.00     0.261 C 
BRANCH  29  30
ATOM     30  O   UNL A   1      39.759  19.351  25.688  1.00  0.00    -0.460 OA
BRANCH  30  31
ATOM     31  C   UNL A   1      41.136  19.329  26.027  1.00  0.00     0.338 C 
ATOM     32  O   UNL A   1      41.942  18.411  25.965  1.00  0.00    -0.246 OA
BRANCH  31  33
ATOM     33  C   UNL A   1      41.557  20.644  26.520  1.00  0.00     0.060 A 
ATOM     34  C   UNL A   1      41.757  21.673  25.601  1.00  0.00     0.016 A 
ATOM     35  C   UNL A   1      41.719  20.849  27.893  1.00  0.00     0.016 A 
ATOM     36  C   UNL A   1      42.041  22.950  26.071  1.00  0.00     0.010 A 
ATOM     37  C   UNL A   1      41.917  22.129  28.368  1.00  0.00     0.010 A 
ATOM     38  C   UNL A   1      42.098  23.176  27.454  1.00  0.00    -0.014 A 
BRANCH  38  39
ATOM     39  C   UNL A   1      42.687  24.409  27.993  1.00  0.00     0.031 A 
ATOM     40  C   UNL A   1      41.706  25.484  28.334  1.00  0.00     0.074 A 
ATOM     41  C   UNL A   1      44.015  24.599  28.019  1.00  0.00     0.049 A 
ATOM     42  N   UNL A   1      41.916  26.738  28.613  1.00  0.00    -0.248 NA
ATOM     43  C   UNL A   1      40.281  25.097  28.298  1.00  0.00     0.031 C 
ATOM     44  C   UNL A   1      45.019  23.603  27.662  1.00  0.00     0.029 A 
ATOM     45  N   UNL A   1      44.745  25.717  28.317  1.00  0.00    -0.354 N 
ATOM     46  C   UNL A   1      40.653  27.290  28.765  1.00  0.00     0.074 A 
ATOM     47  C   UNL A   1      39.683  26.254  28.509  1.00  0.00     0.031 C 
ATOM     48  C   UNL A   1      46.241  24.154  27.745  1.00  0.00     0.029 A 
ATOM     49  C   UNL A   1      46.093  25.559  28.104  1.00  0.00     0.049 A 
ATOM     50  H   UNL A   1      44.345  26.551  28.652  1.00  0.00     0.167 HD
ATOM     51  C   UNL A   1      40.338  28.562  29.086  1.00  0.00     0.037 A 
ATOM     52  C   UNL A   1      47.080  26.472  28.147  1.00  0.00     0.037 A 
ATOM     53  C   UNL A   1      41.332  29.574  29.288  1.00  0.00     0.049 A 
ATOM     54  C   UNL A   1      46.710  27.889  28.484  1.00  0.00     0.074 A 
ATOM     55  C   UNL A   1      41.160  30.897  29.640  1.00  0.00     0.029 A 
ATOM     56  N   UNL A   1      42.697  29.366  29.126  1.00  0.00    -0.354 N 
ATOM     57  N   UNL A   1      45.519  28.399  28.699  1.00  0.00    -0.248 NA
ATOM     58  C   UNL A   1      47.806  28.859  28.584  1.00  0.00     0.031 C 
ATOM     59  C   UNL A   1      42.420  31.503  29.641  1.00  0.00     0.029 A 
ATOM     60  C   UNL A   1      43.381  30.544  29.347  1.00  0.00     0.049 A 
ATOM     61  H   UNL A   1      43.114  28.506  28.888  1.00  0.00     0.167 HD
ATOM     62  C   UNL A   1      45.721  29.742  28.985  1.00  0.00     0.074 A 
ATOM     63  C   UNL A   1      47.154  29.964  28.919  1.00  0.00     0.031 C 
ATOM     64  C   UNL A   1      44.814  30.707  29.279  1.00  0.00     0.037 A 
BRANCH  51  65
ATOM     65  C   UNL A   1      38.881  28.894  29.174  1.00  0.00     0.057 A 
ATOM     66  C   UNL A   1      38.162  29.380  28.071  1.00  0.00     0.134 A 
ATOM     67  C   UNL A   1      38.200  28.796  30.393  1.00  0.00     0.134 A 
ATOM     68  F   UNL A   1      38.765  29.534  26.881  1.00  0.00    -0.206 F 
ATOM     69  C   UNL A   1      36.834  29.791  28.187  1.00  0.00     0.040 A 
ATOM     70  C   UNL A   1      36.863  29.175  30.514  1.00  0.00     0.040 A 
ATOM     71  F   UNL A   1      38.831  28.356  31.492  1.00  0.00    -0.206 F 
ATOM     72  C   UNL A   1      36.180  29.685  29.412  1.00  0.00     0.006 A 
ENDBRANCH  51  65
BRANCH  52  73
ATOM     73  C   UNL A   1      48.480  26.070  27.855  1.00  0.00     0.057 A 
ATOM     74  C   UNL A   1      49.011  26.180  26.566  1.00  0.00     0.134 A 
ATOM     75  C   UNL A   1      49.334  25.600  28.862  1.00  0.00     0.134 A 
ATOM     76  F   UNL A   1      48.242  26.611  25.555  1.00  0.00    -0.206 F 
ATOM     77  C   UNL A   1      50.334  25.830  26.285  1.00  0.00     0.040 A 
ATOM     78  C   UNL A   1      50.665  25.269  28.600  1.00  0.00     0.040 A 
ATOM     79  F   UNL A   1      48.893  25.481  30.123  1.00  0.00    -0.206 F 
ATOM     80  C   UNL A   1      51.168  25.380  27.306  1.00  0.00     0.006 A 
ENDBRANCH  52  73
BRANCH  64  81
ATOM     81  C   UNL A   1      45.346  32.070  29.593  1.00  0.00     0.057 A 
ATOM     82  C   UNL A   1      45.757  32.421  30.884  1.00  0.00     0.134 A 
ATOM     83  C   UNL A   1      45.538  33.002  28.566  1.00  0.00     0.134 A 
ATOM     84  F   UNL A   1      45.588  31.571  31.908  1.00  0.00    -0.206 F 
ATOM     85  C   UNL A   1      46.336  33.662  31.143  1.00  0.00     0.040 A 
ATOM     86  C   UNL A   1      46.141  34.234  28.809  1.00  0.00     0.040 A 
ATOM     87  F   UNL A   1      45.174  32.713  27.308  1.00  0.00    -0.206 F 
ATOM     88  C   UNL A   1      46.541  34.568  30.102  1.00  0.00     0.006 A 
ENDBRANCH  64  81
ENDBRANCH  38  39
ENDBRANCH  31  33
ENDBRANCH  30  31
ENDBRANCH  29  30
ENDBRANCH   1  29
TORSDOF 16
ENDMDL
MODEL 3
REMARK VINA RESULT:     -12.3      2.665      7.393
REMARK SMILES O=C(OCCOCCOC(=O)c1ccc(-c2c3nc(c(-c4c(F)cccc4F)c4ccc([nH]4)c(-c4c(F)cccc4F)c4nc(c(-c5c(F)cccc5F)c5ccc2[nH]5)C=C4)C=C3)cc1)C1=Cc2c(ccc(Cl)c2-c2ccccc2)O[C@H]1C(F)(F)F
REMARK SMILES IDX 7 1 6 2 5 3 4 4 3 5 2 6 1 7 66 8 67 9 82 10 68 11 81 12
REMARK SMILES IDX 69 13 74 14 70 15 72 16 71 17 73 18 83 19 84 20 85 21 86 22
REMARK SMILES IDX 75 23 76 24 80 25 77 26 79 27 78 28 8 29 9 30 10 31 11 32
REMARK SMILES IDX 12 33 13 34 65 35 14 36 64 37 15 38 16 39 17 40 58 41 18 42
REMARK SMILES IDX 63 43 57 44 59 45 19 46 62 47 56 48 55 49 20 51 46 52 29 53
REMARK SMILES IDX 45 54 30 55 33 56 44 57 60 58 31 59 32 60 43 62 61 63 34 64
REMARK SMILES IDX 21 65 22 66 27 67 23 68 24 69 26 70 28 71 25 72 47 73 48 74
REMARK SMILES IDX 53 75 49 76 50 77 52 78 54 79 51 80 35 81 36 82 41 83 37 84
REMARK SMILES IDX 38 85 40 86 42 87 39 88
REMARK H PARENT 59 50 33 61
REMARK Flexibility Score: inf
ROOT
ATOM      1  C   UNL A   1      35.177  33.182  28.045  1.00  0.00     0.202 C 
ENDROOT
BRANCH   1   2
ATOM      2  O   UNL A   1      33.873  33.733  27.920  1.00  0.00    -0.374 OA
BRANCH   2   3
ATOM      3  C   UNL A   1      32.802  32.918  27.500  1.00  0.00     0.202 C 
BRANCH   3   4
ATOM      4  C   UNL A   1      33.023  31.405  27.329  1.00  0.00     0.261 C 
BRANCH   4   5
ATOM      5  O   UNL A   1      32.070  30.814  26.436  1.00  0.00    -0.460 OA
BRANCH   5   6
ATOM      6  C   UNL A   1      31.780  29.495  26.435  1.00  0.00     0.338 C 
ATOM      7  O   UNL A   1      31.538  28.925  27.495  1.00  0.00    -0.246 OA
BRANCH   6   8
ATOM      8  C   UNL A   1      31.913  28.697  25.189  1.00  0.00     0.087 C 
ATOM      9  C   UNL A   1      31.363  28.914  23.978  1.00  0.00     0.028 C 
ATOM     10  C   UNL A   1      32.432  27.299  25.423  1.00  0.00     0.316 C 
ATOM     11  C   UNL A   1      30.161  28.088  23.819  1.00  0.00     0.027 A 
ATOM     12  O   UNL A   1      31.687  26.320  24.619  1.00  0.00    -0.475 OA
ATOM     13  C   UNL A   1      30.420  26.739  24.234  1.00  0.00     0.128 A 
ATOM     14  C   UNL A   1      28.881  28.581  23.421  1.00  0.00     0.011 A 
ATOM     15  C   UNL A   1      29.409  25.811  24.271  1.00  0.00     0.049 A 
ATOM     16  C   UNL A   1      27.870  27.613  23.626  1.00  0.00     0.049 A 
ATOM     17  C   UNL A   1      28.129  26.265  23.999  1.00  0.00     0.025 A 
ATOM     18  Cl  UNL A   1      26.194  27.965  23.588  1.00  0.00    -0.084 Cl
BRANCH  10  19
ATOM     19  C   UNL A   1      33.942  27.315  25.123  1.00  0.00     0.430 C 
ATOM     20  F   UNL A   1      34.483  28.546  25.336  1.00  0.00    -0.167 F 
ATOM     21  F   UNL A   1      34.628  26.450  25.900  1.00  0.00    -0.167 F 
ATOM     22  F   UNL A   1      34.199  27.008  23.830  1.00  0.00    -0.167 F 
ENDBRANCH  10  19
BRANCH  14  23
ATOM     23  C   UNL A   1      28.616  30.004  22.845  1.00  0.00    -0.016 A 
ATOM     24  C   UNL A   1      28.025  30.244  21.143  1.00  0.00     0.009 A 
ATOM     25  C   UNL A   1      28.951  31.489  23.826  1.00  0.00     0.009 A 
ATOM     26  C   UNL A   1      27.857  31.891  20.406  1.00  0.00     0.001 A 
ATOM     27  C   UNL A   1      28.774  33.159  23.119  1.00  0.00     0.001 A 
ATOM     28  C   UNL A   1      28.218  33.359  21.401  1.00  0.00     0.000 A 
ENDBRANCH  14  23
ENDBRANCH   6   8
ENDBRANCH   5   6
ENDBRANCH   4   5
ENDBRANCH   3   4
ENDBRANCH   2   3
ENDBRANCH   1   2
BRANCH   1  29
ATOM     29  C   UNL A   1      35.860  32.844  29.497  1.00  0.00     0.261 C 
BRANCH  29  30
ATOM     30  O   UNL A   1      36.218  31.145  30.509  1.00  0.00    -0.460 OA
BRANCH  30  31
ATOM     31  C   UNL A   1      36.843  30.112  31.253  1.00  0.00     0.338 C 
ATOM     32  O   UNL A   1      36.487  29.567  32.288  1.00  0.00    -0.246 OA
BRANCH  31  33
ATOM     33  C   UNL A   1      38.098  29.712  30.608  1.00  0.00     0.060 A 
ATOM     34  C   UNL A   1      39.084  29.100  31.380  1.00  0.00     0.016 A 
ATOM     35  C   UNL A   1      38.269  29.921  29.236  1.00  0.00     0.016 A 
ATOM     36  C   UNL A   1      40.225  28.613  30.752  1.00  0.00     0.010 A 
ATOM     37  C   UNL A   1      39.358  29.366  28.597  1.00  0.00     0.010 A 
ATOM     38  C   UNL A   1      40.347  28.730  29.361  1.00  0.00    -0.014 A 
BRANCH  38  39
ATOM     39  C   UNL A   1      41.639  28.517  28.696  1.00  0.00     0.031 A 
ATOM     40  C   UNL A   1      41.894  27.117  28.239  1.00  0.00     0.074 A 
ATOM     41  C   UNL A   1      42.572  29.480  28.653  1.00  0.00     0.049 A 
ATOM     42  N   UNL A   1      43.002  26.569  27.829  1.00  0.00    -0.248 NA
ATOM     43  C   UNL A   1      40.746  26.191  28.312  1.00  0.00     0.031 C 
ATOM     44  C   UNL A   1      42.395  30.852  29.117  1.00  0.00     0.029 A 
ATOM     45  N   UNL A   1      43.876  29.433  28.240  1.00  0.00    -0.354 N 
ATOM     46  C   UNL A   1      42.688  25.235  27.616  1.00  0.00     0.074 A 
ATOM     47  C   UNL A   1      41.304  25.043  27.978  1.00  0.00     0.031 C 
ATOM     48  C   UNL A   1      43.552  31.520  28.980  1.00  0.00     0.029 A 
ATOM     49  C   UNL A   1      44.563  30.600  28.473  1.00  0.00     0.049 A 
ATOM     50  H   UNL A   1      44.282  28.642  27.817  1.00  0.00     0.167 HD
ATOM     51  C   UNL A   1      43.497  24.257  27.160  1.00  0.00     0.037 A 
ATOM     52  C   UNL A   1      45.874  30.865  28.336  1.00  0.00     0.037 A 
ATOM     53  C   UNL A   1      44.879  24.479  26.856  1.00  0.00     0.049 A 
ATOM     54  C   UNL A   1      46.766  29.757  27.850  1.00  0.00     0.074 A 
ATOM     55  C   UNL A   1      45.810  23.587  26.364  1.00  0.00     0.029 A 
ATOM     56  N   UNL A   1      45.530  25.692  27.043  1.00  0.00    -0.354 N 
ATOM     57  N   UNL A   1      46.454  28.510  27.578  1.00  0.00    -0.248 NA
ATOM     58  C   UNL A   1      48.183  30.080  27.651  1.00  0.00     0.031 C 
ATOM     59  C   UNL A   1      47.040  24.250  26.303  1.00  0.00     0.029 A 
ATOM     60  C   UNL A   1      46.862  25.568  26.700  1.00  0.00     0.049 A 
ATOM     61  H   UNL A   1      45.106  26.517  27.372  1.00  0.00     0.167 HD
ATOM     62  C   UNL A   1      47.628  27.905  27.153  1.00  0.00     0.074 A 
ATOM     63  C   UNL A   1      48.657  28.927  27.199  1.00  0.00     0.031 C 
ATOM     64  C   UNL A   1      47.843  26.625  26.755  1.00  0.00     0.037 A 
BRANCH  51  65
ATOM     65  C   UNL A   1      42.896  22.891  27.033  1.00  0.00     0.057 A 
ATOM     66  C   UNL A   1      42.514  22.360  25.791  1.00  0.00     0.134 A 
ATOM     67  C   UNL A   1      42.629  22.122  28.172  1.00  0.00     0.134 A 
ATOM     68  F   UNL A   1      42.708  23.061  24.664  1.00  0.00    -0.206 F 
ATOM     69  C   UNL A   1      41.855  21.134  25.692  1.00  0.00     0.040 A 
ATOM     70  C   UNL A   1      41.998  20.881  28.082  1.00  0.00     0.040 A 
ATOM     71  F   UNL A   1      42.951  22.577  29.392  1.00  0.00    -0.206 F 
ATOM     72  C   UNL A   1      41.599  20.389  26.840  1.00  0.00     0.006 A 
ENDBRANCH  51  65
BRANCH  52  73
ATOM     73  C   UNL A   1      46.402  32.212  28.674  1.00  0.00     0.057 A 
ATOM     74  C   UNL A   1      46.876  32.503  29.957  1.00  0.00     0.134 A 
ATOM     75  C   UNL A   1      46.479  33.231  27.715  1.00  0.00     0.134 A 
ATOM     76  F   UNL A   1      46.819  31.575  30.923  1.00  0.00    -0.206 F 
ATOM     77  C   UNL A   1      47.400  33.758  30.279  1.00  0.00     0.040 A 
ATOM     78  C   UNL A   1      47.021  34.482  28.016  1.00  0.00     0.040 A 
ATOM     79  F   UNL A   1      46.053  33.016  26.462  1.00  0.00    -0.206 F 
ATOM     80  C   UNL A   1      47.480  34.750  29.304  1.00  0.00     0.006 A 
ENDBRANCH  52  73
BRANCH  64  81
ATOM     81  C   UNL A   1      49.225  26.276  26.299  1.00  0.00     0.057 A 
ATOM     82  C   UNL A   1      49.695  26.632  25.030  1.00  0.00     0.134 A 
ATOM     83  C   UNL A   1      50.121  25.664  27.183  1.00  0.00     0.134 A 
ATOM     84  F   UNL A   1      48.877  27.212  24.139  1.00  0.00    -0.206 F 
ATOM     85  C   UNL A   1      51.014  26.382  24.654  1.00  0.00     0.040 A 
ATOM     86  C   UNL A   1      51.449  25.435  26.827  1.00  0.00     0.040 A 
ATOM     87  F   UNL A   1      49.729  25.313  28.417  1.00  0.00    -0.206 F 
ATOM     88  C   UNL A   1      51.898  25.793  25.557  1.00  0.00     0.006 A 
ENDBRANCH  64  81
ENDBRANCH  38  39
ENDBRANCH  31  33
ENDBRANCH  30  31
ENDBRANCH  29  30
ENDBRANCH   1  29
TORSDOF 16
ENDMDL
