MODEL 1
REMARK VINA RESULT:     -12.4      0.000      0.000
REMARK SMILES NS(=O)(=O)c1ccc(-c2cc(Cl)cc3c2O[C@@H](C(F)(F)F)C(C(=O)OCCOCCOC(=O)c2ccc(-c4c5nc(c(-c6c(F)cccc6F)c6ccc([nH]6)c(-c6c(F)cccc6F)c6nc(c(-c7c(F)cccc7F)c7ccc4[nH]7)C=C6)C=C5)cc2)=C3)cc1
REMARK SMILES IDX 27 1 26 2 25 3 23 4 24 5 22 6 9 7 10 8 15 9 11 10 14 11
REMARK SMILES IDX 16 12 12 13 13 14 88 15 17 16 8 17 5 18 6 19 90 20 7 21
REMARK SMILES IDX 89 22 2 23 3 24 4 25 1 26 18 29 19 30 20 31 21 32 28 33
REMARK SMILES IDX 29 34 30 35 31 36 32 37 33 38 34 39 35 40 87 41 36 42 86 43
REMARK SMILES IDX 37 44 38 45 39 46 80 47 40 48 85 49 79 50 81 51 41 52 84 53
REMARK SMILES IDX 78 54 77 55 42 57 68 58 51 59 67 60 52 61 55 62 66 63 82 64
REMARK SMILES IDX 53 65 54 66 65 68 83 69 56 70 43 71 44 72 49 73 45 74 46 75
REMARK SMILES IDX 48 76 50 77 47 78 69 79 70 80 75 81 71 82 72 83 74 84 76 85
REMARK SMILES IDX 73 86 57 87 58 88 63 89 59 90 60 91 62 92 64 93 61 94
REMARK H PARENT 1 27 1 28 81 56 55 67
REMARK Flexibility Score: inf
ROOT
ATOM      1  C   UNL A   1      34.509  29.741  27.126  1.00  0.00     0.202 C 
ENDROOT
BRANCH   1   2
ATOM      2  C   UNL A   1      33.773  28.965  26.022  1.00  0.00     0.261 C 
BRANCH   2   3
ATOM      3  O   UNL A   1      32.749  28.091  26.525  1.00  0.00    -0.460 OA
BRANCH   3   4
ATOM      4  C   UNL A   1      32.271  27.185  25.650  1.00  0.00     0.338 C 
ATOM      5  O   UNL A   1      31.135  27.176  25.196  1.00  0.00    -0.246 OA
BRANCH   4   6
ATOM      6  C   UNL A   1      33.320  26.265  25.145  1.00  0.00     0.087 C 
ATOM      7  C   UNL A   1      32.124  22.343  24.427  1.00  0.00     0.026 A 
ATOM      8  C   UNL A   1      31.000  22.160  25.268  1.00  0.00     0.033 A 
ATOM      9  C   UNL A   1      32.790  23.582  24.584  1.00  0.00     0.135 A 
ATOM     10  C   UNL A   1      30.785  22.973  26.380  1.00  0.00     0.042 A 
ATOM     11  C   UNL A   1      32.743  24.225  25.835  1.00  0.00     0.019 A 
ATOM     12  O   UNL A   1      33.016  24.410  23.458  1.00  0.00    -0.475 OA
ATOM     13  Cl  UNL A   1      29.422  22.697  27.388  1.00  0.00    -0.084 Cl
ATOM     14  C   UNL A   1      31.714  23.941  26.724  1.00  0.00     0.032 A 
ATOM     15  C   UNL A   1      33.645  25.368  26.089  1.00  0.00     0.027 C 
ATOM     16  C   UNL A   1      33.547  25.781  23.728  1.00  0.00     0.316 C 
BRANCH   7  17
ATOM     17  C   UNL A   1      32.794  21.035  24.046  1.00  0.00    -0.015 A 
ATOM     18  C   UNL A   1      33.602  18.285  24.018  1.00  0.00     0.082 A 
ATOM     19  C   UNL A   1      32.494  18.695  23.280  1.00  0.00     0.022 A 
ATOM     20  C   UNL A   1      34.341  19.235  24.727  1.00  0.00     0.022 A 
ATOM     21  C   UNL A   1      32.113  20.054  23.284  1.00  0.00     0.010 A 
ATOM     22  C   UNL A   1      33.946  20.592  24.732  1.00  0.00     0.010 A 
BRANCH  18  23
ATOM     23  S   UNL A   1      34.061  16.572  24.130  1.00  0.00     0.238 S 
ATOM     24  O   UNL A   1      35.020  16.422  25.208  1.00  0.00    -0.207 OA
ATOM     25  O   UNL A   1      34.303  16.076  22.802  1.00  0.00    -0.207 OA
BRANCH  23  26
ATOM     26  N   UNL A   1      32.684  15.770  24.677  1.00  0.00    -0.225 NA
ATOM     27  H   UNL A   1      32.785  14.768  24.511  1.00  0.00     0.137 HD
ATOM     28  H   UNL A   1      31.866  16.116  24.175  1.00  0.00     0.137 HD
ENDBRANCH  23  26
ENDBRANCH  18  23
ENDBRANCH   7  17
BRANCH  16  29
ATOM     29  C   UNL A   1      33.328  26.862  22.645  1.00  0.00     0.430 C 
ATOM     30  F   UNL A   1      31.991  27.104  22.528  1.00  0.00    -0.167 F 
ATOM     31  F   UNL A   1      33.898  28.042  22.981  1.00  0.00    -0.167 F 
ATOM     32  F   UNL A   1      33.768  26.543  21.415  1.00  0.00    -0.167 F 
ENDBRANCH  16  29
ENDBRANCH   4   6
ENDBRANCH   3   4
ENDBRANCH   2   3
ENDBRANCH   1   2
BRANCH   1  33
ATOM     33  O   UNL A   1      33.880  30.879  27.697  1.00  0.00    -0.374 OA
BRANCH  33  34
ATOM     34  C   UNL A   1      32.676  31.358  27.102  1.00  0.00     0.202 C 
BRANCH  34  35
ATOM     35  C   UNL A   1      32.179  32.763  27.454  1.00  0.00     0.261 C 
BRANCH  35  36
ATOM     36  O   UNL A   1      33.199  33.771  27.407  1.00  0.00    -0.460 OA
BRANCH  36  37
ATOM     37  C   UNL A   1      33.315  34.500  28.544  1.00  0.00     0.338 C 
ATOM     38  O   UNL A   1      32.558  35.359  28.960  1.00  0.00    -0.246 OA
BRANCH  37  39
ATOM     39  C   UNL A   1      34.448  34.005  29.341  1.00  0.00     0.060 A 
ATOM     40  C   UNL A   1      35.741  34.274  28.879  1.00  0.00     0.016 A 
ATOM     41  C   UNL A   1      34.239  33.190  30.455  1.00  0.00     0.016 A 
ATOM     42  C   UNL A   1      36.836  33.688  29.506  1.00  0.00     0.010 A 
ATOM     43  C   UNL A   1      35.339  32.600  31.079  1.00  0.00     0.010 A 
ATOM     44  C   UNL A   1      36.638  32.816  30.584  1.00  0.00    -0.014 A 
BRANCH  44  45
ATOM     45  C   UNL A   1      37.779  32.026  31.100  1.00  0.00     0.031 A 
ATOM     46  C   UNL A   1      38.300  32.306  32.482  1.00  0.00     0.074 A 
ATOM     47  C   UNL A   1      38.326  31.054  30.351  1.00  0.00     0.049 A 
ATOM     48  N   UNL A   1      39.302  31.757  33.119  1.00  0.00    -0.248 NA
ATOM     49  C   UNL A   1      37.601  33.351  33.246  1.00  0.00     0.031 C 
ATOM     50  C   UNL A   1      37.888  30.678  29.008  1.00  0.00     0.029 A 
ATOM     51  N   UNL A   1      39.376  30.212  30.612  1.00  0.00    -0.354 N 
ATOM     52  C   UNL A   1      39.361  32.397  34.350  1.00  0.00     0.074 A 
ATOM     53  C   UNL A   1      38.319  33.399  34.357  1.00  0.00     0.031 C 
ATOM     54  C   UNL A   1      38.674  29.688  28.555  1.00  0.00     0.029 A 
ATOM     55  C   UNL A   1      39.688  29.385  29.563  1.00  0.00     0.049 A 
ATOM     56  H   UNL A   1      39.861  30.202  31.469  1.00  0.00     0.167 HD
ATOM     57  C   UNL A   1      40.206  32.163  35.383  1.00  0.00     0.037 A 
ATOM     58  C   UNL A   1      40.694  28.501  29.423  1.00  0.00     0.037 A 
ATOM     59  C   UNL A   1      41.240  31.161  35.366  1.00  0.00     0.049 A 
ATOM     60  C   UNL A   1      41.654  28.294  30.564  1.00  0.00     0.074 A 
ATOM     61  C   UNL A   1      42.126  30.818  36.373  1.00  0.00     0.029 A 
ATOM     62  N   UNL A   1      41.537  30.351  34.279  1.00  0.00    -0.354 N 
ATOM     63  N   UNL A   1      41.677  28.872  31.741  1.00  0.00    -0.248 NA
ATOM     64  C   UNL A   1      42.722  27.306  30.361  1.00  0.00     0.031 C 
ATOM     65  C   UNL A   1      43.000  29.846  35.872  1.00  0.00     0.029 A 
ATOM     66  C   UNL A   1      42.615  29.534  34.578  1.00  0.00     0.049 A 
ATOM     67  H   UNL A   1      41.053  30.357  33.422  1.00  0.00     0.167 HD
ATOM     68  C   UNL A   1      42.742  28.300  32.428  1.00  0.00     0.074 A 
ATOM     69  C   UNL A   1      43.329  27.319  31.540  1.00  0.00     0.031 C 
ATOM     70  C   UNL A   1      43.189  28.562  33.681  1.00  0.00     0.037 A 
BRANCH  57  71
ATOM     71  C   UNL A   1      40.068  33.032  36.602  1.00  0.00     0.057 A 
ATOM     72  C   UNL A   1      40.864  34.168  36.805  1.00  0.00     0.134 A 
ATOM     73  C   UNL A   1      39.108  32.738  37.579  1.00  0.00     0.134 A 
ATOM     74  F   UNL A   1      41.811  34.503  35.915  1.00  0.00    -0.206 F 
ATOM     75  C   UNL A   1      40.734  34.958  37.950  1.00  0.00     0.040 A 
ATOM     76  C   UNL A   1      38.948  33.538  38.712  1.00  0.00     0.040 A 
ATOM     77  F   UNL A   1      38.307  31.670  37.448  1.00  0.00    -0.206 F 
ATOM     78  C   UNL A   1      39.769  34.646  38.904  1.00  0.00     0.006 A 
ENDBRANCH  57  71
BRANCH  58  79
ATOM     79  C   UNL A   1      40.851  27.758  28.147  1.00  0.00     0.057 A 
ATOM     80  C   UNL A   1      40.264  26.503  27.955  1.00  0.00     0.134 A 
ATOM     81  C   UNL A   1      41.596  28.289  27.086  1.00  0.00     0.134 A 
ATOM     82  F   UNL A   1      39.556  25.931  28.940  1.00  0.00    -0.206 F 
ATOM     83  C   UNL A   1      40.422  25.796  26.761  1.00  0.00     0.040 A 
ATOM     84  C   UNL A   1      41.739  27.608  25.877  1.00  0.00     0.040 A 
ATOM     85  F   UNL A   1      42.182  29.491  27.204  1.00  0.00    -0.206 F 
ATOM     86  C   UNL A   1      41.156  26.352  25.715  1.00  0.00     0.006 A 
ENDBRANCH  58  79
BRANCH  70  87
ATOM     87  C   UNL A   1      44.351  27.750  34.180  1.00  0.00     0.057 A 
ATOM     88  C   UNL A   1      45.672  28.205  34.088  1.00  0.00     0.134 A 
ATOM     89  C   UNL A   1      44.138  26.513  34.803  1.00  0.00     0.134 A 
ATOM     90  F   UNL A   1      45.949  29.376  33.494  1.00  0.00    -0.206 F 
ATOM     91  C   UNL A   1      46.740  27.446  34.570  1.00  0.00     0.040 A 
ATOM     92  C   UNL A   1      45.194  25.760  35.318  1.00  0.00     0.040 A 
ATOM     93  F   UNL A   1      42.897  26.021  34.937  1.00  0.00    -0.206 F 
ATOM     94  C   UNL A   1      46.502  26.223  35.195  1.00  0.00     0.006 A 
ENDBRANCH  70  87
ENDBRANCH  44  45
ENDBRANCH  37  39
ENDBRANCH  36  37
ENDBRANCH  35  36
ENDBRANCH  34  35
ENDBRANCH  33  34
ENDBRANCH   1  33
TORSDOF 18
ENDMDL
MODEL 2
REMARK VINA RESULT:     -12.3      1.744      2.373
REMARK SMILES NS(=O)(=O)c1ccc(-c2cc(Cl)cc3c2O[C@@H](C(F)(F)F)C(C(=O)OCCOCCOC(=O)c2ccc(-c4c5nc(c(-c6c(F)cccc6F)c6ccc([nH]6)c(-c6c(F)cccc6F)c6nc(c(-c7c(F)cccc7F)c7ccc4[nH]7)C=C6)C=C5)cc2)=C3)cc1
REMARK SMILES IDX 27 1 26 2 25 3 23 4 24 5 22 6 9 7 10 8 15 9 11 10 14 11
REMARK SMILES IDX 16 12 12 13 13 14 88 15 17 16 8 17 5 18 6 19 90 20 7 21
REMARK SMILES IDX 89 22 2 23 3 24 4 25 1 26 18 29 19 30 20 31 21 32 28 33
REMARK SMILES IDX 29 34 30 35 31 36 32 37 33 38 34 39 35 40 87 41 36 42 86 43
REMARK SMILES IDX 37 44 38 45 39 46 80 47 40 48 85 49 79 50 81 51 41 52 84 53
REMARK SMILES IDX 78 54 77 55 42 57 68 58 51 59 67 60 52 61 55 62 66 63 82 64
REMARK SMILES IDX 53 65 54 66 65 68 83 69 56 70 43 71 44 72 49 73 45 74 46 75
REMARK SMILES IDX 48 76 50 77 47 78 69 79 70 80 75 81 71 82 72 83 74 84 76 85
REMARK SMILES IDX 73 86 57 87 58 88 63 89 59 90 60 91 62 92 64 93 61 94
REMARK H PARENT 1 27 1 28 81 56 55 67
REMARK Flexibility Score: inf
ROOT
ATOM      1  C   UNL A   1      32.886  29.496  26.947  1.00  0.00     0.202 C 
ENDROOT
BRANCH   1   2
ATOM      2  C   UNL A   1      34.047  28.607  26.470  1.00  0.00     0.261 C 
BRANCH   2   3
ATOM      3  O   UNL A   1      33.615  27.351  25.924  1.00  0.00    -0.460 OA
BRANCH   3   4
ATOM      4  C   UNL A   1      33.509  27.302  24.581  1.00  0.00     0.338 C 
ATOM      5  O   UNL A   1      33.992  28.117  23.807  1.00  0.00    -0.246 OA
BRANCH   4   6
ATOM      6  C   UNL A   1      32.876  26.049  24.100  1.00  0.00     0.087 C 
ATOM      7  C   UNL A   1      34.262  22.520  25.819  1.00  0.00     0.026 A 
ATOM      8  C   UNL A   1      35.569  22.836  26.262  1.00  0.00     0.033 A 
ATOM      9  C   UNL A   1      33.619  23.544  25.082  1.00  0.00     0.135 A 
ATOM     10  C   UNL A   1      36.278  23.910  25.726  1.00  0.00     0.042 A 
ATOM     11  C   UNL A   1      34.407  24.446  24.343  1.00  0.00     0.019 A 
ATOM     12  O   UNL A   1      32.339  24.002  25.478  1.00  0.00    -0.475 OA
ATOM     13  Cl  UNL A   1      37.872  24.239  26.274  1.00  0.00    -0.084 Cl
ATOM     14  C   UNL A   1      35.736  24.654  24.690  1.00  0.00     0.032 A 
ATOM     15  C   UNL A   1      33.750  25.340  23.367  1.00  0.00     0.027 C 
ATOM     16  C   UNL A   1      31.812  25.211  24.774  1.00  0.00     0.316 C 
BRANCH   7  17
ATOM     17  C   UNL A   1      34.056  21.032  25.607  1.00  0.00    -0.015 A 
ATOM     18  C   UNL A   1      33.584  18.487  24.376  1.00  0.00     0.082 A 
ATOM     19  C   UNL A   1      34.886  18.953  24.538  1.00  0.00     0.022 A 
ATOM     20  C   UNL A   1      32.519  19.247  24.864  1.00  0.00     0.022 A 
ATOM     21  C   UNL A   1      35.112  20.198  25.162  1.00  0.00     0.010 A 
ATOM     22  C   UNL A   1      32.755  20.498  25.479  1.00  0.00     0.010 A 
BRANCH  18  23
ATOM     23  S   UNL A   1      33.239  16.976  23.506  1.00  0.00     0.238 S 
ATOM     24  O   UNL A   1      32.577  16.061  24.415  1.00  0.00    -0.207 OA
ATOM     25  O   UNL A   1      34.405  16.609  22.748  1.00  0.00    -0.207 OA
BRANCH  23  26
ATOM     26  N   UNL A   1      32.058  17.368  22.370  1.00  0.00    -0.225 NA
ATOM     27  H   UNL A   1      32.293  16.942  21.473  1.00  0.00     0.137 HD
ATOM     28  H   UNL A   1      32.012  18.381  22.262  1.00  0.00     0.137 HD
ENDBRANCH  23  26
ENDBRANCH  18  23
ENDBRANCH   7  17
BRANCH  16  29
ATOM     29  C   UNL A   1      30.713  26.033  25.486  1.00  0.00     0.430 C 
ATOM     30  F   UNL A   1      31.149  26.367  26.734  1.00  0.00    -0.167 F 
ATOM     31  F   UNL A   1      30.457  27.199  24.850  1.00  0.00    -0.167 F 
ATOM     32  F   UNL A   1      29.535  25.402  25.649  1.00  0.00    -0.167 F 
ENDBRANCH  16  29
ENDBRANCH   4   6
ENDBRANCH   3   4
ENDBRANCH   2   3
ENDBRANCH   1   2
BRANCH   1  33
ATOM     33  O   UNL A   1      32.546  30.644  26.183  1.00  0.00    -0.374 OA
BRANCH  33  34
ATOM     34  C   UNL A   1      31.581  31.549  26.713  1.00  0.00     0.202 C 
BRANCH  34  35
ATOM     35  C   UNL A   1      31.941  33.033  26.836  1.00  0.00     0.261 C 
BRANCH  35  36
ATOM     36  O   UNL A   1      32.324  33.433  28.160  1.00  0.00    -0.460 OA
BRANCH  36  37
ATOM     37  C   UNL A   1      33.437  34.204  28.210  1.00  0.00     0.338 C 
ATOM     38  O   UNL A   1      33.505  35.420  28.158  1.00  0.00    -0.246 OA
BRANCH  37  39
ATOM     39  C   UNL A   1      34.612  33.368  28.497  1.00  0.00     0.060 A 
ATOM     40  C   UNL A   1      34.393  32.089  29.022  1.00  0.00     0.016 A 
ATOM     41  C   UNL A   1      35.904  33.878  28.364  1.00  0.00     0.016 A 
ATOM     42  C   UNL A   1      35.472  31.328  29.463  1.00  0.00     0.010 A 
ATOM     43  C   UNL A   1      36.984  33.114  28.811  1.00  0.00     0.010 A 
ATOM     44  C   UNL A   1      36.769  31.853  29.397  1.00  0.00    -0.014 A 
BRANCH  44  45
ATOM     45  C   UNL A   1      37.879  31.137  30.067  1.00  0.00     0.031 A 
ATOM     46  C   UNL A   1      38.166  31.421  31.514  1.00  0.00     0.074 A 
ATOM     47  C   UNL A   1      38.604  30.227  29.395  1.00  0.00     0.049 A 
ATOM     48  N   UNL A   1      39.102  30.933  32.287  1.00  0.00    -0.248 NA
ATOM     49  C   UNL A   1      37.283  32.393  32.179  1.00  0.00     0.031 C 
ATOM     50  C   UNL A   1      38.399  29.853  27.997  1.00  0.00     0.029 A 
ATOM     51  N   UNL A   1      39.665  29.460  29.800  1.00  0.00    -0.354 N 
ATOM     52  C   UNL A   1      38.928  31.546  33.522  1.00  0.00     0.074 A 
ATOM     53  C   UNL A   1      37.822  32.467  33.386  1.00  0.00     0.031 C 
ATOM     54  C   UNL A   1      39.317  28.935  27.654  1.00  0.00     0.029 A 
ATOM     55  C   UNL A   1      40.192  28.683  28.798  1.00  0.00     0.049 A 
ATOM     56  H   UNL A   1      40.017  29.465  30.719  1.00  0.00     0.167 HD
ATOM     57  C   UNL A   1      39.626  31.350  34.666  1.00  0.00     0.037 A 
ATOM     58  C   UNL A   1      41.272  27.880  28.799  1.00  0.00     0.037 A 
ATOM     59  C   UNL A   1      40.726  30.428  34.791  1.00  0.00     0.049 A 
ATOM     60  C   UNL A   1      42.065  27.717  30.068  1.00  0.00     0.074 A 
ATOM     61  C   UNL A   1      41.476  30.128  35.914  1.00  0.00     0.029 A 
ATOM     62  N   UNL A   1      41.241  29.669  33.750  1.00  0.00    -0.354 N 
ATOM     63  N   UNL A   1      41.869  28.267  31.242  1.00  0.00    -0.248 NA
ATOM     64  C   UNL A   1      43.225  26.817  30.014  1.00  0.00     0.031 C 
ATOM     65  C   UNL A   1      42.487  29.236  35.537  1.00  0.00     0.029 A 
ATOM     66  C   UNL A   1      42.323  28.927  34.196  1.00  0.00     0.049 A 
ATOM     67  H   UNL A   1      40.891  29.660  32.830  1.00  0.00     0.167 HD
ATOM     68  C   UNL A   1      42.862  27.759  32.073  1.00  0.00     0.074 A 
ATOM     69  C   UNL A   1      43.648  26.846  31.270  1.00  0.00     0.031 C 
ATOM     70  C   UNL A   1      43.097  28.023  33.383  1.00  0.00     0.037 A 
BRANCH  57  71
ATOM     71  C   UNL A   1      39.242  32.176  35.862  1.00  0.00     0.057 A 
ATOM     72  C   UNL A   1      39.763  33.460  36.082  1.00  0.00     0.134 A 
ATOM     73  C   UNL A   1      38.321  31.688  36.797  1.00  0.00     0.134 A 
ATOM     74  F   UNL A   1      40.658  33.986  35.233  1.00  0.00    -0.206 F 
ATOM     75  C   UNL A   1      39.408  34.209  37.206  1.00  0.00     0.040 A 
ATOM     76  C   UNL A   1      37.936  32.441  37.907  1.00  0.00     0.040 A 
ATOM     77  F   UNL A   1      37.778  30.470  36.647  1.00  0.00    -0.206 F 
ATOM     78  C   UNL A   1      38.487  33.702  38.119  1.00  0.00     0.006 A 
ENDBRANCH  57  71
BRANCH  58  79
ATOM     79  C   UNL A   1      41.674  27.182  27.551  1.00  0.00     0.057 A 
ATOM     80  C   UNL A   1      42.491  27.800  26.599  1.00  0.00     0.134 A 
ATOM     81  C   UNL A   1      41.248  25.875  27.283  1.00  0.00     0.134 A 
ATOM     82  F   UNL A   1      42.915  29.058  26.787  1.00  0.00    -0.206 F 
ATOM     83  C   UNL A   1      42.858  27.151  25.418  1.00  0.00     0.040 A 
ATOM     84  C   UNL A   1      41.630  25.203  26.121  1.00  0.00     0.040 A 
ATOM     85  F   UNL A   1      40.466  25.224  28.158  1.00  0.00    -0.206 F 
ATOM     86  C   UNL A   1      42.433  25.846  25.180  1.00  0.00     0.006 A 
ENDBRANCH  58  79
BRANCH  70  87
ATOM     87  C   UNL A   1      44.232  27.287  34.039  1.00  0.00     0.057 A 
ATOM     88  C   UNL A   1      45.519  27.831  34.129  1.00  0.00     0.134 A 
ATOM     89  C   UNL A   1      44.018  26.034  34.629  1.00  0.00     0.134 A 
ATOM     90  F   UNL A   1      45.795  29.022  33.576  1.00  0.00    -0.206 F 
ATOM     91  C   UNL A   1      46.559  27.143  34.756  1.00  0.00     0.040 A 
ATOM     92  C   UNL A   1      45.042  25.351  35.287  1.00  0.00     0.040 A 
ATOM     93  F   UNL A   1      42.807  25.460  34.592  1.00  0.00    -0.206 F 
ATOM     94  C   UNL A   1      46.321  25.902  35.344  1.00  0.00     0.006 A 
ENDBRANCH  70  87
ENDBRANCH  44  45
ENDBRANCH  37  39
ENDBRANCH  36  37
ENDBRANCH  35  36
ENDBRANCH  34  35
ENDBRANCH  33  34
ENDBRANCH   1  33
TORSDOF 18
ENDMDL
MODEL 3
REMARK VINA RESULT:     -12.3      0.982      6.009
REMARK SMILES NS(=O)(=O)c1ccc(-c2cc(Cl)cc3c2O[C@@H](C(F)(F)F)C(C(=O)OCCOCCOC(=O)c2ccc(-c4c5nc(c(-c6c(F)cccc6F)c6ccc([nH]6)c(-c6c(F)cccc6F)c6nc(c(-c7c(F)cccc7F)c7ccc4[nH]7)C=C6)C=C5)cc2)=C3)cc1
REMARK SMILES IDX 27 1 26 2 25 3 23 4 24 5 22 6 9 7 10 8 15 9 11 10 14 11
REMARK SMILES IDX 16 12 12 13 13 14 88 15 17 16 8 17 5 18 6 19 90 20 7 21
REMARK SMILES IDX 89 22 2 23 3 24 4 25 1 26 18 29 19 30 20 31 21 32 28 33
REMARK SMILES IDX 29 34 30 35 31 36 32 37 33 38 34 39 35 40 87 41 36 42 86 43
REMARK SMILES IDX 37 44 38 45 39 46 80 47 40 48 85 49 79 50 81 51 41 52 84 53
REMARK SMILES IDX 78 54 77 55 42 57 68 58 51 59 67 60 52 61 55 62 66 63 82 64
REMARK SMILES IDX 53 65 54 66 65 68 83 69 56 70 43 71 44 72 49 73 45 74 46 75
REMARK SMILES IDX 48 76 50 77 47 78 69 79 70 80 75 81 71 82 72 83 74 84 76 85
REMARK SMILES IDX 73 86 57 87 58 88 63 89 59 90 60 91 62 92 64 93 61 94
REMARK H PARENT 1 27 1 28 81 56 55 67
REMARK Flexibility Score: inf
ROOT
ATOM      1  C   UNL A   1      34.688  29.559  27.287  1.00  0.00     0.202 C 
ENDROOT
BRANCH   1   2
ATOM      2  C   UNL A   1      33.961  28.831  26.144  1.00  0.00     0.261 C 
BRANCH   2   3
ATOM      3  O   UNL A   1      32.765  28.158  26.568  1.00  0.00    -0.460 OA
BRANCH   3   4
ATOM      4  C   UNL A   1      32.279  27.236  25.714  1.00  0.00     0.338 C 
ATOM      5  O   UNL A   1      31.138  27.217  25.273  1.00  0.00    -0.246 OA
BRANCH   4   6
ATOM      6  C   UNL A   1      33.324  26.310  25.213  1.00  0.00     0.087 C 
ATOM      7  C   UNL A   1      32.104  22.396  24.486  1.00  0.00     0.026 A 
ATOM      8  C   UNL A   1      30.975  22.220  25.322  1.00  0.00     0.033 A 
ATOM      9  C   UNL A   1      32.778  23.631  24.647  1.00  0.00     0.135 A 
ATOM     10  C   UNL A   1      30.761  23.034  26.433  1.00  0.00     0.042 A 
ATOM     11  C   UNL A   1      32.730  24.273  25.898  1.00  0.00     0.019 A 
ATOM     12  O   UNL A   1      33.015  24.458  23.523  1.00  0.00    -0.475 OA
ATOM     13  Cl  UNL A   1      29.391  22.766  27.435  1.00  0.00    -0.084 Cl
ATOM     14  C   UNL A   1      31.694  23.995  26.783  1.00  0.00     0.032 A 
ATOM     15  C   UNL A   1      33.638  25.409  26.157  1.00  0.00     0.027 C 
ATOM     16  C   UNL A   1      33.554  25.825  23.797  1.00  0.00     0.316 C 
BRANCH   7  17
ATOM     17  C   UNL A   1      32.767  21.085  24.107  1.00  0.00    -0.015 A 
ATOM     18  C   UNL A   1      33.484  18.311  24.018  1.00  0.00     0.082 A 
ATOM     19  C   UNL A   1      32.471  18.796  23.195  1.00  0.00     0.022 A 
ATOM     20  C   UNL A   1      34.178  19.197  24.845  1.00  0.00     0.022 A 
ATOM     21  C   UNL A   1      32.136  20.167  23.231  1.00  0.00     0.010 A 
ATOM     22  C   UNL A   1      33.829  20.566  24.880  1.00  0.00     0.010 A 
BRANCH  18  23
ATOM     23  S   UNL A   1      33.875  16.579  24.087  1.00  0.00     0.238 S 
ATOM     24  O   UNL A   1      34.348  16.161  22.781  1.00  0.00    -0.207 OA
ATOM     25  O   UNL A   1      32.816  15.899  24.783  1.00  0.00    -0.207 OA
BRANCH  23  26
ATOM     26  N   UNL A   1      35.229  16.460  25.083  1.00  0.00    -0.225 NA
ATOM     27  H   UNL A   1      35.473  15.478  25.210  1.00  0.00     0.137 HD
ATOM     28  H   UNL A   1      35.023  16.880  25.989  1.00  0.00     0.137 HD
ENDBRANCH  23  26
ENDBRANCH  18  23
ENDBRANCH   7  17
BRANCH  16  29
ATOM     29  C   UNL A   1      33.347  26.909  22.714  1.00  0.00     0.430 C 
ATOM     30  F   UNL A   1      33.802  26.433  21.520  1.00  0.00    -0.167 F 
ATOM     31  F   UNL A   1      32.040  27.202  22.532  1.00  0.00    -0.167 F 
ATOM     32  F   UNL A   1      33.989  28.071  22.932  1.00  0.00    -0.167 F 
ENDBRANCH  16  29
ENDBRANCH   4   6
ENDBRANCH   3   4
ENDBRANCH   2   3
ENDBRANCH   1   2
BRANCH   1  33
ATOM     33  O   UNL A   1      34.125  30.758  27.800  1.00  0.00    -0.374 OA
BRANCH  33  34
ATOM     34  C   UNL A   1      33.035  31.351  27.098  1.00  0.00     0.202 C 
BRANCH  34  35
ATOM     35  C   UNL A   1      32.401  32.631  27.649  1.00  0.00     0.261 C 
BRANCH  35  36
ATOM     36  O   UNL A   1      33.181  33.814  27.417  1.00  0.00    -0.460 OA
BRANCH  36  37
ATOM     37  C   UNL A   1      33.206  34.678  28.461  1.00  0.00     0.338 C 
ATOM     38  O   UNL A   1      32.369  35.513  28.758  1.00  0.00    -0.246 OA
BRANCH  37  39
ATOM     39  C   UNL A   1      34.354  34.380  29.330  1.00  0.00     0.060 A 
ATOM     40  C   UNL A   1      35.627  34.360  28.750  1.00  0.00     0.016 A 
ATOM     41  C   UNL A   1      34.166  34.008  30.662  1.00  0.00     0.016 A 
ATOM     42  C   UNL A   1      36.719  33.922  29.493  1.00  0.00     0.010 A 
ATOM     43  C   UNL A   1      35.263  33.565  31.403  1.00  0.00     0.010 A 
ATOM     44  C   UNL A   1      36.536  33.484  30.810  1.00  0.00    -0.014 A 
BRANCH  44  45
ATOM     45  C   UNL A   1      37.652  32.814  31.516  1.00  0.00     0.031 A 
ATOM     46  C   UNL A   1      38.294  31.606  30.893  1.00  0.00     0.074 A 
ATOM     47  C   UNL A   1      38.101  33.294  32.688  1.00  0.00     0.049 A 
ATOM     48  N   UNL A   1      39.261  30.852  31.348  1.00  0.00    -0.248 NA
ATOM     49  C   UNL A   1      37.770  31.189  29.583  1.00  0.00     0.031 C 
ATOM     50  C   UNL A   1      37.571  34.472  33.374  1.00  0.00     0.029 A 
ATOM     51  N   UNL A   1      39.099  32.843  33.512  1.00  0.00    -0.354 N 
ATOM     52  C   UNL A   1      39.452  29.866  30.388  1.00  0.00     0.074 A 
ATOM     53  C   UNL A   1      38.478  30.096  29.345  1.00  0.00     0.031 C 
ATOM     54  C   UNL A   1      38.242  34.643  34.524  1.00  0.00     0.029 A 
ATOM     55  C   UNL A   1      39.222  33.569  34.670  1.00  0.00     0.049 A 
ATOM     56  H   UNL A   1      39.671  32.072  33.296  1.00  0.00     0.167 HD
ATOM     57  C   UNL A   1      40.364  28.864  30.378  1.00  0.00     0.037 A 
ATOM     58  C   UNL A   1      40.020  33.374  35.737  1.00  0.00     0.037 A 
ATOM     59  C   UNL A   1      41.331  28.645  31.422  1.00  0.00     0.049 A 
ATOM     60  C   UNL A   1      40.990  32.223  35.728  1.00  0.00     0.074 A 
ATOM     61  C   UNL A   1      42.323  27.682  31.492  1.00  0.00     0.029 A 
ATOM     62  N   UNL A   1      41.417  29.392  32.588  1.00  0.00    -0.354 N 
ATOM     63  N   UNL A   1      41.194  31.320  34.798  1.00  0.00    -0.248 NA
ATOM     64  C   UNL A   1      41.845  32.067  36.912  1.00  0.00     0.031 C 
ATOM     65  C   UNL A   1      42.965  27.806  32.729  1.00  0.00     0.029 A 
ATOM     66  C   UNL A   1      42.421  28.890  33.400  1.00  0.00     0.049 A 
ATOM     67  H   UNL A   1      40.847  30.165  32.807  1.00  0.00     0.167 HD
ATOM     68  C   UNL A   1      42.218  30.508  35.271  1.00  0.00     0.074 A 
ATOM     69  C   UNL A   1      42.602  31.035  36.564  1.00  0.00     0.031 C 
ATOM     70  C   UNL A   1      42.791  29.426  34.686  1.00  0.00     0.037 A 
BRANCH  57  71
ATOM     71  C   UNL A   1      40.331  27.909  29.218  1.00  0.00     0.057 A 
ATOM     72  C   UNL A   1      39.540  26.751  29.224  1.00  0.00     0.134 A 
ATOM     73  C   UNL A   1      41.089  28.163  28.067  1.00  0.00     0.134 A 
ATOM     74  F   UNL A   1      38.798  26.440  30.297  1.00  0.00    -0.206 F 
ATOM     75  C   UNL A   1      39.532  25.866  28.144  1.00  0.00     0.040 A 
ATOM     76  C   UNL A   1      41.064  27.301  26.969  1.00  0.00     0.040 A 
ATOM     77  F   UNL A   1      41.864  29.255  27.988  1.00  0.00    -0.206 F 
ATOM     78  C   UNL A   1      40.291  26.144  27.010  1.00  0.00     0.006 A 
ENDBRANCH  57  71
BRANCH  58  79
ATOM     79  C   UNL A   1      39.922  34.281  36.908  1.00  0.00     0.057 A 
ATOM     80  C   UNL A   1      40.643  35.479  36.967  1.00  0.00     0.134 A 
ATOM     81  C   UNL A   1      39.099  33.971  37.999  1.00  0.00     0.134 A 
ATOM     82  F   UNL A   1      41.463  35.823  35.963  1.00  0.00    -0.206 F 
ATOM     83  C   UNL A   1      40.563  36.327  38.073  1.00  0.00     0.040 A 
ATOM     84  C   UNL A   1      38.987  34.823  39.098  1.00  0.00     0.040 A 
ATOM     85  F   UNL A   1      38.377  32.840  38.003  1.00  0.00    -0.206 F 
ATOM     86  C   UNL A   1      39.727  36.003  39.140  1.00  0.00     0.006 A 
ENDBRANCH  58  79
BRANCH  70  87
ATOM     87  C   UNL A   1      43.918  28.761  35.424  1.00  0.00     0.057 A 
ATOM     88  C   UNL A   1      45.257  29.109  35.210  1.00  0.00     0.134 A 
ATOM     89  C   UNL A   1      43.653  27.788  36.397  1.00  0.00     0.134 A 
ATOM     90  F   UNL A   1      45.583  30.026  34.286  1.00  0.00    -0.206 F 
ATOM     91  C   UNL A   1      46.293  28.493  35.914  1.00  0.00     0.040 A 
ATOM     92  C   UNL A   1      44.677  27.188  37.131  1.00  0.00     0.040 A 
ATOM     93  F   UNL A   1      42.392  27.414  36.663  1.00  0.00    -0.206 F 
ATOM     94  C   UNL A   1      46.004  27.535  36.885  1.00  0.00     0.006 A 
ENDBRANCH  70  87
ENDBRANCH  44  45
ENDBRANCH  37  39
ENDBRANCH  36  37
ENDBRANCH  35  36
ENDBRANCH  34  35
ENDBRANCH  33  34
ENDBRANCH   1  33
TORSDOF 18
ENDMDL
