MODEL 1
REMARK VINA RESULT:     -10.2      0.000      0.000
REMARK SMILES CC[C@H](C)[C@H](NC(=O)N1CCCCC1)C(=O)OCCOCCOC(=O)c1ccc(-c2c3nc(c(-c4c(F)cccc4F)c4ccc([nH]4)c(-c4c(F)cccc4F)c4nc(c(-c5c(F)cccc5F)c5ccc2[nH]5)C=C4)C=C3)cc1
REMARK SMILES IDX 20 1 19 2 18 3 17 4 15 5 16 6 5 7 3 8 4 9 2 10 1 11 6 12
REMARK SMILES IDX 7 13 8 15 9 16 10 17 14 18 11 19 13 20 12 21 21 22 22 23
REMARK SMILES IDX 23 24 24 25 25 26 26 27 27 28 79 29 28 30 78 31 29 32 30 33
REMARK SMILES IDX 31 34 72 35 32 36 77 37 71 38 73 39 33 40 76 41 70 42 69 43
REMARK SMILES IDX 34 45 60 46 43 47 59 48 44 49 47 50 58 51 74 52 45 53 46 54
REMARK SMILES IDX 57 56 75 57 48 58 35 59 36 60 41 61 37 62 38 63 40 64 42 65
REMARK SMILES IDX 39 66 61 67 62 68 67 69 63 70 64 71 66 72 68 73 65 74 49 75
REMARK SMILES IDX 50 76 55 77 51 78 52 79 54 80 56 81 53 82
REMARK H PARENT 6 14 73 44 47 55
REMARK Flexibility Score: inf
ROOT
ATOM      1  O   UNL A   1      31.964  30.822  26.262  1.00  0.00    -0.374 OA
ENDROOT
BRANCH   1   2
ATOM      2  C   UNL A   1      32.796  30.100  27.179  1.00  0.00     0.202 C 
BRANCH   2   3
ATOM      3  C   UNL A   1      32.640  28.566  27.279  1.00  0.00     0.261 C 
BRANCH   3   4
ATOM      4  O   UNL A   1      31.321  28.111  26.940  1.00  0.00    -0.462 OA
BRANCH   4   5
ATOM      5  C   UNL A   1      31.186  26.886  26.357  1.00  0.00     0.329 C 
ATOM      6  O   UNL A   1      31.251  25.821  26.957  1.00  0.00    -0.250 OA
BRANCH   5   7
ATOM      7  C   UNL A   1      31.012  27.001  24.819  1.00  0.00     0.196 C 
BRANCH   7   8
ATOM      8  C   UNL A   1      31.785  25.808  24.108  1.00  0.00     0.019 C 
ATOM      9  C   UNL A   1      31.028  25.316  22.860  1.00  0.00     0.010 C 
BRANCH   8  10
ATOM     10  C   UNL A   1      33.257  26.083  23.673  1.00  0.00     0.002 C 
ATOM     11  C   UNL A   1      33.457  26.039  22.159  1.00  0.00     0.004 C 
ENDBRANCH   8  10
ENDBRANCH   7   8
BRANCH   7  12
ATOM     12  N   UNL A   1      31.388  28.298  24.201  1.00  0.00    -0.324 N 
ATOM     13  C   UNL A   1      31.050  28.971  23.082  1.00  0.00     0.318 C 
ATOM     14  H   UNL A   1      32.050  28.787  24.741  1.00  0.00     0.166 HD
ATOM     15  O   UNL A   1      32.035  29.434  22.492  1.00  0.00    -0.249 OA
ATOM     16  N   UNL A   1      29.775  29.284  22.683  1.00  0.00    -0.325 N 
ATOM     17  C   UNL A   1      29.654  30.084  21.450  1.00  0.00     0.121 C 
ATOM     18  C   UNL A   1      28.469  29.015  23.305  1.00  0.00     0.121 C 
ATOM     19  C   UNL A   1      29.004  31.440  21.713  1.00  0.00     0.022 C 
ATOM     20  C   UNL A   1      27.587  30.277  23.479  1.00  0.00     0.022 C 
ATOM     21  C   UNL A   1      27.612  31.260  22.303  1.00  0.00     0.004 C 
ENDBRANCH   7  12
ENDBRANCH   5   7
ENDBRANCH   4   5
ENDBRANCH   3   4
ENDBRANCH   2   3
ENDBRANCH   1   2
BRANCH   1  22
ATOM     22  C   UNL A   1      31.400  32.008  26.815  1.00  0.00     0.202 C 
BRANCH  22  23
ATOM     23  C   UNL A   1      32.296  33.239  26.907  1.00  0.00     0.261 C 
BRANCH  23  24
ATOM     24  O   UNL A   1      32.534  33.574  28.256  1.00  0.00    -0.460 OA
BRANCH  24  25
ATOM     25  C   UNL A   1      33.577  34.421  28.410  1.00  0.00     0.338 C 
ATOM     26  O   UNL A   1      33.578  35.623  28.440  1.00  0.00    -0.246 OA
BRANCH  25  27
ATOM     27  C   UNL A   1      34.677  33.530  28.803  1.00  0.00     0.060 A 
ATOM     28  C   UNL A   1      34.354  32.300  29.377  1.00  0.00     0.016 A 
ATOM     29  C   UNL A   1      36.000  33.889  28.508  1.00  0.00     0.016 A 
ATOM     30  C   UNL A   1      35.383  31.449  29.742  1.00  0.00     0.010 A 
ATOM     31  C   UNL A   1      37.019  33.023  28.825  1.00  0.00     0.010 A 
ATOM     32  C   UNL A   1      36.707  31.840  29.503  1.00  0.00    -0.014 A 
BRANCH  32  33
ATOM     33  C   UNL A   1      37.811  31.136  30.154  1.00  0.00     0.031 A 
ATOM     34  C   UNL A   1      38.077  31.460  31.592  1.00  0.00     0.074 A 
ATOM     35  C   UNL A   1      38.560  30.290  29.435  1.00  0.00     0.049 A 
ATOM     36  N   UNL A   1      39.034  31.040  32.368  1.00  0.00    -0.248 NA
ATOM     37  C   UNL A   1      37.154  32.416  32.236  1.00  0.00     0.031 C 
ATOM     38  C   UNL A   1      38.351  29.966  28.022  1.00  0.00     0.029 A 
ATOM     39  N   UNL A   1      39.655  29.562  29.795  1.00  0.00    -0.354 N 
ATOM     40  C   UNL A   1      38.833  31.683  33.583  1.00  0.00     0.074 A 
ATOM     41  C   UNL A   1      37.703  32.566  33.429  1.00  0.00     0.031 C 
ATOM     42  C   UNL A   1      39.293  29.091  27.636  1.00  0.00     0.029 A 
ATOM     43  C   UNL A   1      40.179  28.824  28.765  1.00  0.00     0.049 A 
ATOM     44  H   UNL A   1      40.031  29.565  30.704  1.00  0.00     0.167 HD
ATOM     45  C   UNL A   1      39.529  31.523  34.730  1.00  0.00     0.037 A 
ATOM     46  C   UNL A   1      41.264  28.034  28.759  1.00  0.00     0.037 A 
ATOM     47  C   UNL A   1      40.646  30.626  34.838  1.00  0.00     0.049 A 
ATOM     48  C   UNL A   1      42.029  27.886  30.045  1.00  0.00     0.074 A 
ATOM     49  C   UNL A   1      41.421  30.337  35.942  1.00  0.00     0.029 A 
ATOM     50  N   UNL A   1      41.144  29.874  33.781  1.00  0.00    -0.354 N 
ATOM     51  N   UNL A   1      41.805  28.449  31.211  1.00  0.00    -0.248 NA
ATOM     52  C   UNL A   1      43.189  26.989  30.021  1.00  0.00     0.031 C 
ATOM     53  C   UNL A   1      42.420  29.445  35.541  1.00  0.00     0.029 A 
ATOM     54  C   UNL A   1      42.234  29.135  34.202  1.00  0.00     0.049 A 
ATOM     55  H   UNL A   1      40.777  29.869  32.868  1.00  0.00     0.167 HD
ATOM     56  C   UNL A   1      42.778  27.954  32.068  1.00  0.00     0.074 A 
ATOM     57  C   UNL A   1      43.581  27.032  31.287  1.00  0.00     0.031 C 
ATOM     58  C   UNL A   1      42.995  28.228  33.379  1.00  0.00     0.037 A 
BRANCH  45  59
ATOM     59  C   UNL A   1      39.105  32.333  35.918  1.00  0.00     0.057 A 
ATOM     60  C   UNL A   1      39.557  33.645  36.124  1.00  0.00     0.134 A 
ATOM     61  C   UNL A   1      38.232  31.798  36.872  1.00  0.00     0.134 A 
ATOM     62  F   UNL A   1      40.417  34.211  35.263  1.00  0.00    -0.206 F 
ATOM     63  C   UNL A   1      39.176  34.383  37.246  1.00  0.00     0.040 A 
ATOM     64  C   UNL A   1      37.821  32.536  37.983  1.00  0.00     0.040 A 
ATOM     65  F   UNL A   1      37.767  30.546  36.743  1.00  0.00    -0.206 F 
ATOM     66  C   UNL A   1      38.298  33.831  38.176  1.00  0.00     0.006 A 
ENDBRANCH  45  59
BRANCH  46  67
ATOM     67  C   UNL A   1      41.658  27.320  27.520  1.00  0.00     0.057 A 
ATOM     68  C   UNL A   1      41.247  26.003  27.284  1.00  0.00     0.134 A 
ATOM     69  C   UNL A   1      42.435  27.939  26.534  1.00  0.00     0.134 A 
ATOM     70  F   UNL A   1      40.504  25.355  28.193  1.00  0.00    -0.206 F 
ATOM     71  C   UNL A   1      41.616  25.319  26.125  1.00  0.00     0.040 A 
ATOM     72  C   UNL A   1      42.789  27.277  25.358  1.00  0.00     0.040 A 
ATOM     73  F   UNL A   1      42.844  29.207  26.689  1.00  0.00    -0.206 F 
ATOM     74  C   UNL A   1      42.386  25.958  25.155  1.00  0.00     0.006 A 
ENDBRANCH  46  67
BRANCH  58  75
ATOM     75  C   UNL A   1      44.122  27.495  34.041  1.00  0.00     0.057 A 
ATOM     76  C   UNL A   1      43.941  26.236  34.622  1.00  0.00     0.134 A 
ATOM     77  C   UNL A   1      45.412  28.041  34.051  1.00  0.00     0.134 A 
ATOM     78  F   UNL A   1      42.725  25.667  34.652  1.00  0.00    -0.206 F 
ATOM     79  C   UNL A   1      45.001  25.554  35.219  1.00  0.00     0.040 A 
ATOM     80  C   UNL A   1      46.485  27.355  34.615  1.00  0.00     0.040 A 
ATOM     81  F   UNL A   1      45.650  29.240  33.496  1.00  0.00    -0.206 F 
ATOM     82  C   UNL A   1      46.279  26.111  35.207  1.00  0.00     0.006 A 
ENDBRANCH  58  75
ENDBRANCH  32  33
ENDBRANCH  25  27
ENDBRANCH  24  25
ENDBRANCH  23  24
ENDBRANCH  22  23
ENDBRANCH   1  22
TORSDOF 17
ENDMDL
MODEL 2
REMARK VINA RESULT:     -10.2      1.407      6.954
REMARK SMILES CC[C@H](C)[C@H](NC(=O)N1CCCCC1)C(=O)OCCOCCOC(=O)c1ccc(-c2c3nc(c(-c4c(F)cccc4F)c4ccc([nH]4)c(-c4c(F)cccc4F)c4nc(c(-c5c(F)cccc5F)c5ccc2[nH]5)C=C4)C=C3)cc1
REMARK SMILES IDX 20 1 19 2 18 3 17 4 15 5 16 6 5 7 3 8 4 9 2 10 1 11 6 12
REMARK SMILES IDX 7 13 8 15 9 16 10 17 14 18 11 19 13 20 12 21 21 22 22 23
REMARK SMILES IDX 23 24 24 25 25 26 26 27 27 28 79 29 28 30 78 31 29 32 30 33
REMARK SMILES IDX 31 34 72 35 32 36 77 37 71 38 73 39 33 40 76 41 70 42 69 43
REMARK SMILES IDX 34 45 60 46 43 47 59 48 44 49 47 50 58 51 74 52 45 53 46 54
REMARK SMILES IDX 57 56 75 57 48 58 35 59 36 60 41 61 37 62 38 63 40 64 42 65
REMARK SMILES IDX 39 66 61 67 62 68 67 69 63 70 64 71 66 72 68 73 65 74 49 75
REMARK SMILES IDX 50 76 55 77 51 78 52 79 54 80 56 81 53 82
REMARK H PARENT 6 14 73 44 47 55
REMARK Flexibility Score: inf
ROOT
ATOM      1  O   UNL A   1      33.128  30.835  26.593  1.00  0.00    -0.374 OA
ENDROOT
BRANCH   1   2
ATOM      2  C   UNL A   1      33.025  29.565  27.248  1.00  0.00     0.202 C 
BRANCH   2   3
ATOM      3  C   UNL A   1      33.528  28.303  26.510  1.00  0.00     0.261 C 
BRANCH   3   4
ATOM      4  O   UNL A   1      32.734  27.968  25.362  1.00  0.00    -0.462 OA
BRANCH   4   5
ATOM      5  C   UNL A   1      33.234  28.245  24.123  1.00  0.00     0.329 C 
ATOM      6  O   UNL A   1      34.403  28.524  23.894  1.00  0.00    -0.250 OA
BRANCH   5   7
ATOM      7  C   UNL A   1      32.120  28.237  23.043  1.00  0.00     0.196 C 
BRANCH   7   8
ATOM      8  C   UNL A   1      30.697  28.293  23.749  1.00  0.00     0.019 C 
ATOM      9  C   UNL A   1      30.162  29.736  23.816  1.00  0.00     0.010 C 
BRANCH   8  10
ATOM     10  C   UNL A   1      29.568  27.413  23.129  1.00  0.00     0.002 C 
ATOM     11  C   UNL A   1      28.839  26.553  24.161  1.00  0.00     0.004 C 
ENDBRANCH   8  10
ENDBRANCH   7   8
BRANCH   7  12
ATOM     12  N   UNL A   1      32.159  27.129  22.054  1.00  0.00    -0.324 N 
ATOM     13  C   UNL A   1      32.789  25.940  21.958  1.00  0.00     0.318 C 
ATOM     14  H   UNL A   1      31.584  27.308  21.275  1.00  0.00     0.166 HD
ATOM     15  O   UNL A   1      33.277  25.753  20.835  1.00  0.00    -0.249 OA
ATOM     16  N   UNL A   1      32.779  24.943  22.899  1.00  0.00    -0.325 N 
ATOM     17  C   UNL A   1      33.491  23.701  22.544  1.00  0.00     0.121 C 
ATOM     18  C   UNL A   1      32.121  24.853  24.212  1.00  0.00     0.121 C 
ATOM     19  C   UNL A   1      32.549  22.502  22.484  1.00  0.00     0.022 C 
ATOM     20  C   UNL A   1      31.257  23.579  24.394  1.00  0.00     0.022 C 
ATOM     21  C   UNL A   1      31.864  22.291  23.828  1.00  0.00     0.004 C 
ENDBRANCH   7  12
ENDBRANCH   5   7
ENDBRANCH   4   5
ENDBRANCH   3   4
ENDBRANCH   2   3
ENDBRANCH   1   2
BRANCH   1  22
ATOM     22  C   UNL A   1      32.010  31.689  26.826  1.00  0.00     0.202 C 
BRANCH  22  23
ATOM     23  C   UNL A   1      32.270  33.191  26.884  1.00  0.00     0.261 C 
BRANCH  23  24
ATOM     24  O   UNL A   1      32.263  33.640  28.220  1.00  0.00    -0.460 OA
BRANCH  24  25
ATOM     25  C   UNL A   1      33.187  34.598  28.457  1.00  0.00     0.338 C 
ATOM     26  O   UNL A   1      33.051  35.793  28.482  1.00  0.00    -0.246 OA
BRANCH  25  27
ATOM     27  C   UNL A   1      34.344  33.834  28.944  1.00  0.00     0.060 A 
ATOM     28  C   UNL A   1      34.104  32.710  29.735  1.00  0.00     0.016 A 
ATOM     29  C   UNL A   1      35.635  34.190  28.528  1.00  0.00     0.016 A 
ATOM     30  C   UNL A   1      35.187  31.978  30.191  1.00  0.00     0.010 A 
ATOM     31  C   UNL A   1      36.706  33.434  28.940  1.00  0.00     0.010 A 
ATOM     32  C   UNL A   1      36.480  32.375  29.824  1.00  0.00    -0.014 A 
BRANCH  32  33
ATOM     33  C   UNL A   1      37.642  31.839  30.532  1.00  0.00     0.031 A 
ATOM     34  C   UNL A   1      38.403  30.738  29.861  1.00  0.00     0.074 A 
ATOM     35  C   UNL A   1      37.937  32.306  31.752  1.00  0.00     0.049 A 
ATOM     36  N   UNL A   1      39.412  30.043  30.305  1.00  0.00    -0.248 NA
ATOM     37  C   UNL A   1      37.945  30.342  28.514  1.00  0.00     0.031 C 
ATOM     38  C   UNL A   1      37.202  33.361  32.454  1.00  0.00     0.029 A 
ATOM     39  N   UNL A   1      38.922  31.940  32.619  1.00  0.00    -0.354 N 
ATOM     40  C   UNL A   1      39.700  29.128  29.301  1.00  0.00     0.074 A 
ATOM     41  C   UNL A   1      38.729  29.311  28.250  1.00  0.00     0.031 C 
ATOM     42  C   UNL A   1      37.776  33.562  33.651  1.00  0.00     0.029 A 
ATOM     43  C   UNL A   1      38.889  32.631  33.802  1.00  0.00     0.049 A 
ATOM     44  H   UNL A   1      39.593  31.249  32.415  1.00  0.00     0.167 HD
ATOM     45  C   UNL A   1      40.709  28.231  29.263  1.00  0.00     0.037 A 
ATOM     46  C   UNL A   1      39.678  32.498  34.881  1.00  0.00     0.037 A 
ATOM     47  C   UNL A   1      41.657  28.088  30.332  1.00  0.00     0.049 A 
ATOM     48  C   UNL A   1      40.784  31.482  34.818  1.00  0.00     0.074 A 
ATOM     49  C   UNL A   1      42.749  27.248  30.416  1.00  0.00     0.029 A 
ATOM     50  N   UNL A   1      41.611  28.817  31.515  1.00  0.00    -0.354 N 
ATOM     51  N   UNL A   1      41.094  30.656  33.844  1.00  0.00    -0.248 NA
ATOM     52  C   UNL A   1      41.654  31.383  35.994  1.00  0.00     0.031 C 
ATOM     53  C   UNL A   1      43.336  27.434  31.671  1.00  0.00     0.029 A 
ATOM     54  C   UNL A   1      42.644  28.429  32.347  1.00  0.00     0.049 A 
ATOM     55  H   UNL A   1      40.942  29.505  31.729  1.00  0.00     0.167 HD
ATOM     56  C   UNL A   1      42.213  29.957  34.277  1.00  0.00     0.074 A 
ATOM     57  C   UNL A   1      42.532  30.472  35.595  1.00  0.00     0.031 C 
ATOM     58  C   UNL A   1      42.917  28.981  33.652  1.00  0.00     0.037 A 
BRANCH  45  59
ATOM     59  C   UNL A   1      40.814  27.355  28.051  1.00  0.00     0.057 A 
ATOM     60  C   UNL A   1      40.131  26.133  27.954  1.00  0.00     0.134 A 
ATOM     61  C   UNL A   1      41.609  27.734  26.963  1.00  0.00     0.134 A 
ATOM     62  F   UNL A   1      39.372  25.696  28.970  1.00  0.00    -0.206 F 
ATOM     63  C   UNL A   1      40.254  25.313  26.831  1.00  0.00     0.040 A 
ATOM     64  C   UNL A   1      41.718  26.935  25.823  1.00  0.00     0.040 A 
ATOM     65  F   UNL A   1      42.298  28.885  26.991  1.00  0.00    -0.206 F 
ATOM     66  C   UNL A   1      41.044  25.718  25.758  1.00  0.00     0.006 A 
ENDBRANCH  45  59
BRANCH  46  67
ATOM     67  C   UNL A   1      39.464  33.358  36.070  1.00  0.00     0.057 A 
ATOM     68  C   UNL A   1      40.043  34.629  36.156  1.00  0.00     0.134 A 
ATOM     69  C   UNL A   1      38.661  32.942  37.139  1.00  0.00     0.134 A 
ATOM     70  F   UNL A   1      40.826  35.082  35.166  1.00  0.00    -0.206 F 
ATOM     71  C   UNL A   1      39.854  35.444  37.273  1.00  0.00     0.040 A 
ATOM     72  C   UNL A   1      38.440  33.758  38.249  1.00  0.00     0.040 A 
ATOM     73  F   UNL A   1      38.059  31.743  37.109  1.00  0.00    -0.206 F 
ATOM     74  C   UNL A   1      39.045  35.011  38.322  1.00  0.00     0.006 A 
ENDBRANCH  46  67
BRANCH  58  75
ATOM     75  C   UNL A   1      44.112  28.443  34.379  1.00  0.00     0.057 A 
ATOM     76  C   UNL A   1      45.372  29.040  34.268  1.00  0.00     0.134 A 
ATOM     77  C   UNL A   1      43.982  27.344  35.236  1.00  0.00     0.134 A 
ATOM     78  F   UNL A   1      45.560  30.089  33.452  1.00  0.00    -0.206 F 
ATOM     79  C   UNL A   1      46.473  28.543  34.964  1.00  0.00     0.040 A 
ATOM     80  C   UNL A   1      45.067  26.858  35.963  1.00  0.00     0.040 A 
ATOM     81  F   UNL A   1      42.794  26.738  35.395  1.00  0.00    -0.206 F 
ATOM     82  C   UNL A   1      46.319  27.454  35.822  1.00  0.00     0.006 A 
ENDBRANCH  58  75
ENDBRANCH  32  33
ENDBRANCH  25  27
ENDBRANCH  24  25
ENDBRANCH  23  24
ENDBRANCH  22  23
ENDBRANCH   1  22
TORSDOF 17
ENDMDL
MODEL 3
REMARK VINA RESULT:     -10.2      5.049      9.907
REMARK SMILES CC[C@H](C)[C@H](NC(=O)N1CCCCC1)C(=O)OCCOCCOC(=O)c1ccc(-c2c3nc(c(-c4c(F)cccc4F)c4ccc([nH]4)c(-c4c(F)cccc4F)c4nc(c(-c5c(F)cccc5F)c5ccc2[nH]5)C=C4)C=C3)cc1
REMARK SMILES IDX 20 1 19 2 18 3 17 4 15 5 16 6 5 7 3 8 4 9 2 10 1 11 6 12
REMARK SMILES IDX 7 13 8 15 9 16 10 17 14 18 11 19 13 20 12 21 21 22 22 23
REMARK SMILES IDX 23 24 24 25 25 26 26 27 27 28 79 29 28 30 78 31 29 32 30 33
REMARK SMILES IDX 31 34 72 35 32 36 77 37 71 38 73 39 33 40 76 41 70 42 69 43
REMARK SMILES IDX 34 45 60 46 43 47 59 48 44 49 47 50 58 51 74 52 45 53 46 54
REMARK SMILES IDX 57 56 75 57 48 58 35 59 36 60 41 61 37 62 38 63 40 64 42 65
REMARK SMILES IDX 39 66 61 67 62 68 67 69 63 70 64 71 66 72 68 73 65 74 49 75
REMARK SMILES IDX 50 76 55 77 51 78 52 79 54 80 56 81 53 82
REMARK H PARENT 6 14 73 44 47 55
REMARK Flexibility Score: inf
ROOT
ATOM      1  O   UNL A   1      37.585  21.417  25.836  1.00  0.00    -0.374 OA
ENDROOT
BRANCH   1   2
ATOM      2  C   UNL A   1      37.403  22.639  25.110  1.00  0.00     0.202 C 
BRANCH   2   3
ATOM      3  C   UNL A   1      36.302  23.623  25.569  1.00  0.00     0.261 C 
BRANCH   3   4
ATOM      4  O   UNL A   1      34.975  23.106  25.387  1.00  0.00    -0.462 OA
BRANCH   4   5
ATOM      5  C   UNL A   1      34.301  22.645  26.480  1.00  0.00     0.329 C 
ATOM      6  O   UNL A   1      34.560  22.955  27.635  1.00  0.00    -0.250 OA
BRANCH   5   7
ATOM      7  C   UNL A   1      33.209  21.616  26.086  1.00  0.00     0.196 C 
BRANCH   7   8
ATOM      8  C   UNL A   1      33.492  21.079  24.617  1.00  0.00     0.019 C 
ATOM      9  C   UNL A   1      33.855  19.582  24.629  1.00  0.00     0.010 C 
BRANCH   8  10
ATOM     10  C   UNL A   1      32.356  21.267  23.567  1.00  0.00     0.002 C 
ATOM     11  C   UNL A   1      32.153  20.046  22.670  1.00  0.00     0.004 C 
ENDBRANCH   8  10
ENDBRANCH   7   8
BRANCH   7  12
ATOM     12  N   UNL A   1      31.798  22.064  26.205  1.00  0.00    -0.324 N 
ATOM     13  C   UNL A   1      31.170  23.241  26.403  1.00  0.00     0.318 C 
ATOM     14  H   UNL A   1      31.163  21.316  26.120  1.00  0.00     0.166 HD
ATOM     15  O   UNL A   1      30.269  23.161  27.249  1.00  0.00    -0.249 OA
ATOM     16  N   UNL A   1      31.348  24.385  25.667  1.00  0.00    -0.325 N 
ATOM     17  C   UNL A   1      30.501  25.536  26.032  1.00  0.00     0.121 C 
ATOM     18  C   UNL A   1      32.209  24.671  24.509  1.00  0.00     0.121 C 
ATOM     19  C   UNL A   1      29.578  25.949  24.889  1.00  0.00     0.022 C 
ATOM     20  C   UNL A   1      31.452  25.279  23.301  1.00  0.00     0.022 C 
ATOM     21  C   UNL A   1      30.388  26.325  23.655  1.00  0.00     0.004 C 
ENDBRANCH   7  12
ENDBRANCH   5   7
ENDBRANCH   4   5
ENDBRANCH   3   4
ENDBRANCH   2   3
ENDBRANCH   1   2
BRANCH   1  22
ATOM     22  C   UNL A   1      37.784  20.281  24.999  1.00  0.00     0.202 C 
BRANCH  22  23
ATOM     23  C   UNL A   1      38.903  19.314  25.377  1.00  0.00     0.261 C 
BRANCH  23  24
ATOM     24  O   UNL A   1      39.699  19.861  26.404  1.00  0.00    -0.460 OA
BRANCH  24  25
ATOM     25  C   UNL A   1      41.017  19.611  26.235  1.00  0.00     0.338 C 
ATOM     26  O   UNL A   1      41.550  18.646  25.752  1.00  0.00    -0.246 OA
BRANCH  25  27
ATOM     27  C   UNL A   1      41.644  20.907  26.530  1.00  0.00     0.060 A 
ATOM     28  C   UNL A   1      42.005  21.177  27.850  1.00  0.00     0.016 A 
ATOM     29  C   UNL A   1      41.947  21.785  25.480  1.00  0.00     0.016 A 
ATOM     30  C   UNL A   1      42.604  22.392  28.137  1.00  0.00     0.010 A 
ATOM     31  C   UNL A   1      42.587  22.970  25.758  1.00  0.00     0.010 A 
ATOM     32  C   UNL A   1      42.848  23.294  27.092  1.00  0.00    -0.014 A 
BRANCH  32  33
ATOM     33  C   UNL A   1      43.172  24.689  27.387  1.00  0.00     0.031 A 
ATOM     34  C   UNL A   1      44.608  25.098  27.264  1.00  0.00     0.074 A 
ATOM     35  C   UNL A   1      42.201  25.512  27.802  1.00  0.00     0.049 A 
ATOM     36  N   UNL A   1      45.166  26.242  27.542  1.00  0.00    -0.248 NA
ATOM     37  C   UNL A   1      45.552  24.065  26.792  1.00  0.00     0.031 C 
ATOM     38  C   UNL A   1      40.792  25.146  27.962  1.00  0.00     0.029 A 
ATOM     39  N   UNL A   1      42.259  26.821  28.179  1.00  0.00    -0.354 N 
ATOM     40  C   UNL A   1      46.520  26.063  27.288  1.00  0.00     0.074 A 
ATOM     41  C   UNL A   1      46.713  24.690  26.891  1.00  0.00     0.031 C 
ATOM     42  C   UNL A   1      40.114  26.218  28.401  1.00  0.00     0.029 A 
ATOM     43  C   UNL A   1      41.049  27.325  28.578  1.00  0.00     0.049 A 
ATOM     44  H   UNL A   1      43.088  27.351  28.164  1.00  0.00     0.167 HD
ATOM     45  C   UNL A   1      47.505  26.984  27.362  1.00  0.00     0.037 A 
ATOM     46  C   UNL A   1      40.756  28.550  29.042  1.00  0.00     0.037 A 
ATOM     47  C   UNL A   1      47.264  28.344  27.757  1.00  0.00     0.049 A 
ATOM     48  C   UNL A   1      41.873  29.552  29.129  1.00  0.00     0.074 A 
ATOM     49  C   UNL A   1      48.157  29.392  27.844  1.00  0.00     0.029 A 
ATOM     50  N   UNL A   1      46.021  28.834  28.139  1.00  0.00    -0.354 N 
ATOM     51  N   UNL A   1      43.145  29.401  28.832  1.00  0.00    -0.248 NA
ATOM     52  C   UNL A   1      41.520  30.893  29.604  1.00  0.00     0.031 C 
ATOM     53  C   UNL A   1      47.463  30.506  28.325  1.00  0.00     0.029 A 
ATOM     54  C   UNL A   1      46.127  30.168  28.484  1.00  0.00     0.049 A 
ATOM     55  H   UNL A   1      45.189  28.309  28.161  1.00  0.00     0.167 HD
ATOM     56  C   UNL A   1      43.740  30.634  29.057  1.00  0.00     0.074 A 
ATOM     57  C   UNL A   1      42.682  31.524  29.500  1.00  0.00     0.031 C 
ATOM     58  C   UNL A   1      45.036  31.008  28.915  1.00  0.00     0.037 A 
BRANCH  45  59
ATOM     59  C   UNL A   1      48.897  26.541  27.023  1.00  0.00     0.057 A 
ATOM     60  C   UNL A   1      49.418  26.651  25.726  1.00  0.00     0.134 A 
ATOM     61  C   UNL A   1      49.730  25.994  28.006  1.00  0.00     0.134 A 
ATOM     62  F   UNL A   1      48.664  27.141  24.730  1.00  0.00    -0.206 F 
ATOM     63  C   UNL A   1      50.706  26.212  25.415  1.00  0.00     0.040 A 
ATOM     64  C   UNL A   1      51.031  25.578  27.713  1.00  0.00     0.040 A 
ATOM     65  F   UNL A   1      49.295  25.850  29.266  1.00  0.00    -0.206 F 
ATOM     66  C   UNL A   1      51.520  25.681  26.412  1.00  0.00     0.006 A 
ENDBRANCH  45  59
BRANCH  46  67
ATOM     67  C   UNL A   1      39.363  28.889  29.422  1.00  0.00     0.057 A 
ATOM     68  C   UNL A   1      38.474  29.441  28.493  1.00  0.00     0.134 A 
ATOM     69  C   UNL A   1      38.878  28.652  30.714  1.00  0.00     0.134 A 
ATOM     70  F   UNL A   1      38.880  29.695  27.240  1.00  0.00    -0.206 F 
ATOM     71  C   UNL A   1      37.163  29.769  28.840  1.00  0.00     0.040 A 
ATOM     72  C   UNL A   1      37.562  28.950  31.069  1.00  0.00     0.040 A 
ATOM     73  F   UNL A   1      39.673  28.105  31.647  1.00  0.00    -0.206 F 
ATOM     74  C   UNL A   1      36.702  29.518  30.131  1.00  0.00     0.006 A 
ENDBRANCH  46  67
BRANCH  58  75
ATOM     75  C   UNL A   1      45.359  32.441  29.210  1.00  0.00     0.057 A 
ATOM     76  C   UNL A   1      45.231  33.440  28.238  1.00  0.00     0.134 A 
ATOM     77  C   UNL A   1      45.757  32.826  30.496  1.00  0.00     0.134 A 
ATOM     78  F   UNL A   1      44.865  33.129  26.985  1.00  0.00    -0.206 F 
ATOM     79  C   UNL A   1      45.516  34.773  28.530  1.00  0.00     0.040 A 
ATOM     80  C   UNL A   1      46.013  34.160  30.807  1.00  0.00     0.040 A 
ATOM     81  F   UNL A   1      45.884  31.914  31.473  1.00  0.00    -0.206 F 
ATOM     82  C   UNL A   1      45.899  35.136  29.820  1.00  0.00     0.006 A 
ENDBRANCH  58  75
ENDBRANCH  32  33
ENDBRANCH  25  27
ENDBRANCH  24  25
ENDBRANCH  23  24
ENDBRANCH  22  23
ENDBRANCH   1  22
TORSDOF 17
ENDMDL
