MODEL 1
REMARK VINA RESULT:     -12.3      0.000      0.000
REMARK SMILES COc1cc([C@@H]2CC(=O)Nc3c(C(=O)OCCOCCOC(=O)c4ccc(-c5c6nc(c(-c7c(F)cccc7F)c7ccc([nH]7)c(-c7c(F)cccc7F)c7nc(c(-c8c(F)cccc8F)c8ccc5[nH]8)C=C7)C=C6)cc4)cn(-c4ccc(F)cc4)c32)c(OC)c2c1OCO2
REMARK SMILES IDX 18 1 17 2 16 3 15 4 13 5 14 6 12 7 6 8 7 9 87 10 8 11 11 12
REMARK SMILES IDX 79 13 9 14 10 15 78 16 5 18 3 19 4 20 92 21 91 22 93 23
REMARK SMILES IDX 88 24 95 25 94 26 2 27 1 28 89 29 90 30 80 31 81 32 86 33
REMARK SMILES IDX 82 34 85 35 83 36 84 37 19 38 20 39 21 40 22 41 23 42 24 43
REMARK SMILES IDX 25 44 77 45 26 46 76 47 27 48 28 49 29 50 70 51 30 52 75 53
REMARK SMILES IDX 69 54 71 55 31 56 74 57 68 58 67 59 32 61 58 62 41 63 57 64
REMARK SMILES IDX 42 65 45 66 56 67 72 68 43 69 44 70 55 72 73 73 46 74 33 75
REMARK SMILES IDX 34 76 39 77 35 78 36 79 38 80 40 81 37 82 59 83 60 84 65 85
REMARK SMILES IDX 61 86 62 87 64 88 66 89 63 90 47 91 48 92 53 93 49 94 50 95
REMARK SMILES IDX 52 96 54 97 51 98
REMARK H PARENT 10 17 71 60 45 71
REMARK Flexibility Score: inf
ROOT
ATOM      1  O   UNL A   1      37.449  21.601  24.641  1.00  0.00    -0.374 OA
ENDROOT
BRANCH   1   2
ATOM      2  C   UNL A   1      36.259  22.174  24.103  1.00  0.00     0.202 C 
BRANCH   2   3
ATOM      3  C   UNL A   1      34.911  21.754  24.696  1.00  0.00     0.261 C 
BRANCH   3   4
ATOM      4  O   UNL A   1      33.867  22.705  24.439  1.00  0.00    -0.460 OA
BRANCH   4   5
ATOM      5  C   UNL A   1      33.545  23.489  25.513  1.00  0.00     0.341 C 
ATOM      6  O   UNL A   1      33.392  23.084  26.652  1.00  0.00    -0.246 OA
BRANCH   5   7
ATOM      7  C   UNL A   1      33.526  24.904  25.179  1.00  0.00     0.102 A 
ATOM      8  C   UNL A   1      32.731  27.843  23.094  1.00  0.00     0.082 C 
ATOM      9  C   UNL A   1      33.242  27.342  21.730  1.00  0.00     0.115 C 
ATOM     10  C   UNL A   1      33.157  26.881  24.163  1.00  0.00     0.055 A 
ATOM     11  C   UNL A   1      33.230  25.828  21.544  1.00  0.00     0.225 C 
ATOM     12  C   UNL A   1      33.427  25.551  23.931  1.00  0.00     0.078 A 
ATOM     13  N   UNL A   1      33.355  27.126  25.506  1.00  0.00    -0.317 N 
ATOM     14  O   UNL A   1      33.158  25.320  20.423  1.00  0.00    -0.275 OA
ATOM     15  N   UNL A   1      33.424  25.040  22.653  1.00  0.00    -0.324 N 
ATOM     16  C   UNL A   1      33.606  25.922  26.122  1.00  0.00     0.109 A 
ATOM     17  H   UNL A   1      33.568  24.074  22.529  1.00  0.00     0.170 HD
BRANCH   8  18
ATOM     18  C   UNL A   1      31.216  28.115  23.091  1.00  0.00     0.012 A 
ATOM     19  C   UNL A   1      29.448  29.805  22.836  1.00  0.00     0.165 A 
ATOM     20  C   UNL A   1      30.783  29.414  22.712  1.00  0.00     0.059 A 
ATOM     21  C   UNL A   1      28.530  28.848  23.218  1.00  0.00     0.211 A 
ATOM     22  C   UNL A   1      28.918  27.562  23.538  1.00  0.00     0.211 A 
ATOM     23  O   UNL A   1      27.181  29.017  23.320  1.00  0.00    -0.449 OA
ATOM     24  C   UNL A   1      30.248  27.166  23.506  1.00  0.00     0.168 A 
ATOM     25  O   UNL A   1      27.847  26.793  23.892  1.00  0.00    -0.449 OA
ATOM     26  C   UNL A   1      26.753  27.689  23.651  1.00  0.00     0.468 C 
BRANCH  19  27
ATOM     27  O   UNL A   1      29.156  31.108  22.554  1.00  0.00    -0.493 OA
ATOM     28  C   UNL A   1      28.666  31.297  21.225  1.00  0.00     0.278 C 
ENDBRANCH  19  27
BRANCH  24  29
ATOM     29  O   UNL A   1      30.714  25.939  23.857  1.00  0.00    -0.492 OA
ATOM     30  C   UNL A   1      30.165  24.773  23.268  1.00  0.00     0.278 C 
ENDBRANCH  24  29
ENDBRANCH   8  18
BRANCH  13  31
ATOM     31  C   UNL A   1      33.285  28.365  26.173  1.00  0.00     0.046 A 
ATOM     32  C   UNL A   1      32.040  28.972  26.352  1.00  0.00     0.029 A 
ATOM     33  C   UNL A   1      34.455  28.987  26.619  1.00  0.00     0.029 A 
ATOM     34  C   UNL A   1      31.968  30.259  26.878  1.00  0.00     0.041 A 
ATOM     35  C   UNL A   1      34.374  30.275  27.154  1.00  0.00     0.041 A 
ATOM     36  C   UNL A   1      33.136  30.907  27.258  1.00  0.00     0.123 A 
ATOM     37  F   UNL A   1      33.068  32.157  27.733  1.00  0.00    -0.207 F 
ENDBRANCH  13  31
ENDBRANCH   5   7
ENDBRANCH   4   5
ENDBRANCH   3   4
ENDBRANCH   2   3
ENDBRANCH   1   2
BRANCH   1  38
ATOM     38  C   UNL A   1      38.093  22.197  25.758  1.00  0.00     0.202 C 
BRANCH  38  39
ATOM     39  C   UNL A   1      39.456  21.683  26.190  1.00  0.00     0.261 C 
BRANCH  39  40
ATOM     40  O   UNL A   1      40.165  22.603  27.008  1.00  0.00    -0.460 OA
BRANCH  40  41
ATOM     41  C   UNL A   1      41.400  22.896  26.540  1.00  0.00     0.338 C 
ATOM     42  O   UNL A   1      42.231  22.114  26.115  1.00  0.00    -0.246 OA
BRANCH  41  43
ATOM     43  C   UNL A   1      41.680  24.310  26.816  1.00  0.00     0.060 A 
ATOM     44  C   UNL A   1      42.367  24.588  27.996  1.00  0.00     0.016 A 
ATOM     45  C   UNL A   1      41.023  25.313  26.088  1.00  0.00     0.016 A 
ATOM     46  C   UNL A   1      42.197  25.830  28.566  1.00  0.00     0.010 A 
ATOM     47  C   UNL A   1      40.858  26.555  26.658  1.00  0.00     0.010 A 
ATOM     48  C   UNL A   1      41.365  26.769  27.933  1.00  0.00    -0.014 A 
BRANCH  48  49
ATOM     49  C   UNL A   1      41.204  28.070  28.553  1.00  0.00     0.031 A 
ATOM     50  C   UNL A   1      42.302  28.974  28.143  1.00  0.00     0.074 A 
ATOM     51  C   UNL A   1      40.175  28.414  29.355  1.00  0.00     0.049 A 
ATOM     52  N   UNL A   1      43.325  29.290  28.857  1.00  0.00    -0.248 NA
ATOM     53  C   UNL A   1      42.422  29.352  26.724  1.00  0.00     0.031 C 
ATOM     54  C   UNL A   1      38.951  27.662  29.650  1.00  0.00     0.029 A 
ATOM     55  N   UNL A   1      39.989  29.571  30.056  1.00  0.00    -0.354 N 
ATOM     56  C   UNL A   1      44.104  30.114  28.055  1.00  0.00     0.074 A 
ATOM     57  C   UNL A   1      43.614  29.954  26.714  1.00  0.00     0.031 C 
ATOM     58  C   UNL A   1      38.061  28.468  30.281  1.00  0.00     0.029 A 
ATOM     59  C   UNL A   1      38.703  29.738  30.575  1.00  0.00     0.049 A 
ATOM     60  H   UNL A   1      40.706  30.234  30.187  1.00  0.00     0.167 HD
ATOM     61  C   UNL A   1      44.882  31.071  28.629  1.00  0.00     0.037 A 
ATOM     62  C   UNL A   1      38.224  30.851  31.193  1.00  0.00     0.037 A 
ATOM     63  C   UNL A   1      45.017  30.823  30.044  1.00  0.00     0.049 A 
ATOM     64  C   UNL A   1      39.399  31.599  31.688  1.00  0.00     0.074 A 
ATOM     65  C   UNL A   1      45.656  29.895  30.836  1.00  0.00     0.029 A 
ATOM     66  N   UNL A   1      44.028  31.392  30.803  1.00  0.00    -0.354 N 
ATOM     67  N   UNL A   1      40.159  31.174  32.657  1.00  0.00    -0.248 NA
ATOM     68  C   UNL A   1      39.987  32.611  30.826  1.00  0.00     0.031 C 
ATOM     69  C   UNL A   1      44.825  29.734  31.985  1.00  0.00     0.029 A 
ATOM     70  C   UNL A   1      43.752  30.621  31.896  1.00  0.00     0.049 A 
ATOM     71  H   UNL A   1      43.577  32.241  30.590  1.00  0.00     0.167 HD
ATOM     72  C   UNL A   1      41.442  31.506  32.256  1.00  0.00     0.074 A 
ATOM     73  C   UNL A   1      41.262  32.511  31.208  1.00  0.00     0.031 C 
ATOM     74  C   UNL A   1      42.493  30.706  32.603  1.00  0.00     0.037 A 
BRANCH  61  75
ATOM     75  C   UNL A   1      45.056  32.460  28.060  1.00  0.00     0.057 A 
ATOM     76  C   UNL A   1      43.947  33.325  28.036  1.00  0.00     0.134 A 
ATOM     77  C   UNL A   1      46.144  32.860  27.257  1.00  0.00     0.134 A 
ATOM     78  F   UNL A   1      42.838  33.041  28.735  1.00  0.00    -0.206 F 
ATOM     79  C   UNL A   1      43.903  34.466  27.225  1.00  0.00     0.040 A 
ATOM     80  C   UNL A   1      46.129  34.022  26.481  1.00  0.00     0.040 A 
ATOM     81  F   UNL A   1      47.234  32.103  27.089  1.00  0.00    -0.206 F 
ATOM     82  C   UNL A   1      44.995  34.816  26.441  1.00  0.00     0.006 A 
ENDBRANCH  61  75
BRANCH  62  83
ATOM     83  C   UNL A   1      36.884  31.487  31.154  1.00  0.00     0.057 A 
ATOM     84  C   UNL A   1      36.171  31.774  32.333  1.00  0.00     0.134 A 
ATOM     85  C   UNL A   1      36.430  32.132  29.993  1.00  0.00     0.134 A 
ATOM     86  F   UNL A   1      36.551  31.245  33.504  1.00  0.00    -0.206 F 
ATOM     87  C   UNL A   1      35.096  32.677  32.360  1.00  0.00     0.040 A 
ATOM     88  C   UNL A   1      35.361  33.038  30.007  1.00  0.00     0.040 A 
ATOM     89  F   UNL A   1      37.078  31.982  28.829  1.00  0.00    -0.206 F 
ATOM     90  C   UNL A   1      34.699  33.326  31.196  1.00  0.00     0.006 A 
ENDBRANCH  62  83
BRANCH  74  91
ATOM     91  C   UNL A   1      42.269  29.729  33.724  1.00  0.00     0.057 A 
ATOM     92  C   UNL A   1      42.280  30.053  35.090  1.00  0.00     0.134 A 
ATOM     93  C   UNL A   1      41.925  28.416  33.387  1.00  0.00     0.134 A 
ATOM     94  F   UNL A   1      42.521  31.303  35.507  1.00  0.00    -0.206 F 
ATOM     95  C   UNL A   1      41.999  29.096  36.073  1.00  0.00     0.040 A 
ATOM     96  C   UNL A   1      41.609  27.463  34.354  1.00  0.00     0.040 A 
ATOM     97  F   UNL A   1      41.851  28.050  32.097  1.00  0.00    -0.206 F 
ATOM     98  C   UNL A   1      41.656  27.799  35.704  1.00  0.00     0.006 A 
ENDBRANCH  74  91
ENDBRANCH  48  49
ENDBRANCH  41  43
ENDBRANCH  40  41
ENDBRANCH  39  40
ENDBRANCH  38  39
ENDBRANCH   1  38
TORSDOF 18
ENDMDL
MODEL 2
REMARK VINA RESULT:     -12.1      2.954      8.508
REMARK SMILES COc1cc([C@@H]2CC(=O)Nc3c(C(=O)OCCOCCOC(=O)c4ccc(-c5c6nc(c(-c7c(F)cccc7F)c7ccc([nH]7)c(-c7c(F)cccc7F)c7nc(c(-c8c(F)cccc8F)c8ccc5[nH]8)C=C7)C=C6)cc4)cn(-c4ccc(F)cc4)c32)c(OC)c2c1OCO2
REMARK SMILES IDX 18 1 17 2 16 3 15 4 13 5 14 6 12 7 6 8 7 9 87 10 8 11 11 12
REMARK SMILES IDX 79 13 9 14 10 15 78 16 5 18 3 19 4 20 92 21 91 22 93 23
REMARK SMILES IDX 88 24 95 25 94 26 2 27 1 28 89 29 90 30 80 31 81 32 86 33
REMARK SMILES IDX 82 34 85 35 83 36 84 37 19 38 20 39 21 40 22 41 23 42 24 43
REMARK SMILES IDX 25 44 77 45 26 46 76 47 27 48 28 49 29 50 70 51 30 52 75 53
REMARK SMILES IDX 69 54 71 55 31 56 74 57 68 58 67 59 32 61 58 62 41 63 57 64
REMARK SMILES IDX 42 65 45 66 56 67 72 68 43 69 44 70 55 72 73 73 46 74 33 75
REMARK SMILES IDX 34 76 39 77 35 78 36 79 38 80 40 81 37 82 59 83 60 84 65 85
REMARK SMILES IDX 61 86 62 87 64 88 66 89 63 90 47 91 48 92 53 93 49 94 50 95
REMARK SMILES IDX 52 96 54 97 51 98
REMARK H PARENT 10 17 71 60 45 71
REMARK Flexibility Score: inf
ROOT
ATOM      1  O   UNL A   1      32.636  29.945  25.417  1.00  0.00    -0.374 OA
ENDROOT
BRANCH   1   2
ATOM      2  C   UNL A   1      31.333  29.469  25.089  1.00  0.00     0.202 C 
BRANCH   2   3
ATOM      3  C   UNL A   1      31.198  28.383  24.016  1.00  0.00     0.261 C 
BRANCH   3   4
ATOM      4  O   UNL A   1      31.654  27.097  24.463  1.00  0.00    -0.460 OA
BRANCH   4   5
ATOM      5  C   UNL A   1      32.898  26.754  24.011  1.00  0.00     0.341 C 
ATOM      6  O   UNL A   1      33.538  27.382  23.185  1.00  0.00    -0.246 OA
BRANCH   5   7
ATOM      7  C   UNL A   1      33.448  25.610  24.719  1.00  0.00     0.102 A 
ATOM      8  C   UNL A   1      33.308  22.331  26.408  1.00  0.00     0.082 C 
ATOM      9  C   UNL A   1      32.118  22.576  27.354  1.00  0.00     0.115 C 
ATOM     10  C   UNL A   1      33.698  23.629  25.763  1.00  0.00     0.055 A 
ATOM     11  C   UNL A   1      31.102  23.607  26.874  1.00  0.00     0.225 C 
ATOM     12  C   UNL A   1      32.833  24.685  25.587  1.00  0.00     0.078 A 
ATOM     13  N   UNL A   1      34.926  23.997  25.255  1.00  0.00    -0.317 N 
ATOM     14  O   UNL A   1      29.929  23.577  27.252  1.00  0.00    -0.275 OA
ATOM     15  N   UNL A   1      31.558  24.649  26.102  1.00  0.00    -0.324 N 
ATOM     16  C   UNL A   1      34.779  25.219  24.641  1.00  0.00     0.109 A 
ATOM     17  H   UNL A   1      30.948  25.399  25.910  1.00  0.00     0.170 HD
BRANCH   8  18
ATOM     18  C   UNL A   1      33.033  21.208  25.392  1.00  0.00     0.012 A 
ATOM     19  C   UNL A   1      33.255  18.810  24.894  1.00  0.00     0.165 A 
ATOM     20  C   UNL A   1      33.315  19.875  25.796  1.00  0.00     0.059 A 
ATOM     21  C   UNL A   1      32.784  19.068  23.623  1.00  0.00     0.211 A 
ATOM     22  C   UNL A   1      32.449  20.347  23.224  1.00  0.00     0.211 A 
ATOM     23  O   UNL A   1      32.583  18.152  22.634  1.00  0.00    -0.449 OA
ATOM     24  C   UNL A   1      32.579  21.439  24.070  1.00  0.00     0.168 A 
ATOM     25  O   UNL A   1      32.016  20.365  21.929  1.00  0.00    -0.449 OA
ATOM     26  C   UNL A   1      32.006  18.968  21.606  1.00  0.00     0.468 C 
BRANCH  19  27
ATOM     27  O   UNL A   1      33.656  17.588  25.352  1.00  0.00    -0.493 OA
ATOM     28  C   UNL A   1      32.566  16.745  25.727  1.00  0.00     0.278 C 
ENDBRANCH  19  27
BRANCH  24  29
ATOM     29  O   UNL A   1      32.321  22.731  23.736  1.00  0.00    -0.492 OA
ATOM     30  C   UNL A   1      31.086  23.079  23.134  1.00  0.00     0.278 C 
ENDBRANCH  24  29
ENDBRANCH   8  18
BRANCH  13  31
ATOM     31  C   UNL A   1      36.130  23.266  25.301  1.00  0.00     0.046 A 
ATOM     32  C   UNL A   1      36.243  22.091  24.557  1.00  0.00     0.029 A 
ATOM     33  C   UNL A   1      37.183  23.704  26.112  1.00  0.00     0.029 A 
ATOM     34  C   UNL A   1      37.367  21.283  24.704  1.00  0.00     0.041 A 
ATOM     35  C   UNL A   1      38.313  22.892  26.248  1.00  0.00     0.041 A 
ATOM     36  C   UNL A   1      38.384  21.681  25.562  1.00  0.00     0.123 A 
ATOM     37  F   UNL A   1      39.450  20.888  25.728  1.00  0.00    -0.207 F 
ENDBRANCH  13  31
ENDBRANCH   5   7
ENDBRANCH   4   5
ENDBRANCH   3   4
ENDBRANCH   2   3
ENDBRANCH   1   2
BRANCH   1  38
ATOM     38  C   UNL A   1      32.904  30.472  26.709  1.00  0.00     0.202 C 
BRANCH  38  39
ATOM     39  C   UNL A   1      34.345  30.603  27.172  1.00  0.00     0.261 C 
BRANCH  39  40
ATOM     40  O   UNL A   1      34.476  31.321  28.391  1.00  0.00    -0.460 OA
BRANCH  40  41
ATOM     41  C   UNL A   1      35.636  32.013  28.485  1.00  0.00     0.338 C 
ATOM     42  O   UNL A   1      35.906  33.072  27.949  1.00  0.00    -0.246 OA
BRANCH  41  43
ATOM     43  C   UNL A   1      36.622  31.177  29.179  1.00  0.00     0.060 A 
ATOM     44  C   UNL A   1      37.884  31.735  29.371  1.00  0.00     0.016 A 
ATOM     45  C   UNL A   1      36.386  29.804  29.352  1.00  0.00     0.016 A 
ATOM     46  C   UNL A   1      38.956  30.881  29.509  1.00  0.00     0.010 A 
ATOM     47  C   UNL A   1      37.457  28.953  29.493  1.00  0.00     0.010 A 
ATOM     48  C   UNL A   1      38.737  29.493  29.474  1.00  0.00    -0.014 A 
BRANCH  48  49
ATOM     49  C   UNL A   1      39.882  28.615  29.622  1.00  0.00     0.031 A 
ATOM     50  C   UNL A   1      40.278  28.524  31.045  1.00  0.00     0.074 A 
ATOM     51  C   UNL A   1      40.470  27.947  28.608  1.00  0.00     0.049 A 
ATOM     52  N   UNL A   1      41.275  29.130  31.590  1.00  0.00    -0.248 NA
ATOM     53  C   UNL A   1      39.340  27.927  32.010  1.00  0.00     0.031 C 
ATOM     54  C   UNL A   1      40.027  27.816  27.217  1.00  0.00     0.029 A 
ATOM     55  N   UNL A   1      41.601  27.181  28.634  1.00  0.00    -0.354 N 
ATOM     56  C   UNL A   1      41.231  28.789  32.936  1.00  0.00     0.074 A 
ATOM     57  C   UNL A   1      39.930  28.227  33.170  1.00  0.00     0.031 C 
ATOM     58  C   UNL A   1      40.749  26.848  26.597  1.00  0.00     0.029 A 
ATOM     59  C   UNL A   1      41.803  26.402  27.492  1.00  0.00     0.049 A 
ATOM     60  H   UNL A   1      42.224  27.180  29.396  1.00  0.00     0.167 HD
ATOM     61  C   UNL A   1      42.385  28.735  33.653  1.00  0.00     0.037 A 
ATOM     62  C   UNL A   1      42.772  25.463  27.321  1.00  0.00     0.037 A 
ATOM     63  C   UNL A   1      43.451  29.395  32.938  1.00  0.00     0.049 A 
ATOM     64  C   UNL A   1      43.850  25.787  28.281  1.00  0.00     0.074 A 
ATOM     65  C   UNL A   1      43.773  30.693  32.606  1.00  0.00     0.029 A 
ATOM     66  N   UNL A   1      44.130  28.575  32.076  1.00  0.00    -0.354 N 
ATOM     67  N   UNL A   1      44.607  26.841  28.174  1.00  0.00    -0.248 NA
ATOM     68  C   UNL A   1      43.809  25.173  29.597  1.00  0.00     0.031 C 
ATOM     69  C   UNL A   1      44.432  30.614  31.343  1.00  0.00     0.029 A 
ATOM     70  C   UNL A   1      44.561  29.272  30.982  1.00  0.00     0.049 A 
ATOM     71  H   UNL A   1      44.287  27.615  32.223  1.00  0.00     0.167 HD
ATOM     72  C   UNL A   1      44.759  27.287  29.476  1.00  0.00     0.074 A 
ATOM     73  C   UNL A   1      44.377  26.148  30.312  1.00  0.00     0.031 C 
ATOM     74  C   UNL A   1      44.882  28.623  29.730  1.00  0.00     0.037 A 
BRANCH  61  75
ATOM     75  C   UNL A   1      42.681  27.670  34.683  1.00  0.00     0.057 A 
ATOM     76  C   UNL A   1      42.881  26.347  34.250  1.00  0.00     0.134 A 
ATOM     77  C   UNL A   1      42.458  27.819  36.068  1.00  0.00     0.134 A 
ATOM     78  F   UNL A   1      43.076  26.071  32.952  1.00  0.00    -0.206 F 
ATOM     79  C   UNL A   1      42.801  25.252  35.120  1.00  0.00     0.040 A 
ATOM     80  C   UNL A   1      42.424  26.737  36.952  1.00  0.00     0.040 A 
ATOM     81  F   UNL A   1      42.152  28.994  36.628  1.00  0.00    -0.206 F 
ATOM     82  C   UNL A   1      42.568  25.445  36.476  1.00  0.00     0.006 A 
ENDBRANCH  61  75
BRANCH  62  83
ATOM     83  C   UNL A   1      42.747  24.153  26.626  1.00  0.00     0.057 A 
ATOM     84  C   UNL A   1      43.647  23.855  25.585  1.00  0.00     0.134 A 
ATOM     85  C   UNL A   1      42.080  23.055  27.189  1.00  0.00     0.134 A 
ATOM     86  F   UNL A   1      44.369  24.827  25.010  1.00  0.00    -0.206 F 
ATOM     87  C   UNL A   1      43.894  22.540  25.159  1.00  0.00     0.040 A 
ATOM     88  C   UNL A   1      42.320  21.737  26.775  1.00  0.00     0.040 A 
ATOM     89  F   UNL A   1      41.252  23.218  28.231  1.00  0.00    -0.206 F 
ATOM     90  C   UNL A   1      43.241  21.474  25.767  1.00  0.00     0.006 A 
ENDBRANCH  62  83
BRANCH  74  91
ATOM     91  C   UNL A   1      45.241  29.510  28.570  1.00  0.00     0.057 A 
ATOM     92  C   UNL A   1      44.319  30.183  27.753  1.00  0.00     0.134 A 
ATOM     93  C   UNL A   1      46.596  29.767  28.340  1.00  0.00     0.134 A 
ATOM     94  F   UNL A   1      42.999  30.062  27.948  1.00  0.00    -0.206 F 
ATOM     95  C   UNL A   1      44.736  31.043  26.730  1.00  0.00     0.040 A 
ATOM     96  C   UNL A   1      47.024  30.647  27.347  1.00  0.00     0.040 A 
ATOM     97  F   UNL A   1      47.531  29.190  29.114  1.00  0.00    -0.206 F 
ATOM     98  C   UNL A   1      46.093  31.281  26.531  1.00  0.00     0.006 A 
ENDBRANCH  74  91
ENDBRANCH  48  49
ENDBRANCH  41  43
ENDBRANCH  40  41
ENDBRANCH  39  40
ENDBRANCH  38  39
ENDBRANCH   1  38
TORSDOF 18
ENDMDL
MODEL 3
REMARK VINA RESULT:     -11.5      5.434      9.694
REMARK SMILES COc1cc([C@@H]2CC(=O)Nc3c(C(=O)OCCOCCOC(=O)c4ccc(-c5c6nc(c(-c7c(F)cccc7F)c7ccc([nH]7)c(-c7c(F)cccc7F)c7nc(c(-c8c(F)cccc8F)c8ccc5[nH]8)C=C7)C=C6)cc4)cn(-c4ccc(F)cc4)c32)c(OC)c2c1OCO2
REMARK SMILES IDX 18 1 17 2 16 3 15 4 13 5 14 6 12 7 6 8 7 9 87 10 8 11 11 12
REMARK SMILES IDX 79 13 9 14 10 15 78 16 5 18 3 19 4 20 92 21 91 22 93 23
REMARK SMILES IDX 88 24 95 25 94 26 2 27 1 28 89 29 90 30 80 31 81 32 86 33
REMARK SMILES IDX 82 34 85 35 83 36 84 37 19 38 20 39 21 40 22 41 23 42 24 43
REMARK SMILES IDX 25 44 77 45 26 46 76 47 27 48 28 49 29 50 70 51 30 52 75 53
REMARK SMILES IDX 69 54 71 55 31 56 74 57 68 58 67 59 32 61 58 62 41 63 57 64
REMARK SMILES IDX 42 65 45 66 56 67 72 68 43 69 44 70 55 72 73 73 46 74 33 75
REMARK SMILES IDX 34 76 39 77 35 78 36 79 38 80 40 81 37 82 59 83 60 84 65 85
REMARK SMILES IDX 61 86 62 87 64 88 66 89 63 90 47 91 48 92 53 93 49 94 50 95
REMARK SMILES IDX 52 96 54 97 51 98
REMARK H PARENT 10 17 71 60 45 71
REMARK Flexibility Score: inf
ROOT
ATOM      1  O   UNL A   1      41.138  21.013  26.864  1.00  0.00    -0.374 OA
ENDROOT
BRANCH   1   2
ATOM      2  C   UNL A   1      42.244  20.534  26.101  1.00  0.00     0.202 C 
BRANCH   2   3
ATOM      3  C   UNL A   1      43.454  21.452  25.909  1.00  0.00     0.261 C 
BRANCH   3   4
ATOM      4  O   UNL A   1      43.207  22.515  24.976  1.00  0.00    -0.460 OA
BRANCH   4   5
ATOM      5  C   UNL A   1      44.275  22.823  24.180  1.00  0.00     0.341 C 
ATOM      6  O   UNL A   1      44.511  22.312  23.098  1.00  0.00    -0.246 OA
BRANCH   5   7
ATOM      7  C   UNL A   1      45.053  23.934  24.704  1.00  0.00     0.102 A 
ATOM      8  C   UNL A   1      45.623  26.958  26.741  1.00  0.00     0.082 C 
ATOM      9  C   UNL A   1      44.380  27.778  26.344  1.00  0.00     0.115 C 
ATOM     10  C   UNL A   1      45.722  25.754  25.851  1.00  0.00     0.055 A 
ATOM     11  C   UNL A   1      43.169  26.959  25.910  1.00  0.00     0.225 C 
ATOM     12  C   UNL A   1      44.642  25.180  25.220  1.00  0.00     0.078 A 
ATOM     13  N   UNL A   1      46.847  25.034  25.509  1.00  0.00    -0.317 N 
ATOM     14  O   UNL A   1      42.024  27.403  26.012  1.00  0.00    -0.275 OA
ATOM     15  N   UNL A   1      43.395  25.756  25.285  1.00  0.00    -0.324 N 
ATOM     16  C   UNL A   1      46.441  23.936  24.786  1.00  0.00     0.109 A 
ATOM     17  H   UNL A   1      42.635  25.290  24.867  1.00  0.00     0.170 HD
BRANCH   8  18
ATOM     18  C   UNL A   1      45.645  26.609  28.239  1.00  0.00     0.012 A 
ATOM     19  C   UNL A   1      44.735  25.164  30.010  1.00  0.00     0.165 A 
ATOM     20  C   UNL A   1      44.911  25.466  28.658  1.00  0.00     0.059 A 
ATOM     21  C   UNL A   1      45.407  25.938  30.934  1.00  0.00     0.211 A 
ATOM     22  C   UNL A   1      46.172  27.021  30.550  1.00  0.00     0.211 A 
ATOM     23  O   UNL A   1      45.421  25.753  32.285  1.00  0.00    -0.449 OA
ATOM     24  C   UNL A   1      46.297  27.397  29.219  1.00  0.00     0.168 A 
ATOM     25  O   UNL A   1      46.734  27.640  31.629  1.00  0.00    -0.449 OA
ATOM     26  C   UNL A   1      46.340  26.772  32.701  1.00  0.00     0.468 C 
BRANCH  19  27
ATOM     27  O   UNL A   1      43.920  24.111  30.308  1.00  0.00    -0.493 OA
ATOM     28  C   UNL A   1      44.184  22.955  29.511  1.00  0.00     0.278 C 
ENDBRANCH  19  27
BRANCH  24  29
ATOM     29  O   UNL A   1      46.985  28.478  28.767  1.00  0.00    -0.492 OA
ATOM     30  C   UNL A   1      46.500  29.787  29.015  1.00  0.00     0.278 C 
ENDBRANCH  24  29
ENDBRANCH   8  18
BRANCH  13  31
ATOM     31  C   UNL A   1      48.185  25.314  25.850  1.00  0.00     0.046 A 
ATOM     32  C   UNL A   1      48.996  25.981  24.929  1.00  0.00     0.029 A 
ATOM     33  C   UNL A   1      48.695  24.898  27.084  1.00  0.00     0.029 A 
ATOM     34  C   UNL A   1      50.355  26.136  25.190  1.00  0.00     0.041 A 
ATOM     35  C   UNL A   1      50.058  25.065  27.342  1.00  0.00     0.041 A 
ATOM     36  C   UNL A   1      50.878  25.661  26.385  1.00  0.00     0.123 A 
ATOM     37  F   UNL A   1      52.191  25.782  26.621  1.00  0.00    -0.207 F 
ENDBRANCH  13  31
ENDBRANCH   5   7
ENDBRANCH   4   5
ENDBRANCH   3   4
ENDBRANCH   2   3
ENDBRANCH   1   2
BRANCH   1  38
ATOM     38  C   UNL A   1      40.003  21.568  26.215  1.00  0.00     0.202 C 
BRANCH  38  39
ATOM     39  C   UNL A   1      39.410  22.864  26.739  1.00  0.00     0.261 C 
BRANCH  39  40
ATOM     40  O   UNL A   1      40.016  23.307  27.945  1.00  0.00    -0.460 OA
BRANCH  40  41
ATOM     41  C   UNL A   1      40.929  24.288  27.759  1.00  0.00     0.338 C 
ATOM     42  O   UNL A   1      42.015  24.189  27.217  1.00  0.00    -0.246 OA
BRANCH  41  43
ATOM     43  C   UNL A   1      40.498  25.474  28.507  1.00  0.00     0.060 A 
ATOM     44  C   UNL A   1      39.333  26.099  28.063  1.00  0.00     0.016 A 
ATOM     45  C   UNL A   1      41.376  26.099  29.405  1.00  0.00     0.016 A 
ATOM     46  C   UNL A   1      39.171  27.438  28.340  1.00  0.00     0.010 A 
ATOM     47  C   UNL A   1      41.210  27.436  29.684  1.00  0.00     0.010 A 
ATOM     48  C   UNL A   1      40.164  28.114  29.071  1.00  0.00    -0.014 A 
BRANCH  48  49
ATOM     49  C   UNL A   1      39.969  29.524  29.350  1.00  0.00     0.031 A 
ATOM     50  C   UNL A   1      41.227  30.270  29.130  1.00  0.00     0.074 A 
ATOM     51  C   UNL A   1      38.793  30.076  29.715  1.00  0.00     0.049 A 
ATOM     52  N   UNL A   1      42.027  30.688  30.050  1.00  0.00    -0.248 NA
ATOM     53  C   UNL A   1      41.795  30.328  27.772  1.00  0.00     0.031 C 
ATOM     54  C   UNL A   1      37.464  29.459  29.759  1.00  0.00     0.029 A 
ATOM     55  N   UNL A   1      38.535  31.364  30.090  1.00  0.00    -0.354 N 
ATOM     56  C   UNL A   1      43.088  31.286  29.382  1.00  0.00     0.074 A 
ATOM     57  C   UNL A   1      42.995  30.862  28.012  1.00  0.00     0.031 C 
ATOM     58  C   UNL A   1      36.519  30.419  29.920  1.00  0.00     0.029 A 
ATOM     59  C   UNL A   1      37.179  31.694  30.146  1.00  0.00     0.049 A 
ATOM     60  H   UNL A   1      39.249  32.008  30.304  1.00  0.00     0.167 HD
ATOM     61  C   UNL A   1      43.762  32.309  29.971  1.00  0.00     0.037 A 
ATOM     62  C   UNL A   1      36.662  32.934  30.362  1.00  0.00     0.037 A 
ATOM     63  C   UNL A   1      43.453  32.367  31.380  1.00  0.00     0.049 A 
ATOM     64  C   UNL A   1      37.715  33.719  31.041  1.00  0.00     0.074 A 
ATOM     65  C   UNL A   1      43.731  31.604  32.493  1.00  0.00     0.029 A 
ATOM     66  N   UNL A   1      42.352  33.127  31.675  1.00  0.00    -0.354 N 
ATOM     67  N   UNL A   1      38.111  33.481  32.258  1.00  0.00    -0.248 NA
ATOM     68  C   UNL A   1      38.632  34.496  30.222  1.00  0.00     0.031 C 
ATOM     69  C   UNL A   1      42.589  31.730  33.340  1.00  0.00     0.029 A 
ATOM     70  C   UNL A   1      41.689  32.622  32.757  1.00  0.00     0.049 A 
ATOM     71  H   UNL A   1      42.075  33.929  31.175  1.00  0.00     0.167 HD
ATOM     72  C   UNL A   1      39.482  33.662  32.215  1.00  0.00     0.074 A 
ATOM     73  C   UNL A   1      39.723  34.425  30.989  1.00  0.00     0.031 C 
ATOM     74  C   UNL A   1      40.295  32.911  33.014  1.00  0.00     0.037 A 
BRANCH  61  75
ATOM     75  C   UNL A   1      44.240  33.534  29.228  1.00  0.00     0.057 A 
ATOM     76  C   UNL A   1      43.293  34.339  28.568  1.00  0.00     0.134 A 
ATOM     77  C   UNL A   1      45.582  33.770  28.864  1.00  0.00     0.134 A 
ATOM     78  F   UNL A   1      41.981  34.191  28.807  1.00  0.00    -0.206 F 
ATOM     79  C   UNL A   1      43.652  35.260  27.577  1.00  0.00     0.040 A 
ATOM     80  C   UNL A   1      45.955  34.721  27.910  1.00  0.00     0.040 A 
ATOM     81  F   UNL A   1      46.596  33.026  29.321  1.00  0.00    -0.206 F 
ATOM     82  C   UNL A   1      44.987  35.451  27.242  1.00  0.00     0.006 A 
ENDBRANCH  61  75
BRANCH  62  83
ATOM     83  C   UNL A   1      35.467  33.603  29.792  1.00  0.00     0.057 A 
ATOM     84  C   UNL A   1      34.524  34.249  30.614  1.00  0.00     0.134 A 
ATOM     85  C   UNL A   1      35.404  33.917  28.426  1.00  0.00     0.134 A 
ATOM     86  F   UNL A   1      34.528  34.053  31.939  1.00  0.00    -0.206 F 
ATOM     87  C   UNL A   1      33.601  35.180  30.110  1.00  0.00     0.040 A 
ATOM     88  C   UNL A   1      34.490  34.847  27.911  1.00  0.00     0.040 A 
ATOM     89  F   UNL A   1      36.298  33.411  27.565  1.00  0.00    -0.206 F 
ATOM     90  C   UNL A   1      33.594  35.493  28.755  1.00  0.00     0.006 A 
ENDBRANCH  62  83
BRANCH  74  91
ATOM     91  C   UNL A   1      39.652  32.210  34.178  1.00  0.00     0.057 A 
ATOM     92  C   UNL A   1      39.348  32.807  35.412  1.00  0.00     0.134 A 
ATOM     93  C   UNL A   1      39.232  30.888  33.993  1.00  0.00     0.134 A 
ATOM     94  F   UNL A   1      39.640  34.091  35.654  1.00  0.00    -0.206 F 
ATOM     95  C   UNL A   1      38.689  32.101  36.426  1.00  0.00     0.040 A 
ATOM     96  C   UNL A   1      38.545  30.185  34.981  1.00  0.00     0.040 A 
ATOM     97  F   UNL A   1      39.451  30.271  32.821  1.00  0.00    -0.206 F 
ATOM     98  C   UNL A   1      38.281  30.788  36.208  1.00  0.00     0.006 A 
ENDBRANCH  74  91
ENDBRANCH  48  49
ENDBRANCH  41  43
ENDBRANCH  40  41
ENDBRANCH  39  40
ENDBRANCH  38  39
ENDBRANCH   1  38
TORSDOF 18
ENDMDL
