MODEL 1
REMARK VINA RESULT:     -11.0      0.000      0.000
REMARK SMILES O=C(OCCOCCOC(=O)[C@H]1CCCN(C(=O)CCOc2ccc(F)cc2)C1)c1ccc(-c2c3nc(c(-c4c(F)cccc4F)c4ccc([nH]4)c(-c4c(F)cccc4F)c4nc(c(-c5c(F)cccc5F)c5ccc2[nH]5)C=C4)C=C3)cc1
REMARK SMILES IDX 7 1 6 2 5 3 4 4 3 5 2 6 1 7 30 8 31 9 83 10 32 11 82 12
REMARK SMILES IDX 33 13 34 14 35 15 76 16 36 17 81 18 75 19 77 20 37 21 80 22
REMARK SMILES IDX 74 23 73 24 38 26 64 27 47 28 63 29 48 30 51 31 62 32 78 33
REMARK SMILES IDX 49 34 50 35 61 37 79 38 52 39 39 40 40 41 45 42 41 43 42 44
REMARK SMILES IDX 44 45 46 46 43 47 65 48 66 49 71 50 67 51 68 52 70 53 72 54
REMARK SMILES IDX 69 55 53 56 54 57 59 58 55 59 56 60 58 61 60 62 57 63 8 64
REMARK SMILES IDX 9 65 10 66 11 67 12 68 13 69 29 70 14 71 16 72 15 73 17 74
REMARK SMILES IDX 18 75 19 76 20 77 21 78 22 79 23 80 28 81 24 82 27 83 25 84
REMARK SMILES IDX 26 85
REMARK H PARENT 77 25 51 36
REMARK Flexibility Score: inf
ROOT
ATOM      1  C   UNL A   1      33.929  31.162  27.376  1.00  0.00     0.202 C 
ENDROOT
BRANCH   1   2
ATOM      2  O   UNL A   1      34.666  32.359  27.652  1.00  0.00    -0.374 OA
BRANCH   2   3
ATOM      3  C   UNL A   1      34.218  33.157  28.736  1.00  0.00     0.202 C 
BRANCH   3   4
ATOM      4  C   UNL A   1      35.063  34.244  29.380  1.00  0.00     0.261 C 
BRANCH   4   5
ATOM      5  O   UNL A   1      35.524  33.857  30.675  1.00  0.00    -0.460 OA
BRANCH   5   6
ATOM      6  C   UNL A   1      35.670  32.559  31.046  1.00  0.00     0.338 C 
ATOM      7  O   UNL A   1      34.771  31.946  31.602  1.00  0.00    -0.246 OA
BRANCH   6   8
ATOM      8  C   UNL A   1      36.935  31.877  30.710  1.00  0.00     0.060 A 
ATOM      9  C   UNL A   1      37.465  31.963  29.430  1.00  0.00     0.016 A 
ATOM     10  C   UNL A   1      37.629  31.165  31.676  1.00  0.00     0.016 A 
ATOM     11  C   UNL A   1      38.469  31.147  28.998  1.00  0.00     0.010 A 
ATOM     12  C   UNL A   1      38.840  30.574  31.317  1.00  0.00     0.010 A 
ATOM     13  C   UNL A   1      39.247  30.561  29.969  1.00  0.00    -0.014 A 
BRANCH  13  14
ATOM     14  C   UNL A   1      40.501  29.959  29.515  1.00  0.00     0.031 A 
ATOM     15  C   UNL A   1      41.704  30.822  29.500  1.00  0.00     0.074 A 
ATOM     16  C   UNL A   1      40.533  28.645  29.212  1.00  0.00     0.049 A 
ATOM     17  N   UNL A   1      42.857  30.600  28.946  1.00  0.00    -0.248 NA
ATOM     18  C   UNL A   1      41.587  32.121  30.186  1.00  0.00     0.031 C 
ATOM     19  C   UNL A   1      39.415  27.700  29.370  1.00  0.00     0.029 A 
ATOM     20  N   UNL A   1      41.544  27.867  28.727  1.00  0.00    -0.354 N 
ATOM     21  C   UNL A   1      43.579  31.763  29.147  1.00  0.00     0.074 A 
ATOM     22  C   UNL A   1      42.741  32.687  29.873  1.00  0.00     0.031 C 
ATOM     23  C   UNL A   1      39.814  26.474  29.013  1.00  0.00     0.029 A 
ATOM     24  C   UNL A   1      41.162  26.570  28.480  1.00  0.00     0.049 A 
ATOM     25  H   UNL A   1      42.457  28.202  28.570  1.00  0.00     0.167 HD
ATOM     26  C   UNL A   1      44.834  32.015  28.725  1.00  0.00     0.037 A 
ATOM     27  C   UNL A   1      41.809  25.594  27.821  1.00  0.00     0.037 A 
ATOM     28  C   UNL A   1      45.615  31.038  28.021  1.00  0.00     0.049 A 
ATOM     29  C   UNL A   1      43.165  25.928  27.275  1.00  0.00     0.074 A 
ATOM     30  C   UNL A   1      46.890  31.162  27.512  1.00  0.00     0.029 A 
ATOM     31  N   UNL A   1      45.179  29.749  27.726  1.00  0.00    -0.354 N 
ATOM     32  N   UNL A   1      43.834  27.054  27.384  1.00  0.00    -0.248 NA
ATOM     33  C   UNL A   1      43.847  24.889  26.503  1.00  0.00     0.031 C 
ATOM     34  C   UNL A   1      47.195  29.976  26.841  1.00  0.00     0.029 A 
ATOM     35  C   UNL A   1      46.147  29.078  27.007  1.00  0.00     0.049 A 
ATOM     36  H   UNL A   1      44.309  29.372  27.991  1.00  0.00     0.167 HD
ATOM     37  C   UNL A   1      45.029  26.855  26.714  1.00  0.00     0.074 A 
ATOM     38  C   UNL A   1      44.991  25.494  26.208  1.00  0.00     0.031 C 
ATOM     39  C   UNL A   1      46.062  27.714  26.534  1.00  0.00     0.037 A 
BRANCH  26  40
ATOM     40  C   UNL A   1      45.359  33.401  28.927  1.00  0.00     0.057 A 
ATOM     41  C   UNL A   1      45.077  34.394  27.980  1.00  0.00     0.134 A 
ATOM     42  C   UNL A   1      46.101  33.775  30.055  1.00  0.00     0.134 A 
ATOM     43  F   UNL A   1      44.348  34.109  26.890  1.00  0.00    -0.206 F 
ATOM     44  C   UNL A   1      45.526  35.703  28.139  1.00  0.00     0.040 A 
ATOM     45  C   UNL A   1      46.526  35.091  30.243  1.00  0.00     0.040 A 
ATOM     46  F   UNL A   1      46.366  32.883  31.023  1.00  0.00    -0.206 F 
ATOM     47  C   UNL A   1      46.248  36.057  29.277  1.00  0.00     0.006 A 
ENDBRANCH  26  40
BRANCH  27  48
ATOM     48  C   UNL A   1      41.151  24.278  27.617  1.00  0.00     0.057 A 
ATOM     49  C   UNL A   1      41.602  23.122  28.273  1.00  0.00     0.134 A 
ATOM     50  C   UNL A   1      40.107  24.124  26.701  1.00  0.00     0.134 A 
ATOM     51  F   UNL A   1      42.609  23.194  29.158  1.00  0.00    -0.206 F 
ATOM     52  C   UNL A   1      41.065  21.863  28.001  1.00  0.00     0.040 A 
ATOM     53  C   UNL A   1      39.541  22.873  26.439  1.00  0.00     0.040 A 
ATOM     54  F   UNL A   1      39.620  25.190  26.048  1.00  0.00    -0.206 F 
ATOM     55  C   UNL A   1      40.028  21.737  27.080  1.00  0.00     0.006 A 
ENDBRANCH  27  48
BRANCH  39  56
ATOM     56  C   UNL A   1      47.256  27.203  25.788  1.00  0.00     0.057 A 
ATOM     57  C   UNL A   1      48.309  26.597  26.485  1.00  0.00     0.134 A 
ATOM     58  C   UNL A   1      47.424  27.441  24.420  1.00  0.00     0.134 A 
ATOM     59  F   UNL A   1      48.208  26.359  27.801  1.00  0.00    -0.206 F 
ATOM     60  C   UNL A   1      49.510  26.284  25.853  1.00  0.00     0.040 A 
ATOM     61  C   UNL A   1      48.609  27.098  23.769  1.00  0.00     0.040 A 
ATOM     62  F   UNL A   1      46.445  28.009  23.700  1.00  0.00    -0.206 F 
ATOM     63  C   UNL A   1      49.662  26.535  24.491  1.00  0.00     0.006 A 
ENDBRANCH  39  56
ENDBRANCH  13  14
ENDBRANCH   6   8
ENDBRANCH   5   6
ENDBRANCH   4   5
ENDBRANCH   3   4
ENDBRANCH   2   3
ENDBRANCH   1   2
BRANCH   1  64
ATOM     64  C   UNL A   1      34.824  29.964  27.689  1.00  0.00     0.261 C 
BRANCH  64  65
ATOM     65  O   UNL A   1      34.400  28.917  26.796  1.00  0.00    -0.463 OA
BRANCH  65  66
ATOM     66  C   UNL A   1      33.124  28.451  26.792  1.00  0.00     0.310 C 
ATOM     67  O   UNL A   1      32.495  28.200  27.811  1.00  0.00    -0.252 OA
BRANCH  66  68
ATOM     68  C   UNL A   1      32.569  28.259  25.163  1.00  0.00     0.119 C 
ATOM     69  C   UNL A   1      33.364  28.953  23.191  1.00  0.00     0.019 C 
ATOM     70  C   UNL A   1      32.412  26.303  25.277  1.00  0.00     0.134 C 
ATOM     71  C   UNL A   1      33.812  27.428  21.998  1.00  0.00     0.022 C 
ATOM     72  N   UNL A   1      32.246  25.436  23.893  1.00  0.00    -0.342 N 
ATOM     73  C   UNL A   1      33.371  25.668  22.590  1.00  0.00     0.119 C 
BRANCH  72  74
ATOM     74  C   UNL A   1      30.852  25.167  23.725  1.00  0.00     0.226 C 
ATOM     75  O   UNL A   1      30.472  24.095  23.242  1.00  0.00    -0.275 OA
BRANCH  74  76
ATOM     76  C   UNL A   1      29.810  26.071  24.450  1.00  0.00     0.141 C 
BRANCH  76  77
ATOM     77  C   UNL A   1      28.984  27.052  23.501  1.00  0.00     0.239 C 
BRANCH  77  78
ATOM     78  O   UNL A   1      29.541  27.978  22.493  1.00  0.00    -0.493 OA
BRANCH  78  79
ATOM     79  C   UNL A   1      29.177  29.282  22.616  1.00  0.00     0.119 A 
ATOM     80  C   UNL A   1      29.894  30.050  23.881  1.00  0.00     0.049 A 
ATOM     81  C   UNL A   1      28.301  30.260  21.547  1.00  0.00     0.049 A 
ATOM     82  C   UNL A   1      29.719  31.949  24.285  1.00  0.00     0.043 A 
ATOM     83  C   UNL A   1      28.112  31.980  21.755  1.00  0.00     0.043 A 
ATOM     84  C   UNL A   1      28.778  32.872  23.097  1.00  0.00     0.123 A 
ATOM     85  F   UNL A   1      28.745  34.203  23.056  1.00  0.00    -0.207 F 
ENDBRANCH  78  79
ENDBRANCH  77  78
ENDBRANCH  76  77
ENDBRANCH  74  76
ENDBRANCH  72  74
ENDBRANCH  66  68
ENDBRANCH  65  66
ENDBRANCH  64  65
ENDBRANCH   1  64
TORSDOF 19
ENDMDL
MODEL 2
REMARK VINA RESULT:     -10.9      5.141      8.111
REMARK SMILES O=C(OCCOCCOC(=O)[C@H]1CCCN(C(=O)CCOc2ccc(F)cc2)C1)c1ccc(-c2c3nc(c(-c4c(F)cccc4F)c4ccc([nH]4)c(-c4c(F)cccc4F)c4nc(c(-c5c(F)cccc5F)c5ccc2[nH]5)C=C4)C=C3)cc1
REMARK SMILES IDX 7 1 6 2 5 3 4 4 3 5 2 6 1 7 30 8 31 9 83 10 32 11 82 12
REMARK SMILES IDX 33 13 34 14 35 15 76 16 36 17 81 18 75 19 77 20 37 21 80 22
REMARK SMILES IDX 74 23 73 24 38 26 64 27 47 28 63 29 48 30 51 31 62 32 78 33
REMARK SMILES IDX 49 34 50 35 61 37 79 38 52 39 39 40 40 41 45 42 41 43 42 44
REMARK SMILES IDX 44 45 46 46 43 47 65 48 66 49 71 50 67 51 68 52 70 53 72 54
REMARK SMILES IDX 69 55 53 56 54 57 59 58 55 59 56 60 58 61 60 62 57 63 8 64
REMARK SMILES IDX 9 65 10 66 11 67 12 68 13 69 29 70 14 71 16 72 15 73 17 74
REMARK SMILES IDX 18 75 19 76 20 77 21 78 22 79 23 80 28 81 24 82 27 83 25 84
REMARK SMILES IDX 26 85
REMARK H PARENT 77 25 51 36
REMARK Flexibility Score: inf
ROOT
ATOM      1  C   UNL A   1      34.846  33.614  29.199  1.00  0.00     0.202 C 
ENDROOT
BRANCH   1   2
ATOM      2  O   UNL A   1      34.167  34.753  28.655  1.00  0.00    -0.374 OA
BRANCH   2   3
ATOM      3  C   UNL A   1      33.094  35.287  29.412  1.00  0.00     0.202 C 
BRANCH   3   4
ATOM      4  C   UNL A   1      32.917  36.773  29.681  1.00  0.00     0.261 C 
BRANCH   4   5
ATOM      5  O   UNL A   1      32.949  37.064  31.079  1.00  0.00    -0.460 OA
BRANCH   5   6
ATOM      6  C   UNL A   1      32.675  36.135  32.031  1.00  0.00     0.338 C 
ATOM      7  O   UNL A   1      31.558  36.022  32.513  1.00  0.00    -0.246 OA
BRANCH   6   8
ATOM      8  C   UNL A   1      33.755  35.214  32.436  1.00  0.00     0.060 A 
ATOM      9  C   UNL A   1      35.076  35.639  32.452  1.00  0.00     0.016 A 
ATOM     10  C   UNL A   1      33.462  33.920  32.836  1.00  0.00     0.016 A 
ATOM     11  C   UNL A   1      36.122  34.769  32.554  1.00  0.00     0.010 A 
ATOM     12  C   UNL A   1      34.514  33.103  33.248  1.00  0.00     0.010 A 
ATOM     13  C   UNL A   1      35.846  33.534  33.092  1.00  0.00    -0.014 A 
BRANCH  13  14
ATOM     14  C   UNL A   1      37.001  32.734  33.498  1.00  0.00     0.031 A 
ATOM     15  C   UNL A   1      37.559  32.980  34.848  1.00  0.00     0.074 A 
ATOM     16  C   UNL A   1      37.457  31.766  32.678  1.00  0.00     0.049 A 
ATOM     17  N   UNL A   1      38.685  32.573  35.349  1.00  0.00    -0.248 NA
ATOM     18  C   UNL A   1      36.745  33.812  35.751  1.00  0.00     0.031 C 
ATOM     19  C   UNL A   1      36.842  31.361  31.403  1.00  0.00     0.029 A 
ATOM     20  N   UNL A   1      38.529  30.928  32.797  1.00  0.00    -0.354 N 
ATOM     21  C   UNL A   1      38.755  33.164  36.598  1.00  0.00     0.074 A 
ATOM     22  C   UNL A   1      37.561  33.954  36.782  1.00  0.00     0.031 C 
ATOM     23  C   UNL A   1      37.533  30.342  30.878  1.00  0.00     0.029 A 
ATOM     24  C   UNL A   1      38.705  30.113  31.705  1.00  0.00     0.049 A 
ATOM     25  H   UNL A   1      39.117  30.910  33.587  1.00  0.00     0.167 HD
ATOM     26  C   UNL A   1      39.762  33.053  37.487  1.00  0.00     0.037 A 
ATOM     27  C   UNL A   1      39.745  29.327  31.378  1.00  0.00     0.037 A 
ATOM     28  C   UNL A   1      40.914  32.232  37.239  1.00  0.00     0.049 A 
ATOM     29  C   UNL A   1      40.898  29.295  32.336  1.00  0.00     0.074 A 
ATOM     30  C   UNL A   1      42.022  32.044  38.037  1.00  0.00     0.029 A 
ATOM     31  N   UNL A   1      41.098  31.463  36.093  1.00  0.00    -0.354 N 
ATOM     32  N   UNL A   1      41.018  29.914  33.489  1.00  0.00    -0.248 NA
ATOM     33  C   UNL A   1      42.059  28.490  31.955  1.00  0.00     0.031 C 
ATOM     34  C   UNL A   1      42.912  31.225  37.339  1.00  0.00     0.029 A 
ATOM     35  C   UNL A   1      42.322  30.828  36.145  1.00  0.00     0.049 A 
ATOM     36  H   UNL A   1      40.452  31.386  35.355  1.00  0.00     0.167 HD
ATOM     37  C   UNL A   1      42.261  29.557  33.987  1.00  0.00     0.074 A 
ATOM     38  C   UNL A   1      42.850  28.661  33.008  1.00  0.00     0.031 C 
ATOM     39  C   UNL A   1      42.858  29.934  35.143  1.00  0.00     0.037 A 
BRANCH  26  40
ATOM     40  C   UNL A   1      39.689  33.905  38.714  1.00  0.00     0.057 A 
ATOM     41  C   UNL A   1      40.256  35.185  38.704  1.00  0.00     0.134 A 
ATOM     42  C   UNL A   1      39.037  33.495  39.884  1.00  0.00     0.134 A 
ATOM     43  F   UNL A   1      40.872  35.650  37.606  1.00  0.00    -0.206 F 
ATOM     44  C   UNL A   1      40.192  36.021  39.817  1.00  0.00     0.040 A 
ATOM     45  C   UNL A   1      38.935  34.337  40.993  1.00  0.00     0.040 A 
ATOM     46  F   UNL A   1      38.432  32.298  39.944  1.00  0.00    -0.206 F 
ATOM     47  C   UNL A   1      39.523  35.600  40.964  1.00  0.00     0.006 A 
ENDBRANCH  26  40
BRANCH  27  48
ATOM     48  C   UNL A   1      39.736  28.586  30.091  1.00  0.00     0.057 A 
ATOM     49  C   UNL A   1      39.179  27.302  29.987  1.00  0.00     0.134 A 
ATOM     50  C   UNL A   1      40.355  29.106  28.951  1.00  0.00     0.134 A 
ATOM     51  F   UNL A   1      38.578  26.735  31.045  1.00  0.00    -0.206 F 
ATOM     52  C   UNL A   1      39.267  26.552  28.813  1.00  0.00     0.040 A 
ATOM     53  C   UNL A   1      40.426  28.378  27.760  1.00  0.00     0.040 A 
ATOM     54  F   UNL A   1      40.896  30.332  28.978  1.00  0.00    -0.206 F 
ATOM     55  C   UNL A   1      39.893  27.092  27.692  1.00  0.00     0.006 A 
ENDBRANCH  27  48
BRANCH  39  56
ATOM     56  C   UNL A   1      44.207  29.353  35.438  1.00  0.00     0.057 A 
ATOM     57  C   UNL A   1      44.308  28.093  36.041  1.00  0.00     0.134 A 
ATOM     58  C   UNL A   1      45.380  30.093  35.262  1.00  0.00     0.134 A 
ATOM     59  F   UNL A   1      43.213  27.346  36.249  1.00  0.00    -0.206 F 
ATOM     60  C   UNL A   1      45.529  27.606  36.500  1.00  0.00     0.040 A 
ATOM     61  C   UNL A   1      46.614  29.599  35.685  1.00  0.00     0.040 A 
ATOM     62  F   UNL A   1      45.345  31.301  34.681  1.00  0.00    -0.206 F 
ATOM     63  C   UNL A   1      46.687  28.360  36.323  1.00  0.00     0.006 A 
ENDBRANCH  39  56
ENDBRANCH  13  14
ENDBRANCH   6   8
ENDBRANCH   5   6
ENDBRANCH   4   5
ENDBRANCH   3   4
ENDBRANCH   2   3
ENDBRANCH   1   2
BRANCH   1  64
ATOM     64  C   UNL A   1      35.520  32.864  28.052  1.00  0.00     0.261 C 
BRANCH  64  65
ATOM     65  O   UNL A   1      34.556  31.894  27.601  1.00  0.00    -0.463 OA
BRANCH  65  66
ATOM     66  C   UNL A   1      34.842  30.567  27.552  1.00  0.00     0.310 C 
ATOM     67  O   UNL A   1      35.937  30.102  27.838  1.00  0.00    -0.252 OA
BRANCH  66  68
ATOM     68  C   UNL A   1      33.454  29.682  27.014  1.00  0.00     0.119 C 
ATOM     69  C   UNL A   1      31.379  30.298  26.451  1.00  0.00     0.019 C 
ATOM     70  C   UNL A   1      34.402  28.771  25.553  1.00  0.00     0.134 C 
ATOM     71  C   UNL A   1      30.964  29.852  24.559  1.00  0.00     0.022 C 
ATOM     72  N   UNL A   1      33.529  28.007  24.392  1.00  0.00    -0.342 N 
ATOM     73  C   UNL A   1      32.258  28.858  23.569  1.00  0.00     0.119 C 
BRANCH  72  74
ATOM     74  C   UNL A   1      33.489  26.619  24.735  1.00  0.00     0.226 C 
ATOM     75  O   UNL A   1      33.988  25.772  23.987  1.00  0.00    -0.275 OA
BRANCH  74  76
ATOM     76  C   UNL A   1      33.119  26.206  26.191  1.00  0.00     0.141 C 
BRANCH  76  77
ATOM     77  C   UNL A   1      31.611  25.729  26.401  1.00  0.00     0.239 C 
BRANCH  77  78
ATOM     78  O   UNL A   1      31.166  24.438  26.966  1.00  0.00    -0.493 OA
BRANCH  78  79
ATOM     79  C   UNL A   1      31.943  23.361  26.676  1.00  0.00     0.119 A 
ATOM     80  C   UNL A   1      31.749  22.802  25.141  1.00  0.00     0.049 A 
ATOM     81  C   UNL A   1      33.214  22.681  27.564  1.00  0.00     0.049 A 
ATOM     82  C   UNL A   1      32.789  21.367  24.330  1.00  0.00     0.043 A 
ATOM     83  C   UNL A   1      34.258  21.432  26.941  1.00  0.00     0.043 A 
ATOM     84  C   UNL A   1      34.090  20.730  25.355  1.00  0.00     0.123 A 
ATOM     85  F   UNL A   1      35.056  19.930  24.906  1.00  0.00    -0.207 F 
ENDBRANCH  78  79
ENDBRANCH  77  78
ENDBRANCH  76  77
ENDBRANCH  74  76
ENDBRANCH  72  74
ENDBRANCH  66  68
ENDBRANCH  65  66
ENDBRANCH  64  65
ENDBRANCH   1  64
TORSDOF 19
ENDMDL
MODEL 3
REMARK VINA RESULT:     -10.8      4.960      9.533
REMARK SMILES O=C(OCCOCCOC(=O)[C@H]1CCCN(C(=O)CCOc2ccc(F)cc2)C1)c1ccc(-c2c3nc(c(-c4c(F)cccc4F)c4ccc([nH]4)c(-c4c(F)cccc4F)c4nc(c(-c5c(F)cccc5F)c5ccc2[nH]5)C=C4)C=C3)cc1
REMARK SMILES IDX 7 1 6 2 5 3 4 4 3 5 2 6 1 7 30 8 31 9 83 10 32 11 82 12
REMARK SMILES IDX 33 13 34 14 35 15 76 16 36 17 81 18 75 19 77 20 37 21 80 22
REMARK SMILES IDX 74 23 73 24 38 26 64 27 47 28 63 29 48 30 51 31 62 32 78 33
REMARK SMILES IDX 49 34 50 35 61 37 79 38 52 39 39 40 40 41 45 42 41 43 42 44
REMARK SMILES IDX 44 45 46 46 43 47 65 48 66 49 71 50 67 51 68 52 70 53 72 54
REMARK SMILES IDX 69 55 53 56 54 57 59 58 55 59 56 60 58 61 60 62 57 63 8 64
REMARK SMILES IDX 9 65 10 66 11 67 12 68 13 69 29 70 14 71 16 72 15 73 17 74
REMARK SMILES IDX 18 75 19 76 20 77 21 78 22 79 23 80 28 81 24 82 27 83 25 84
REMARK SMILES IDX 26 85
REMARK H PARENT 77 25 51 36
REMARK Flexibility Score: inf
ROOT
ATOM      1  C   UNL A   1      36.200  20.357  25.255  1.00  0.00     0.202 C 
ENDROOT
BRANCH   1   2
ATOM      2  O   UNL A   1      36.260  21.427  24.305  1.00  0.00    -0.374 OA
BRANCH   2   3
ATOM      3  C   UNL A   1      36.964  22.595  24.691  1.00  0.00     0.202 C 
BRANCH   3   4
ATOM      4  C   UNL A   1      38.059  22.603  25.746  1.00  0.00     0.261 C 
BRANCH   4   5
ATOM      5  O   UNL A   1      38.462  23.932  26.078  1.00  0.00    -0.460 OA
BRANCH   5   6
ATOM      6  C   UNL A   1      39.652  24.213  26.670  1.00  0.00     0.338 C 
ATOM      7  O   UNL A   1      40.635  23.508  26.499  1.00  0.00    -0.246 OA
BRANCH   6   8
ATOM      8  C   UNL A   1      39.748  25.435  27.492  1.00  0.00     0.060 A 
ATOM      9  C   UNL A   1      39.288  25.444  28.801  1.00  0.00     0.016 A 
ATOM     10  C   UNL A   1      40.329  26.584  26.979  1.00  0.00     0.016 A 
ATOM     11  C   UNL A   1      39.107  26.598  29.505  1.00  0.00     0.010 A 
ATOM     12  C   UNL A   1      40.433  27.699  27.810  1.00  0.00     0.010 A 
ATOM     13  C   UNL A   1      39.807  27.700  29.071  1.00  0.00    -0.014 A 
BRANCH  13  14
ATOM     14  C   UNL A   1      39.869  28.831  29.997  1.00  0.00     0.031 A 
ATOM     15  C   UNL A   1      40.963  28.834  30.996  1.00  0.00     0.074 A 
ATOM     16  C   UNL A   1      38.996  29.849  29.858  1.00  0.00     0.049 A 
ATOM     17  N   UNL A   1      41.105  29.586  32.044  1.00  0.00    -0.248 NA
ATOM     18  C   UNL A   1      42.033  27.841  30.797  1.00  0.00     0.031 C 
ATOM     19  C   UNL A   1      37.999  29.984  28.783  1.00  0.00     0.029 A 
ATOM     20  N   UNL A   1      38.814  30.975  30.607  1.00  0.00    -0.354 N 
ATOM     21  C   UNL A   1      42.238  29.108  32.677  1.00  0.00     0.074 A 
ATOM     22  C   UNL A   1      42.749  28.005  31.897  1.00  0.00     0.031 C 
ATOM     23  C   UNL A   1      37.335  31.136  28.934  1.00  0.00     0.029 A 
ATOM     24  C   UNL A   1      37.763  31.750  30.178  1.00  0.00     0.049 A 
ATOM     25  H   UNL A   1      39.380  31.210  31.379  1.00  0.00     0.167 HD
ATOM     26  C   UNL A   1      42.771  29.562  33.828  1.00  0.00     0.037 A 
ATOM     27  C   UNL A   1      37.166  32.795  30.775  1.00  0.00     0.037 A 
ATOM     28  C   UNL A   1      42.216  30.679  34.539  1.00  0.00     0.049 A 
ATOM     29  C   UNL A   1      37.715  33.222  32.103  1.00  0.00     0.074 A 
ATOM     30  C   UNL A   1      42.635  31.232  35.730  1.00  0.00     0.029 A 
ATOM     31  N   UNL A   1      41.109  31.408  34.115  1.00  0.00    -0.354 N 
ATOM     32  N   UNL A   1      38.740  32.727  32.759  1.00  0.00    -0.248 NA
ATOM     33  C   UNL A   1      37.029  34.320  32.786  1.00  0.00     0.031 C 
ATOM     34  C   UNL A   1      41.735  32.246  36.065  1.00  0.00     0.029 A 
ATOM     35  C   UNL A   1      40.806  32.385  35.041  1.00  0.00     0.049 A 
ATOM     36  H   UNL A   1      40.615  31.250  33.277  1.00  0.00     0.167 HD
ATOM     37  C   UNL A   1      38.841  33.467  33.926  1.00  0.00     0.074 A 
ATOM     38  C   UNL A   1      37.772  34.449  33.879  1.00  0.00     0.031 C 
ATOM     39  C   UNL A   1      39.732  33.347  34.940  1.00  0.00     0.037 A 
BRANCH  26  40
ATOM     40  C   UNL A   1      43.917  28.791  34.403  1.00  0.00     0.057 A 
ATOM     41  C   UNL A   1      45.229  29.149  34.072  1.00  0.00     0.134 A 
ATOM     42  C   UNL A   1      43.743  27.731  35.302  1.00  0.00     0.134 A 
ATOM     43  F   UNL A   1      45.467  30.172  33.237  1.00  0.00    -0.206 F 
ATOM     44  C   UNL A   1      46.327  28.473  34.601  1.00  0.00     0.040 A 
ATOM     45  C   UNL A   1      44.834  27.069  35.867  1.00  0.00     0.040 A 
ATOM     46  F   UNL A   1      42.512  27.368  35.697  1.00  0.00    -0.206 F 
ATOM     47  C   UNL A   1      46.131  27.433  35.507  1.00  0.00     0.006 A 
ENDBRANCH  26  40
BRANCH  27  48
ATOM     48  C   UNL A   1      35.984  33.433  30.140  1.00  0.00     0.057 A 
ATOM     49  C   UNL A   1      36.108  34.223  28.986  1.00  0.00     0.134 A 
ATOM     50  C   UNL A   1      34.713  33.338  30.714  1.00  0.00     0.134 A 
ATOM     51  F   UNL A   1      37.300  34.368  28.388  1.00  0.00    -0.206 F 
ATOM     52  C   UNL A   1      35.023  34.919  28.449  1.00  0.00     0.040 A 
ATOM     53  C   UNL A   1      33.613  34.007  30.171  1.00  0.00     0.040 A 
ATOM     54  F   UNL A   1      34.523  32.590  31.810  1.00  0.00    -0.206 F 
ATOM     55  C   UNL A   1      33.768  34.810  29.043  1.00  0.00     0.006 A 
ENDBRANCH  27  48
BRANCH  39  56
ATOM     56  C   UNL A   1      39.617  34.323  36.071  1.00  0.00     0.057 A 
ATOM     57  C   UNL A   1      40.320  35.533  36.023  1.00  0.00     0.134 A 
ATOM     58  C   UNL A   1      38.940  34.002  37.252  1.00  0.00     0.134 A 
ATOM     59  F   UNL A   1      41.000  35.885  34.922  1.00  0.00    -0.206 F 
ATOM     60  C   UNL A   1      40.389  36.375  37.131  1.00  0.00     0.040 A 
ATOM     61  C   UNL A   1      38.972  34.854  38.355  1.00  0.00     0.040 A 
ATOM     62  F   UNL A   1      38.243  32.861  37.350  1.00  0.00    -0.206 F 
ATOM     63  C   UNL A   1      39.714  36.035  38.301  1.00  0.00     0.006 A 
ENDBRANCH  39  56
ENDBRANCH  13  14
ENDBRANCH   6   8
ENDBRANCH   5   6
ENDBRANCH   4   5
ENDBRANCH   3   4
ENDBRANCH   2   3
ENDBRANCH   1   2
BRANCH   1  64
ATOM     64  C   UNL A   1      34.950  19.527  24.967  1.00  0.00     0.261 C 
BRANCH  64  65
ATOM     65  O   UNL A   1      34.035  20.420  24.305  1.00  0.00    -0.463 OA
BRANCH  65  66
ATOM     66  C   UNL A   1      32.775  20.629  24.769  1.00  0.00     0.310 C 
ATOM     67  O   UNL A   1      31.933  19.746  24.858  1.00  0.00    -0.252 OA
BRANCH  66  68
ATOM     68  C   UNL A   1      32.564  22.299  25.175  1.00  0.00     0.119 C 
ATOM     69  C   UNL A   1      33.726  23.712  26.463  1.00  0.00     0.019 C 
ATOM     70  C   UNL A   1      32.430  22.902  23.310  1.00  0.00     0.134 C 
ATOM     71  C   UNL A   1      34.438  25.246  25.419  1.00  0.00     0.022 C 
ATOM     72  N   UNL A   1      32.565  24.504  22.978  1.00  0.00    -0.342 N 
ATOM     73  C   UNL A   1      33.924  25.398  23.587  1.00  0.00     0.119 C 
BRANCH  72  74
ATOM     74  C   UNL A   1      31.239  25.025  22.854  1.00  0.00     0.226 C 
ATOM     75  O   UNL A   1      30.267  24.368  23.241  1.00  0.00    -0.275 OA
BRANCH  74  76
ATOM     76  C   UNL A   1      31.043  26.539  22.542  1.00  0.00     0.141 C 
BRANCH  76  77
ATOM     77  C   UNL A   1      30.557  27.429  23.773  1.00  0.00     0.239 C 
BRANCH  77  78
ATOM     78  O   UNL A   1      30.625  28.902  23.876  1.00  0.00    -0.493 OA
BRANCH  78  79
ATOM     79  C   UNL A   1      31.551  29.397  24.739  1.00  0.00     0.119 A 
ATOM     80  C   UNL A   1      31.067  30.764  25.514  1.00  0.00     0.049 A 
ATOM     81  C   UNL A   1      32.991  28.696  25.289  1.00  0.00     0.049 A 
ATOM     82  C   UNL A   1      32.070  31.673  26.917  1.00  0.00     0.043 A 
ATOM     83  C   UNL A   1      33.957  29.371  26.574  1.00  0.00     0.043 A 
ATOM     84  C   UNL A   1      33.562  30.849  27.409  1.00  0.00     0.123 A 
ATOM     85  F   UNL A   1      34.254  31.169  28.502  1.00  0.00    -0.207 F 
ENDBRANCH  78  79
ENDBRANCH  77  78
ENDBRANCH  76  77
ENDBRANCH  74  76
ENDBRANCH  72  74
ENDBRANCH  66  68
ENDBRANCH  65  66
ENDBRANCH  64  65
ENDBRANCH   1  64
TORSDOF 19
ENDMDL
