MODEL 1
REMARK VINA RESULT:     -12.0      0.000      0.000
REMARK SMILES Nc1nccc(N2CCC[C@@](Cc3ccc(F)cc3F)(C(=O)OCCOCCOC(=O)c3ccc(-c4c5nc(c(-c6c(F)cccc6F)c6ccc([nH]6)c(-c6c(F)cccc6F)c6nc(c(-c7c(F)cccc7F)c7ccc4[nH]7)C=C6)C=C5)cc3)C2)n1
REMARK SMILES IDX 26 1 25 2 24 3 23 4 21 5 22 6 11 7 7 8 8 9 86 10 9 11 10 12
REMARK SMILES IDX 6 13 2 14 3 15 87 16 4 17 5 18 1 19 12 22 13 23 14 24 19 25
REMARK SMILES IDX 15 26 18 27 20 28 16 29 17 30 27 31 28 32 29 33 30 34 31 35
REMARK SMILES IDX 32 36 33 37 85 38 34 39 84 40 35 41 36 42 37 43 78 44 38 45
REMARK SMILES IDX 83 46 77 47 79 48 39 49 82 50 76 51 75 52 40 54 66 55 49 56
REMARK SMILES IDX 65 57 50 58 53 59 64 60 80 61 51 62 52 63 63 65 81 66 54 67
REMARK SMILES IDX 41 68 42 69 47 70 43 71 44 72 46 73 48 74 45 75 67 76 68 77
REMARK SMILES IDX 73 78 69 79 70 80 72 81 74 82 71 83 55 84 56 85 61 86 57 87
REMARK SMILES IDX 58 88 60 89 62 90 59 91
REMARK H PARENT 1 20 1 21 79 53 53 64
REMARK Flexibility Score: inf
ROOT
ATOM      1  O   UNL A   1      33.826  32.770  29.328  1.00  0.00    -0.374 OA
ENDROOT
BRANCH   1   2
ATOM      2  C   UNL A   1      34.304  32.481  28.020  1.00  0.00     0.202 C 
BRANCH   2   3
ATOM      3  C   UNL A   1      34.551  31.011  27.661  1.00  0.00     0.261 C 
BRANCH   3   4
ATOM      4  O   UNL A   1      33.735  30.520  26.585  1.00  0.00    -0.463 OA
BRANCH   4   5
ATOM      5  C   UNL A   1      33.440  29.192  26.652  1.00  0.00     0.314 C 
ATOM      6  O   UNL A   1      33.712  28.480  27.613  1.00  0.00    -0.252 OA
BRANCH   5   7
ATOM      7  C   UNL A   1      32.808  28.635  25.378  1.00  0.00     0.090 C 
ATOM      8  N   UNL A   1      31.020  29.237  23.817  1.00  0.00    -0.355 N 
ATOM      9  C   UNL A   1      31.828  29.223  22.606  1.00  0.00     0.118 C 
ATOM     10  C   UNL A   1      31.696  29.658  25.040  1.00  0.00     0.137 C 
ATOM     11  C   UNL A   1      33.014  28.280  22.828  1.00  0.00     0.023 C 
ATOM     12  C   UNL A   1      33.753  28.551  24.150  1.00  0.00     0.023 C 
BRANCH   8  13
ATOM     13  C   UNL A   1      29.707  29.683  23.703  1.00  0.00     0.134 A 
ATOM     14  C   UNL A   1      27.521  29.319  23.129  1.00  0.00     0.221 A 
ATOM     15  N   UNL A   1      27.203  30.615  23.184  1.00  0.00    -0.222 NA
ATOM     16  N   UNL A   1      28.738  28.817  23.363  1.00  0.00    -0.196 NA
ATOM     17  C   UNL A   1      28.195  31.454  23.526  1.00  0.00     0.119 A 
ATOM     18  C   UNL A   1      29.468  31.037  23.815  1.00  0.00     0.067 A 
BRANCH  14  19
ATOM     19  N   UNL A   1      26.532  28.447  22.781  1.00  0.00    -0.368 N 
ATOM     20  H   UNL A   1      25.597  28.640  23.024  1.00  0.00     0.159 HD
ATOM     21  H   UNL A   1      26.751  27.626  22.285  1.00  0.00     0.159 HD
ENDBRANCH  14  19
ENDBRANCH   8  13
BRANCH   7  22
ATOM     22  C   UNL A   1      32.155  27.269  25.743  1.00  0.00     0.059 C 
BRANCH  22  23
ATOM     23  C   UNL A   1      32.857  26.044  25.196  1.00  0.00    -0.011 A 
ATOM     24  C   UNL A   1      34.134  25.682  25.650  1.00  0.00     0.010 A 
ATOM     25  C   UNL A   1      32.248  25.251  24.214  1.00  0.00     0.129 A 
ATOM     26  C   UNL A   1      34.795  24.588  25.090  1.00  0.00     0.040 A 
ATOM     27  C   UNL A   1      32.896  24.154  23.660  1.00  0.00     0.078 A 
ATOM     28  F   UNL A   1      31.012  25.543  23.786  1.00  0.00    -0.207 F 
ATOM     29  C   UNL A   1      34.173  23.840  24.098  1.00  0.00     0.126 A 
ATOM     30  F   UNL A   1      34.817  22.794  23.563  1.00  0.00    -0.207 F 
ENDBRANCH  22  23
ENDBRANCH   7  22
ENDBRANCH   5   7
ENDBRANCH   4   5
ENDBRANCH   3   4
ENDBRANCH   2   3
ENDBRANCH   1   2
BRANCH   1  31
ATOM     31  C   UNL A   1      34.311  33.948  29.971  1.00  0.00     0.202 C 
BRANCH  31  32
ATOM     32  C   UNL A   1      34.673  33.850  31.459  1.00  0.00     0.261 C 
BRANCH  32  33
ATOM     33  O   UNL A   1      34.708  32.488  31.939  1.00  0.00    -0.460 OA
BRANCH  33  34
ATOM     34  C   UNL A   1      35.776  32.197  32.722  1.00  0.00     0.338 C 
ATOM     35  O   UNL A   1      35.922  32.465  33.905  1.00  0.00    -0.246 OA
BRANCH  34  36
ATOM     36  C   UNL A   1      36.743  31.351  32.003  1.00  0.00     0.060 A 
ATOM     37  C   UNL A   1      37.802  30.799  32.734  1.00  0.00     0.016 A 
ATOM     38  C   UNL A   1      36.709  31.245  30.611  1.00  0.00     0.016 A 
ATOM     39  C   UNL A   1      38.861  30.181  32.070  1.00  0.00     0.010 A 
ATOM     40  C   UNL A   1      37.778  30.632  29.946  1.00  0.00     0.010 A 
ATOM     41  C   UNL A   1      38.876  30.132  30.669  1.00  0.00    -0.014 A 
BRANCH  41  42
ATOM     42  C   UNL A   1      40.102  29.680  29.967  1.00  0.00     0.031 A 
ATOM     43  C   UNL A   1      41.250  30.636  29.792  1.00  0.00     0.074 A 
ATOM     44  C   UNL A   1      40.209  28.416  29.522  1.00  0.00     0.049 A 
ATOM     45  N   UNL A   1      42.404  30.447  29.204  1.00  0.00    -0.248 NA
ATOM     46  C   UNL A   1      41.074  31.984  30.355  1.00  0.00     0.031 C 
ATOM     47  C   UNL A   1      39.185  27.384  29.663  1.00  0.00     0.029 A 
ATOM     48  N   UNL A   1      41.235  27.790  28.861  1.00  0.00    -0.354 N 
ATOM     49  C   UNL A   1      43.091  31.648  29.326  1.00  0.00     0.074 A 
ATOM     50  C   UNL A   1      42.216  32.568  30.020  1.00  0.00     0.031 C 
ATOM     51  C   UNL A   1      39.633  26.250  29.101  1.00  0.00     0.029 A 
ATOM     52  C   UNL A   1      40.962  26.484  28.539  1.00  0.00     0.049 A 
ATOM     53  H   UNL A   1      42.085  28.234  28.639  1.00  0.00     0.167 HD
ATOM     54  C   UNL A   1      44.341  31.953  28.906  1.00  0.00     0.037 A 
ATOM     55  C   UNL A   1      41.694  25.585  27.853  1.00  0.00     0.037 A 
ATOM     56  C   UNL A   1      45.216  31.042  28.215  1.00  0.00     0.049 A 
ATOM     57  C   UNL A   1      43.050  25.969  27.329  1.00  0.00     0.074 A 
ATOM     58  C   UNL A   1      46.510  31.256  27.774  1.00  0.00     0.029 A 
ATOM     59  N   UNL A   1      44.880  29.745  27.858  1.00  0.00    -0.354 N 
ATOM     60  N   UNL A   1      43.697  27.101  27.464  1.00  0.00    -0.248 NA
ATOM     61  C   UNL A   1      43.776  24.953  26.551  1.00  0.00     0.031 C 
ATOM     62  C   UNL A   1      46.942  30.103  27.112  1.00  0.00     0.029 A 
ATOM     63  C   UNL A   1      45.932  29.156  27.175  1.00  0.00     0.049 A 
ATOM     64  H   UNL A   1      44.021  29.308  28.059  1.00  0.00     0.167 HD
ATOM     65  C   UNL A   1      44.906  26.932  26.801  1.00  0.00     0.074 A 
ATOM     66  C   UNL A   1      44.910  25.583  26.273  1.00  0.00     0.031 C 
ATOM     67  C   UNL A   1      45.920  27.817  26.645  1.00  0.00     0.037 A 
BRANCH  54  68
ATOM     68  C   UNL A   1      44.836  33.344  29.166  1.00  0.00     0.057 A 
ATOM     69  C   UNL A   1      45.460  33.666  30.377  1.00  0.00     0.134 A 
ATOM     70  C   UNL A   1      44.662  34.374  28.233  1.00  0.00     0.134 A 
ATOM     71  F   UNL A   1      45.652  32.726  31.315  1.00  0.00    -0.206 F 
ATOM     72  C   UNL A   1      45.891  34.964  30.653  1.00  0.00     0.040 A 
ATOM     73  C   UNL A   1      45.107  35.672  28.488  1.00  0.00     0.040 A 
ATOM     74  F   UNL A   1      44.081  34.127  27.048  1.00  0.00    -0.206 F 
ATOM     75  C   UNL A   1      45.718  35.971  29.705  1.00  0.00     0.006 A 
ENDBRANCH  54  68
BRANCH  55  76
ATOM     76  C   UNL A   1      41.146  24.228  27.619  1.00  0.00     0.057 A 
ATOM     77  C   UNL A   1      41.624  23.119  28.328  1.00  0.00     0.134 A 
ATOM     78  C   UNL A   1      40.153  24.006  26.660  1.00  0.00     0.134 A 
ATOM     79  F   UNL A   1      42.574  23.272  29.262  1.00  0.00    -0.206 F 
ATOM     80  C   UNL A   1      41.149  21.832  28.075  1.00  0.00     0.040 A 
ATOM     81  C   UNL A   1      39.654  22.726  26.409  1.00  0.00     0.040 A 
ATOM     82  F   UNL A   1      39.641  25.034  25.966  1.00  0.00    -0.206 F 
ATOM     83  C   UNL A   1      40.160  21.634  27.112  1.00  0.00     0.006 A 
ENDBRANCH  55  76
BRANCH  67  84
ATOM     84  C   UNL A   1      47.124  27.363  25.876  1.00  0.00     0.057 A 
ATOM     85  C   UNL A   1      47.206  27.557  24.491  1.00  0.00     0.134 A 
ATOM     86  C   UNL A   1      48.170  26.670  26.496  1.00  0.00     0.134 A 
ATOM     87  F   UNL A   1      46.231  28.206  23.836  1.00  0.00    -0.206 F 
ATOM     88  C   UNL A   1      48.281  27.067  23.748  1.00  0.00     0.040 A 
ATOM     89  C   UNL A   1      49.261  26.192  25.766  1.00  0.00     0.040 A 
ATOM     90  F   UNL A   1      48.156  26.461  27.821  1.00  0.00    -0.206 F 
ATOM     91  C   UNL A   1      49.313  26.384  24.387  1.00  0.00     0.006 A 
ENDBRANCH  67  84
ENDBRANCH  41  42
ENDBRANCH  34  36
ENDBRANCH  33  34
ENDBRANCH  32  33
ENDBRANCH  31  32
ENDBRANCH   1  31
TORSDOF 18
ENDMDL
MODEL 2
REMARK VINA RESULT:     -11.8      5.145      9.978
REMARK SMILES Nc1nccc(N2CCC[C@@](Cc3ccc(F)cc3F)(C(=O)OCCOCCOC(=O)c3ccc(-c4c5nc(c(-c6c(F)cccc6F)c6ccc([nH]6)c(-c6c(F)cccc6F)c6nc(c(-c7c(F)cccc7F)c7ccc4[nH]7)C=C6)C=C5)cc3)C2)n1
REMARK SMILES IDX 26 1 25 2 24 3 23 4 21 5 22 6 11 7 7 8 8 9 86 10 9 11 10 12
REMARK SMILES IDX 6 13 2 14 3 15 87 16 4 17 5 18 1 19 12 22 13 23 14 24 19 25
REMARK SMILES IDX 15 26 18 27 20 28 16 29 17 30 27 31 28 32 29 33 30 34 31 35
REMARK SMILES IDX 32 36 33 37 85 38 34 39 84 40 35 41 36 42 37 43 78 44 38 45
REMARK SMILES IDX 83 46 77 47 79 48 39 49 82 50 76 51 75 52 40 54 66 55 49 56
REMARK SMILES IDX 65 57 50 58 53 59 64 60 80 61 51 62 52 63 63 65 81 66 54 67
REMARK SMILES IDX 41 68 42 69 47 70 43 71 44 72 46 73 48 74 45 75 67 76 68 77
REMARK SMILES IDX 73 78 69 79 70 80 72 81 74 82 71 83 55 84 56 85 61 86 57 87
REMARK SMILES IDX 58 88 60 89 62 90 59 91
REMARK H PARENT 1 20 1 21 79 53 53 64
REMARK Flexibility Score: inf
ROOT
ATOM      1  O   UNL A   1      40.681  21.046  26.132  1.00  0.00    -0.374 OA
ENDROOT
BRANCH   1   2
ATOM      2  C   UNL A   1      39.672  22.007  26.416  1.00  0.00     0.202 C 
BRANCH   2   3
ATOM      3  C   UNL A   1      38.304  21.820  25.751  1.00  0.00     0.261 C 
BRANCH   3   4
ATOM      4  O   UNL A   1      37.474  22.994  25.762  1.00  0.00    -0.463 OA
BRANCH   4   5
ATOM      5  C   UNL A   1      36.567  23.063  24.749  1.00  0.00     0.314 C 
ATOM      6  O   UNL A   1      36.826  23.492  23.629  1.00  0.00    -0.252 OA
BRANCH   5   7
ATOM      7  C   UNL A   1      35.158  22.633  25.152  1.00  0.00     0.090 C 
ATOM      8  N   UNL A   1      33.804  20.593  25.154  1.00  0.00    -0.355 N 
ATOM      9  C   UNL A   1      33.470  20.602  26.570  1.00  0.00     0.118 C 
ATOM     10  C   UNL A   1      35.114  21.128  24.796  1.00  0.00     0.137 C 
ATOM     11  C   UNL A   1      33.533  22.047  27.072  1.00  0.00     0.023 C 
ATOM     12  C   UNL A   1      34.832  22.764  26.664  1.00  0.00     0.023 C 
BRANCH   8  13
ATOM     13  C   UNL A   1      33.415  19.481  24.412  1.00  0.00     0.134 A 
ATOM     14  C   UNL A   1      33.747  17.320  23.739  1.00  0.00     0.221 A 
ATOM     15  N   UNL A   1      32.854  17.402  22.749  1.00  0.00    -0.222 NA
ATOM     16  N   UNL A   1      34.064  18.316  24.571  1.00  0.00    -0.196 NA
ATOM     17  C   UNL A   1      32.223  18.581  22.618  1.00  0.00     0.119 A 
ATOM     18  C   UNL A   1      32.454  19.654  23.439  1.00  0.00     0.067 A 
BRANCH  14  19
ATOM     19  N   UNL A   1      34.403  16.133  23.891  1.00  0.00    -0.368 N 
ATOM     20  H   UNL A   1      33.964  15.383  24.354  1.00  0.00     0.159 HD
ATOM     21  H   UNL A   1      35.315  16.026  23.536  1.00  0.00     0.159 HD
ENDBRANCH  14  19
ENDBRANCH   8  13
BRANCH   7  22
ATOM     22  C   UNL A   1      34.159  23.406  24.241  1.00  0.00     0.059 C 
BRANCH  22  23
ATOM     23  C   UNL A   1      33.395  24.526  24.914  1.00  0.00    -0.011 A 
ATOM     24  C   UNL A   1      34.046  25.699  25.325  1.00  0.00     0.010 A 
ATOM     25  C   UNL A   1      32.018  24.411  25.150  1.00  0.00     0.129 A 
ATOM     26  C   UNL A   1      33.342  26.695  26.002  1.00  0.00     0.040 A 
ATOM     27  C   UNL A   1      31.308  25.403  25.814  1.00  0.00     0.078 A 
ATOM     28  F   UNL A   1      31.355  23.323  24.735  1.00  0.00    -0.207 F 
ATOM     29  C   UNL A   1      31.983  26.534  26.245  1.00  0.00     0.126 A 
ATOM     30  F   UNL A   1      31.315  27.493  26.899  1.00  0.00    -0.207 F 
ENDBRANCH  22  23
ENDBRANCH   7  22
ENDBRANCH   5   7
ENDBRANCH   4   5
ENDBRANCH   3   4
ENDBRANCH   2   3
ENDBRANCH   1   2
BRANCH   1  31
ATOM     31  C   UNL A   1      42.004  21.310  26.598  1.00  0.00     0.202 C 
BRANCH  31  32
ATOM     32  C   UNL A   1      43.040  21.784  25.570  1.00  0.00     0.261 C 
BRANCH  32  33
ATOM     33  O   UNL A   1      42.663  23.018  24.921  1.00  0.00    -0.460 OA
BRANCH  33  34
ATOM     34  C   UNL A   1      43.480  24.065  25.191  1.00  0.00     0.338 C 
ATOM     35  O   UNL A   1      44.604  24.261  24.753  1.00  0.00    -0.246 OA
BRANCH  34  36
ATOM     36  C   UNL A   1      42.787  25.080  26.002  1.00  0.00     0.060 A 
ATOM     37  C   UNL A   1      43.459  26.282  26.262  1.00  0.00     0.016 A 
ATOM     38  C   UNL A   1      41.579  24.790  26.638  1.00  0.00     0.016 A 
ATOM     39  C   UNL A   1      42.947  27.178  27.200  1.00  0.00     0.010 A 
ATOM     40  C   UNL A   1      41.072  25.687  27.586  1.00  0.00     0.010 A 
ATOM     41  C   UNL A   1      41.773  26.865  27.899  1.00  0.00    -0.014 A 
BRANCH  41  42
ATOM     42  C   UNL A   1      41.361  27.708  29.048  1.00  0.00     0.031 A 
ATOM     43  C   UNL A   1      42.124  27.621  30.341  1.00  0.00     0.074 A 
ATOM     44  C   UNL A   1      40.339  28.573  28.930  1.00  0.00     0.049 A 
ATOM     45  N   UNL A   1      41.926  28.262  31.465  1.00  0.00    -0.248 NA
ATOM     46  C   UNL A   1      43.263  26.690  30.371  1.00  0.00     0.031 C 
ATOM     47  C   UNL A   1      39.544  28.778  27.722  1.00  0.00     0.029 A 
ATOM     48  N   UNL A   1      39.796  29.439  29.846  1.00  0.00    -0.354 N 
ATOM     49  C   UNL A   1      42.912  27.814  32.335  1.00  0.00     0.074 A 
ATOM     50  C   UNL A   1      43.692  26.828  31.618  1.00  0.00     0.031 C 
ATOM     51  C   UNL A   1      38.611  29.712  27.970  1.00  0.00     0.029 A 
ATOM     52  C   UNL A   1      38.726  30.149  29.360  1.00  0.00     0.049 A 
ATOM     53  H   UNL A   1      40.143  29.543  30.761  1.00  0.00     0.167 HD
ATOM     54  C   UNL A   1      43.152  28.195  33.611  1.00  0.00     0.037 A 
ATOM     55  C   UNL A   1      37.920  31.037  29.974  1.00  0.00     0.037 A 
ATOM     56  C   UNL A   1      42.379  29.176  34.329  1.00  0.00     0.049 A 
ATOM     57  C   UNL A   1      38.158  31.391  31.416  1.00  0.00     0.074 A 
ATOM     58  C   UNL A   1      42.564  29.644  35.618  1.00  0.00     0.029 A 
ATOM     59  N   UNL A   1      41.268  29.830  33.820  1.00  0.00    -0.354 N 
ATOM     60  N   UNL A   1      39.103  30.973  32.223  1.00  0.00    -0.248 NA
ATOM     61  C   UNL A   1      37.214  32.333  32.035  1.00  0.00     0.031 C 
ATOM     62  C   UNL A   1      41.539  30.552  35.904  1.00  0.00     0.029 A 
ATOM     63  C   UNL A   1      40.739  30.677  34.780  1.00  0.00     0.049 A 
ATOM     64  H   UNL A   1      40.908  29.709  32.912  1.00  0.00     0.167 HD
ATOM     65  C   UNL A   1      38.875  31.608  33.437  1.00  0.00     0.074 A 
ATOM     66  C   UNL A   1      37.710  32.449  33.260  1.00  0.00     0.031 C 
ATOM     67  C   UNL A   1      39.572  31.501  34.595  1.00  0.00     0.037 A 
BRANCH  54  68
ATOM     68  C   UNL A   1      44.291  27.535  34.327  1.00  0.00     0.057 A 
ATOM     69  C   UNL A   1      44.091  26.354  35.052  1.00  0.00     0.134 A 
ATOM     70  C   UNL A   1      45.579  28.085  34.328  1.00  0.00     0.134 A 
ATOM     71  F   UNL A   1      42.880  25.778  35.095  1.00  0.00    -0.206 F 
ATOM     72  C   UNL A   1      45.130  25.746  35.757  1.00  0.00     0.040 A 
ATOM     73  C   UNL A   1      46.632  27.476  35.012  1.00  0.00     0.040 A 
ATOM     74  F   UNL A   1      45.838  29.209  33.642  1.00  0.00    -0.206 F 
ATOM     75  C   UNL A   1      46.407  26.305  35.735  1.00  0.00     0.006 A 
ENDBRANCH  54  68
BRANCH  55  76
ATOM     76  C   UNL A   1      36.803  31.648  29.216  1.00  0.00     0.057 A 
ATOM     77  C   UNL A   1      35.643  30.922  28.921  1.00  0.00     0.134 A 
ATOM     78  C   UNL A   1      36.883  32.962  28.744  1.00  0.00     0.134 A 
ATOM     79  F   UNL A   1      35.509  29.659  29.349  1.00  0.00    -0.206 F 
ATOM     80  C   UNL A   1      34.610  31.474  28.162  1.00  0.00     0.040 A 
ATOM     81  C   UNL A   1      35.849  33.534  28.001  1.00  0.00     0.040 A 
ATOM     82  F   UNL A   1      37.961  33.713  29.016  1.00  0.00    -0.206 F 
ATOM     83  C   UNL A   1      34.713  32.785  27.701  1.00  0.00     0.006 A 
ENDBRANCH  55  76
BRANCH  67  84
ATOM     84  C   UNL A   1      39.101  32.312  35.765  1.00  0.00     0.057 A 
ATOM     85  C   UNL A   1      39.553  33.623  35.958  1.00  0.00     0.134 A 
ATOM     86  C   UNL A   1      38.255  31.768  36.739  1.00  0.00     0.134 A 
ATOM     87  F   UNL A   1      40.374  34.198  35.066  1.00  0.00    -0.206 F 
ATOM     88  C   UNL A   1      39.190  34.362  37.085  1.00  0.00     0.040 A 
ATOM     89  C   UNL A   1      37.868  32.504  37.861  1.00  0.00     0.040 A 
ATOM     90  F   UNL A   1      37.779  30.521  36.606  1.00  0.00    -0.206 F 
ATOM     91  C   UNL A   1      38.343  33.803  38.039  1.00  0.00     0.006 A 
ENDBRANCH  67  84
ENDBRANCH  41  42
ENDBRANCH  34  36
ENDBRANCH  33  34
ENDBRANCH  32  33
ENDBRANCH  31  32
ENDBRANCH   1  31
TORSDOF 18
ENDMDL
MODEL 3
REMARK VINA RESULT:     -11.7      3.161      7.951
REMARK SMILES Nc1nccc(N2CCC[C@@](Cc3ccc(F)cc3F)(C(=O)OCCOCCOC(=O)c3ccc(-c4c5nc(c(-c6c(F)cccc6F)c6ccc([nH]6)c(-c6c(F)cccc6F)c6nc(c(-c7c(F)cccc7F)c7ccc4[nH]7)C=C6)C=C5)cc3)C2)n1
REMARK SMILES IDX 26 1 25 2 24 3 23 4 21 5 22 6 11 7 7 8 8 9 86 10 9 11 10 12
REMARK SMILES IDX 6 13 2 14 3 15 87 16 4 17 5 18 1 19 12 22 13 23 14 24 19 25
REMARK SMILES IDX 15 26 18 27 20 28 16 29 17 30 27 31 28 32 29 33 30 34 31 35
REMARK SMILES IDX 32 36 33 37 85 38 34 39 84 40 35 41 36 42 37 43 78 44 38 45
REMARK SMILES IDX 83 46 77 47 79 48 39 49 82 50 76 51 75 52 40 54 66 55 49 56
REMARK SMILES IDX 65 57 50 58 53 59 64 60 80 61 51 62 52 63 63 65 81 66 54 67
REMARK SMILES IDX 41 68 42 69 47 70 43 71 44 72 46 73 48 74 45 75 67 76 68 77
REMARK SMILES IDX 73 78 69 79 70 80 72 81 74 82 71 83 55 84 56 85 61 86 57 87
REMARK SMILES IDX 58 88 60 89 62 90 59 91
REMARK H PARENT 1 20 1 21 79 53 53 64
REMARK Flexibility Score: inf
ROOT
ATOM      1  O   UNL A   1      37.802  21.039  24.637  1.00  0.00    -0.374 OA
ENDROOT
BRANCH   1   2
ATOM      2  C   UNL A   1      37.366  21.810  25.750  1.00  0.00     0.202 C 
BRANCH   2   3
ATOM      3  C   UNL A   1      35.864  21.830  26.056  1.00  0.00     0.261 C 
BRANCH   3   4
ATOM      4  O   UNL A   1      35.209  23.067  25.728  1.00  0.00    -0.463 OA
BRANCH   4   5
ATOM      5  C   UNL A   1      33.849  23.020  25.762  1.00  0.00     0.314 C 
ATOM      6  O   UNL A   1      33.197  22.845  26.787  1.00  0.00    -0.252 OA
BRANCH   5   7
ATOM      7  C   UNL A   1      33.194  23.121  24.386  1.00  0.00     0.090 C 
ATOM      8  N   UNL A   1      32.038  24.805  23.036  1.00  0.00    -0.355 N 
ATOM      9  C   UNL A   1      32.897  24.716  21.865  1.00  0.00     0.118 C 
ATOM     10  C   UNL A   1      32.680  24.580  24.327  1.00  0.00     0.137 C 
ATOM     11  C   UNL A   1      33.525  23.319  21.832  1.00  0.00     0.023 C 
ATOM     12  C   UNL A   1      34.148  22.913  23.180  1.00  0.00     0.023 C 
BRANCH   8  13
ATOM     13  C   UNL A   1      31.069  25.804  23.042  1.00  0.00     0.134 A 
ATOM     14  C   UNL A   1      30.417  27.950  22.589  1.00  0.00     0.221 A 
ATOM     15  N   UNL A   1      29.301  27.855  23.317  1.00  0.00    -0.222 NA
ATOM     16  N   UNL A   1      31.319  26.976  22.435  1.00  0.00    -0.196 NA
ATOM     17  C   UNL A   1      29.082  26.670  23.910  1.00  0.00     0.119 A 
ATOM     18  C   UNL A   1      29.928  25.599  23.790  1.00  0.00     0.067 A 
BRANCH  14  19
ATOM     19  N   UNL A   1      30.664  29.146  21.979  1.00  0.00    -0.368 N 
ATOM     20  H   UNL A   1      29.975  29.561  21.411  1.00  0.00     0.159 HD
ATOM     21  H   UNL A   1      31.531  29.593  22.107  1.00  0.00     0.159 HD
ENDBRANCH  14  19
ENDBRANCH   8  13
BRANCH   7  22
ATOM     22  C   UNL A   1      31.977  22.147  24.380  1.00  0.00     0.059 C 
BRANCH  22  23
ATOM     23  C   UNL A   1      32.308  20.692  24.128  1.00  0.00    -0.011 A 
ATOM     24  C   UNL A   1      32.838  19.886  25.147  1.00  0.00     0.010 A 
ATOM     25  C   UNL A   1      32.102  20.120  22.865  1.00  0.00     0.129 A 
ATOM     26  C   UNL A   1      33.199  18.564  24.883  1.00  0.00     0.040 A 
ATOM     27  C   UNL A   1      32.449  18.801  22.597  1.00  0.00     0.078 A 
ATOM     28  F   UNL A   1      31.560  20.848  21.879  1.00  0.00    -0.207 F 
ATOM     29  C   UNL A   1      33.007  18.038  23.610  1.00  0.00     0.126 A 
ATOM     30  F   UNL A   1      33.360  16.770  23.364  1.00  0.00    -0.207 F 
ENDBRANCH  22  23
ENDBRANCH   7  22
ENDBRANCH   5   7
ENDBRANCH   4   5
ENDBRANCH   3   4
ENDBRANCH   2   3
ENDBRANCH   1   2
BRANCH   1  31
ATOM     31  C   UNL A   1      38.022  19.643  24.838  1.00  0.00     0.202 C 
BRANCH  31  32
ATOM     32  C   UNL A   1      39.091  19.229  25.857  1.00  0.00     0.261 C 
BRANCH  32  33
ATOM     33  O   UNL A   1      40.436  19.470  25.389  1.00  0.00    -0.460 OA
BRANCH  33  34
ATOM     34  C   UNL A   1      41.344  19.678  26.375  1.00  0.00     0.338 C 
ATOM     35  O   UNL A   1      42.178  18.889  26.793  1.00  0.00    -0.246 OA
BRANCH  34  36
ATOM     36  C   UNL A   1      41.323  21.080  26.824  1.00  0.00     0.060 A 
ATOM     37  C   UNL A   1      41.019  22.067  25.878  1.00  0.00     0.016 A 
ATOM     38  C   UNL A   1      41.763  21.431  28.101  1.00  0.00     0.016 A 
ATOM     39  C   UNL A   1      41.203  23.413  26.192  1.00  0.00     0.010 A 
ATOM     40  C   UNL A   1      41.955  22.783  28.411  1.00  0.00     0.010 A 
ATOM     41  C   UNL A   1      41.713  23.777  27.446  1.00  0.00    -0.014 A 
BRANCH  41  42
ATOM     42  C   UNL A   1      42.117  25.183  27.690  1.00  0.00     0.031 A 
ATOM     43  C   UNL A   1      43.471  25.654  27.233  1.00  0.00     0.074 A 
ATOM     44  C   UNL A   1      41.272  26.046  28.279  1.00  0.00     0.049 A 
ATOM     45  N   UNL A   1      44.022  26.835  27.353  1.00  0.00    -0.248 NA
ATOM     46  C   UNL A   1      44.315  24.663  26.547  1.00  0.00     0.031 C 
ATOM     47  C   UNL A   1      39.921  25.724  28.733  1.00  0.00     0.029 A 
ATOM     48  N   UNL A   1      41.431  27.372  28.595  1.00  0.00    -0.354 N 
ATOM     49  C   UNL A   1      45.274  26.731  26.761  1.00  0.00     0.074 A 
ATOM     50  C   UNL A   1      45.413  25.364  26.304  1.00  0.00     0.031 C 
ATOM     51  C   UNL A   1      39.373  26.824  29.274  1.00  0.00     0.029 A 
ATOM     52  C   UNL A   1      40.342  27.918  29.228  1.00  0.00     0.049 A 
ATOM     53  H   UNL A   1      42.246  27.882  28.387  1.00  0.00     0.167 HD
ATOM     54  C   UNL A   1      46.218  27.688  26.603  1.00  0.00     0.037 A 
ATOM     55  C   UNL A   1      40.155  29.154  29.728  1.00  0.00     0.037 A 
ATOM     56  C   UNL A   1      46.085  29.048  27.055  1.00  0.00     0.049 A 
ATOM     57  C   UNL A   1      41.247  30.181  29.610  1.00  0.00     0.074 A 
ATOM     58  C   UNL A   1      46.980  30.095  26.917  1.00  0.00     0.029 A 
ATOM     59  N   UNL A   1      44.988  29.547  27.743  1.00  0.00    -0.354 N 
ATOM     60  N   UNL A   1      42.420  30.076  29.033  1.00  0.00    -0.248 NA
ATOM     61  C   UNL A   1      40.993  31.497  30.217  1.00  0.00     0.031 C 
ATOM     62  C   UNL A   1      46.443  31.216  27.558  1.00  0.00     0.029 A 
ATOM     63  C   UNL A   1      45.197  30.878  28.061  1.00  0.00     0.049 A 
ATOM     64  H   UNL A   1      44.182  29.030  27.971  1.00  0.00     0.167 HD
ATOM     65  C   UNL A   1      43.037  31.310  29.198  1.00  0.00     0.074 A 
ATOM     66  C   UNL A   1      42.106  32.153  29.917  1.00  0.00     0.031 C 
ATOM     67  C   UNL A   1      44.267  31.705  28.787  1.00  0.00     0.037 A 
BRANCH  54  68
ATOM     68  C   UNL A   1      47.495  27.292  25.926  1.00  0.00     0.057 A 
ATOM     69  C   UNL A   1      47.633  27.408  24.538  1.00  0.00     0.134 A 
ATOM     70  C   UNL A   1      48.576  26.763  26.643  1.00  0.00     0.134 A 
ATOM     71  F   UNL A   1      46.633  27.903  23.792  1.00  0.00    -0.206 F 
ATOM     72  C   UNL A   1      48.800  27.007  23.885  1.00  0.00     0.040 A 
ATOM     73  C   UNL A   1      49.756  26.378  26.004  1.00  0.00     0.040 A 
ATOM     74  F   UNL A   1      48.510  26.638  27.977  1.00  0.00    -0.206 F 
ATOM     75  C   UNL A   1      49.867  26.495  24.620  1.00  0.00     0.006 A 
ENDBRANCH  54  68
BRANCH  55  76
ATOM     76  C   UNL A   1      38.874  29.481  30.397  1.00  0.00     0.057 A 
ATOM     77  C   UNL A   1      37.827  30.096  29.699  1.00  0.00     0.134 A 
ATOM     78  C   UNL A   1      38.679  29.214  31.756  1.00  0.00     0.134 A 
ATOM     79  F   UNL A   1      37.955  30.374  28.394  1.00  0.00    -0.206 F 
ATOM     80  C   UNL A   1      36.638  30.454  30.335  1.00  0.00     0.040 A 
ATOM     81  C   UNL A   1      37.488  29.550  32.401  1.00  0.00     0.040 A 
ATOM     82  F   UNL A   1      39.639  28.607  32.469  1.00  0.00    -0.206 F 
ATOM     83  C   UNL A   1      36.467  30.180  31.691  1.00  0.00     0.006 A 
ENDBRANCH  55  76
BRANCH  67  84
ATOM     84  C   UNL A   1      44.684  33.110  29.101  1.00  0.00     0.057 A 
ATOM     85  C   UNL A   1      44.354  34.165  28.240  1.00  0.00     0.134 A 
ATOM     86  C   UNL A   1      45.474  33.408  30.218  1.00  0.00     0.134 A 
ATOM     87  F   UNL A   1      43.608  33.945  27.147  1.00  0.00    -0.206 F 
ATOM     88  C   UNL A   1      44.804  35.466  28.474  1.00  0.00     0.040 A 
ATOM     89  C   UNL A   1      45.914  34.709  30.473  1.00  0.00     0.040 A 
ATOM     90  F   UNL A   1      45.815  32.444  31.085  1.00  0.00    -0.206 F 
ATOM     91  C   UNL A   1      45.585  35.740  29.594  1.00  0.00     0.006 A 
ENDBRANCH  67  84
ENDBRANCH  41  42
ENDBRANCH  34  36
ENDBRANCH  33  34
ENDBRANCH  32  33
ENDBRANCH  31  32
ENDBRANCH   1  31
TORSDOF 18
ENDMDL
