MODEL 1
REMARK VINA RESULT:     -12.6      0.000      0.000
REMARK SMILES CS(=O)(=O)c1ccc(C2=NN(c3ccc(C(=O)OCCOCCOC(=O)c4ccc(-c5c6nc(c(-c7c(F)cccc7F)c7ccc([nH]7)c(-c7c(F)cccc7F)c7nc(c(-c8c(F)cccc8F)c8ccc5[nH]8)C=C7)C=C6)cc4)cc3)[C@H](c3ccc(Cl)cc3)C2)cc1
REMARK SMILES IDX 20 1 19 2 18 3 16 4 17 5 15 6 12 7 13 8 82 9 14 10 81 11
REMARK SMILES IDX 11 12 9 13 10 14 91 15 83 16 8 17 5 18 6 19 93 20 7 21 92 22
REMARK SMILES IDX 2 23 1 24 3 25 4 26 84 27 85 28 90 29 86 30 89 31 87 32
REMARK SMILES IDX 88 33 21 34 22 35 23 36 24 37 25 38 26 39 27 40 28 41 80 42
REMARK SMILES IDX 29 43 79 44 30 45 31 46 32 47 73 48 33 49 78 50 72 51 74 52
REMARK SMILES IDX 34 53 77 54 71 55 70 56 35 58 61 59 44 60 60 61 45 62 48 63
REMARK SMILES IDX 59 64 75 65 46 66 47 67 58 69 76 70 49 71 36 72 37 73 42 74
REMARK SMILES IDX 38 75 39 76 41 77 43 78 40 79 62 80 63 81 68 82 64 83 65 84
REMARK SMILES IDX 67 85 69 86 66 87 50 88 51 89 56 90 52 91 53 92 55 93 57 94
REMARK SMILES IDX 54 95
REMARK H PARENT 74 57 48 68
REMARK Flexibility Score: inf
ROOT
ATOM      1  C   UNL A   1      35.087  33.182  29.326  1.00  0.00     0.202 C 
ENDROOT
BRANCH   1   2
ATOM      2  C   UNL A   1      35.451  32.277  28.146  1.00  0.00     0.261 C 
BRANCH   2   3
ATOM      3  O   UNL A   1      34.768  31.018  28.250  1.00  0.00    -0.460 OA
BRANCH   3   4
ATOM      4  C   UNL A   1      33.608  30.926  27.561  1.00  0.00     0.338 C 
ATOM      5  O   UNL A   1      32.868  31.851  27.255  1.00  0.00    -0.246 OA
BRANCH   4   6
ATOM      6  C   UNL A   1      33.369  29.529  27.122  1.00  0.00     0.060 A 
ATOM      7  C   UNL A   1      32.898  26.986  26.033  1.00  0.00     0.060 A 
ATOM      8  C   UNL A   1      34.046  27.700  25.681  1.00  0.00     0.029 A 
ATOM      9  C   UNL A   1      32.055  27.503  27.026  1.00  0.00     0.029 A 
ATOM     10  C   UNL A   1      34.278  28.967  26.217  1.00  0.00     0.018 A 
ATOM     11  C   UNL A   1      32.279  28.772  27.566  1.00  0.00     0.018 A 
BRANCH   7  12
ATOM     12  N   UNL A   1      32.484  25.876  25.293  1.00  0.00    -0.257 N 
ATOM     13  C   UNL A   1      32.906  23.922  24.549  1.00  0.00     0.071 C 
ATOM     14  N   UNL A   1      32.907  24.632  25.636  1.00  0.00    -0.176 NA
ATOM     15  C   UNL A   1      32.617  24.677  23.280  1.00  0.00     0.091 C 
ATOM     16  C   UNL A   1      32.244  26.050  23.851  1.00  0.00     0.144 C 
BRANCH  13  17
ATOM     17  C   UNL A   1      33.161  22.468  24.544  1.00  0.00    -0.002 A 
ATOM     18  C   UNL A   1      33.591  19.713  24.390  1.00  0.00     0.067 A 
ATOM     19  C   UNL A   1      32.358  20.249  24.001  1.00  0.00     0.021 A 
ATOM     20  C   UNL A   1      34.605  20.545  24.874  1.00  0.00     0.021 A 
ATOM     21  C   UNL A   1      32.143  21.624  24.084  1.00  0.00     0.011 A 
ATOM     22  C   UNL A   1      34.389  21.928  24.945  1.00  0.00     0.011 A 
BRANCH  18  23
ATOM     23  S   UNL A   1      33.804  17.954  24.234  1.00  0.00     0.175 S 
ATOM     24  C   UNL A   1      32.826  17.193  25.496  1.00  0.00     0.163 C 
ATOM     25  O   UNL A   1      35.199  17.689  24.527  1.00  0.00    -0.224 OA
ATOM     26  O   UNL A   1      33.217  17.577  22.961  1.00  0.00    -0.224 OA
ENDBRANCH  18  23
ENDBRANCH  13  17
BRANCH  16  27
ATOM     27  C   UNL A   1      30.830  26.574  23.624  1.00  0.00    -0.023 A 
ATOM     28  C   UNL A   1      29.677  25.947  24.114  1.00  0.00     0.007 A 
ATOM     29  C   UNL A   1      30.677  27.811  22.961  1.00  0.00     0.007 A 
ATOM     30  C   UNL A   1      28.417  26.538  23.953  1.00  0.00     0.021 A 
ATOM     31  C   UNL A   1      29.427  28.420  22.833  1.00  0.00     0.021 A 
ATOM     32  C   UNL A   1      28.300  27.778  23.329  1.00  0.00     0.041 A 
ATOM     33  Cl  UNL A   1      26.759  28.528  23.189  1.00  0.00    -0.084 Cl
ENDBRANCH  16  27
ENDBRANCH   7  12
ENDBRANCH   4   6
ENDBRANCH   3   4
ENDBRANCH   2   3
ENDBRANCH   1   2
BRANCH   1  34
ATOM     34  O   UNL A   1      35.072  34.584  29.050  1.00  0.00    -0.374 OA
BRANCH  34  35
ATOM     35  C   UNL A   1      33.860  35.136  28.537  1.00  0.00     0.202 C 
BRANCH  35  36
ATOM     36  C   UNL A   1      32.963  35.858  29.548  1.00  0.00     0.261 C 
BRANCH  36  37
ATOM     37  O   UNL A   1      32.624  35.018  30.666  1.00  0.00    -0.460 OA
BRANCH  37  38
ATOM     38  C   UNL A   1      32.854  35.575  31.876  1.00  0.00     0.338 C 
ATOM     39  O   UNL A   1      32.164  36.405  32.454  1.00  0.00    -0.246 OA
BRANCH  38  40
ATOM     40  C   UNL A   1      34.010  34.934  32.527  1.00  0.00     0.060 A 
ATOM     41  C   UNL A   1      35.249  35.574  32.406  1.00  0.00     0.016 A 
ATOM     42  C   UNL A   1      33.911  33.694  33.167  1.00  0.00     0.016 A 
ATOM     43  C   UNL A   1      36.407  34.946  32.860  1.00  0.00     0.010 A 
ATOM     44  C   UNL A   1      35.076  33.063  33.618  1.00  0.00     0.010 A 
ATOM     45  C   UNL A   1      36.332  33.667  33.426  1.00  0.00    -0.014 A 
BRANCH  45  46
ATOM     46  C   UNL A   1      37.585  32.909  33.658  1.00  0.00     0.031 A 
ATOM     47  C   UNL A   1      38.376  33.172  34.910  1.00  0.00     0.074 A 
ATOM     48  C   UNL A   1      37.986  31.959  32.793  1.00  0.00     0.049 A 
ATOM     49  N   UNL A   1      39.484  32.614  35.326  1.00  0.00    -0.248 NA
ATOM     50  C   UNL A   1      37.846  34.203  35.817  1.00  0.00     0.031 C 
ATOM     51  C   UNL A   1      37.290  31.588  31.564  1.00  0.00     0.029 A 
ATOM     52  N   UNL A   1      39.080  31.132  32.826  1.00  0.00    -0.354 N 
ATOM     53  C   UNL A   1      39.784  33.225  36.537  1.00  0.00     0.074 A 
ATOM     54  C   UNL A   1      38.761  34.220  36.774  1.00  0.00     0.031 C 
ATOM     55  C   UNL A   1      37.977  30.606  30.954  1.00  0.00     0.029 A 
ATOM     56  C   UNL A   1      39.170  30.298  31.741  1.00  0.00     0.049 A 
ATOM     57  H   UNL A   1      39.739  31.138  33.558  1.00  0.00     0.167 HD
ATOM     58  C   UNL A   1      40.811  32.971  37.382  1.00  0.00     0.037 A 
ATOM     59  C   UNL A   1      40.116  29.396  31.414  1.00  0.00     0.037 A 
ATOM     60  C   UNL A   1      41.827  31.980  37.150  1.00  0.00     0.049 A 
ATOM     61  C   UNL A   1      41.279  29.172  32.343  1.00  0.00     0.074 A 
ATOM     62  C   UNL A   1      42.899  31.636  37.956  1.00  0.00     0.029 A 
ATOM     63  N   UNL A   1      41.899  31.174  36.024  1.00  0.00    -0.354 N 
ATOM     64  N   UNL A   1      41.535  29.733  33.499  1.00  0.00    -0.248 NA
ATOM     65  C   UNL A   1      42.281  28.181  31.923  1.00  0.00     0.031 C 
ATOM     66  C   UNL A   1      43.643  30.652  37.297  1.00  0.00     0.029 A 
ATOM     67  C   UNL A   1      43.009  30.349  36.103  1.00  0.00     0.049 A 
ATOM     68  H   UNL A   1      41.256  31.186  35.278  1.00  0.00     0.167 HD
ATOM     69  C   UNL A   1      42.708  29.144  33.959  1.00  0.00     0.074 A 
ATOM     70  C   UNL A   1      43.108  28.176  32.959  1.00  0.00     0.031 C 
ATOM     71  C   UNL A   1      43.389  29.382  35.106  1.00  0.00     0.037 A 
BRANCH  58  72
ATOM     72  C   UNL A   1      40.896  33.797  38.632  1.00  0.00     0.057 A 
ATOM     73  C   UNL A   1      40.178  33.463  39.788  1.00  0.00     0.134 A 
ATOM     74  C   UNL A   1      41.726  34.922  38.688  1.00  0.00     0.134 A 
ATOM     75  F   UNL A   1      39.353  32.405  39.794  1.00  0.00    -0.206 F 
ATOM     76  C   UNL A   1      40.268  34.232  40.950  1.00  0.00     0.040 A 
ATOM     77  C   UNL A   1      41.843  35.685  39.851  1.00  0.00     0.040 A 
ATOM     78  F   UNL A   1      42.444  35.295  37.618  1.00  0.00    -0.206 F 
ATOM     79  C   UNL A   1      41.109  35.344  40.984  1.00  0.00     0.006 A 
ENDBRANCH  58  72
BRANCH  59  80
ATOM     80  C   UNL A   1      40.004  28.631  30.147  1.00  0.00     0.057 A 
ATOM     81  C   UNL A   1      39.284  27.433  30.082  1.00  0.00     0.134 A 
ATOM     82  C   UNL A   1      40.631  29.072  28.975  1.00  0.00     0.134 A 
ATOM     83  F   UNL A   1      38.680  26.948  31.177  1.00  0.00    -0.206 F 
ATOM     84  C   UNL A   1      39.203  26.693  28.901  1.00  0.00     0.040 A 
ATOM     85  C   UNL A   1      40.540  28.355  27.782  1.00  0.00     0.040 A 
ATOM     86  F   UNL A   1      41.337  30.212  28.973  1.00  0.00    -0.206 F 
ATOM     87  C   UNL A   1      39.828  27.157  27.745  1.00  0.00     0.006 A 
ENDBRANCH  59  80
BRANCH  71  88
ATOM     88  C   UNL A   1      44.613  28.555  35.364  1.00  0.00     0.057 A 
ATOM     89  C   UNL A   1      45.887  28.970  34.958  1.00  0.00     0.134 A 
ATOM     90  C   UNL A   1      44.520  27.347  36.069  1.00  0.00     0.134 A 
ATOM     91  F   UNL A   1      46.043  30.111  34.270  1.00  0.00    -0.206 F 
ATOM     92  C   UNL A   1      47.023  28.204  35.224  1.00  0.00     0.040 A 
ATOM     93  C   UNL A   1      45.651  26.585  36.362  1.00  0.00     0.040 A 
ATOM     94  F   UNL A   1      43.331  26.897  36.495  1.00  0.00    -0.206 F 
ATOM     95  C   UNL A   1      46.907  27.010  35.935  1.00  0.00     0.006 A 
ENDBRANCH  71  88
ENDBRANCH  45  46
ENDBRANCH  38  40
ENDBRANCH  37  38
ENDBRANCH  36  37
ENDBRANCH  35  36
ENDBRANCH  34  35
ENDBRANCH   1  34
TORSDOF 18
ENDMDL
MODEL 2
REMARK VINA RESULT:     -12.5      3.803      9.830
REMARK SMILES CS(=O)(=O)c1ccc(C2=NN(c3ccc(C(=O)OCCOCCOC(=O)c4ccc(-c5c6nc(c(-c7c(F)cccc7F)c7ccc([nH]7)c(-c7c(F)cccc7F)c7nc(c(-c8c(F)cccc8F)c8ccc5[nH]8)C=C7)C=C6)cc4)cc3)[C@H](c3ccc(Cl)cc3)C2)cc1
REMARK SMILES IDX 20 1 19 2 18 3 16 4 17 5 15 6 12 7 13 8 82 9 14 10 81 11
REMARK SMILES IDX 11 12 9 13 10 14 91 15 83 16 8 17 5 18 6 19 93 20 7 21 92 22
REMARK SMILES IDX 2 23 1 24 3 25 4 26 84 27 85 28 90 29 86 30 89 31 87 32
REMARK SMILES IDX 88 33 21 34 22 35 23 36 24 37 25 38 26 39 27 40 28 41 80 42
REMARK SMILES IDX 29 43 79 44 30 45 31 46 32 47 73 48 33 49 78 50 72 51 74 52
REMARK SMILES IDX 34 53 77 54 71 55 70 56 35 58 61 59 44 60 60 61 45 62 48 63
REMARK SMILES IDX 59 64 75 65 46 66 47 67 58 69 76 70 49 71 36 72 37 73 42 74
REMARK SMILES IDX 38 75 39 76 41 77 43 78 40 79 62 80 63 81 68 82 64 83 65 84
REMARK SMILES IDX 67 85 69 86 66 87 50 88 51 89 56 90 52 91 53 92 55 93 57 94
REMARK SMILES IDX 54 95
REMARK H PARENT 74 57 48 68
REMARK Flexibility Score: inf
ROOT
ATOM      1  C   UNL A   1      41.530  19.444  25.743  1.00  0.00     0.202 C 
ENDROOT
BRANCH   1   2
ATOM      2  C   UNL A   1      40.605  20.239  26.667  1.00  0.00     0.261 C 
BRANCH   2   3
ATOM      3  O   UNL A   1      39.609  20.935  25.902  1.00  0.00    -0.460 OA
BRANCH   3   4
ATOM      4  C   UNL A   1      39.224  22.133  26.397  1.00  0.00     0.338 C 
ATOM      5  O   UNL A   1      39.847  22.826  27.191  1.00  0.00    -0.246 OA
BRANCH   4   6
ATOM      6  C   UNL A   1      37.952  22.575  25.774  1.00  0.00     0.060 A 
ATOM      7  C   UNL A   1      35.432  23.392  24.850  1.00  0.00     0.060 A 
ATOM      8  C   UNL A   1      36.128  24.172  25.777  1.00  0.00     0.029 A 
ATOM      9  C   UNL A   1      36.063  22.267  24.300  1.00  0.00     0.029 A 
ATOM     10  C   UNL A   1      37.378  23.764  26.242  1.00  0.00     0.018 A 
ATOM     11  C   UNL A   1      37.313  21.850  24.762  1.00  0.00     0.018 A 
BRANCH   7  12
ATOM     12  N   UNL A   1      34.073  23.603  24.605  1.00  0.00    -0.257 N 
ATOM     13  C   UNL A   1      32.410  24.938  24.591  1.00  0.00     0.071 C 
ATOM     14  N   UNL A   1      33.637  24.817  24.184  1.00  0.00    -0.176 NA
ATOM     15  C   UNL A   1      31.915  23.842  25.495  1.00  0.00     0.091 C 
ATOM     16  C   UNL A   1      33.095  22.866  25.422  1.00  0.00     0.144 C 
BRANCH  13  17
ATOM     17  C   UNL A   1      31.544  26.066  24.195  1.00  0.00    -0.002 A 
ATOM     18  C   UNL A   1      30.002  28.227  23.329  1.00  0.00     0.067 A 
ATOM     19  C   UNL A   1      31.384  28.379  23.495  1.00  0.00     0.021 A 
ATOM     20  C   UNL A   1      29.384  27.006  23.613  1.00  0.00     0.021 A 
ATOM     21  C   UNL A   1      32.151  27.300  23.932  1.00  0.00     0.011 A 
ATOM     22  C   UNL A   1      30.160  25.921  24.042  1.00  0.00     0.011 A 
BRANCH  18  23
ATOM     23  S   UNL A   1      29.089  29.638  22.744  1.00  0.00     0.175 S 
ATOM     24  C   UNL A   1      27.371  29.234  22.857  1.00  0.00     0.163 C 
ATOM     25  O   UNL A   1      29.424  29.781  21.340  1.00  0.00    -0.224 OA
ATOM     26  O   UNL A   1      29.333  30.710  23.690  1.00  0.00    -0.224 OA
ENDBRANCH  18  23
ENDBRANCH  13  17
BRANCH  16  27
ATOM     27  C   UNL A   1      32.862  21.483  24.826  1.00  0.00    -0.023 A 
ATOM     28  C   UNL A   1      32.471  21.261  23.498  1.00  0.00     0.007 A 
ATOM     29  C   UNL A   1      33.144  20.355  25.627  1.00  0.00     0.007 A 
ATOM     30  C   UNL A   1      32.372  19.960  22.989  1.00  0.00     0.021 A 
ATOM     31  C   UNL A   1      33.084  19.060  25.110  1.00  0.00     0.021 A 
ATOM     32  C   UNL A   1      32.695  18.868  23.791  1.00  0.00     0.041 A 
ATOM     33  Cl  UNL A   1      32.631  17.277  23.142  1.00  0.00    -0.084 Cl
ENDBRANCH  16  27
ENDBRANCH   7  12
ENDBRANCH   4   6
ENDBRANCH   3   4
ENDBRANCH   2   3
ENDBRANCH   1   2
BRANCH   1  34
ATOM     34  O   UNL A   1      42.755  20.089  25.388  1.00  0.00    -0.374 OA
BRANCH  34  35
ATOM     35  C   UNL A   1      43.083  21.295  26.079  1.00  0.00     0.202 C 
BRANCH  35  36
ATOM     36  C   UNL A   1      44.421  21.944  25.708  1.00  0.00     0.261 C 
BRANCH  36  37
ATOM     37  O   UNL A   1      44.641  23.173  26.424  1.00  0.00    -0.460 OA
BRANCH  37  38
ATOM     38  C   UNL A   1      44.262  24.286  25.757  1.00  0.00     0.338 C 
ATOM     39  O   UNL A   1      44.395  24.516  24.561  1.00  0.00    -0.246 OA
BRANCH  38  40
ATOM     40  C   UNL A   1      43.497  25.183  26.642  1.00  0.00     0.060 A 
ATOM     41  C   UNL A   1      43.929  26.511  26.736  1.00  0.00     0.016 A 
ATOM     42  C   UNL A   1      42.438  24.723  27.432  1.00  0.00     0.016 A 
ATOM     43  C   UNL A   1      43.352  27.368  27.669  1.00  0.00     0.010 A 
ATOM     44  C   UNL A   1      41.863  25.586  28.372  1.00  0.00     0.010 A 
ATOM     45  C   UNL A   1      42.348  26.897  28.525  1.00  0.00    -0.014 A 
BRANCH  45  46
ATOM     46  C   UNL A   1      41.935  27.733  29.678  1.00  0.00     0.031 A 
ATOM     47  C   UNL A   1      40.720  28.611  29.544  1.00  0.00     0.074 A 
ATOM     48  C   UNL A   1      42.598  27.671  30.847  1.00  0.00     0.049 A 
ATOM     49  N   UNL A   1      40.168  29.404  30.426  1.00  0.00    -0.248 NA
ATOM     50  C   UNL A   1      40.036  28.590  28.242  1.00  0.00     0.031 C 
ATOM     51  C   UNL A   1      43.767  26.835  31.111  1.00  0.00     0.029 A 
ATOM     52  N   UNL A   1      42.374  28.326  32.031  1.00  0.00    -0.354 N 
ATOM     53  C   UNL A   1      39.076  29.978  29.787  1.00  0.00     0.074 A 
ATOM     54  C   UNL A   1      39.062  29.467  28.433  1.00  0.00     0.031 C 
ATOM     55  C   UNL A   1      44.162  27.031  32.381  1.00  0.00     0.029 A 
ATOM     56  C   UNL A   1      43.287  28.020  33.008  1.00  0.00     0.049 A 
ATOM     57  H   UNL A   1      41.630  28.956  32.166  1.00  0.00     0.167 HD
ATOM     58  C   UNL A   1      38.160  30.840  30.286  1.00  0.00     0.037 A 
ATOM     59  C   UNL A   1      43.409  28.494  34.264  1.00  0.00     0.037 A 
ATOM     60  C   UNL A   1      38.170  31.345  31.633  1.00  0.00     0.049 A 
ATOM     61  C   UNL A   1      42.410  29.496  34.777  1.00  0.00     0.074 A 
ATOM     62  C   UNL A   1      37.274  32.210  32.237  1.00  0.00     0.029 A 
ATOM     63  N   UNL A   1      39.129  31.034  32.584  1.00  0.00    -0.354 N 
ATOM     64  N   UNL A   1      41.365  30.007  34.174  1.00  0.00    -0.248 NA
ATOM     65  C   UNL A   1      42.606  29.982  36.151  1.00  0.00     0.031 C 
ATOM     66  C   UNL A   1      37.715  32.455  33.542  1.00  0.00     0.029 A 
ATOM     67  C   UNL A   1      38.858  31.705  33.765  1.00  0.00     0.049 A 
ATOM     68  H   UNL A   1      39.889  30.424  32.442  1.00  0.00     0.167 HD
ATOM     69  C   UNL A   1      40.761  30.848  35.102  1.00  0.00     0.074 A 
ATOM     70  C   UNL A   1      41.554  30.772  36.312  1.00  0.00     0.031 C 
ATOM     71  C   UNL A   1      39.650  31.612  34.965  1.00  0.00     0.037 A 
BRANCH  58  72
ATOM     72  C   UNL A   1      37.077  31.308  29.359  1.00  0.00     0.057 A 
ATOM     73  C   UNL A   1      35.954  30.519  29.077  1.00  0.00     0.134 A 
ATOM     74  C   UNL A   1      37.144  32.574  28.765  1.00  0.00     0.134 A 
ATOM     75  F   UNL A   1      35.836  29.291  29.604  1.00  0.00    -0.206 F 
ATOM     76  C   UNL A   1      34.946  30.965  28.219  1.00  0.00     0.040 A 
ATOM     77  C   UNL A   1      36.131  33.040  27.924  1.00  0.00     0.040 A 
ATOM     78  F   UNL A   1      38.190  33.381  28.996  1.00  0.00    -0.206 F 
ATOM     79  C   UNL A   1      35.031  32.232  27.646  1.00  0.00     0.006 A 
ENDBRANCH  58  72
BRANCH  59  80
ATOM     80  C   UNL A   1      44.521  28.026  35.127  1.00  0.00     0.057 A 
ATOM     81  C   UNL A   1      45.764  28.669  35.124  1.00  0.00     0.134 A 
ATOM     82  C   UNL A   1      44.373  26.912  35.963  1.00  0.00     0.134 A 
ATOM     83  F   UNL A   1      45.974  29.728  34.328  1.00  0.00    -0.206 F 
ATOM     84  C   UNL A   1      46.825  28.214  35.910  1.00  0.00     0.040 A 
ATOM     85  C   UNL A   1      45.417  26.460  36.770  1.00  0.00     0.040 A 
ATOM     86  F   UNL A   1      43.207  26.252  36.010  1.00  0.00    -0.206 F 
ATOM     87  C   UNL A   1      46.650  27.107  36.740  1.00  0.00     0.006 A 
ENDBRANCH  59  80
BRANCH  71  88
ATOM     88  C   UNL A   1      39.200  32.394  36.163  1.00  0.00     0.057 A 
ATOM     89  C   UNL A   1      38.323  31.856  37.112  1.00  0.00     0.134 A 
ATOM     90  C   UNL A   1      39.687  33.689  36.391  1.00  0.00     0.134 A 
ATOM     91  F   UNL A   1      37.813  30.626  36.947  1.00  0.00    -0.206 F 
ATOM     92  C   UNL A   1      37.930  32.584  38.236  1.00  0.00     0.040 A 
ATOM     93  C   UNL A   1      39.319  34.417  37.523  1.00  0.00     0.040 A 
ATOM     94  F   UNL A   1      40.537  34.259  35.525  1.00  0.00    -0.206 F 
ATOM     95  C   UNL A   1      38.433  33.867  38.447  1.00  0.00     0.006 A 
ENDBRANCH  71  88
ENDBRANCH  45  46
ENDBRANCH  38  40
ENDBRANCH  37  38
ENDBRANCH  36  37
ENDBRANCH  35  36
ENDBRANCH  34  35
ENDBRANCH   1  34
TORSDOF 18
ENDMDL
MODEL 3
REMARK VINA RESULT:     -12.2      0.383      5.846
REMARK SMILES CS(=O)(=O)c1ccc(C2=NN(c3ccc(C(=O)OCCOCCOC(=O)c4ccc(-c5c6nc(c(-c7c(F)cccc7F)c7ccc([nH]7)c(-c7c(F)cccc7F)c7nc(c(-c8c(F)cccc8F)c8ccc5[nH]8)C=C7)C=C6)cc4)cc3)[C@H](c3ccc(Cl)cc3)C2)cc1
REMARK SMILES IDX 20 1 19 2 18 3 16 4 17 5 15 6 12 7 13 8 82 9 14 10 81 11
REMARK SMILES IDX 11 12 9 13 10 14 91 15 83 16 8 17 5 18 6 19 93 20 7 21 92 22
REMARK SMILES IDX 2 23 1 24 3 25 4 26 84 27 85 28 90 29 86 30 89 31 87 32
REMARK SMILES IDX 88 33 21 34 22 35 23 36 24 37 25 38 26 39 27 40 28 41 80 42
REMARK SMILES IDX 29 43 79 44 30 45 31 46 32 47 73 48 33 49 78 50 72 51 74 52
REMARK SMILES IDX 34 53 77 54 71 55 70 56 35 58 61 59 44 60 60 61 45 62 48 63
REMARK SMILES IDX 59 64 75 65 46 66 47 67 58 69 76 70 49 71 36 72 37 73 42 74
REMARK SMILES IDX 38 75 39 76 41 77 43 78 40 79 62 80 63 81 68 82 64 83 65 84
REMARK SMILES IDX 67 85 69 86 66 87 50 88 51 89 56 90 52 91 53 92 55 93 57 94
REMARK SMILES IDX 54 95
REMARK H PARENT 74 57 48 68
REMARK Flexibility Score: inf
ROOT
ATOM      1  C   UNL A   1      34.871  33.146  29.388  1.00  0.00     0.202 C 
ENDROOT
BRANCH   1   2
ATOM      2  C   UNL A   1      35.356  32.297  28.211  1.00  0.00     0.261 C 
BRANCH   2   3
ATOM      3  O   UNL A   1      34.715  31.011  28.222  1.00  0.00    -0.460 OA
BRANCH   3   4
ATOM      4  C   UNL A   1      33.535  30.942  27.566  1.00  0.00     0.338 C 
ATOM      5  O   UNL A   1      32.803  31.882  27.285  1.00  0.00    -0.246 OA
BRANCH   4   6
ATOM      6  C   UNL A   1      33.259  29.551  27.130  1.00  0.00     0.060 A 
ATOM      7  C   UNL A   1      32.734  27.018  26.041  1.00  0.00     0.060 A 
ATOM      8  C   UNL A   1      33.924  27.683  25.735  1.00  0.00     0.029 A 
ATOM      9  C   UNL A   1      31.870  27.579  26.992  1.00  0.00     0.029 A 
ATOM     10  C   UNL A   1      34.184  28.945  26.270  1.00  0.00     0.018 A 
ATOM     11  C   UNL A   1      32.121  28.843  27.531  1.00  0.00     0.018 A 
BRANCH   7  12
ATOM     12  N   UNL A   1      32.309  25.918  25.293  1.00  0.00    -0.257 N 
ATOM     13  C   UNL A   1      32.701  23.959  24.551  1.00  0.00     0.071 C 
ATOM     14  N   UNL A   1      32.702  24.666  25.639  1.00  0.00    -0.176 NA
ATOM     15  C   UNL A   1      32.445  24.722  23.279  1.00  0.00     0.091 C 
ATOM     16  C   UNL A   1      32.091  26.100  23.849  1.00  0.00     0.144 C 
BRANCH  13  17
ATOM     17  C   UNL A   1      32.928  22.499  24.546  1.00  0.00    -0.002 A 
ATOM     18  C   UNL A   1      33.374  19.748  24.383  1.00  0.00     0.067 A 
ATOM     19  C   UNL A   1      32.446  20.355  23.529  1.00  0.00     0.021 A 
ATOM     20  C   UNL A   1      34.067  20.506  25.332  1.00  0.00     0.021 A 
ATOM     21  C   UNL A   1      32.221  21.728  23.615  1.00  0.00     0.011 A 
ATOM     22  C   UNL A   1      33.846  21.888  25.408  1.00  0.00     0.011 A 
BRANCH  18  23
ATOM     23  S   UNL A   1      33.630  17.996  24.201  1.00  0.00     0.175 S 
ATOM     24  C   UNL A   1      32.698  17.195  25.472  1.00  0.00     0.163 C 
ATOM     25  O   UNL A   1      35.037  17.765  24.463  1.00  0.00    -0.224 OA
ATOM     26  O   UNL A   1      33.028  17.620  22.936  1.00  0.00    -0.224 OA
ENDBRANCH  18  23
ENDBRANCH  13  17
BRANCH  16  27
ATOM     27  C   UNL A   1      30.691  26.653  23.604  1.00  0.00    -0.023 A 
ATOM     28  C   UNL A   1      29.518  26.038  24.062  1.00  0.00     0.007 A 
ATOM     29  C   UNL A   1      30.572  27.903  22.958  1.00  0.00     0.007 A 
ATOM     30  C   UNL A   1      28.272  26.654  23.887  1.00  0.00     0.021 A 
ATOM     31  C   UNL A   1      29.336  28.535  22.818  1.00  0.00     0.021 A 
ATOM     32  C   UNL A   1      28.188  27.905  23.282  1.00  0.00     0.041 A 
ATOM     33  Cl  UNL A   1      26.663  28.684  23.125  1.00  0.00    -0.084 Cl
ENDBRANCH  16  27
ENDBRANCH   7  12
ENDBRANCH   4   6
ENDBRANCH   3   4
ENDBRANCH   2   3
ENDBRANCH   1   2
BRANCH   1  34
ATOM     34  O   UNL A   1      34.458  34.475  29.064  1.00  0.00    -0.374 OA
BRANCH  34  35
ATOM     35  C   UNL A   1      33.082  34.799  29.265  1.00  0.00     0.202 C 
BRANCH  35  36
ATOM     36  C   UNL A   1      32.794  35.985  30.191  1.00  0.00     0.261 C 
BRANCH  36  37
ATOM     37  O   UNL A   1      32.242  35.565  31.452  1.00  0.00    -0.460 OA
BRANCH  37  38
ATOM     38  C   UNL A   1      33.000  35.876  32.527  1.00  0.00     0.338 C 
ATOM     39  O   UNL A   1      32.707  36.629  33.448  1.00  0.00    -0.246 OA
BRANCH  38  40
ATOM     40  C   UNL A   1      34.224  35.056  32.551  1.00  0.00     0.060 A 
ATOM     41  C   UNL A   1      34.110  33.750  33.044  1.00  0.00     0.016 A 
ATOM     42  C   UNL A   1      35.472  35.571  32.186  1.00  0.00     0.016 A 
ATOM     43  C   UNL A   1      35.251  32.977  33.242  1.00  0.00     0.010 A 
ATOM     44  C   UNL A   1      36.618  34.793  32.390  1.00  0.00     0.010 A 
ATOM     45  C   UNL A   1      36.515  33.512  32.960  1.00  0.00    -0.014 A 
BRANCH  45  46
ATOM     46  C   UNL A   1      37.723  32.783  33.421  1.00  0.00     0.031 A 
ATOM     47  C   UNL A   1      38.309  31.713  32.541  1.00  0.00     0.074 A 
ATOM     48  C   UNL A   1      38.322  33.108  34.580  1.00  0.00     0.049 A 
ATOM     49  N   UNL A   1      39.367  30.967  32.733  1.00  0.00    -0.248 NA
ATOM     50  C   UNL A   1      37.608  31.447  31.274  1.00  0.00     0.031 C 
ATOM     51  C   UNL A   1      37.871  34.148  35.502  1.00  0.00     0.029 A 
ATOM     52  N   UNL A   1      39.446  32.592  35.174  1.00  0.00    -0.354 N 
ATOM     53  C   UNL A   1      39.458  30.146  31.616  1.00  0.00     0.074 A 
ATOM     54  C   UNL A   1      38.330  30.460  30.767  1.00  0.00     0.031 C 
ATOM     55  C   UNL A   1      38.711  34.191  36.552  1.00  0.00     0.029 A 
ATOM     56  C   UNL A   1      39.742  33.169  36.384  1.00  0.00     0.049 A 
ATOM     57  H   UNL A   1      39.987  31.875  34.772  1.00  0.00     0.167 HD
ATOM     58  C   UNL A   1      40.403  29.223  31.319  1.00  0.00     0.037 A 
ATOM     59  C   UNL A   1      40.727  32.894  37.260  1.00  0.00     0.037 A 
ATOM     60  C   UNL A   1      41.527  28.912  32.160  1.00  0.00     0.049 A 
ATOM     61  C   UNL A   1      41.733  31.824  36.932  1.00  0.00     0.074 A 
ATOM     62  C   UNL A   1      42.548  28.005  31.937  1.00  0.00     0.029 A 
ATOM     63  N   UNL A   1      41.776  29.499  33.391  1.00  0.00    -0.354 N 
ATOM     64  N   UNL A   1      41.826  31.075  35.861  1.00  0.00    -0.248 NA
ATOM     65  C   UNL A   1      42.777  31.566  37.936  1.00  0.00     0.031 C 
ATOM     66  C   UNL A   1      43.392  28.012  33.053  1.00  0.00     0.029 A 
ATOM     67  C   UNL A   1      42.923  28.958  33.950  1.00  0.00     0.049 A 
ATOM     68  H   UNL A   1      41.220  30.197  33.807  1.00  0.00     0.167 HD
ATOM     69  C   UNL A   1      42.952  30.281  36.045  1.00  0.00     0.074 A 
ATOM     70  C   UNL A   1      43.514  30.646  37.329  1.00  0.00     0.031 C 
ATOM     71  C   UNL A   1      43.476  29.338  35.224  1.00  0.00     0.037 A 
BRANCH  58  72
ATOM     72  C   UNL A   1      40.247  28.467  30.032  1.00  0.00     0.057 A 
ATOM     73  C   UNL A   1      40.916  28.853  28.863  1.00  0.00     0.134 A 
ATOM     74  C   UNL A   1      39.442  27.323  29.969  1.00  0.00     0.134 A 
ATOM     75  F   UNL A   1      41.691  29.948  28.853  1.00  0.00    -0.206 F 
ATOM     76  C   UNL A   1      40.772  28.139  27.671  1.00  0.00     0.040 A 
ATOM     77  C   UNL A   1      39.309  26.588  28.790  1.00  0.00     0.040 A 
ATOM     78  F   UNL A   1      38.777  26.897  31.054  1.00  0.00    -0.206 F 
ATOM     79  C   UNL A   1      39.971  26.999  27.636  1.00  0.00     0.006 A 
ENDBRANCH  58  72
BRANCH  59  80
ATOM     80  C   UNL A   1      40.814  33.646  38.536  1.00  0.00     0.057 A 
ATOM     81  C   UNL A   1      40.001  33.321  39.628  1.00  0.00     0.134 A 
ATOM     82  C   UNL A   1      41.699  34.721  38.688  1.00  0.00     0.134 A 
ATOM     83  F   UNL A   1      39.117  32.317  39.537  1.00  0.00    -0.206 F 
ATOM     84  C   UNL A   1      40.055  34.046  40.820  1.00  0.00     0.040 A 
ATOM     85  C   UNL A   1      41.780  35.439  39.880  1.00  0.00     0.040 A 
ATOM     86  F   UNL A   1      42.504  35.081  37.678  1.00  0.00    -0.206 F 
ATOM     87  C   UNL A   1      40.950  35.107  40.950  1.00  0.00     0.006 A 
ENDBRANCH  59  80
BRANCH  71  88
ATOM     88  C   UNL A   1      44.739  28.663  35.667  1.00  0.00     0.057 A 
ATOM     89  C   UNL A   1      44.724  27.511  36.462  1.00  0.00     0.134 A 
ATOM     90  C   UNL A   1      45.988  29.149  35.255  1.00  0.00     0.134 A 
ATOM     91  F   UNL A   1      43.563  27.002  36.899  1.00  0.00    -0.206 F 
ATOM     92  C   UNL A   1      45.906  26.877  36.849  1.00  0.00     0.040 A 
ATOM     93  C   UNL A   1      47.175  28.510  35.616  1.00  0.00     0.040 A 
ATOM     94  F   UNL A   1      46.072  30.244  34.484  1.00  0.00    -0.206 F 
ATOM     95  C   UNL A   1      47.136  27.373  36.420  1.00  0.00     0.006 A 
ENDBRANCH  71  88
ENDBRANCH  45  46
ENDBRANCH  38  40
ENDBRANCH  37  38
ENDBRANCH  36  37
ENDBRANCH  35  36
ENDBRANCH  34  35
ENDBRANCH   1  34
TORSDOF 18
ENDMDL
