MODEL 1
REMARK VINA RESULT:     -11.2      0.000      0.000
REMARK SMILES CC[C@H](Oc1ccccc1/C=C1\SC(N)=[NH+]C1=O)C(=O)OCCOCCOC(=O)c1ccc(-c2c3nc(c(-c4c(F)cccc4F)c4ccc([nH]4)c(-c4c(F)cccc4F)c4nc(c(-c5c(F)cccc5F)c5ccc2[nH]5)C=C4)C=C3)cc1
REMARK SMILES IDX 23 1 22 2 21 3 19 4 20 5 3 6 2 7 1 8 4 9 5 10 6 11 10 12
REMARK SMILES IDX 7 13 9 14 8 15 11 16 12 17 13 18 17 19 14 20 16 21 18 22
REMARK SMILES IDX 15 23 24 27 25 28 26 29 27 30 28 31 29 32 30 33 31 34 83 35
REMARK SMILES IDX 32 36 82 37 33 38 34 39 35 40 76 41 36 42 81 43 75 44 77 45
REMARK SMILES IDX 37 46 80 47 74 48 73 49 38 51 64 52 47 53 63 54 48 55 51 56
REMARK SMILES IDX 62 57 78 58 49 59 50 60 61 62 79 63 52 64 39 65 40 66 45 67
REMARK SMILES IDX 41 68 42 69 44 70 46 71 43 72 65 73 66 74 71 75 67 76 68 77
REMARK SMILES IDX 70 78 72 79 69 80 53 81 54 82 59 83 55 84 56 85 58 86 60 87
REMARK SMILES IDX 57 88
REMARK H PARENT 16 24 15 25 15 26 77 50 51 61
REMARK Flexibility Score: inf
ROOT
ATOM      1  C   UNL A   1      39.902  21.104  26.052  1.00  0.00     0.202 C 
ENDROOT
BRANCH   1   2
ATOM      2  C   UNL A   1      38.625  21.909  25.785  1.00  0.00     0.261 C 
BRANCH   2   3
ATOM      3  O   UNL A   1      37.486  21.183  25.306  1.00  0.00    -0.461 OA
BRANCH   3   4
ATOM      4  C   UNL A   1      36.680  21.874  24.437  1.00  0.00     0.347 C 
ATOM      5  O   UNL A   1      37.091  22.661  23.590  1.00  0.00    -0.248 OA
BRANCH   4   6
ATOM      6  C   UNL A   1      35.189  21.726  24.799  1.00  0.00     0.282 C 
BRANCH   6   7
ATOM      7  C   UNL A   1      35.022  22.977  25.713  1.00  0.00     0.054 C 
ATOM      8  C   UNL A   1      34.493  22.872  27.128  1.00  0.00     0.008 C 
ENDBRANCH   6   7
BRANCH   6   9
ATOM      9  O   UNL A   1      34.963  20.397  25.304  1.00  0.00    -0.478 OA
BRANCH   9  10
ATOM     10  C   UNL A   1      34.072  19.555  24.688  1.00  0.00     0.127 A 
ATOM     11  C   UNL A   1      34.298  18.201  24.476  1.00  0.00     0.047 A 
ATOM     12  C   UNL A   1      32.885  20.099  24.158  1.00  0.00     0.018 A 
ATOM     13  C   UNL A   1      33.620  17.517  23.464  1.00  0.00     0.004 A 
ATOM     14  C   UNL A   1      32.222  19.432  23.114  1.00  0.00     0.012 A 
ATOM     15  C   UNL A   1      32.640  18.163  22.722  1.00  0.00     0.001 A 
BRANCH  12  16
ATOM     16  C   UNL A   1      32.046  20.998  24.973  1.00  0.00     0.036 C 
ATOM     17  C   UNL A   1      31.569  22.221  24.744  1.00  0.00     0.110 C 
ATOM     18  S   UNL A   1      31.885  23.297  23.461  1.00  0.00     0.006 SA
ATOM     19  C   UNL A   1      30.691  22.904  25.748  1.00  0.00     0.346 C 
ATOM     20  C   UNL A   1      31.294  24.601  24.467  1.00  0.00     0.314 C 
ATOM     21  N   UNL A   1      30.705  24.270  25.561  1.00  0.00    -0.200 N 
ATOM     22  O   UNL A   1      30.075  22.318  26.619  1.00  0.00    -0.240 OA
ATOM     23  N   UNL A   1      31.529  25.872  24.085  1.00  0.00    -0.281 N 
ATOM     24  H   UNL A   1      30.310  24.914  26.191  1.00  0.00     0.316 HD
ATOM     25  H   UNL A   1      31.986  26.054  23.233  1.00  0.00     0.302 HD
ATOM     26  H   UNL A   1      31.241  26.619  24.660  1.00  0.00     0.302 HD
ENDBRANCH  12  16
ENDBRANCH   9  10
ENDBRANCH   6   9
ENDBRANCH   4   6
ENDBRANCH   3   4
ENDBRANCH   2   3
ENDBRANCH   1   2
BRANCH   1  27
ATOM     27  O   UNL A   1      41.087  21.756  26.473  1.00  0.00    -0.374 OA
BRANCH  27  28
ATOM     28  C   UNL A   1      42.354  21.217  26.123  1.00  0.00     0.202 C 
BRANCH  28  29
ATOM     29  C   UNL A   1      43.435  22.113  25.509  1.00  0.00     0.261 C 
BRANCH  29  30
ATOM     30  O   UNL A   1      42.960  23.268  24.798  1.00  0.00    -0.460 OA
BRANCH  30  31
ATOM     31  C   UNL A   1      43.712  24.376  24.998  1.00  0.00     0.338 C 
ATOM     32  O   UNL A   1      44.823  24.600  24.543  1.00  0.00    -0.246 OA
BRANCH  31  33
ATOM     33  C   UNL A   1      43.034  25.370  25.849  1.00  0.00     0.060 A 
ATOM     34  C   UNL A   1      43.718  26.558  26.127  1.00  0.00     0.016 A 
ATOM     35  C   UNL A   1      41.867  25.052  26.540  1.00  0.00     0.016 A 
ATOM     36  C   UNL A   1      43.302  27.364  27.181  1.00  0.00     0.010 A 
ATOM     37  C   UNL A   1      41.476  25.828  27.624  1.00  0.00     0.010 A 
ATOM     38  C   UNL A   1      42.218  26.962  27.971  1.00  0.00    -0.014 A 
BRANCH  38  39
ATOM     39  C   UNL A   1      41.817  27.746  29.152  1.00  0.00     0.031 A 
ATOM     40  C   UNL A   1      42.504  27.547  30.469  1.00  0.00     0.074 A 
ATOM     41  C   UNL A   1      40.765  28.567  29.019  1.00  0.00     0.049 A 
ATOM     42  N   UNL A   1      42.281  28.144  31.610  1.00  0.00    -0.248 NA
ATOM     43  C   UNL A   1      43.566  26.529  30.517  1.00  0.00     0.031 C 
ATOM     44  C   UNL A   1      40.008  28.760  27.781  1.00  0.00     0.029 A 
ATOM     45  N   UNL A   1      40.134  29.362  29.932  1.00  0.00    -0.354 N 
ATOM     46  C   UNL A   1      43.181  27.587  32.513  1.00  0.00     0.074 A 
ATOM     47  C   UNL A   1      43.922  26.571  31.796  1.00  0.00     0.031 C 
ATOM     48  C   UNL A   1      38.997  29.607  28.018  1.00  0.00     0.029 A 
ATOM     49  C   UNL A   1      39.037  30.007  29.420  1.00  0.00     0.049 A 
ATOM     50  H   UNL A   1      40.435  29.463  30.864  1.00  0.00     0.167 HD
ATOM     51  C   UNL A   1      43.367  27.913  33.815  1.00  0.00     0.037 A 
ATOM     52  C   UNL A   1      38.165  30.831  30.025  1.00  0.00     0.037 A 
ATOM     53  C   UNL A   1      42.584  28.910  34.502  1.00  0.00     0.049 A 
ATOM     54  C   UNL A   1      38.394  31.173  31.468  1.00  0.00     0.074 A 
ATOM     55  C   UNL A   1      42.717  29.375  35.799  1.00  0.00     0.029 A 
ATOM     56  N   UNL A   1      41.501  29.582  33.947  1.00  0.00    -0.354 N 
ATOM     57  N   UNL A   1      39.323  30.735  32.284  1.00  0.00    -0.248 NA
ATOM     58  C   UNL A   1      37.470  32.142  32.068  1.00  0.00     0.031 C 
ATOM     59  C   UNL A   1      41.679  30.281  36.046  1.00  0.00     0.029 A 
ATOM     60  C   UNL A   1      40.939  30.432  34.883  1.00  0.00     0.049 A 
ATOM     61  H   UNL A   1      41.182  29.468  33.023  1.00  0.00     0.167 HD
ATOM     62  C   UNL A   1      39.120  31.399  33.485  1.00  0.00     0.074 A 
ATOM     63  C   UNL A   1      37.987  32.282  33.281  1.00  0.00     0.031 C 
ATOM     64  C   UNL A   1      39.806  31.295  34.651  1.00  0.00     0.037 A 
BRANCH  51  65
ATOM     65  C   UNL A   1      44.444  27.191  34.580  1.00  0.00     0.057 A 
ATOM     66  C   UNL A   1      44.197  25.979  35.240  1.00  0.00     0.134 A 
ATOM     67  C   UNL A   1      45.758  27.677  34.609  1.00  0.00     0.134 A 
ATOM     68  F   UNL A   1      42.962  25.454  35.257  1.00  0.00    -0.206 F 
ATOM     69  C   UNL A   1      45.209  25.291  35.915  1.00  0.00     0.040 A 
ATOM     70  C   UNL A   1      46.784  26.984  35.257  1.00  0.00     0.040 A 
ATOM     71  F   UNL A   1      46.074  28.826  33.993  1.00  0.00    -0.206 F 
ATOM     72  C   UNL A   1      46.509  25.789  35.919  1.00  0.00     0.006 A 
ENDBRANCH  51  65
BRANCH  52  73
ATOM     73  C   UNL A   1      37.050  31.418  29.246  1.00  0.00     0.057 A 
ATOM     74  C   UNL A   1      37.138  32.717  28.736  1.00  0.00     0.134 A 
ATOM     75  C   UNL A   1      35.889  30.689  28.962  1.00  0.00     0.134 A 
ATOM     76  F   UNL A   1      38.226  33.465  28.976  1.00  0.00    -0.206 F 
ATOM     77  C   UNL A   1      36.101  33.281  27.992  1.00  0.00     0.040 A 
ATOM     78  C   UNL A   1      34.857  31.231  28.196  1.00  0.00     0.040 A 
ATOM     79  F   UNL A   1      35.755  29.428  29.400  1.00  0.00    -0.206 F 
ATOM     80  C   UNL A   1      34.958  32.534  27.716  1.00  0.00     0.006 A 
ENDBRANCH  52  73
BRANCH  64  81
ATOM     81  C   UNL A   1      39.361  32.182  35.777  1.00  0.00     0.057 A 
ATOM     82  C   UNL A   1      39.872  33.475  35.949  1.00  0.00     0.134 A 
ATOM     83  C   UNL A   1      38.392  31.742  36.687  1.00  0.00     0.134 A 
ATOM     84  F   UNL A   1      40.814  33.951  35.119  1.00  0.00    -0.206 F 
ATOM     85  C   UNL A   1      39.457  34.287  37.005  1.00  0.00     0.040 A 
ATOM     86  C   UNL A   1      37.945  32.557  37.727  1.00  0.00     0.040 A 
ATOM     87  F   UNL A   1      37.856  30.517  36.574  1.00  0.00    -0.206 F 
ATOM     88  C   UNL A   1      38.485  33.830  37.894  1.00  0.00     0.006 A 
ENDBRANCH  64  81
ENDBRANCH  38  39
ENDBRANCH  31  33
ENDBRANCH  30  31
ENDBRANCH  29  30
ENDBRANCH  28  29
ENDBRANCH  27  28
ENDBRANCH   1  27
TORSDOF 18
ENDMDL
MODEL 2
REMARK VINA RESULT:     -11.0      5.192      9.645
REMARK SMILES CC[C@H](Oc1ccccc1/C=C1\SC(N)=[NH+]C1=O)C(=O)OCCOCCOC(=O)c1ccc(-c2c3nc(c(-c4c(F)cccc4F)c4ccc([nH]4)c(-c4c(F)cccc4F)c4nc(c(-c5c(F)cccc5F)c5ccc2[nH]5)C=C4)C=C3)cc1
REMARK SMILES IDX 23 1 22 2 21 3 19 4 20 5 3 6 2 7 1 8 4 9 5 10 6 11 10 12
REMARK SMILES IDX 7 13 9 14 8 15 11 16 12 17 13 18 17 19 14 20 16 21 18 22
REMARK SMILES IDX 15 23 24 27 25 28 26 29 27 30 28 31 29 32 30 33 31 34 83 35
REMARK SMILES IDX 32 36 82 37 33 38 34 39 35 40 76 41 36 42 81 43 75 44 77 45
REMARK SMILES IDX 37 46 80 47 74 48 73 49 38 51 64 52 47 53 63 54 48 55 51 56
REMARK SMILES IDX 62 57 78 58 49 59 50 60 61 62 79 63 52 64 39 65 40 66 45 67
REMARK SMILES IDX 41 68 42 69 44 70 46 71 43 72 65 73 66 74 71 75 67 76 68 77
REMARK SMILES IDX 70 78 72 79 69 80 53 81 54 82 59 83 55 84 56 85 58 86 60 87
REMARK SMILES IDX 57 88
REMARK H PARENT 16 24 15 25 15 26 77 50 51 61
REMARK Flexibility Score: inf
ROOT
ATOM      1  C   UNL A   1      32.151  30.953  26.863  1.00  0.00     0.202 C 
ENDROOT
BRANCH   1   2
ATOM      2  C   UNL A   1      31.793  30.020  25.701  1.00  0.00     0.261 C 
BRANCH   2   3
ATOM      3  O   UNL A   1      31.864  28.611  25.953  1.00  0.00    -0.461 OA
BRANCH   3   4
ATOM      4  C   UNL A   1      33.065  28.025  25.640  1.00  0.00     0.347 C 
ATOM      5  O   UNL A   1      33.860  28.473  24.820  1.00  0.00    -0.248 OA
BRANCH   4   6
ATOM      6  C   UNL A   1      33.197  26.622  26.265  1.00  0.00     0.282 C 
BRANCH   6   7
ATOM      7  C   UNL A   1      34.037  25.924  25.153  1.00  0.00     0.054 C 
ATOM      8  C   UNL A   1      34.889  24.705  25.436  1.00  0.00     0.008 C 
ENDBRANCH   6   7
BRANCH   6   9
ATOM      9  O   UNL A   1      31.886  26.145  26.620  1.00  0.00    -0.478 OA
BRANCH   9  10
ATOM     10  C   UNL A   1      31.404  24.969  26.101  1.00  0.00     0.127 A 
ATOM     11  C   UNL A   1      31.486  23.742  26.746  1.00  0.00     0.047 A 
ATOM     12  C   UNL A   1      30.864  24.976  24.801  1.00  0.00     0.018 A 
ATOM     13  C   UNL A   1      31.431  22.551  26.018  1.00  0.00     0.004 A 
ATOM     14  C   UNL A   1      30.842  23.788  24.051  1.00  0.00     0.012 A 
ATOM     15  C   UNL A   1      31.196  22.582  24.650  1.00  0.00     0.001 A 
BRANCH  12  16
ATOM     16  C   UNL A   1      29.867  25.992  24.412  1.00  0.00     0.036 C 
ATOM     17  C   UNL A   1      29.890  26.955  23.489  1.00  0.00     0.110 C 
ATOM     18  S   UNL A   1      31.168  27.491  22.498  1.00  0.00     0.006 SA
ATOM     19  C   UNL A   1      28.700  27.840  23.273  1.00  0.00     0.346 C 
ATOM     20  C   UNL A   1      30.291  28.984  22.250  1.00  0.00     0.314 C 
ATOM     21  N   UNL A   1      29.072  29.018  22.661  1.00  0.00    -0.200 N 
ATOM     22  O   UNL A   1      27.570  27.552  23.619  1.00  0.00    -0.240 OA
ATOM     23  N   UNL A   1      30.936  30.031  21.700  1.00  0.00    -0.281 N 
ATOM     24  H   UNL A   1      28.475  29.793  22.551  1.00  0.00     0.316 HD
ATOM     25  H   UNL A   1      31.870  29.936  21.406  1.00  0.00     0.302 HD
ATOM     26  H   UNL A   1      30.471  30.893  21.591  1.00  0.00     0.302 HD
ENDBRANCH  12  16
ENDBRANCH   9  10
ENDBRANCH   6   9
ENDBRANCH   4   6
ENDBRANCH   3   4
ENDBRANCH   2   3
ENDBRANCH   1   2
BRANCH   1  27
ATOM     27  O   UNL A   1      33.466  31.465  26.993  1.00  0.00    -0.374 OA
BRANCH  27  28
ATOM     28  C   UNL A   1      33.752  32.438  27.987  1.00  0.00     0.202 C 
BRANCH  28  29
ATOM     29  C   UNL A   1      34.828  32.173  29.046  1.00  0.00     0.261 C 
BRANCH  29  30
ATOM     30  O   UNL A   1      35.407  30.858  29.033  1.00  0.00    -0.460 OA
BRANCH  30  31
ATOM     31  C   UNL A   1      36.304  30.650  30.025  1.00  0.00     0.338 C 
ATOM     32  O   UNL A   1      36.233  31.055  31.175  1.00  0.00    -0.246 OA
BRANCH  31  33
ATOM     33  C   UNL A   1      37.442  29.821  29.589  1.00  0.00     0.060 A 
ATOM     34  C   UNL A   1      38.250  29.257  30.581  1.00  0.00     0.016 A 
ATOM     35  C   UNL A   1      37.842  29.789  28.254  1.00  0.00     0.016 A 
ATOM     36  C   UNL A   1      39.512  28.773  30.253  1.00  0.00     0.010 A 
ATOM     37  C   UNL A   1      39.119  29.352  27.928  1.00  0.00     0.010 A 
ATOM     38  C   UNL A   1      39.971  28.883  28.935  1.00  0.00    -0.014 A 
BRANCH  38  39
ATOM     39  C   UNL A   1      41.339  28.468  28.579  1.00  0.00     0.031 A 
ATOM     40  C   UNL A   1      41.634  27.044  28.216  1.00  0.00     0.074 A 
ATOM     41  C   UNL A   1      42.309  29.388  28.680  1.00  0.00     0.049 A 
ATOM     42  N   UNL A   1      42.774  26.501  27.881  1.00  0.00    -0.248 NA
ATOM     43  C   UNL A   1      40.505  26.100  28.257  1.00  0.00     0.031 C 
ATOM     44  C   UNL A   1      42.102  30.778  29.091  1.00  0.00     0.029 A 
ATOM     45  N   UNL A   1      43.656  29.289  28.480  1.00  0.00    -0.354 N 
ATOM     46  C   UNL A   1      42.504  25.156  27.657  1.00  0.00     0.074 A 
ATOM     47  C   UNL A   1      41.098  24.956  27.940  1.00  0.00     0.031 C 
ATOM     48  C   UNL A   1      43.288  31.400  29.132  1.00  0.00     0.029 A 
ATOM     49  C   UNL A   1      44.330  30.451  28.756  1.00  0.00     0.049 A 
ATOM     50  H   UNL A   1      44.100  28.467  28.168  1.00  0.00     0.167 HD
ATOM     51  C   UNL A   1      43.359  24.190  27.242  1.00  0.00     0.037 A 
ATOM     52  C   UNL A   1      45.647  30.713  28.707  1.00  0.00     0.037 A 
ATOM     53  C   UNL A   1      44.762  24.422  27.001  1.00  0.00     0.049 A 
ATOM     54  C   UNL A   1      46.572  29.624  28.247  1.00  0.00     0.074 A 
ATOM     55  C   UNL A   1      45.717  23.544  26.519  1.00  0.00     0.029 A 
ATOM     56  N   UNL A   1      45.415  25.624  27.250  1.00  0.00    -0.354 N 
ATOM     57  N   UNL A   1      46.291  28.385  27.918  1.00  0.00    -0.248 NA
ATOM     58  C   UNL A   1      47.991  29.975  28.125  1.00  0.00     0.031 C 
ATOM     59  C   UNL A   1      46.955  24.196  26.534  1.00  0.00     0.029 A 
ATOM     60  C   UNL A   1      46.763  25.501  26.962  1.00  0.00     0.049 A 
ATOM     61  H   UNL A   1      44.981  26.442  27.583  1.00  0.00     0.167 HD
ATOM     62  C   UNL A   1      47.491  27.816  27.517  1.00  0.00     0.074 A 
ATOM     63  C   UNL A   1      48.498  28.855  27.630  1.00  0.00     0.031 C 
ATOM     64  C   UNL A   1      47.742  26.553  27.090  1.00  0.00     0.037 A 
BRANCH  51  65
ATOM     65  C   UNL A   1      42.814  22.803  27.026  1.00  0.00     0.057 A 
ATOM     66  C   UNL A   1      42.607  22.281  25.741  1.00  0.00     0.134 A 
ATOM     67  C   UNL A   1      42.550  21.954  28.110  1.00  0.00     0.134 A 
ATOM     68  F   UNL A   1      42.836  23.036  24.656  1.00  0.00    -0.206 F 
ATOM     69  C   UNL A   1      42.140  20.979  25.544  1.00  0.00     0.040 A 
ATOM     70  C   UNL A   1      42.109  20.641  27.924  1.00  0.00     0.040 A 
ATOM     71  F   UNL A   1      42.732  22.379  29.369  1.00  0.00    -0.206 F 
ATOM     72  C   UNL A   1      41.897  20.152  26.637  1.00  0.00     0.006 A 
ENDBRANCH  51  65
BRANCH  52  73
ATOM     73  C   UNL A   1      46.139  32.068  29.048  1.00  0.00     0.057 A 
ATOM     74  C   UNL A   1      46.217  33.069  28.075  1.00  0.00     0.134 A 
ATOM     75  C   UNL A   1      46.507  32.408  30.355  1.00  0.00     0.134 A 
ATOM     76  F   UNL A   1      45.878  32.803  26.804  1.00  0.00    -0.206 F 
ATOM     77  C   UNL A   1      46.668  34.353  28.382  1.00  0.00     0.040 A 
ATOM     78  C   UNL A   1      46.933  33.696  30.682  1.00  0.00     0.040 A 
ATOM     79  F   UNL A   1      46.429  31.500  31.340  1.00  0.00    -0.206 F 
ATOM     80  C   UNL A   1      47.023  34.670  29.691  1.00  0.00     0.006 A 
ENDBRANCH  52  73
BRANCH  64  81
ATOM     81  C   UNL A   1      49.155  26.245  26.689  1.00  0.00     0.057 A 
ATOM     82  C   UNL A   1      50.065  25.651  27.573  1.00  0.00     0.134 A 
ATOM     83  C   UNL A   1      49.602  26.526  25.391  1.00  0.00     0.134 A 
ATOM     84  F   UNL A   1      49.703  25.370  28.834  1.00  0.00    -0.206 F 
ATOM     85  C   UNL A   1      51.378  25.378  27.190  1.00  0.00     0.040 A 
ATOM     86  C   UNL A   1      50.903  26.226  24.987  1.00  0.00     0.040 A 
ATOM     87  F   UNL A   1      48.778  27.087  24.492  1.00  0.00    -0.206 F 
ATOM     88  C   UNL A   1      51.798  25.659  25.891  1.00  0.00     0.006 A 
ENDBRANCH  64  81
ENDBRANCH  38  39
ENDBRANCH  31  33
ENDBRANCH  30  31
ENDBRANCH  29  30
ENDBRANCH  28  29
ENDBRANCH  27  28
ENDBRANCH   1  27
TORSDOF 18
ENDMDL
MODEL 3
REMARK VINA RESULT:     -10.8      4.024      7.013
REMARK SMILES CC[C@H](Oc1ccccc1/C=C1\SC(N)=[NH+]C1=O)C(=O)OCCOCCOC(=O)c1ccc(-c2c3nc(c(-c4c(F)cccc4F)c4ccc([nH]4)c(-c4c(F)cccc4F)c4nc(c(-c5c(F)cccc5F)c5ccc2[nH]5)C=C4)C=C3)cc1
REMARK SMILES IDX 23 1 22 2 21 3 19 4 20 5 3 6 2 7 1 8 4 9 5 10 6 11 10 12
REMARK SMILES IDX 7 13 9 14 8 15 11 16 12 17 13 18 17 19 14 20 16 21 18 22
REMARK SMILES IDX 15 23 24 27 25 28 26 29 27 30 28 31 29 32 30 33 31 34 83 35
REMARK SMILES IDX 32 36 82 37 33 38 34 39 35 40 76 41 36 42 81 43 75 44 77 45
REMARK SMILES IDX 37 46 80 47 74 48 73 49 38 51 64 52 47 53 63 54 48 55 51 56
REMARK SMILES IDX 62 57 78 58 49 59 50 60 61 62 79 63 52 64 39 65 40 66 45 67
REMARK SMILES IDX 41 68 42 69 44 70 46 71 43 72 65 73 66 74 71 75 67 76 68 77
REMARK SMILES IDX 70 78 72 79 69 80 53 81 54 82 59 83 55 84 56 85 58 86 60 87
REMARK SMILES IDX 57 88
REMARK H PARENT 16 24 15 25 15 26 77 50 51 61
REMARK Flexibility Score: inf
ROOT
ATOM      1  C   UNL A   1      35.305  23.475  24.424  1.00  0.00     0.202 C 
ENDROOT
BRANCH   1   2
ATOM      2  C   UNL A   1      35.154  24.655  25.390  1.00  0.00     0.261 C 
BRANCH   2   3
ATOM      3  O   UNL A   1      34.363  25.765  24.943  1.00  0.00    -0.461 OA
BRANCH   3   4
ATOM      4  C   UNL A   1      33.273  26.053  25.725  1.00  0.00     0.347 C 
ATOM      5  O   UNL A   1      32.575  25.209  26.278  1.00  0.00    -0.248 OA
BRANCH   4   6
ATOM      6  C   UNL A   1      32.889  27.544  25.643  1.00  0.00     0.282 C 
BRANCH   6   7
ATOM      7  C   UNL A   1      33.532  28.048  26.971  1.00  0.00     0.054 C 
ATOM      8  C   UNL A   1      34.513  29.200  27.000  1.00  0.00     0.008 C 
ENDBRANCH   6   7
BRANCH   6   9
ATOM      9  O   UNL A   1      31.471  27.647  25.414  1.00  0.00    -0.478 OA
BRANCH   9  10
ATOM     10  C   UNL A   1      30.977  28.482  24.444  1.00  0.00     0.127 A 
ATOM     11  C   UNL A   1      30.749  29.840  24.627  1.00  0.00     0.047 A 
ATOM     12  C   UNL A   1      30.594  27.928  23.207  1.00  0.00     0.018 A 
ATOM     13  C   UNL A   1      29.834  30.522  23.821  1.00  0.00     0.004 A 
ATOM     14  C   UNL A   1      29.645  28.592  22.412  1.00  0.00     0.012 A 
ATOM     15  C   UNL A   1      29.215  29.869  22.764  1.00  0.00     0.001 A 
BRANCH  12  16
ATOM     16  C   UNL A   1      31.500  27.013  22.486  1.00  0.00     0.036 C 
ATOM     17  C   UNL A   1      31.563  25.682  22.430  1.00  0.00     0.110 C 
ATOM     18  S   UNL A   1      30.702  24.508  23.316  1.00  0.00     0.006 SA
ATOM     19  C   UNL A   1      32.581  24.997  21.570  1.00  0.00     0.346 C 
ATOM     20  C   UNL A   1      31.942  23.347  22.895  1.00  0.00     0.314 C 
ATOM     21  N   UNL A   1      32.797  23.706  22.003  1.00  0.00    -0.200 N 
ATOM     22  O   UNL A   1      33.147  25.531  20.635  1.00  0.00    -0.240 OA
ATOM     23  N   UNL A   1      31.978  22.171  23.552  1.00  0.00    -0.281 N 
ATOM     24  H   UNL A   1      33.520  23.128  21.669  1.00  0.00     0.316 HD
ATOM     25  H   UNL A   1      31.291  21.960  24.224  1.00  0.00     0.302 HD
ATOM     26  H   UNL A   1      32.694  21.522  23.359  1.00  0.00     0.302 HD
ENDBRANCH  12  16
ENDBRANCH   9  10
ENDBRANCH   6   9
ENDBRANCH   4   6
ENDBRANCH   3   4
ENDBRANCH   2   3
ENDBRANCH   1   2
BRANCH   1  27
ATOM     27  O   UNL A   1      34.717  22.222  24.724  1.00  0.00    -0.374 OA
BRANCH  27  28
ATOM     28  C   UNL A   1      35.528  21.058  24.792  1.00  0.00     0.202 C 
BRANCH  28  29
ATOM     29  C   UNL A   1      36.753  21.019  25.713  1.00  0.00     0.261 C 
BRANCH  29  30
ATOM     30  O   UNL A   1      38.012  21.324  25.092  1.00  0.00    -0.460 OA
BRANCH  30  31
ATOM     31  C   UNL A   1      39.076  21.158  25.911  1.00  0.00     0.338 C 
ATOM     32  O   UNL A   1      39.701  20.127  26.103  1.00  0.00    -0.246 OA
BRANCH  31  33
ATOM     33  C   UNL A   1      39.465  22.409  26.588  1.00  0.00     0.060 A 
ATOM     34  C   UNL A   1      38.884  23.597  26.136  1.00  0.00     0.016 A 
ATOM     35  C   UNL A   1      40.537  22.443  27.478  1.00  0.00     0.016 A 
ATOM     36  C   UNL A   1      39.454  24.819  26.479  1.00  0.00     0.010 A 
ATOM     37  C   UNL A   1      41.139  23.657  27.784  1.00  0.00     0.010 A 
ATOM     38  C   UNL A   1      40.623  24.843  27.250  1.00  0.00    -0.014 A 
BRANCH  38  39
ATOM     39  C   UNL A   1      41.301  26.116  27.546  1.00  0.00     0.031 A 
ATOM     40  C   UNL A   1      42.717  26.345  27.110  1.00  0.00     0.074 A 
ATOM     41  C   UNL A   1      40.636  27.012  28.290  1.00  0.00     0.049 A 
ATOM     42  N   UNL A   1      43.471  27.398  27.286  1.00  0.00    -0.248 NA
ATOM     43  C   UNL A   1      43.381  25.238  26.403  1.00  0.00     0.031 C 
ATOM     44  C   UNL A   1      39.278  26.826  28.804  1.00  0.00     0.029 A 
ATOM     45  N   UNL A   1      41.018  28.233  28.769  1.00  0.00    -0.354 N 
ATOM     46  C   UNL A   1      44.695  27.091  26.703  1.00  0.00     0.074 A 
ATOM     47  C   UNL A   1      44.598  25.735  26.207  1.00  0.00     0.031 C 
ATOM     48  C   UNL A   1      38.946  27.891  29.547  1.00  0.00     0.029 A 
ATOM     49  C   UNL A   1      40.067  28.823  29.561  1.00  0.00     0.049 A 
ATOM     50  H   UNL A   1      41.888  28.647  28.567  1.00  0.00     0.167 HD
ATOM     51  C   UNL A   1      45.788  27.884  26.589  1.00  0.00     0.037 A 
ATOM     52  C   UNL A   1      40.107  29.992  30.224  1.00  0.00     0.037 A 
ATOM     53  C   UNL A   1      45.857  29.222  27.125  1.00  0.00     0.049 A 
ATOM     54  C   UNL A   1      41.330  30.849  30.082  1.00  0.00     0.074 A 
ATOM     55  C   UNL A   1      46.881  30.146  27.020  1.00  0.00     0.029 A 
ATOM     56  N   UNL A   1      44.860  29.815  27.891  1.00  0.00    -0.354 N 
ATOM     57  N   UNL A   1      42.439  30.604  29.424  1.00  0.00    -0.248 NA
ATOM     58  C   UNL A   1      41.299  32.155  30.749  1.00  0.00     0.031 C 
ATOM     59  C   UNL A   1      46.530  31.273  27.773  1.00  0.00     0.029 A 
ATOM     60  C   UNL A   1      45.258  31.079  28.291  1.00  0.00     0.049 A 
ATOM     61  H   UNL A   1      43.999  29.396  28.116  1.00  0.00     0.167 HD
ATOM     62  C   UNL A   1      43.226  31.738  29.570  1.00  0.00     0.074 A 
ATOM     63  C   UNL A   1      42.456  32.675  30.365  1.00  0.00     0.031 C 
ATOM     64  C   UNL A   1      44.470  31.987  29.089  1.00  0.00     0.037 A 
BRANCH  51  65
ATOM     65  C   UNL A   1      46.991  27.337  25.867  1.00  0.00     0.057 A 
ATOM     66  C   UNL A   1      47.187  27.542  24.494  1.00  0.00     0.134 A 
ATOM     67  C   UNL A   1      47.998  26.651  26.561  1.00  0.00     0.134 A 
ATOM     68  F   UNL A   1      46.265  28.188  23.765  1.00  0.00    -0.206 F 
ATOM     69  C   UNL A   1      48.325  27.068  23.836  1.00  0.00     0.040 A 
ATOM     70  C   UNL A   1      49.153  26.197  25.919  1.00  0.00     0.040 A 
ATOM     71  F   UNL A   1      47.886  26.424  27.878  1.00  0.00    -0.206 F 
ATOM     72  C   UNL A   1      49.316  26.399  24.550  1.00  0.00     0.006 A 
ENDBRANCH  51  65
BRANCH  52  73
ATOM     73  C   UNL A   1      38.933  30.424  31.018  1.00  0.00     0.057 A 
ATOM     74  C   UNL A   1      37.901  31.163  30.430  1.00  0.00     0.134 A 
ATOM     75  C   UNL A   1      38.794  30.082  32.368  1.00  0.00     0.134 A 
ATOM     76  F   UNL A   1      37.978  31.520  29.139  1.00  0.00    -0.206 F 
ATOM     77  C   UNL A   1      36.785  31.568  31.161  1.00  0.00     0.040 A 
ATOM     78  C   UNL A   1      37.670  30.457  33.105  1.00  0.00     0.040 A 
ATOM     79  F   UNL A   1      39.737  29.352  32.984  1.00  0.00    -0.206 F 
ATOM     80  C   UNL A   1      36.666  31.210  32.502  1.00  0.00     0.006 A 
ENDBRANCH  52  73
BRANCH  64  81
ATOM     81  C   UNL A   1      45.052  33.337  29.389  1.00  0.00     0.057 A 
ATOM     82  C   UNL A   1      44.829  34.443  28.558  1.00  0.00     0.134 A 
ATOM     83  C   UNL A   1      45.826  33.537  30.540  1.00  0.00     0.134 A 
ATOM     84  F   UNL A   1      44.107  34.314  27.434  1.00  0.00    -0.206 F 
ATOM     85  C   UNL A   1      45.383  35.691  28.844  1.00  0.00     0.040 A 
ATOM     86  C   UNL A   1      46.357  34.788  30.853  1.00  0.00     0.040 A 
ATOM     87  F   UNL A   1      46.070  32.522  31.382  1.00  0.00    -0.206 F 
ATOM     88  C   UNL A   1      46.143  35.867  29.999  1.00  0.00     0.006 A 
ENDBRANCH  64  81
ENDBRANCH  38  39
ENDBRANCH  31  33
ENDBRANCH  30  31
ENDBRANCH  29  30
ENDBRANCH  28  29
ENDBRANCH  27  28
ENDBRANCH   1  27
TORSDOF 18
ENDMDL
