MODEL 1
REMARK VINA RESULT:     -11.2      0.000      0.000
REMARK SMILES Cc1ccc(S(=O)(=O)Nc2ccccn2)cc1C(=O)OCCOCCOC(=O)c1ccc(-c2c3nc(c(-c4c(F)cccc4F)c4ccc([nH]4)c(-c4c(F)cccc4F)c4nc(c(-c5c(F)cccc5F)c5ccc2[nH]5)C=C4)C=C3)cc1
REMARK SMILES IDX 22 1 21 2 20 3 18 4 19 5 17 6 1 7 2 8 3 9 4 10 16 11 5 12
REMARK SMILES IDX 6 13 7 14 8 15 9 16 10 18 11 19 15 20 12 21 14 22 13 23
REMARK SMILES IDX 23 24 24 25 25 26 26 27 27 28 28 29 29 30 30 31 82 32 31 33
REMARK SMILES IDX 81 34 32 35 33 36 34 37 75 38 35 39 80 40 74 41 76 42 36 43
REMARK SMILES IDX 79 44 73 45 72 46 37 48 63 49 46 50 62 51 47 52 50 53 61 54
REMARK SMILES IDX 77 55 48 56 49 57 60 59 78 60 51 61 38 62 39 63 44 64 40 65
REMARK SMILES IDX 41 66 43 67 45 68 42 69 64 70 65 71 70 72 66 73 67 74 69 75
REMARK SMILES IDX 71 76 68 77 52 78 53 79 58 80 54 81 55 82 57 83 59 84 56 85
REMARK H PARENT 9 17 76 47 50 58
REMARK Flexibility Score: inf
ROOT
ATOM      1  C   UNL A   1      33.995  31.495  28.082  1.00  0.00     0.202 C 
ENDROOT
BRANCH   1   2
ATOM      2  C   UNL A   1      32.876  30.948  27.264  1.00  0.00     0.261 C 
BRANCH   2   3
ATOM      3  O   UNL A   1      32.904  29.506  27.269  1.00  0.00    -0.460 OA
BRANCH   3   4
ATOM      4  C   UNL A   1      33.614  28.821  26.346  1.00  0.00     0.338 C 
ATOM      5  O   UNL A   1      34.819  28.851  26.193  1.00  0.00    -0.246 OA
BRANCH   4   6
ATOM      6  C   UNL A   1      32.718  27.861  25.638  1.00  0.00     0.064 A 
ATOM      7  C   UNL A   1      31.041  29.572  24.604  1.00  0.00     0.045 C 
ATOM      8  C   UNL A   1      31.500  28.189  24.999  1.00  0.00    -0.036 A 
ATOM      9  C   UNL A   1      30.640  27.135  24.645  1.00  0.00     0.006 A 
ATOM     10  C   UNL A   1      30.932  25.815  24.989  1.00  0.00     0.022 A 
ATOM     11  C   UNL A   1      33.066  26.511  25.852  1.00  0.00     0.038 A 
ATOM     12  C   UNL A   1      32.138  25.505  25.618  1.00  0.00     0.088 A 
BRANCH  12  13
ATOM     13  S   UNL A   1      32.302  23.855  26.269  1.00  0.00     0.263 S 
ATOM     14  O   UNL A   1      31.452  23.817  27.445  1.00  0.00    -0.201 OA
ATOM     15  O   UNL A   1      32.065  22.962  25.156  1.00  0.00    -0.201 OA
BRANCH  13  16
ATOM     16  N   UNL A   1      33.866  23.590  26.735  1.00  0.00    -0.263 N 
ATOM     17  H   UNL A   1      34.126  23.900  27.633  1.00  0.00     0.182 HD
BRANCH  16  18
ATOM     18  C   UNL A   1      34.849  22.965  25.962  1.00  0.00     0.139 A 
ATOM     19  C   UNL A   1      35.096  21.606  25.887  1.00  0.00     0.048 A 
ATOM     20  N   UNL A   1      35.539  23.894  25.274  1.00  0.00    -0.239 NA
ATOM     21  C   UNL A   1      36.156  21.185  25.082  1.00  0.00     0.005 A 
ATOM     22  C   UNL A   1      36.569  23.458  24.520  1.00  0.00     0.113 A 
ATOM     23  C   UNL A   1      36.915  22.126  24.394  1.00  0.00     0.020 A 
ENDBRANCH  16  18
ENDBRANCH  13  16
ENDBRANCH  12  13
ENDBRANCH   4   6
ENDBRANCH   3   4
ENDBRANCH   2   3
ENDBRANCH   1   2
BRANCH   1  24
ATOM     24  O   UNL A   1      34.039  32.843  27.661  1.00  0.00    -0.374 OA
BRANCH  24  25
ATOM     25  C   UNL A   1      32.896  33.578  27.928  1.00  0.00     0.202 C 
BRANCH  25  26
ATOM     26  C   UNL A   1      33.124  34.826  28.765  1.00  0.00     0.261 C 
BRANCH  26  27
ATOM     27  O   UNL A   1      33.445  34.825  30.194  1.00  0.00    -0.460 OA
BRANCH  27  28
ATOM     28  C   UNL A   1      34.350  34.477  31.127  1.00  0.00     0.338 C 
ATOM     29  O   UNL A   1      34.442  35.159  32.147  1.00  0.00    -0.246 OA
BRANCH  28  30
ATOM     30  C   UNL A   1      35.354  33.405  30.952  1.00  0.00     0.060 A 
ATOM     31  C   UNL A   1      35.230  32.239  31.753  1.00  0.00     0.016 A 
ATOM     32  C   UNL A   1      36.423  33.526  30.083  1.00  0.00     0.016 A 
ATOM     33  C   UNL A   1      36.259  31.290  31.817  1.00  0.00     0.010 A 
ATOM     34  C   UNL A   1      37.462  32.605  30.182  1.00  0.00     0.010 A 
ATOM     35  C   UNL A   1      37.418  31.518  31.086  1.00  0.00    -0.014 A 
BRANCH  35  36
ATOM     36  C   UNL A   1      38.692  30.806  31.277  1.00  0.00     0.031 A 
ATOM     37  C   UNL A   1      38.994  29.642  30.421  1.00  0.00     0.074 A 
ATOM     38  C   UNL A   1      39.701  31.368  31.994  1.00  0.00     0.049 A 
ATOM     39  N   UNL A   1      40.061  28.936  30.545  1.00  0.00    -0.248 NA
ATOM     40  C   UNL A   1      38.110  29.131  29.375  1.00  0.00     0.031 C 
ATOM     41  C   UNL A   1      41.148  31.189  31.832  1.00  0.00     0.029 A 
ATOM     42  N   UNL A   1      39.640  32.304  33.030  1.00  0.00    -0.354 N 
ATOM     43  C   UNL A   1      40.189  28.158  29.425  1.00  0.00     0.074 A 
ATOM     44  C   UNL A   1      38.886  28.194  28.813  1.00  0.00     0.031 C 
ATOM     45  C   UNL A   1      41.798  31.737  32.876  1.00  0.00     0.029 A 
ATOM     46  C   UNL A   1      40.790  32.189  33.818  1.00  0.00     0.049 A 
ATOM     47  H   UNL A   1      38.905  32.941  33.180  1.00  0.00     0.167 HD
ATOM     48  C   UNL A   1      41.433  27.699  29.113  1.00  0.00     0.037 A 
ATOM     49  C   UNL A   1      40.701  31.934  35.148  1.00  0.00     0.037 A 
ATOM     50  C   UNL A   1      42.370  27.963  30.220  1.00  0.00     0.049 A 
ATOM     51  C   UNL A   1      41.319  30.588  35.359  1.00  0.00     0.074 A 
ATOM     52  C   UNL A   1      43.446  28.819  30.386  1.00  0.00     0.029 A 
ATOM     53  N   UNL A   1      42.057  27.487  31.498  1.00  0.00    -0.354 N 
ATOM     54  N   UNL A   1      41.356  29.692  34.408  1.00  0.00    -0.248 NA
ATOM     55  C   UNL A   1      42.092  30.207  36.534  1.00  0.00     0.031 C 
ATOM     56  C   UNL A   1      43.697  28.933  31.789  1.00  0.00     0.029 A 
ATOM     57  C   UNL A   1      42.806  28.116  32.474  1.00  0.00     0.049 A 
ATOM     58  H   UNL A   1      41.384  26.791  31.680  1.00  0.00     0.167 HD
ATOM     59  C   UNL A   1      42.247  28.728  34.749  1.00  0.00     0.074 A 
ATOM     60  C   UNL A   1      42.628  29.045  36.117  1.00  0.00     0.031 C 
ATOM     61  C   UNL A   1      42.659  27.761  33.886  1.00  0.00     0.037 A 
BRANCH  48  62
ATOM     62  C   UNL A   1      41.857  27.146  27.766  1.00  0.00     0.057 A 
ATOM     63  C   UNL A   1      41.991  28.005  26.656  1.00  0.00     0.134 A 
ATOM     64  C   UNL A   1      42.073  25.784  27.460  1.00  0.00     0.134 A 
ATOM     65  F   UNL A   1      41.779  29.324  26.767  1.00  0.00    -0.206 F 
ATOM     66  C   UNL A   1      42.334  27.554  25.371  1.00  0.00     0.040 A 
ATOM     67  C   UNL A   1      42.469  25.328  26.193  1.00  0.00     0.040 A 
ATOM     68  F   UNL A   1      41.856  24.806  28.344  1.00  0.00    -0.206 F 
ATOM     69  C   UNL A   1      42.596  26.213  25.139  1.00  0.00     0.006 A 
ENDBRANCH  48  62
BRANCH  49  70
ATOM     70  C   UNL A   1      39.500  32.572  35.763  1.00  0.00     0.057 A 
ATOM     71  C   UNL A   1      38.488  31.705  36.232  1.00  0.00     0.134 A 
ATOM     72  C   UNL A   1      39.540  33.846  36.343  1.00  0.00     0.134 A 
ATOM     73  F   UNL A   1      38.408  30.449  35.761  1.00  0.00    -0.206 F 
ATOM     74  C   UNL A   1      37.638  32.043  37.295  1.00  0.00     0.040 A 
ATOM     75  C   UNL A   1      38.709  34.187  37.426  1.00  0.00     0.040 A 
ATOM     76  F   UNL A   1      40.481  34.729  35.981  1.00  0.00    -0.206 F 
ATOM     77  C   UNL A   1      37.780  33.274  37.927  1.00  0.00     0.006 A 
ENDBRANCH  49  70
BRANCH  61  78
ATOM     78  C   UNL A   1      42.990  26.384  34.372  1.00  0.00     0.057 A 
ATOM     79  C   UNL A   1      42.071  25.586  35.078  1.00  0.00     0.134 A 
ATOM     80  C   UNL A   1      44.169  25.734  33.961  1.00  0.00     0.134 A 
ATOM     81  F   UNL A   1      40.855  26.036  35.420  1.00  0.00    -0.206 F 
ATOM     82  C   UNL A   1      42.335  24.259  35.413  1.00  0.00     0.040 A 
ATOM     83  C   UNL A   1      44.415  24.390  34.238  1.00  0.00     0.040 A 
ATOM     84  F   UNL A   1      45.108  26.363  33.239  1.00  0.00    -0.206 F 
ATOM     85  C   UNL A   1      43.506  23.653  34.982  1.00  0.00     0.006 A 
ENDBRANCH  61  78
ENDBRANCH  35  36
ENDBRANCH  28  30
ENDBRANCH  27  28
ENDBRANCH  26  27
ENDBRANCH  25  26
ENDBRANCH  24  25
ENDBRANCH   1  24
TORSDOF 17
ENDMDL
MODEL 2
REMARK VINA RESULT:     -11.2      2.809      4.953
REMARK SMILES Cc1ccc(S(=O)(=O)Nc2ccccn2)cc1C(=O)OCCOCCOC(=O)c1ccc(-c2c3nc(c(-c4c(F)cccc4F)c4ccc([nH]4)c(-c4c(F)cccc4F)c4nc(c(-c5c(F)cccc5F)c5ccc2[nH]5)C=C4)C=C3)cc1
REMARK SMILES IDX 22 1 21 2 20 3 18 4 19 5 17 6 1 7 2 8 3 9 4 10 16 11 5 12
REMARK SMILES IDX 6 13 7 14 8 15 9 16 10 18 11 19 15 20 12 21 14 22 13 23
REMARK SMILES IDX 23 24 24 25 25 26 26 27 27 28 28 29 29 30 30 31 82 32 31 33
REMARK SMILES IDX 81 34 32 35 33 36 34 37 75 38 35 39 80 40 74 41 76 42 36 43
REMARK SMILES IDX 79 44 73 45 72 46 37 48 63 49 46 50 62 51 47 52 50 53 61 54
REMARK SMILES IDX 77 55 48 56 49 57 60 59 78 60 51 61 38 62 39 63 44 64 40 65
REMARK SMILES IDX 41 66 43 67 45 68 42 69 64 70 65 71 70 72 66 73 67 74 69 75
REMARK SMILES IDX 71 76 68 77 52 78 53 79 58 80 54 81 55 82 57 83 59 84 56 85
REMARK H PARENT 9 17 76 47 50 58
REMARK Flexibility Score: inf
ROOT
ATOM      1  C   UNL A   1      33.152  25.614  26.318  1.00  0.00     0.202 C 
ENDROOT
BRANCH   1   2
ATOM      2  C   UNL A   1      32.791  24.191  26.573  1.00  0.00     0.261 C 
BRANCH   2   3
ATOM      3  O   UNL A   1      31.369  23.998  26.435  1.00  0.00    -0.460 OA
BRANCH   3   4
ATOM      4  C   UNL A   1      30.871  22.930  25.772  1.00  0.00     0.338 C 
ATOM      5  O   UNL A   1      29.980  22.196  26.149  1.00  0.00    -0.246 OA
BRANCH   4   6
ATOM      6  C   UNL A   1      31.456  22.879  24.400  1.00  0.00     0.064 A 
ATOM      7  C   UNL A   1      32.403  20.449  24.463  1.00  0.00     0.045 C 
ATOM      8  C   UNL A   1      32.261  21.837  23.886  1.00  0.00    -0.036 A 
ATOM      9  C   UNL A   1      32.969  22.081  22.696  1.00  0.00     0.006 A 
ATOM     10  C   UNL A   1      32.951  23.336  22.087  1.00  0.00     0.022 A 
ATOM     11  C   UNL A   1      31.335  24.096  23.697  1.00  0.00     0.038 A 
ATOM     12  C   UNL A   1      32.151  24.355  22.604  1.00  0.00     0.088 A 
BRANCH  12  13
ATOM     13  S   UNL A   1      32.404  25.988  21.939  1.00  0.00     0.263 S 
ATOM     14  O   UNL A   1      33.841  26.130  21.797  1.00  0.00    -0.201 OA
ATOM     15  O   UNL A   1      31.534  26.089  20.788  1.00  0.00    -0.201 OA
BRANCH  13  16
ATOM     16  N   UNL A   1      31.862  27.120  23.015  1.00  0.00    -0.263 N 
ATOM     17  H   UNL A   1      32.410  27.276  23.819  1.00  0.00     0.182 HD
BRANCH  16  18
ATOM     18  C   UNL A   1      30.691  27.873  22.882  1.00  0.00     0.139 A 
ATOM     19  C   UNL A   1      29.431  27.523  23.335  1.00  0.00     0.048 A 
ATOM     20  N   UNL A   1      30.967  29.022  22.237  1.00  0.00    -0.239 NA
ATOM     21  C   UNL A   1      28.381  28.401  23.065  1.00  0.00     0.005 A 
ATOM     22  C   UNL A   1      29.927  29.842  21.975  1.00  0.00     0.113 A 
ATOM     23  C   UNL A   1      28.627  29.576  22.363  1.00  0.00     0.020 A 
ENDBRANCH  16  18
ENDBRANCH  13  16
ENDBRANCH  12  13
ENDBRANCH   4   6
ENDBRANCH   3   4
ENDBRANCH   2   3
ENDBRANCH   1   2
BRANCH   1  24
ATOM     24  O   UNL A   1      31.891  26.251  26.347  1.00  0.00    -0.374 OA
BRANCH  24  25
ATOM     25  C   UNL A   1      31.905  27.557  26.810  1.00  0.00     0.202 C 
BRANCH  25  26
ATOM     26  C   UNL A   1      33.150  28.348  26.444  1.00  0.00     0.261 C 
BRANCH  26  27
ATOM     27  O   UNL A   1      34.132  28.849  27.406  1.00  0.00    -0.460 OA
BRANCH  27  28
ATOM     28  C   UNL A   1      34.866  29.910  27.791  1.00  0.00     0.338 C 
ATOM     29  O   UNL A   1      34.424  31.040  27.592  1.00  0.00    -0.246 OA
BRANCH  28  30
ATOM     30  C   UNL A   1      36.246  29.820  28.315  1.00  0.00     0.060 A 
ATOM     31  C   UNL A   1      37.316  30.104  27.427  1.00  0.00     0.016 A 
ATOM     32  C   UNL A   1      36.522  29.422  29.611  1.00  0.00     0.016 A 
ATOM     33  C   UNL A   1      38.644  29.818  27.774  1.00  0.00     0.010 A 
ATOM     34  C   UNL A   1      37.836  29.098  29.936  1.00  0.00     0.010 A 
ATOM     35  C   UNL A   1      38.894  29.234  29.010  1.00  0.00    -0.014 A 
BRANCH  35  36
ATOM     36  C   UNL A   1      40.160  28.592  29.400  1.00  0.00     0.031 A 
ATOM     37  C   UNL A   1      40.452  27.231  28.905  1.00  0.00     0.074 A 
ATOM     38  C   UNL A   1      41.173  29.322  29.937  1.00  0.00     0.049 A 
ATOM     39  N   UNL A   1      41.510  26.578  29.228  1.00  0.00    -0.248 NA
ATOM     40  C   UNL A   1      39.565  26.457  28.039  1.00  0.00     0.031 C 
ATOM     41  C   UNL A   1      42.618  29.091  29.839  1.00  0.00     0.029 A 
ATOM     42  N   UNL A   1      41.119  30.511  30.669  1.00  0.00    -0.354 N 
ATOM     43  C   UNL A   1      41.633  25.517  28.371  1.00  0.00     0.074 A 
ATOM     44  C   UNL A   1      40.331  25.392  27.766  1.00  0.00     0.031 C 
ATOM     45  C   UNL A   1      43.271  29.903  30.691  1.00  0.00     0.029 A 
ATOM     46  C   UNL A   1      42.266  30.610  31.464  1.00  0.00     0.049 A 
ATOM     47  H   UNL A   1      40.391  31.172  30.630  1.00  0.00     0.167 HD
ATOM     48  C   UNL A   1      42.872  24.976  28.207  1.00  0.00     0.037 A 
ATOM     49  C   UNL A   1      42.171  30.739  32.811  1.00  0.00     0.037 A 
ATOM     50  C   UNL A   1      43.810  25.530  29.201  1.00  0.00     0.049 A 
ATOM     51  C   UNL A   1      42.774  29.500  33.394  1.00  0.00     0.074 A 
ATOM     52  C   UNL A   1      44.894  26.389  29.127  1.00  0.00     0.029 A 
ATOM     53  N   UNL A   1      43.488  25.435  30.560  1.00  0.00    -0.354 N 
ATOM     54  N   UNL A   1      42.803  28.373  32.732  1.00  0.00    -0.248 NA
ATOM     55  C   UNL A   1      43.539  29.455  34.633  1.00  0.00     0.031 C 
ATOM     56  C   UNL A   1      45.143  26.888  30.443  1.00  0.00     0.029 A 
ATOM     57  C   UNL A   1      44.241  26.304  31.325  1.00  0.00     0.049 A 
ATOM     58  H   UNL A   1      42.807  24.824  30.925  1.00  0.00     0.167 HD
ATOM     59  C   UNL A   1      43.683  27.534  33.334  1.00  0.00     0.074 A 
ATOM     60  C   UNL A   1      44.063  28.218  34.561  1.00  0.00     0.031 C 
ATOM     61  C   UNL A   1      44.086  26.360  32.779  1.00  0.00     0.037 A 
BRANCH  48  62
ATOM     62  C   UNL A   1      43.294  24.064  27.071  1.00  0.00     0.057 A 
ATOM     63  C   UNL A   1      43.907  24.600  25.921  1.00  0.00     0.134 A 
ATOM     64  C   UNL A   1      43.065  22.673  26.998  1.00  0.00     0.134 A 
ATOM     65  F   UNL A   1      44.157  25.912  25.812  1.00  0.00    -0.206 F 
ATOM     66  C   UNL A   1      44.279  23.820  24.813  1.00  0.00     0.040 A 
ATOM     67  C   UNL A   1      43.481  21.875  25.921  1.00  0.00     0.040 A 
ATOM     68  F   UNL A   1      42.371  22.008  27.927  1.00  0.00    -0.206 F 
ATOM     69  C   UNL A   1      44.087  22.448  24.818  1.00  0.00     0.006 A 
ENDBRANCH  48  62
BRANCH  49  70
ATOM     70  C   UNL A   1      40.975  31.535  33.216  1.00  0.00     0.057 A 
ATOM     71  C   UNL A   1      41.064  32.938  33.068  1.00  0.00     0.134 A 
ATOM     72  C   UNL A   1      39.683  30.996  33.233  1.00  0.00     0.134 A 
ATOM     73  F   UNL A   1      42.268  33.531  32.994  1.00  0.00    -0.206 F 
ATOM     74  C   UNL A   1      39.940  33.744  32.834  1.00  0.00     0.040 A 
ATOM     75  C   UNL A   1      38.552  31.791  32.976  1.00  0.00     0.040 A 
ATOM     76  F   UNL A   1      39.500  29.673  33.345  1.00  0.00    -0.206 F 
ATOM     77  C   UNL A   1      38.681  33.161  32.741  1.00  0.00     0.006 A 
ENDBRANCH  49  70
BRANCH  61  78
ATOM     78  C   UNL A   1      44.401  25.171  33.633  1.00  0.00     0.057 A 
ATOM     79  C   UNL A   1      43.459  24.587  34.499  1.00  0.00     0.134 A 
ATOM     80  C   UNL A   1      45.593  24.445  33.454  1.00  0.00     0.134 A 
ATOM     81  F   UNL A   1      42.232  25.103  34.666  1.00  0.00    -0.206 F 
ATOM     82  C   UNL A   1      43.712  23.405  35.193  1.00  0.00     0.040 A 
ATOM     83  C   UNL A   1      45.829  23.229  34.094  1.00  0.00     0.040 A 
ATOM     84  F   UNL A   1      46.556  24.861  32.618  1.00  0.00    -0.206 F 
ATOM     85  C   UNL A   1      44.897  22.715  34.981  1.00  0.00     0.006 A 
ENDBRANCH  61  78
ENDBRANCH  35  36
ENDBRANCH  28  30
ENDBRANCH  27  28
ENDBRANCH  26  27
ENDBRANCH  25  26
ENDBRANCH  24  25
ENDBRANCH   1  24
TORSDOF 17
ENDMDL
MODEL 3
REMARK VINA RESULT:     -11.1      2.477      3.773
REMARK SMILES Cc1ccc(S(=O)(=O)Nc2ccccn2)cc1C(=O)OCCOCCOC(=O)c1ccc(-c2c3nc(c(-c4c(F)cccc4F)c4ccc([nH]4)c(-c4c(F)cccc4F)c4nc(c(-c5c(F)cccc5F)c5ccc2[nH]5)C=C4)C=C3)cc1
REMARK SMILES IDX 22 1 21 2 20 3 18 4 19 5 17 6 1 7 2 8 3 9 4 10 16 11 5 12
REMARK SMILES IDX 6 13 7 14 8 15 9 16 10 18 11 19 15 20 12 21 14 22 13 23
REMARK SMILES IDX 23 24 24 25 25 26 26 27 27 28 28 29 29 30 30 31 82 32 31 33
REMARK SMILES IDX 81 34 32 35 33 36 34 37 75 38 35 39 80 40 74 41 76 42 36 43
REMARK SMILES IDX 79 44 73 45 72 46 37 48 63 49 46 50 62 51 47 52 50 53 61 54
REMARK SMILES IDX 77 55 48 56 49 57 60 59 78 60 51 61 38 62 39 63 44 64 40 65
REMARK SMILES IDX 41 66 43 67 45 68 42 69 64 70 65 71 70 72 66 73 67 74 69 75
REMARK SMILES IDX 71 76 68 77 52 78 53 79 58 80 54 81 55 82 57 83 59 84 56 85
REMARK H PARENT 9 17 76 47 50 58
REMARK Flexibility Score: inf
ROOT
ATOM      1  C   UNL A   1      33.966  28.195  26.419  1.00  0.00     0.202 C 
ENDROOT
BRANCH   1   2
ATOM      2  C   UNL A   1      33.657  26.792  26.025  1.00  0.00     0.261 C 
BRANCH   2   3
ATOM      3  O   UNL A   1      32.943  26.763  24.774  1.00  0.00    -0.460 OA
BRANCH   3   4
ATOM      4  C   UNL A   1      33.097  25.737  23.907  1.00  0.00     0.338 C 
ATOM      5  O   UNL A   1      33.830  25.713  22.939  1.00  0.00    -0.246 OA
BRANCH   4   6
ATOM      6  C   UNL A   1      32.361  24.543  24.413  1.00  0.00     0.064 A 
ATOM      7  C   UNL A   1      29.962  25.565  24.506  1.00  0.00     0.045 C 
ATOM      8  C   UNL A   1      31.006  24.520  24.818  1.00  0.00    -0.036 A 
ATOM      9  C   UNL A   1      30.557  23.402  25.541  1.00  0.00     0.006 A 
ATOM     10  C   UNL A   1      31.433  22.387  25.926  1.00  0.00     0.022 A 
ATOM     11  C   UNL A   1      33.202  23.443  24.685  1.00  0.00     0.038 A 
ATOM     12  C   UNL A   1      32.767  22.421  25.518  1.00  0.00     0.088 A 
BRANCH  12  13
ATOM     13  S   UNL A   1      33.869  21.248  26.281  1.00  0.00     0.263 S 
ATOM     14  O   UNL A   1      35.107  21.334  25.529  1.00  0.00    -0.201 OA
ATOM     15  O   UNL A   1      33.843  21.541  27.697  1.00  0.00    -0.201 OA
BRANCH  13  16
ATOM     16  N   UNL A   1      33.256  19.721  26.125  1.00  0.00    -0.263 N 
ATOM     17  H   UNL A   1      32.926  19.283  26.944  1.00  0.00     0.182 HD
BRANCH  16  18
ATOM     18  C   UNL A   1      33.167  18.999  24.931  1.00  0.00     0.139 A 
ATOM     19  C   UNL A   1      32.395  19.323  23.829  1.00  0.00     0.048 A 
ATOM     20  N   UNL A   1      33.964  17.916  24.999  1.00  0.00    -0.239 NA
ATOM     21  C   UNL A   1      32.416  18.445  22.745  1.00  0.00     0.005 A 
ATOM     22  C   UNL A   1      33.948  17.077  23.943  1.00  0.00     0.113 A 
ATOM     23  C   UNL A   1      33.196  17.295  22.804  1.00  0.00     0.020 A 
ENDBRANCH  16  18
ENDBRANCH  13  16
ENDBRANCH  12  13
ENDBRANCH   4   6
ENDBRANCH   3   4
ENDBRANCH   2   3
ENDBRANCH   1   2
BRANCH   1  24
ATOM     24  O   UNL A   1      32.677  28.760  26.546  1.00  0.00    -0.374 OA
BRANCH  24  25
ATOM     25  C   UNL A   1      32.569  30.075  26.123  1.00  0.00     0.202 C 
BRANCH  25  26
ATOM     26  C   UNL A   1      32.879  31.113  27.188  1.00  0.00     0.261 C 
BRANCH  26  27
ATOM     27  O   UNL A   1      34.096  31.137  28.001  1.00  0.00    -0.460 OA
BRANCH  27  28
ATOM     28  C   UNL A   1      35.420  31.380  28.009  1.00  0.00     0.338 C 
ATOM     29  O   UNL A   1      35.818  32.499  27.687  1.00  0.00    -0.246 OA
BRANCH  28  30
ATOM     30  C   UNL A   1      36.454  30.350  28.243  1.00  0.00     0.060 A 
ATOM     31  C   UNL A   1      36.469  29.694  29.501  1.00  0.00     0.016 A 
ATOM     32  C   UNL A   1      37.425  30.049  27.305  1.00  0.00     0.016 A 
ATOM     33  C   UNL A   1      37.547  28.884  29.885  1.00  0.00     0.010 A 
ATOM     34  C   UNL A   1      38.514  29.280  27.705  1.00  0.00     0.010 A 
ATOM     35  C   UNL A   1      38.614  28.742  29.008  1.00  0.00    -0.014 A 
BRANCH  35  36
ATOM     36  C   UNL A   1      39.936  28.201  29.366  1.00  0.00     0.031 A 
ATOM     37  C   UNL A   1      40.331  26.879  28.840  1.00  0.00     0.074 A 
ATOM     38  C   UNL A   1      40.893  29.002  29.903  1.00  0.00     0.049 A 
ATOM     39  N   UNL A   1      41.446  26.310  29.133  1.00  0.00    -0.248 NA
ATOM     40  C   UNL A   1      39.498  26.049  27.971  1.00  0.00     0.031 C 
ATOM     41  C   UNL A   1      42.351  28.895  29.779  1.00  0.00     0.029 A 
ATOM     42  N   UNL A   1      40.753  30.168  30.660  1.00  0.00    -0.354 N 
ATOM     43  C   UNL A   1      41.642  25.279  28.253  1.00  0.00     0.074 A 
ATOM     44  C   UNL A   1      40.346  25.058  27.665  1.00  0.00     0.031 C 
ATOM     45  C   UNL A   1      42.948  29.742  30.637  1.00  0.00     0.029 A 
ATOM     46  C   UNL A   1      41.900  30.348  31.439  1.00  0.00     0.049 A 
ATOM     47  H   UNL A   1      39.971  30.767  30.646  1.00  0.00     0.167 HD
ATOM     48  C   UNL A   1      42.920  24.848  28.059  1.00  0.00     0.037 A 
ATOM     49  C   UNL A   1      41.817  30.442  32.790  1.00  0.00     0.037 A 
ATOM     50  C   UNL A   1      43.824  25.459  29.050  1.00  0.00     0.049 A 
ATOM     51  C   UNL A   1      42.531  29.247  33.339  1.00  0.00     0.074 A 
ATOM     52  C   UNL A   1      44.832  26.407  28.978  1.00  0.00     0.029 A 
ATOM     53  N   UNL A   1      43.534  25.311  30.411  1.00  0.00    -0.354 N 
ATOM     54  N   UNL A   1      42.643  28.140  32.653  1.00  0.00    -0.248 NA
ATOM     55  C   UNL A   1      43.318  29.243  34.565  1.00  0.00     0.031 C 
ATOM     56  C   UNL A   1      45.060  26.900  30.300  1.00  0.00     0.029 A 
ATOM     57  C   UNL A   1      44.225  26.226  31.182  1.00  0.00     0.049 A 
ATOM     58  H   UNL A   1      42.913  24.639  30.774  1.00  0.00     0.167 HD
ATOM     59  C   UNL A   1      43.600  27.366  33.225  1.00  0.00     0.074 A 
ATOM     60  C   UNL A   1      43.942  28.055  34.459  1.00  0.00     0.031 C 
ATOM     61  C   UNL A   1      44.090  26.241  32.639  1.00  0.00     0.037 A 
BRANCH  48  62
ATOM     62  C   UNL A   1      43.397  23.996  26.899  1.00  0.00     0.057 A 
ATOM     63  C   UNL A   1      43.949  24.603  25.753  1.00  0.00     0.134 A 
ATOM     64  C   UNL A   1      43.278  22.593  26.798  1.00  0.00     0.134 A 
ATOM     65  F   UNL A   1      44.092  25.933  25.669  1.00  0.00    -0.206 F 
ATOM     66  C   UNL A   1      44.367  23.879  24.624  1.00  0.00     0.040 A 
ATOM     67  C   UNL A   1      43.742  21.853  25.699  1.00  0.00     0.040 A 
ATOM     68  F   UNL A   1      42.652  21.855  27.721  1.00  0.00    -0.206 F 
ATOM     69  C   UNL A   1      44.284  22.496  24.601  1.00  0.00     0.006 A 
ENDBRANCH  48  62
BRANCH  49  70
ATOM     70  C   UNL A   1      40.566  31.128  33.229  1.00  0.00     0.057 A 
ATOM     71  C   UNL A   1      39.524  30.305  33.712  1.00  0.00     0.134 A 
ATOM     72  C   UNL A   1      40.552  32.461  33.661  1.00  0.00     0.134 A 
ATOM     73  F   UNL A   1      39.491  29.002  33.385  1.00  0.00    -0.206 F 
ATOM     74  C   UNL A   1      38.589  30.749  34.658  1.00  0.00     0.040 A 
ATOM     75  C   UNL A   1      39.633  32.910  34.626  1.00  0.00     0.040 A 
ATOM     76  F   UNL A   1      41.513  33.310  33.275  1.00  0.00    -0.206 F 
ATOM     77  C   UNL A   1      38.671  32.046  35.154  1.00  0.00     0.006 A 
ENDBRANCH  49  70
BRANCH  61  78
ATOM     78  C   UNL A   1      44.517  25.066  33.465  1.00  0.00     0.057 A 
ATOM     79  C   UNL A   1      45.846  24.608  33.503  1.00  0.00     0.134 A 
ATOM     80  C   UNL A   1      43.648  24.492  34.411  1.00  0.00     0.134 A 
ATOM     81  F   UNL A   1      46.809  25.155  32.747  1.00  0.00    -0.206 F 
ATOM     82  C   UNL A   1      46.265  23.601  34.371  1.00  0.00     0.040 A 
ATOM     83  C   UNL A   1      44.073  23.529  35.325  1.00  0.00     0.040 A 
ATOM     84  F   UNL A   1      42.366  24.871  34.518  1.00  0.00    -0.206 F 
ATOM     85  C   UNL A   1      45.380  23.066  35.295  1.00  0.00     0.006 A 
ENDBRANCH  61  78
ENDBRANCH  35  36
ENDBRANCH  28  30
ENDBRANCH  27  28
ENDBRANCH  26  27
ENDBRANCH  25  26
ENDBRANCH  24  25
ENDBRANCH   1  24
TORSDOF 17
ENDMDL
