MODEL 1
REMARK VINA RESULT:     -10.0      0.000      0.000
REMARK SMILES CC(C)[C@H]([NH2+][C@@H](C)C[C@@H]1CCCC[NH2+]1)C(=O)OCCOCCOC(=O)c1ccc(-c2c3nc(c(-c4c(F)cccc4F)c4ccc([nH]4)c(-c4c(F)cccc4F)c4nc(c(-c5c(F)cccc5F)c5ccc2[nH]5)C=C4)C=C3)cc1
REMARK SMILES IDX 19 1 18 2 17 3 15 4 16 5 4 6 2 7 1 8 3 9 5 10 6 13 7 14 8 15
REMARK SMILES IDX 9 16 10 17 14 18 11 19 13 20 12 23 20 24 21 25 22 26 23 27
REMARK SMILES IDX 24 28 25 29 26 30 27 31 79 32 28 33 78 34 29 35 30 36 31 37
REMARK SMILES IDX 72 38 32 39 77 40 71 41 73 42 33 43 76 44 70 45 69 46 34 48
REMARK SMILES IDX 60 49 43 50 59 51 44 52 47 53 58 54 74 55 45 56 46 57 57 59
REMARK SMILES IDX 75 60 48 61 35 62 36 63 41 64 37 65 38 66 40 67 42 68 39 69
REMARK SMILES IDX 61 70 62 71 67 72 63 73 64 74 66 75 68 76 65 77 49 78 50 79
REMARK SMILES IDX 55 80 51 81 52 82 54 83 56 84 53 85
REMARK H PARENT 5 11 5 12 14 21 14 22 73 47 47 58
REMARK Flexibility Score: inf
ROOT
ATOM      1  C   UNL A   1      36.060  23.006  25.192  1.00  0.00     0.202 C 
ENDROOT
BRANCH   1   2
ATOM      2  C   UNL A   1      35.218  22.556  26.391  1.00  0.00     0.261 C 
BRANCH   2   3
ATOM      3  O   UNL A   1      34.346  23.589  26.894  1.00  0.00    -0.459 OA
BRANCH   3   4
ATOM      4  C   UNL A   1      33.023  23.267  26.962  1.00  0.00     0.365 C 
ATOM      5  O   UNL A   1      32.500  22.692  27.912  1.00  0.00    -0.245 OA
BRANCH   4   6
ATOM      6  C   UNL A   1      32.227  23.617  25.695  1.00  0.00     0.296 C 
BRANCH   6   7
ATOM      7  C   UNL A   1      31.603  25.030  25.816  1.00  0.00     0.053 C 
ATOM      8  C   UNL A   1      32.593  26.116  25.370  1.00  0.00     0.014 C 
ATOM      9  C   UNL A   1      30.267  25.195  25.102  1.00  0.00     0.014 C 
ENDBRANCH   6   7
BRANCH   6  10
ATOM     10  N   UNL A   1      31.317  22.558  25.217  1.00  0.00    -0.332 N 
ATOM     11  H   UNL A   1      30.640  23.001  24.594  1.00  0.00     0.347 HD
ATOM     12  H   UNL A   1      30.939  22.150  26.072  1.00  0.00     0.347 HD
BRANCH  10  13
ATOM     13  C   UNL A   1      31.894  21.407  24.488  1.00  0.00     0.185 C 
ATOM     14  C   UNL A   1      32.897  22.016  23.484  1.00  0.00     0.075 C 
BRANCH  13  15
ATOM     15  C   UNL A   1      32.620  20.252  25.252  1.00  0.00     0.129 C 
BRANCH  15  16
ATOM     16  C   UNL A   1      33.316  19.146  24.422  1.00  0.00     0.188 C 
ATOM     17  C   UNL A   1      32.334  18.362  23.538  1.00  0.00     0.065 C 
ATOM     18  N   UNL A   1      34.064  18.193  25.251  1.00  0.00    -0.344 N 
ATOM     19  C   UNL A   1      33.127  17.437  22.606  1.00  0.00     0.012 C 
ATOM     20  C   UNL A   1      34.906  17.334  24.409  1.00  0.00     0.260 C 
ATOM     21  H   UNL A   1      33.408  17.612  25.773  1.00  0.00     0.346 HD
ATOM     22  H   UNL A   1      34.661  18.712  25.896  1.00  0.00     0.346 HD
ATOM     23  C   UNL A   1      34.083  16.545  23.395  1.00  0.00     0.062 C 
ENDBRANCH  15  16
ENDBRANCH  13  15
ENDBRANCH  10  13
ENDBRANCH   6  10
ENDBRANCH   4   6
ENDBRANCH   3   4
ENDBRANCH   2   3
ENDBRANCH   1   2
BRANCH   1  24
ATOM     24  O   UNL A   1      36.456  22.002  24.259  1.00  0.00    -0.374 OA
BRANCH  24  25
ATOM     25  C   UNL A   1      36.562  20.671  24.754  1.00  0.00     0.202 C 
BRANCH  25  26
ATOM     26  C   UNL A   1      37.973  20.146  25.042  1.00  0.00     0.261 C 
BRANCH  26  27
ATOM     27  O   UNL A   1      38.896  21.208  25.334  1.00  0.00    -0.460 OA
BRANCH  27  28
ATOM     28  C   UNL A   1      39.797  20.912  26.296  1.00  0.00     0.338 C 
ATOM     29  O   UNL A   1      40.345  19.835  26.497  1.00  0.00    -0.246 OA
BRANCH  28  30
ATOM     30  C   UNL A   1      40.207  22.133  27.007  1.00  0.00     0.060 A 
ATOM     31  C   UNL A   1      39.552  23.317  26.650  1.00  0.00     0.016 A 
ATOM     32  C   UNL A   1      41.255  22.145  27.932  1.00  0.00     0.016 A 
ATOM     33  C   UNL A   1      39.991  24.531  27.160  1.00  0.00     0.010 A 
ATOM     34  C   UNL A   1      41.700  23.371  28.441  1.00  0.00     0.010 A 
ATOM     35  C   UNL A   1      41.099  24.570  28.016  1.00  0.00    -0.014 A 
BRANCH  35  36
ATOM     36  C   UNL A   1      41.693  25.894  28.313  1.00  0.00     0.031 A 
ATOM     37  C   UNL A   1      43.044  26.229  27.749  1.00  0.00     0.074 A 
ATOM     38  C   UNL A   1      40.975  26.822  28.970  1.00  0.00     0.049 A 
ATOM     39  N   UNL A   1      43.675  27.375  27.731  1.00  0.00    -0.248 NA
ATOM     40  C   UNL A   1      43.782  25.127  27.113  1.00  0.00     0.031 C 
ATOM     41  C   UNL A   1      39.648  26.610  29.543  1.00  0.00     0.029 A 
ATOM     42  N   UNL A   1      41.255  28.137  29.237  1.00  0.00    -0.354 N 
ATOM     43  C   UNL A   1      44.874  27.135  27.073  1.00  0.00     0.074 A 
ATOM     44  C   UNL A   1      44.905  25.727  26.745  1.00  0.00     0.031 C 
ATOM     45  C   UNL A   1      39.218  27.763  30.083  1.00  0.00     0.029 A 
ATOM     46  C   UNL A   1      40.243  28.788  29.897  1.00  0.00     0.049 A 
ATOM     47  H   UNL A   1      42.100  28.572  28.982  1.00  0.00     0.167 HD
ATOM     48  C   UNL A   1      45.856  28.015  26.757  1.00  0.00     0.037 A 
ATOM     49  C   UNL A   1      40.150  30.072  30.293  1.00  0.00     0.037 A 
ATOM     50  C   UNL A   1      45.821  29.414  27.093  1.00  0.00     0.049 A 
ATOM     51  C   UNL A   1      41.263  31.024  29.950  1.00  0.00     0.074 A 
ATOM     52  C   UNL A   1      46.756  30.394  26.812  1.00  0.00     0.029 A 
ATOM     53  N   UNL A   1      44.794  30.029  27.793  1.00  0.00    -0.354 N 
ATOM     54  N   UNL A   1      42.373  30.798  29.289  1.00  0.00    -0.248 NA
ATOM     55  C   UNL A   1      41.100  32.417  30.391  1.00  0.00     0.031 C 
ATOM     56  C   UNL A   1      46.315  31.595  27.381  1.00  0.00     0.029 A 
ATOM     57  C   UNL A   1      45.082  31.372  27.973  1.00  0.00     0.049 A 
ATOM     58  H   UNL A   1      43.980  29.578  28.114  1.00  0.00     0.167 HD
ATOM     59  C   UNL A   1      43.030  32.019  29.215  1.00  0.00     0.074 A 
ATOM     60  C   UNL A   1      42.183  32.987  29.881  1.00  0.00     0.031 C 
ATOM     61  C   UNL A   1      44.226  32.315  28.647  1.00  0.00     0.037 A 
BRANCH  48  62
ATOM     62  C   UNL A   1      47.057  27.476  26.036  1.00  0.00     0.057 A 
ATOM     63  C   UNL A   1      48.157  26.941  26.721  1.00  0.00     0.134 A 
ATOM     64  C   UNL A   1      47.109  27.479  24.637  1.00  0.00     0.134 A 
ATOM     65  F   UNL A   1      48.177  26.922  28.062  1.00  0.00    -0.206 F 
ATOM     66  C   UNL A   1      49.273  26.450  26.042  1.00  0.00     0.040 A 
ATOM     67  C   UNL A   1      48.210  26.970  23.946  1.00  0.00     0.040 A 
ATOM     68  F   UNL A   1      46.091  27.976  23.918  1.00  0.00    -0.206 F 
ATOM     69  C   UNL A   1      49.299  26.459  24.648  1.00  0.00     0.006 A 
ENDBRANCH  48  62
BRANCH  49  70
ATOM     70  C   UNL A   1      38.951  30.530  31.036  1.00  0.00     0.057 A 
ATOM     71  C   UNL A   1      37.807  30.987  30.370  1.00  0.00     0.134 A 
ATOM     72  C   UNL A   1      38.919  30.519  32.436  1.00  0.00     0.134 A 
ATOM     73  F   UNL A   1      37.782  31.040  29.030  1.00  0.00    -0.206 F 
ATOM     74  C   UNL A   1      36.682  31.428  31.069  1.00  0.00     0.040 A 
ATOM     75  C   UNL A   1      37.793  30.934  33.147  1.00  0.00     0.040 A 
ATOM     76  F   UNL A   1      39.982  30.089  33.133  1.00  0.00    -0.206 F 
ATOM     77  C   UNL A   1      36.671  31.396  32.463  1.00  0.00     0.006 A 
ENDBRANCH  49  70
BRANCH  61  78
ATOM     78  C   UNL A   1      44.670  33.748  28.711  1.00  0.00     0.057 A 
ATOM     79  C   UNL A   1      45.442  34.236  29.772  1.00  0.00     0.134 A 
ATOM     80  C   UNL A   1      44.330  34.646  27.691  1.00  0.00     0.134 A 
ATOM     81  F   UNL A   1      45.793  33.429  30.785  1.00  0.00    -0.206 F 
ATOM     82  C   UNL A   1      45.832  35.574  29.834  1.00  0.00     0.040 A 
ATOM     83  C   UNL A   1      44.737  35.980  27.728  1.00  0.00     0.040 A 
ATOM     84  F   UNL A   1      43.601  34.240  26.640  1.00  0.00    -0.206 F 
ATOM     85  C   UNL A   1      45.482  36.450  28.808  1.00  0.00     0.006 A 
ENDBRANCH  61  78
ENDBRANCH  35  36
ENDBRANCH  28  30
ENDBRANCH  27  28
ENDBRANCH  26  27
ENDBRANCH  25  26
ENDBRANCH  24  25
ENDBRANCH   1  24
TORSDOF 19
ENDMDL
MODEL 2
REMARK VINA RESULT:     -10.0      1.094      6.422
REMARK SMILES CC(C)[C@H]([NH2+][C@@H](C)C[C@@H]1CCCC[NH2+]1)C(=O)OCCOCCOC(=O)c1ccc(-c2c3nc(c(-c4c(F)cccc4F)c4ccc([nH]4)c(-c4c(F)cccc4F)c4nc(c(-c5c(F)cccc5F)c5ccc2[nH]5)C=C4)C=C3)cc1
REMARK SMILES IDX 19 1 18 2 17 3 15 4 16 5 4 6 2 7 1 8 3 9 5 10 6 13 7 14 8 15
REMARK SMILES IDX 9 16 10 17 14 18 11 19 13 20 12 23 20 24 21 25 22 26 23 27
REMARK SMILES IDX 24 28 25 29 26 30 27 31 79 32 28 33 78 34 29 35 30 36 31 37
REMARK SMILES IDX 72 38 32 39 77 40 71 41 73 42 33 43 76 44 70 45 69 46 34 48
REMARK SMILES IDX 60 49 43 50 59 51 44 52 47 53 58 54 74 55 45 56 46 57 57 59
REMARK SMILES IDX 75 60 48 61 35 62 36 63 41 64 37 65 38 66 40 67 42 68 39 69
REMARK SMILES IDX 61 70 62 71 67 72 63 73 64 74 66 75 68 76 65 77 49 78 50 79
REMARK SMILES IDX 55 80 51 81 52 82 54 83 56 84 53 85
REMARK H PARENT 5 11 5 12 14 21 14 22 73 47 47 58
REMARK Flexibility Score: inf
ROOT
ATOM      1  C   UNL A   1      36.777  22.670  24.828  1.00  0.00     0.202 C 
ENDROOT
BRANCH   1   2
ATOM      2  C   UNL A   1      35.956  22.461  26.105  1.00  0.00     0.261 C 
BRANCH   2   3
ATOM      3  O   UNL A   1      34.741  23.239  26.134  1.00  0.00    -0.459 OA
BRANCH   3   4
ATOM      4  C   UNL A   1      33.711  22.703  26.848  1.00  0.00     0.365 C 
ATOM      5  O   UNL A   1      33.830  22.204  27.965  1.00  0.00    -0.245 OA
BRANCH   4   6
ATOM      6  C   UNL A   1      32.367  22.697  26.103  1.00  0.00     0.296 C 
BRANCH   6   7
ATOM      7  C   UNL A   1      31.383  23.707  26.745  1.00  0.00     0.053 C 
ATOM      8  C   UNL A   1      31.357  25.031  25.968  1.00  0.00     0.014 C 
ATOM      9  C   UNL A   1      29.970  23.173  26.946  1.00  0.00     0.014 C 
ENDBRANCH   6   7
BRANCH   6  10
ATOM     10  N   UNL A   1      31.813  21.358  25.824  1.00  0.00    -0.332 N 
ATOM     11  H   UNL A   1      30.799  21.458  25.768  1.00  0.00     0.347 HD
ATOM     12  H   UNL A   1      32.166  20.779  26.587  1.00  0.00     0.347 HD
BRANCH  10  13
ATOM     13  C   UNL A   1      32.252  20.653  24.599  1.00  0.00     0.185 C 
ATOM     14  C   UNL A   1      32.276  21.729  23.492  1.00  0.00     0.075 C 
BRANCH  13  15
ATOM     15  C   UNL A   1      33.614  19.886  24.555  1.00  0.00     0.129 C 
BRANCH  15  16
ATOM     16  C   UNL A   1      33.586  18.339  24.560  1.00  0.00     0.188 C 
ATOM     17  C   UNL A   1      32.587  17.768  25.577  1.00  0.00     0.065 C 
ATOM     18  N   UNL A   1      34.904  17.743  24.812  1.00  0.00    -0.344 N 
ATOM     19  C   UNL A   1      32.473  16.252  25.373  1.00  0.00     0.012 C 
ATOM     20  C   UNL A   1      34.871  16.299  24.550  1.00  0.00     0.260 C 
ATOM     21  H   UNL A   1      35.166  17.902  25.785  1.00  0.00     0.346 HD
ATOM     22  H   UNL A   1      35.588  18.177  24.191  1.00  0.00     0.346 HD
ATOM     23  C   UNL A   1      33.846  15.583  25.424  1.00  0.00     0.062 C 
ENDBRANCH  15  16
ENDBRANCH  13  15
ENDBRANCH  10  13
ENDBRANCH   6  10
ENDBRANCH   4   6
ENDBRANCH   3   4
ENDBRANCH   2   3
ENDBRANCH   1   2
BRANCH   1  24
ATOM     24  O   UNL A   1      37.383  21.518  24.246  1.00  0.00    -0.374 OA
BRANCH  24  25
ATOM     25  C   UNL A   1      37.367  20.323  25.021  1.00  0.00     0.202 C 
BRANCH  25  26
ATOM     26  C   UNL A   1      38.675  19.526  25.098  1.00  0.00     0.261 C 
BRANCH  26  27
ATOM     27  O   UNL A   1      39.280  19.604  26.398  1.00  0.00    -0.460 OA
BRANCH  27  28
ATOM     28  C   UNL A   1      40.603  19.876  26.380  1.00  0.00     0.338 C 
ATOM     29  O   UNL A   1      41.500  19.179  25.920  1.00  0.00    -0.246 OA
BRANCH  28  30
ATOM     30  C   UNL A   1      40.850  21.252  26.836  1.00  0.00     0.060 A 
ATOM     31  C   UNL A   1      40.243  22.276  26.100  1.00  0.00     0.016 A 
ATOM     32  C   UNL A   1      41.715  21.548  27.894  1.00  0.00     0.016 A 
ATOM     33  C   UNL A   1      40.555  23.601  26.370  1.00  0.00     0.010 A 
ATOM     34  C   UNL A   1      42.032  22.885  28.162  1.00  0.00     0.010 A 
ATOM     35  C   UNL A   1      41.490  23.910  27.366  1.00  0.00    -0.014 A 
BRANCH  35  36
ATOM     36  C   UNL A   1      41.990  25.303  27.433  1.00  0.00     0.031 A 
ATOM     37  C   UNL A   1      41.199  26.323  28.202  1.00  0.00     0.074 A 
ATOM     38  C   UNL A   1      43.194  25.612  26.921  1.00  0.00     0.049 A 
ATOM     39  N   UNL A   1      41.527  27.544  28.539  1.00  0.00    -0.248 NA
ATOM     40  C   UNL A   1      39.863  25.912  28.659  1.00  0.00     0.031 C 
ATOM     41  C   UNL A   1      44.051  24.696  26.173  1.00  0.00     0.029 A 
ATOM     42  N   UNL A   1      43.912  26.779  26.980  1.00  0.00    -0.354 N 
ATOM     43  C   UNL A   1      40.446  28.040  29.257  1.00  0.00     0.074 A 
ATOM     44  C   UNL A   1      39.435  27.006  29.270  1.00  0.00     0.031 C 
ATOM     45  C   UNL A   1      45.193  25.330  25.855  1.00  0.00     0.029 A 
ATOM     46  C   UNL A   1      45.140  26.696  26.372  1.00  0.00     0.049 A 
ATOM     47  H   UNL A   1      43.580  27.596  27.415  1.00  0.00     0.167 HD
ATOM     48  C   UNL A   1      40.315  29.246  29.862  1.00  0.00     0.037 A 
ATOM     49  C   UNL A   1      46.115  27.617  26.258  1.00  0.00     0.037 A 
ATOM     50  C   UNL A   1      41.324  30.271  29.839  1.00  0.00     0.049 A 
ATOM     51  C   UNL A   1      45.938  28.955  26.922  1.00  0.00     0.074 A 
ATOM     52  C   UNL A   1      41.298  31.523  30.429  1.00  0.00     0.029 A 
ATOM     53  N   UNL A   1      42.541  30.163  29.182  1.00  0.00    -0.354 N 
ATOM     54  N   UNL A   1      44.930  29.399  27.635  1.00  0.00    -0.248 NA
ATOM     55  C   UNL A   1      47.042  29.914  26.781  1.00  0.00     0.031 C 
ATOM     56  C   UNL A   1      42.482  32.189  30.091  1.00  0.00     0.029 A 
ATOM     57  C   UNL A   1      43.266  31.334  29.333  1.00  0.00     0.049 A 
ATOM     58  H   UNL A   1      42.844  29.371  28.683  1.00  0.00     0.167 HD
ATOM     59  C   UNL A   1      45.285  30.677  28.046  1.00  0.00     0.074 A 
ATOM     60  C   UNL A   1      46.612  30.928  27.519  1.00  0.00     0.031 C 
ATOM     61  C   UNL A   1      44.582  31.564  28.793  1.00  0.00     0.037 A 
BRANCH  48  62
ATOM     62  C   UNL A   1      39.023  29.520  30.576  1.00  0.00     0.057 A 
ATOM     63  C   UNL A   1      37.956  30.180  29.952  1.00  0.00     0.134 A 
ATOM     64  C   UNL A   1      38.838  29.105  31.901  1.00  0.00     0.134 A 
ATOM     65  F   UNL A   1      38.073  30.617  28.689  1.00  0.00    -0.206 F 
ATOM     66  C   UNL A   1      36.762  30.440  30.626  1.00  0.00     0.040 A 
ATOM     67  C   UNL A   1      37.639  29.338  32.578  1.00  0.00     0.040 A 
ATOM     68  F   UNL A   1      39.818  28.467  32.558  1.00  0.00    -0.206 F 
ATOM     69  C   UNL A   1      36.599  30.012  31.943  1.00  0.00     0.006 A 
ENDBRANCH  48  62
BRANCH  49  70
ATOM     70  C   UNL A   1      47.352  27.292  25.507  1.00  0.00     0.057 A 
ATOM     71  C   UNL A   1      48.458  26.705  26.134  1.00  0.00     0.134 A 
ATOM     72  C   UNL A   1      47.457  27.560  24.136  1.00  0.00     0.134 A 
ATOM     73  F   UNL A   1      48.427  26.442  27.449  1.00  0.00    -0.206 F 
ATOM     74  C   UNL A   1      49.626  26.409  25.429  1.00  0.00     0.040 A 
ATOM     75  C   UNL A   1      48.609  27.247  23.414  1.00  0.00     0.040 A 
ATOM     76  F   UNL A   1      46.432  28.118  23.476  1.00  0.00    -0.206 F 
ATOM     77  C   UNL A   1      49.702  26.675  24.063  1.00  0.00     0.006 A 
ENDBRANCH  49  70
BRANCH  61  78
ATOM     78  C   UNL A   1      45.246  32.875  29.093  1.00  0.00     0.057 A 
ATOM     79  C   UNL A   1      46.049  33.056  30.226  1.00  0.00     0.134 A 
ATOM     80  C   UNL A   1      45.089  33.968  28.230  1.00  0.00     0.134 A 
ATOM     81  F   UNL A   1      46.230  32.051  31.098  1.00  0.00    -0.206 F 
ATOM     82  C   UNL A   1      46.645  34.285  30.509  1.00  0.00     0.040 A 
ATOM     83  C   UNL A   1      45.702  35.195  28.489  1.00  0.00     0.040 A 
ATOM     84  F   UNL A   1      44.342  33.860  27.122  1.00  0.00    -0.206 F 
ATOM     85  C   UNL A   1      46.474  35.358  29.637  1.00  0.00     0.006 A 
ENDBRANCH  61  78
ENDBRANCH  35  36
ENDBRANCH  28  30
ENDBRANCH  27  28
ENDBRANCH  26  27
ENDBRANCH  25  26
ENDBRANCH  24  25
ENDBRANCH   1  24
TORSDOF 19
ENDMDL
MODEL 3
REMARK VINA RESULT:     -10.0      4.936     10.174
REMARK SMILES CC(C)[C@H]([NH2+][C@@H](C)C[C@@H]1CCCC[NH2+]1)C(=O)OCCOCCOC(=O)c1ccc(-c2c3nc(c(-c4c(F)cccc4F)c4ccc([nH]4)c(-c4c(F)cccc4F)c4nc(c(-c5c(F)cccc5F)c5ccc2[nH]5)C=C4)C=C3)cc1
REMARK SMILES IDX 19 1 18 2 17 3 15 4 16 5 4 6 2 7 1 8 3 9 5 10 6 13 7 14 8 15
REMARK SMILES IDX 9 16 10 17 14 18 11 19 13 20 12 23 20 24 21 25 22 26 23 27
REMARK SMILES IDX 24 28 25 29 26 30 27 31 79 32 28 33 78 34 29 35 30 36 31 37
REMARK SMILES IDX 72 38 32 39 77 40 71 41 73 42 33 43 76 44 70 45 69 46 34 48
REMARK SMILES IDX 60 49 43 50 59 51 44 52 47 53 58 54 74 55 45 56 46 57 57 59
REMARK SMILES IDX 75 60 48 61 35 62 36 63 41 64 37 65 38 66 40 67 42 68 39 69
REMARK SMILES IDX 61 70 62 71 67 72 63 73 64 74 66 75 68 76 65 77 49 78 50 79
REMARK SMILES IDX 55 80 51 81 52 82 54 83 56 84 53 85
REMARK H PARENT 5 11 5 12 14 21 14 22 73 47 47 58
REMARK Flexibility Score: inf
ROOT
ATOM      1  C   UNL A   1      32.816  29.521  27.161  1.00  0.00     0.202 C 
ENDROOT
BRANCH   1   2
ATOM      2  C   UNL A   1      32.754  28.132  26.515  1.00  0.00     0.261 C 
BRANCH   2   3
ATOM      3  O   UNL A   1      33.913  27.826  25.712  1.00  0.00    -0.459 OA
BRANCH   3   4
ATOM      4  C   UNL A   1      33.707  27.787  24.365  1.00  0.00     0.365 C 
ATOM      5  O   UNL A   1      34.233  28.553  23.563  1.00  0.00    -0.245 OA
BRANCH   4   6
ATOM      6  C   UNL A   1      32.680  26.734  23.918  1.00  0.00     0.296 C 
BRANCH   6   7
ATOM      7  C   UNL A   1      33.356  25.351  23.747  1.00  0.00     0.053 C 
ATOM      8  C   UNL A   1      32.831  24.342  24.779  1.00  0.00     0.014 C 
ATOM      9  C   UNL A   1      33.270  24.774  22.339  1.00  0.00     0.014 C 
ENDBRANCH   6   7
BRANCH   6  10
ATOM     10  N   UNL A   1      31.798  27.152  22.812  1.00  0.00    -0.332 N 
ATOM     11  H   UNL A   1      31.621  26.327  22.239  1.00  0.00     0.347 HD
ATOM     12  H   UNL A   1      32.308  27.911  22.359  1.00  0.00     0.347 HD
BRANCH  10  13
ATOM     13  C   UNL A   1      30.483  27.746  23.142  1.00  0.00     0.185 C 
ATOM     14  C   UNL A   1      29.820  26.756  24.125  1.00  0.00     0.075 C 
BRANCH  13  15
ATOM     15  C   UNL A   1      30.377  29.179  23.758  1.00  0.00     0.129 C 
BRANCH  15  16
ATOM     16  C   UNL A   1      29.355  30.168  23.146  1.00  0.00     0.188 C 
ATOM     17  C   UNL A   1      29.345  30.134  21.610  1.00  0.00     0.065 C 
ATOM     18  N   UNL A   1      29.567  31.553  23.584  1.00  0.00    -0.344 N 
ATOM     19  C   UNL A   1      28.174  30.981  21.098  1.00  0.00     0.012 C 
ATOM     20  C   UNL A   1      28.430  32.393  23.187  1.00  0.00     0.260 C 
ATOM     21  H   UNL A   1      30.418  31.916  23.154  1.00  0.00     0.346 HD
ATOM     22  H   UNL A   1      29.653  31.570  24.600  1.00  0.00     0.346 HD
ATOM     23  C   UNL A   1      28.218  32.394  21.676  1.00  0.00     0.062 C 
ENDBRANCH  15  16
ENDBRANCH  13  15
ENDBRANCH  10  13
ENDBRANCH   6  10
ENDBRANCH   4   6
ENDBRANCH   3   4
ENDBRANCH   2   3
ENDBRANCH   1   2
BRANCH   1  24
ATOM     24  O   UNL A   1      32.617  30.647  26.309  1.00  0.00    -0.374 OA
BRANCH  24  25
ATOM     25  C   UNL A   1      31.466  31.448  26.562  1.00  0.00     0.202 C 
BRANCH  25  26
ATOM     26  C   UNL A   1      31.710  32.910  26.956  1.00  0.00     0.261 C 
BRANCH  26  27
ATOM     27  O   UNL A   1      33.092  33.168  27.251  1.00  0.00    -0.460 OA
BRANCH  27  28
ATOM     28  C   UNL A   1      33.291  34.048  28.255  1.00  0.00     0.338 C 
ATOM     29  O   UNL A   1      32.584  35.001  28.562  1.00  0.00    -0.246 OA
BRANCH  28  30
ATOM     30  C   UNL A   1      34.414  33.616  29.102  1.00  0.00     0.060 A 
ATOM     31  C   UNL A   1      35.654  34.212  28.850  1.00  0.00     0.016 A 
ATOM     32  C   UNL A   1      34.287  32.601  30.055  1.00  0.00     0.016 A 
ATOM     33  C   UNL A   1      36.790  33.743  29.496  1.00  0.00     0.010 A 
ATOM     34  C   UNL A   1      35.435  32.127  30.702  1.00  0.00     0.010 A 
ATOM     35  C   UNL A   1      36.694  32.665  30.385  1.00  0.00    -0.014 A 
BRANCH  35  36
ATOM     36  C   UNL A   1      37.955  32.032  30.837  1.00  0.00     0.031 A 
ATOM     37  C   UNL A   1      38.475  32.345  32.211  1.00  0.00     0.074 A 
ATOM     38  C   UNL A   1      38.550  31.097  30.076  1.00  0.00     0.049 A 
ATOM     39  N   UNL A   1      39.450  31.782  32.877  1.00  0.00    -0.248 NA
ATOM     40  C   UNL A   1      37.802  33.434  32.936  1.00  0.00     0.031 C 
ATOM     41  C   UNL A   1      38.119  30.703  28.736  1.00  0.00     0.029 A 
ATOM     42  N   UNL A   1      39.627  30.291  30.337  1.00  0.00    -0.354 N 
ATOM     43  C   UNL A   1      39.499  32.438  34.101  1.00  0.00     0.074 A 
ATOM     44  C   UNL A   1      38.486  33.470  34.071  1.00  0.00     0.031 C 
ATOM     45  C   UNL A   1      38.916  29.714  28.296  1.00  0.00     0.029 A 
ATOM     46  C   UNL A   1      39.913  29.413  29.321  1.00  0.00     0.049 A 
ATOM     47  H   UNL A   1      40.146  30.336  31.172  1.00  0.00     0.167 HD
ATOM     48  C   UNL A   1      40.308  32.191  35.160  1.00  0.00     0.037 A 
ATOM     49  C   UNL A   1      40.866  28.466  29.236  1.00  0.00     0.037 A 
ATOM     50  C   UNL A   1      41.318  31.167  35.180  1.00  0.00     0.049 A 
ATOM     51  C   UNL A   1      41.765  28.225  30.418  1.00  0.00     0.074 A 
ATOM     52  C   UNL A   1      42.183  30.825  36.204  1.00  0.00     0.029 A 
ATOM     53  N   UNL A   1      41.602  30.321  34.117  1.00  0.00    -0.354 N 
ATOM     54  N   UNL A   1      41.774  28.821  31.586  1.00  0.00    -0.248 NA
ATOM     55  C   UNL A   1      42.774  27.166  30.275  1.00  0.00     0.031 C 
ATOM     56  C   UNL A   1      43.021  29.802  35.745  1.00  0.00     0.029 A 
ATOM     57  C   UNL A   1      42.644  29.472  34.453  1.00  0.00     0.049 A 
ATOM     58  H   UNL A   1      41.131  30.324  33.253  1.00  0.00     0.167 HD
ATOM     59  C   UNL A   1      42.771  28.198  32.325  1.00  0.00     0.074 A 
ATOM     60  C   UNL A   1      43.330  27.162  31.479  1.00  0.00     0.031 C 
ATOM     61  C   UNL A   1      43.188  28.455  33.590  1.00  0.00     0.037 A 
BRANCH  48  62
ATOM     62  C   UNL A   1      40.143  33.065  36.369  1.00  0.00     0.057 A 
ATOM     63  C   UNL A   1      39.221  32.765  37.382  1.00  0.00     0.134 A 
ATOM     64  C   UNL A   1      40.926  34.214  36.531  1.00  0.00     0.134 A 
ATOM     65  F   UNL A   1      38.429  31.687  37.281  1.00  0.00    -0.206 F 
ATOM     66  C   UNL A   1      39.067  33.588  38.498  1.00  0.00     0.040 A 
ATOM     67  C   UNL A   1      40.798  35.033  37.655  1.00  0.00     0.040 A 
ATOM     68  F   UNL A   1      41.829  34.560  35.601  1.00  0.00    -0.206 F 
ATOM     69  C   UNL A   1      39.862  34.725  38.640  1.00  0.00     0.006 A 
ENDBRANCH  48  62
BRANCH  49  70
ATOM     70  C   UNL A   1      40.998  27.662  27.996  1.00  0.00     0.057 A 
ATOM     71  C   UNL A   1      40.308  26.455  27.829  1.00  0.00     0.134 A 
ATOM     72  C   UNL A   1      41.818  28.086  26.943  1.00  0.00     0.134 A 
ATOM     73  F   UNL A   1      39.522  25.985  28.808  1.00  0.00    -0.206 F 
ATOM     74  C   UNL A   1      40.440  25.693  26.666  1.00  0.00     0.040 A 
ATOM     75  C   UNL A   1      41.941  27.347  25.766  1.00  0.00     0.040 A 
ATOM     76  F   UNL A   1      42.502  29.235  27.040  1.00  0.00    -0.206 F 
ATOM     77  C   UNL A   1      41.254  26.142  25.628  1.00  0.00     0.006 A 
ENDBRANCH  49  70
BRANCH  61  78
ATOM     78  C   UNL A   1      44.287  27.588  34.131  1.00  0.00     0.057 A 
ATOM     79  C   UNL A   1      45.633  27.966  34.054  1.00  0.00     0.134 A 
ATOM     80  C   UNL A   1      43.993  26.365  34.748  1.00  0.00     0.134 A 
ATOM     81  F   UNL A   1      45.983  29.120  33.465  1.00  0.00    -0.206 F 
ATOM     82  C   UNL A   1      46.651  27.143  34.540  1.00  0.00     0.040 A 
ATOM     83  C   UNL A   1      45.000  25.547  35.263  1.00  0.00     0.040 A 
ATOM     84  F   UNL A   1      42.723  25.949  34.866  1.00  0.00    -0.206 F 
ATOM     85  C   UNL A   1      46.334  25.931  35.149  1.00  0.00     0.006 A 
ENDBRANCH  61  78
ENDBRANCH  35  36
ENDBRANCH  28  30
ENDBRANCH  27  28
ENDBRANCH  26  27
ENDBRANCH  25  26
ENDBRANCH  24  25
ENDBRANCH   1  24
TORSDOF 19
ENDMDL
