MODEL 1
REMARK VINA RESULT:     -11.0      0.000      0.000
REMARK SMILES CC(=O)NC(C)(C)C(=O)N1C[C@@H](C(=O)OCCOCCOC(=O)c2ccc(-c3c4nc(c(-c5c(F)cccc5F)c5ccc([nH]5)c(-c5c(F)cccc5F)c5nc(c(-c6c(F)cccc6F)c6ccc3[nH]6)C=C5)C=C4)cc2)[C@H](c2ccccc2C)C1
REMARK SMILES IDX 17 1 16 2 15 3 13 4 14 5 12 6 10 7 11 8 86 9 78 10 8 11 9 12
REMARK SMILES IDX 5 13 6 14 7 15 4 16 1 17 2 18 3 19 79 21 80 22 84 23 81 24
REMARK SMILES IDX 83 25 85 26 82 27 18 28 19 29 20 30 21 31 22 32 23 33 24 34
REMARK SMILES IDX 25 35 77 36 26 37 76 38 27 39 28 40 29 41 70 42 30 43 75 44
REMARK SMILES IDX 69 45 71 46 31 47 74 48 68 49 67 50 32 52 58 53 41 54 57 55
REMARK SMILES IDX 42 56 45 57 56 58 72 59 43 60 44 61 55 63 73 64 46 65 33 66
REMARK SMILES IDX 34 67 39 68 35 69 36 70 38 71 40 72 37 73 59 74 60 75 65 76
REMARK SMILES IDX 61 77 62 78 64 79 66 80 63 81 47 82 48 83 53 84 49 85 50 86
REMARK SMILES IDX 52 87 54 88 51 89
REMARK H PARENT 4 20 71 51 45 62
REMARK Flexibility Score: inf
ROOT
ATOM      1  C   UNL A   1      33.079  23.063  23.852  1.00  0.00     0.202 C 
ENDROOT
BRANCH   1   2
ATOM      2  C   UNL A   1      33.303  23.437  22.381  1.00  0.00     0.261 C 
BRANCH   2   3
ATOM      3  O   UNL A   1      32.239  24.319  21.976  1.00  0.00    -0.463 OA
BRANCH   3   4
ATOM      4  C   UNL A   1      32.572  25.487  21.379  1.00  0.00     0.311 C 
ATOM      5  O   UNL A   1      32.937  25.582  20.217  1.00  0.00    -0.252 OA
BRANCH   4   6
ATOM      6  C   UNL A   1      32.263  26.655  22.308  1.00  0.00     0.128 C 
ATOM      7  N   UNL A   1      32.783  27.042  24.587  1.00  0.00    -0.339 N 
ATOM      8  C   UNL A   1      33.402  26.778  23.315  1.00  0.00     0.135 C 
ATOM      9  C   UNL A   1      31.471  26.415  24.583  1.00  0.00     0.128 C 
ATOM     10  C   UNL A   1      30.945  26.583  23.135  1.00  0.00     0.055 C 
BRANCH   7  11
ATOM     11  C   UNL A   1      33.537  27.126  25.748  1.00  0.00     0.247 C 
ATOM     12  O   UNL A   1      34.233  26.170  26.096  1.00  0.00    -0.272 OA
BRANCH  11  13
ATOM     13  C   UNL A   1      33.486  28.474  26.567  1.00  0.00     0.113 C 
ATOM     14  C   UNL A   1      32.369  28.458  27.625  1.00  0.00     0.045 C 
ATOM     15  C   UNL A   1      33.266  29.644  25.586  1.00  0.00     0.045 C 
BRANCH  13  16
ATOM     16  N   UNL A   1      34.765  28.788  27.266  1.00  0.00    -0.342 N 
ATOM     17  C   UNL A   1      34.542  31.199  27.829  1.00  0.00     0.114 C 
ATOM     18  C   UNL A   1      35.360  29.967  27.585  1.00  0.00     0.217 C 
ATOM     19  O   UNL A   1      36.584  29.974  27.739  1.00  0.00    -0.275 OA
ATOM     20  H   UNL A   1      35.272  27.993  27.551  1.00  0.00     0.164 HD
ENDBRANCH  13  16
ENDBRANCH  11  13
ENDBRANCH   7  11
BRANCH  10  21
ATOM     21  C   UNL A   1      30.052  27.819  22.871  1.00  0.00    -0.039 A 
ATOM     22  C   UNL A   1      30.567  29.029  22.358  1.00  0.00     0.004 A 
ATOM     23  C   UNL A   1      28.662  27.792  23.126  1.00  0.00    -0.048 A 
ATOM     24  C   UNL A   1      29.742  30.109  22.014  1.00  0.00     0.000 A 
ATOM     25  C   UNL A   1      27.842  28.841  22.668  1.00  0.00     0.004 A 
ATOM     26  C   UNL A   1      27.964  26.703  23.885  1.00  0.00     0.044 C 
ATOM     27  C   UNL A   1      28.369  29.995  22.117  1.00  0.00     0.000 A 
ENDBRANCH  10  21
ENDBRANCH   4   6
ENDBRANCH   3   4
ENDBRANCH   2   3
ENDBRANCH   1   2
BRANCH   1  28
ATOM     28  O   UNL A   1      34.299  22.861  24.570  1.00  0.00    -0.374 OA
BRANCH  28  29
ATOM     29  C   UNL A   1      34.784  21.520  24.638  1.00  0.00     0.202 C 
BRANCH  29  30
ATOM     30  C   UNL A   1      35.929  21.320  25.635  1.00  0.00     0.261 C 
BRANCH  30  31
ATOM     31  O   UNL A   1      37.163  21.857  25.127  1.00  0.00    -0.460 OA
BRANCH  31  32
ATOM     32  C   UNL A   1      38.306  21.458  25.737  1.00  0.00     0.338 C 
ATOM     33  O   UNL A   1      38.776  20.336  25.768  1.00  0.00    -0.246 OA
BRANCH  32  34
ATOM     34  C   UNL A   1      39.003  22.665  26.234  1.00  0.00     0.060 A 
ATOM     35  C   UNL A   1      38.459  23.926  25.976  1.00  0.00     0.016 A 
ATOM     36  C   UNL A   1      40.159  22.555  27.004  1.00  0.00     0.016 A 
ATOM     37  C   UNL A   1      39.074  25.074  26.496  1.00  0.00     0.010 A 
ATOM     38  C   UNL A   1      40.721  23.697  27.586  1.00  0.00     0.010 A 
ATOM     39  C   UNL A   1      40.212  24.978  27.312  1.00  0.00    -0.014 A 
BRANCH  39  40
ATOM     40  C   UNL A   1      40.940  26.199  27.781  1.00  0.00     0.031 A 
ATOM     41  C   UNL A   1      42.375  26.424  27.355  1.00  0.00     0.074 A 
ATOM     42  C   UNL A   1      40.358  27.110  28.589  1.00  0.00     0.049 A 
ATOM     43  N   UNL A   1      43.192  27.402  27.662  1.00  0.00    -0.248 NA
ATOM     44  C   UNL A   1      42.986  25.387  26.508  1.00  0.00     0.031 C 
ATOM     45  C   UNL A   1      39.012  27.018  29.154  1.00  0.00     0.029 A 
ATOM     46  N   UNL A   1      40.836  28.307  29.073  1.00  0.00    -0.354 N 
ATOM     47  C   UNL A   1      44.411  27.072  27.083  1.00  0.00     0.074 A 
ATOM     48  C   UNL A   1      44.252  25.771  26.476  1.00  0.00     0.031 C 
ATOM     49  C   UNL A   1      38.757  28.129  29.870  1.00  0.00     0.029 A 
ATOM     50  C   UNL A   1      39.926  29.006  29.831  1.00  0.00     0.049 A 
ATOM     51  H   UNL A   1      41.747  28.634  28.891  1.00  0.00     0.167 HD
ATOM     52  C   UNL A   1      45.553  27.797  27.006  1.00  0.00     0.037 A 
ATOM     53  C   UNL A   1      40.016  30.220  30.413  1.00  0.00     0.037 A 
ATOM     54  C   UNL A   1      45.708  29.130  27.516  1.00  0.00     0.049 A 
ATOM     55  C   UNL A   1      41.272  31.040  30.265  1.00  0.00     0.074 A 
ATOM     56  C   UNL A   1      46.796  29.978  27.393  1.00  0.00     0.029 A 
ATOM     57  N   UNL A   1      44.741  29.817  28.230  1.00  0.00    -0.354 N 
ATOM     58  N   UNL A   1      42.382  30.748  29.633  1.00  0.00    -0.248 NA
ATOM     59  C   UNL A   1      41.280  32.367  30.902  1.00  0.00     0.031 C 
ATOM     60  C   UNL A   1      46.494  31.173  28.054  1.00  0.00     0.029 A 
ATOM     61  C   UNL A   1      45.208  31.078  28.558  1.00  0.00     0.049 A 
ATOM     62  H   UNL A   1      43.854  29.462  28.468  1.00  0.00     0.167 HD
ATOM     63  C   UNL A   1      43.200  31.866  29.763  1.00  0.00     0.074 A 
ATOM     64  C   UNL A   1      42.459  32.844  30.528  1.00  0.00     0.031 C 
ATOM     65  C   UNL A   1      44.454  32.060  29.290  1.00  0.00     0.037 A 
BRANCH  52  66
ATOM     66  C   UNL A   1      46.718  27.166  26.301  1.00  0.00     0.057 A 
ATOM     67  C   UNL A   1      46.885  27.274  24.914  1.00  0.00     0.134 A 
ATOM     68  C   UNL A   1      47.686  26.451  27.016  1.00  0.00     0.134 A 
ATOM     69  F   UNL A   1      45.984  27.933  24.170  1.00  0.00    -0.206 F 
ATOM     70  C   UNL A   1      47.950  26.657  24.257  1.00  0.00     0.040 A 
ATOM     71  C   UNL A   1      48.773  25.856  26.374  1.00  0.00     0.040 A 
ATOM     72  F   UNL A   1      47.591  26.319  28.348  1.00  0.00    -0.206 F 
ATOM     73  C   UNL A   1      48.902  25.950  24.990  1.00  0.00     0.006 A 
ENDBRANCH  52  66
BRANCH  53  74
ATOM     74  C   UNL A   1      38.859  30.780  31.160  1.00  0.00     0.057 A 
ATOM     75  C   UNL A   1      38.602  30.393  32.481  1.00  0.00     0.134 A 
ATOM     76  C   UNL A   1      37.958  31.667  30.561  1.00  0.00     0.134 A 
ATOM     77  F   UNL A   1      39.417  29.524  33.099  1.00  0.00    -0.206 F 
ATOM     78  C   UNL A   1      37.476  30.844  33.171  1.00  0.00     0.040 A 
ATOM     79  C   UNL A   1      36.840  32.143  31.247  1.00  0.00     0.040 A 
ATOM     80  F   UNL A   1      38.149  32.076  29.298  1.00  0.00    -0.206 F 
ATOM     81  C   UNL A   1      36.591  31.724  32.553  1.00  0.00     0.006 A 
ENDBRANCH  53  74
BRANCH  65  82
ATOM     82  C   UNL A   1      45.097  33.394  29.532  1.00  0.00     0.057 A 
ATOM     83  C   UNL A   1      45.816  33.668  30.701  1.00  0.00     0.134 A 
ATOM     84  C   UNL A   1      45.054  34.392  28.549  1.00  0.00     0.134 A 
ATOM     85  F   UNL A   1      45.889  32.759  31.684  1.00  0.00    -0.206 F 
ATOM     86  C   UNL A   1      46.459  34.894  30.891  1.00  0.00     0.040 A 
ATOM     87  C   UNL A   1      45.710  35.612  28.717  1.00  0.00     0.040 A 
ATOM     88  F   UNL A   1      44.389  34.189  27.401  1.00  0.00    -0.206 F 
ATOM     89  C   UNL A   1      46.414  35.866  29.892  1.00  0.00     0.006 A 
ENDBRANCH  65  82
ENDBRANCH  39  40
ENDBRANCH  32  34
ENDBRANCH  31  32
ENDBRANCH  30  31
ENDBRANCH  29  30
ENDBRANCH  28  29
ENDBRANCH   1  28
TORSDOF 18
ENDMDL
MODEL 2
REMARK VINA RESULT:     -10.9      3.733      8.779
REMARK SMILES CC(=O)NC(C)(C)C(=O)N1C[C@@H](C(=O)OCCOCCOC(=O)c2ccc(-c3c4nc(c(-c5c(F)cccc5F)c5ccc([nH]5)c(-c5c(F)cccc5F)c5nc(c(-c6c(F)cccc6F)c6ccc3[nH]6)C=C5)C=C4)cc2)[C@H](c2ccccc2C)C1
REMARK SMILES IDX 17 1 16 2 15 3 13 4 14 5 12 6 10 7 11 8 86 9 78 10 8 11 9 12
REMARK SMILES IDX 5 13 6 14 7 15 4 16 1 17 2 18 3 19 79 21 80 22 84 23 81 24
REMARK SMILES IDX 83 25 85 26 82 27 18 28 19 29 20 30 21 31 22 32 23 33 24 34
REMARK SMILES IDX 25 35 77 36 26 37 76 38 27 39 28 40 29 41 70 42 30 43 75 44
REMARK SMILES IDX 69 45 71 46 31 47 74 48 68 49 67 50 32 52 58 53 41 54 57 55
REMARK SMILES IDX 42 56 45 57 56 58 72 59 43 60 44 61 55 63 73 64 46 65 33 66
REMARK SMILES IDX 34 67 39 68 35 69 36 70 38 71 40 72 37 73 59 74 60 75 65 76
REMARK SMILES IDX 61 77 62 78 64 79 66 80 63 81 47 82 48 83 53 84 49 85 50 86
REMARK SMILES IDX 52 87 54 88 51 89
REMARK H PARENT 4 20 71 51 45 62
REMARK Flexibility Score: inf
ROOT
ATOM      1  C   UNL A   1      33.878  30.035  27.197  1.00  0.00     0.202 C 
ENDROOT
BRANCH   1   2
ATOM      2  C   UNL A   1      33.636  28.527  27.044  1.00  0.00     0.261 C 
BRANCH   2   3
ATOM      3  O   UNL A   1      34.033  28.143  25.714  1.00  0.00    -0.463 OA
BRANCH   3   4
ATOM      4  C   UNL A   1      33.291  28.589  24.673  1.00  0.00     0.311 C 
ATOM      5  O   UNL A   1      33.523  29.620  24.061  1.00  0.00    -0.252 OA
BRANCH   4   6
ATOM      6  C   UNL A   1      32.254  27.542  24.286  1.00  0.00     0.128 C 
ATOM      7  N   UNL A   1      32.441  25.486  23.123  1.00  0.00    -0.339 N 
ATOM      8  C   UNL A   1      32.932  26.176  24.287  1.00  0.00     0.135 C 
ATOM      9  C   UNL A   1      32.130  26.484  22.112  1.00  0.00     0.128 C 
ATOM     10  C   UNL A   1      31.565  27.695  22.896  1.00  0.00     0.055 C 
BRANCH   7  11
ATOM     11  C   UNL A   1      32.925  24.234  22.774  1.00  0.00     0.247 C 
ATOM     12  O   UNL A   1      33.905  24.142  22.032  1.00  0.00    -0.272 OA
BRANCH  11  13
ATOM     13  C   UNL A   1      32.200  22.967  23.374  1.00  0.00     0.113 C 
ATOM     14  C   UNL A   1      32.380  21.728  22.480  1.00  0.00     0.045 C 
ATOM     15  C   UNL A   1      30.699  23.285  23.539  1.00  0.00     0.045 C 
BRANCH  13  16
ATOM     16  N   UNL A   1      32.674  22.609  24.741  1.00  0.00    -0.342 N 
ATOM     17  C   UNL A   1      35.043  21.947  24.378  1.00  0.00     0.114 C 
ATOM     18  C   UNL A   1      33.773  21.936  25.174  1.00  0.00     0.217 C 
ATOM     19  O   UNL A   1      33.715  21.382  26.274  1.00  0.00    -0.275 OA
ATOM     20  H   UNL A   1      32.083  22.918  25.465  1.00  0.00     0.164 HD
ENDBRANCH  13  16
ENDBRANCH  11  13
ENDBRANCH   7  11
BRANCH  10  21
ATOM     21  C   UNL A   1      30.026  27.759  23.040  1.00  0.00    -0.039 A 
ATOM     22  C   UNL A   1      29.276  26.715  23.623  1.00  0.00     0.004 A 
ATOM     23  C   UNL A   1      29.291  28.883  22.598  1.00  0.00    -0.048 A 
ATOM     24  C   UNL A   1      27.897  26.821  23.855  1.00  0.00     0.000 A 
ATOM     25  C   UNL A   1      27.933  29.015  22.944  1.00  0.00     0.004 A 
ATOM     26  C   UNL A   1      29.857  29.980  21.747  1.00  0.00     0.044 C 
ATOM     27  C   UNL A   1      27.232  27.997  23.565  1.00  0.00     0.000 A 
ENDBRANCH  10  21
ENDBRANCH   4   6
ENDBRANCH   3   4
ENDBRANCH   2   3
ENDBRANCH   1   2
BRANCH   1  28
ATOM     28  O   UNL A   1      32.715  30.748  27.628  1.00  0.00    -0.374 OA
BRANCH  28  29
ATOM     29  C   UNL A   1      32.104  31.610  26.669  1.00  0.00     0.202 C 
BRANCH  29  30
ATOM     30  C   UNL A   1      31.828  33.024  27.188  1.00  0.00     0.261 C 
BRANCH  30  31
ATOM     31  O   UNL A   1      33.050  33.767  27.353  1.00  0.00    -0.460 OA
BRANCH  31  32
ATOM     32  C   UNL A   1      33.311  34.253  28.591  1.00  0.00     0.338 C 
ATOM     33  O   UNL A   1      32.623  35.010  29.251  1.00  0.00    -0.246 OA
BRANCH  32  34
ATOM     34  C   UNL A   1      34.521  33.571  29.102  1.00  0.00     0.060 A 
ATOM     35  C   UNL A   1      35.780  33.981  28.656  1.00  0.00     0.016 A 
ATOM     36  C   UNL A   1      34.421  32.569  30.065  1.00  0.00     0.016 A 
ATOM     37  C   UNL A   1      36.937  33.387  29.180  1.00  0.00     0.010 A 
ATOM     38  C   UNL A   1      35.580  32.037  30.642  1.00  0.00     0.010 A 
ATOM     39  C   UNL A   1      36.856  32.408  30.184  1.00  0.00    -0.014 A 
BRANCH  39  40
ATOM     40  C   UNL A   1      38.075  31.691  30.672  1.00  0.00     0.031 A 
ATOM     41  C   UNL A   1      38.626  32.005  32.047  1.00  0.00     0.074 A 
ATOM     42  C   UNL A   1      38.713  30.773  29.916  1.00  0.00     0.049 A 
ATOM     43  N   UNL A   1      39.680  31.514  32.654  1.00  0.00    -0.248 NA
ATOM     44  C   UNL A   1      37.926  33.041  32.822  1.00  0.00     0.031 C 
ATOM     45  C   UNL A   1      38.366  30.399  28.546  1.00  0.00     0.029 A 
ATOM     46  N   UNL A   1      39.799  29.977  30.208  1.00  0.00    -0.354 N 
ATOM     47  C   UNL A   1      39.784  32.211  33.852  1.00  0.00     0.074 A 
ATOM     48  C   UNL A   1      38.740  33.210  33.851  1.00  0.00     0.031 C 
ATOM     49  C   UNL A   1      39.191  29.421  28.133  1.00  0.00     0.029 A 
ATOM     50  C   UNL A   1      40.139  29.106  29.200  1.00  0.00     0.049 A 
ATOM     51  H   UNL A   1      40.286  30.026  31.062  1.00  0.00     0.167 HD
ATOM     52  C   UNL A   1      40.629  32.016  34.891  1.00  0.00     0.037 A 
ATOM     53  C   UNL A   1      41.093  28.153  29.146  1.00  0.00     0.037 A 
ATOM     54  C   UNL A   1      41.612  30.970  34.958  1.00  0.00     0.049 A 
ATOM     55  C   UNL A   1      41.985  27.907  30.336  1.00  0.00     0.074 A 
ATOM     56  C   UNL A   1      42.441  30.635  36.014  1.00  0.00     0.029 A 
ATOM     57  N   UNL A   1      41.883  30.079  33.934  1.00  0.00    -0.354 N 
ATOM     58  N   UNL A   1      42.005  28.516  31.497  1.00  0.00    -0.248 NA
ATOM     59  C   UNL A   1      42.979  26.828  30.213  1.00  0.00     0.031 C 
ATOM     60  C   UNL A   1      43.233  29.552  35.620  1.00  0.00     0.029 A 
ATOM     61  C   UNL A   1      42.871  29.196  34.332  1.00  0.00     0.049 A 
ATOM     62  H   UNL A   1      41.440  30.075  33.055  1.00  0.00     0.167 HD
ATOM     63  C   UNL A   1      42.982  27.871  32.249  1.00  0.00     0.074 A 
ATOM     64  C   UNL A   1      43.528  26.820  31.419  1.00  0.00     0.031 C 
ATOM     65  C   UNL A   1      43.388  28.130  33.515  1.00  0.00     0.037 A 
BRANCH  52  66
ATOM     66  C   UNL A   1      40.494  32.939  36.067  1.00  0.00     0.057 A 
ATOM     67  C   UNL A   1      41.274  34.097  36.187  1.00  0.00     0.134 A 
ATOM     68  C   UNL A   1      39.571  32.672  37.085  1.00  0.00     0.134 A 
ATOM     69  F   UNL A   1      42.187  34.402  35.252  1.00  0.00    -0.206 F 
ATOM     70  C   UNL A   1      41.171  34.934  37.297  1.00  0.00     0.040 A 
ATOM     71  C   UNL A   1      39.436  33.519  38.186  1.00  0.00     0.040 A 
ATOM     72  F   UNL A   1      38.787  31.585  37.026  1.00  0.00    -0.206 F 
ATOM     73  C   UNL A   1      40.245  34.649  38.299  1.00  0.00     0.006 A 
ENDBRANCH  52  66
BRANCH  53  74
ATOM     74  C   UNL A   1      41.237  27.303  27.936  1.00  0.00     0.057 A 
ATOM     75  C   UNL A   1      42.059  27.701  26.874  1.00  0.00     0.134 A 
ATOM     76  C   UNL A   1      40.522  26.111  27.785  1.00  0.00     0.134 A 
ATOM     77  F   UNL A   1      42.749  28.849  26.949  1.00  0.00    -0.206 F 
ATOM     78  C   UNL A   1      42.144  26.958  25.694  1.00  0.00     0.040 A 
ATOM     79  C   UNL A   1      40.614  25.347  26.621  1.00  0.00     0.040 A 
ATOM     80  F   UNL A   1      39.718  25.675  28.766  1.00  0.00    -0.206 F 
ATOM     81  C   UNL A   1      41.420  25.776  25.567  1.00  0.00     0.006 A 
ENDBRANCH  53  74
BRANCH  65  82
ATOM     82  C   UNL A   1      44.436  27.238  34.113  1.00  0.00     0.057 A 
ATOM     83  C   UNL A   1      45.796  27.563  34.069  1.00  0.00     0.134 A 
ATOM     84  C   UNL A   1      44.069  26.075  34.802  1.00  0.00     0.134 A 
ATOM     85  F   UNL A   1      46.214  28.659  33.418  1.00  0.00    -0.206 F 
ATOM     86  C   UNL A   1      46.759  26.754  34.679  1.00  0.00     0.040 A 
ATOM     87  C   UNL A   1      45.019  25.270  35.434  1.00  0.00     0.040 A 
ATOM     88  F   UNL A   1      42.780  25.713  34.889  1.00  0.00    -0.206 F 
ATOM     89  C   UNL A   1      46.368  25.609  35.371  1.00  0.00     0.006 A 
ENDBRANCH  65  82
ENDBRANCH  39  40
ENDBRANCH  32  34
ENDBRANCH  31  32
ENDBRANCH  30  31
ENDBRANCH  29  30
ENDBRANCH  28  29
ENDBRANCH   1  28
TORSDOF 18
ENDMDL
MODEL 3
REMARK VINA RESULT:     -10.6      4.076      7.364
REMARK SMILES CC(=O)NC(C)(C)C(=O)N1C[C@@H](C(=O)OCCOCCOC(=O)c2ccc(-c3c4nc(c(-c5c(F)cccc5F)c5ccc([nH]5)c(-c5c(F)cccc5F)c5nc(c(-c6c(F)cccc6F)c6ccc3[nH]6)C=C5)C=C4)cc2)[C@H](c2ccccc2C)C1
REMARK SMILES IDX 17 1 16 2 15 3 13 4 14 5 12 6 10 7 11 8 86 9 78 10 8 11 9 12
REMARK SMILES IDX 5 13 6 14 7 15 4 16 1 17 2 18 3 19 79 21 80 22 84 23 81 24
REMARK SMILES IDX 83 25 85 26 82 27 18 28 19 29 20 30 21 31 22 32 23 33 24 34
REMARK SMILES IDX 25 35 77 36 26 37 76 38 27 39 28 40 29 41 70 42 30 43 75 44
REMARK SMILES IDX 69 45 71 46 31 47 74 48 68 49 67 50 32 52 58 53 41 54 57 55
REMARK SMILES IDX 42 56 45 57 56 58 72 59 43 60 44 61 55 63 73 64 46 65 33 66
REMARK SMILES IDX 34 67 39 68 35 69 36 70 38 71 40 72 37 73 59 74 60 75 65 76
REMARK SMILES IDX 61 77 62 78 64 79 66 80 63 81 47 82 48 83 53 84 49 85 50 86
REMARK SMILES IDX 52 87 54 88 51 89
REMARK H PARENT 4 20 71 51 45 62
REMARK Flexibility Score: inf
ROOT
ATOM      1  C   UNL A   1      39.982  21.845  26.586  1.00  0.00     0.202 C 
ENDROOT
BRANCH   1   2
ATOM      2  C   UNL A   1      38.750  21.323  25.834  1.00  0.00     0.261 C 
BRANCH   2   3
ATOM      3  O   UNL A   1      37.765  22.373  25.807  1.00  0.00    -0.463 OA
BRANCH   3   4
ATOM      4  C   UNL A   1      37.005  22.505  24.695  1.00  0.00     0.311 C 
ATOM      5  O   UNL A   1      37.395  22.252  23.566  1.00  0.00    -0.252 OA
BRANCH   4   6
ATOM      6  C   UNL A   1      35.570  22.844  25.082  1.00  0.00     0.128 C 
ATOM      7  N   UNL A   1      33.572  21.573  25.015  1.00  0.00    -0.339 N 
ATOM      8  C   UNL A   1      34.896  21.569  25.579  1.00  0.00     0.135 C 
ATOM      9  C   UNL A   1      33.629  22.284  23.748  1.00  0.00     0.128 C 
ATOM     10  C   UNL A   1      34.647  23.430  23.971  1.00  0.00     0.055 C 
BRANCH   7  11
ATOM     11  C   UNL A   1      32.711  20.500  25.201  1.00  0.00     0.247 C 
ATOM     12  O   UNL A   1      31.597  20.689  25.694  1.00  0.00    -0.272 OA
BRANCH  11  13
ATOM     13  C   UNL A   1      33.199  19.072  24.742  1.00  0.00     0.113 C 
ATOM     14  C   UNL A   1      34.730  19.004  24.617  1.00  0.00     0.045 C 
ATOM     15  C   UNL A   1      32.543  18.735  23.387  1.00  0.00     0.045 C 
BRANCH  13  16
ATOM     16  N   UNL A   1      32.773  17.980  25.663  1.00  0.00    -0.342 N 
ATOM     17  C   UNL A   1      34.153  16.042  24.943  1.00  0.00     0.114 C 
ATOM     18  C   UNL A   1      32.955  16.633  25.621  1.00  0.00     0.217 C 
ATOM     19  O   UNL A   1      32.146  15.922  26.222  1.00  0.00    -0.275 OA
ATOM     20  H   UNL A   1      32.265  18.291  26.447  1.00  0.00     0.164 HD
ENDBRANCH  13  16
ENDBRANCH  11  13
ENDBRANCH   7  11
BRANCH  10  21
ATOM     21  C   UNL A   1      34.058  24.795  24.397  1.00  0.00    -0.039 A 
ATOM     22  C   UNL A   1      33.983  25.198  25.748  1.00  0.00     0.004 A 
ATOM     23  C   UNL A   1      33.569  25.717  23.444  1.00  0.00    -0.048 A 
ATOM     24  C   UNL A   1      33.553  26.479  26.126  1.00  0.00     0.000 A 
ATOM     25  C   UNL A   1      33.251  27.032  23.835  1.00  0.00     0.004 A 
ATOM     26  C   UNL A   1      33.338  25.393  21.998  1.00  0.00     0.044 C 
ATOM     27  C   UNL A   1      33.239  27.418  25.163  1.00  0.00     0.000 A 
ENDBRANCH  10  21
ENDBRANCH   4   6
ENDBRANCH   3   4
ENDBRANCH   2   3
ENDBRANCH   1   2
BRANCH   1  28
ATOM     28  O   UNL A   1      41.058  22.206  25.715  1.00  0.00    -0.374 OA
BRANCH  28  29
ATOM     29  C   UNL A   1      42.327  21.613  25.988  1.00  0.00     0.202 C 
BRANCH  29  30
ATOM     30  C   UNL A   1      43.479  22.198  25.167  1.00  0.00     0.261 C 
BRANCH  30  31
ATOM     31  O   UNL A   1      43.215  23.563  24.797  1.00  0.00    -0.460 OA
BRANCH  31  32
ATOM     32  C   UNL A   1      44.126  24.491  25.178  1.00  0.00     0.338 C 
ATOM     33  O   UNL A   1      45.192  24.745  24.647  1.00  0.00    -0.246 OA
BRANCH  32  34
ATOM     34  C   UNL A   1      43.533  25.289  26.274  1.00  0.00     0.060 A 
ATOM     35  C   UNL A   1      43.798  26.659  26.347  1.00  0.00     0.016 A 
ATOM     36  C   UNL A   1      42.669  24.702  27.197  1.00  0.00     0.016 A 
ATOM     37  C   UNL A   1      43.192  27.438  27.343  1.00  0.00     0.010 A 
ATOM     38  C   UNL A   1      42.006  25.498  28.137  1.00  0.00     0.010 A 
ATOM     39  C   UNL A   1      42.284  26.872  28.251  1.00  0.00    -0.014 A 
BRANCH  39  40
ATOM     40  C   UNL A   1      41.716  27.669  29.384  1.00  0.00     0.031 A 
ATOM     41  C   UNL A   1      42.387  27.623  30.739  1.00  0.00     0.074 A 
ATOM     42  C   UNL A   1      40.607  28.425  29.238  1.00  0.00     0.049 A 
ATOM     43  N   UNL A   1      42.050  28.220  31.857  1.00  0.00    -0.248 NA
ATOM     44  C   UNL A   1      43.568  26.755  30.867  1.00  0.00     0.031 C 
ATOM     45  C   UNL A   1      39.793  28.529  28.028  1.00  0.00     0.029 A 
ATOM     46  N   UNL A   1      39.976  29.261  30.132  1.00  0.00    -0.354 N 
ATOM     47  C   UNL A   1      42.947  27.765  32.815  1.00  0.00     0.074 A 
ATOM     48  C   UNL A   1      43.791  26.785  32.171  1.00  0.00     0.031 C 
ATOM     49  C   UNL A   1      38.799  29.410  28.240  1.00  0.00     0.029 A 
ATOM     50  C   UNL A   1      38.891  29.922  29.605  1.00  0.00     0.049 A 
ATOM     51  H   UNL A   1      40.274  29.376  31.063  1.00  0.00     0.167 HD
ATOM     52  C   UNL A   1      43.105  28.155  34.102  1.00  0.00     0.037 A 
ATOM     53  C   UNL A   1      38.075  30.847  30.153  1.00  0.00     0.037 A 
ATOM     54  C   UNL A   1      42.344  29.194  34.739  1.00  0.00     0.049 A 
ATOM     55  C   UNL A   1      38.303  31.315  31.568  1.00  0.00     0.074 A 
ATOM     56  C   UNL A   1      42.505  29.724  36.007  1.00  0.00     0.029 A 
ATOM     57  N   UNL A   1      41.292  29.872  34.149  1.00  0.00    -0.354 N 
ATOM     58  N   UNL A   1      39.218  30.940  32.427  1.00  0.00    -0.248 NA
ATOM     59  C   UNL A   1      37.392  32.350  32.082  1.00  0.00     0.031 C 
ATOM     60  C   UNL A   1      41.532  30.712  36.194  1.00  0.00     0.029 A 
ATOM     61  C   UNL A   1      40.790  30.815  35.029  1.00  0.00     0.049 A 
ATOM     62  H   UNL A   1      40.951  29.708  33.239  1.00  0.00     0.167 HD
ATOM     63  C   UNL A   1      39.015  31.716  33.564  1.00  0.00     0.074 A 
ATOM     64  C   UNL A   1      37.896  32.588  33.284  1.00  0.00     0.031 C 
ATOM     65  C   UNL A   1      39.697  31.704  34.734  1.00  0.00     0.037 A 
BRANCH  52  66
ATOM     66  C   UNL A   1      44.181  27.474  34.898  1.00  0.00     0.057 A 
ATOM     67  C   UNL A   1      45.470  28.012  35.003  1.00  0.00     0.134 A 
ATOM     68  C   UNL A   1      43.923  26.274  35.570  1.00  0.00     0.134 A 
ATOM     69  F   UNL A   1      45.786  29.152  34.370  1.00  0.00    -0.206 F 
ATOM     70  C   UNL A   1      46.477  27.359  35.714  1.00  0.00     0.040 A 
ATOM     71  C   UNL A   1      44.914  25.627  36.310  1.00  0.00     0.040 A 
ATOM     72  F   UNL A   1      42.706  25.711  35.518  1.00  0.00    -0.206 F 
ATOM     73  C   UNL A   1      46.198  26.164  36.375  1.00  0.00     0.006 A 
ENDBRANCH  52  66
BRANCH  53  74
ATOM     74  C   UNL A   1      36.979  31.449  29.351  1.00  0.00     0.057 A 
ATOM     75  C   UNL A   1      35.814  30.723  29.068  1.00  0.00     0.134 A 
ATOM     76  C   UNL A   1      37.088  32.732  28.804  1.00  0.00     0.134 A 
ATOM     77  F   UNL A   1      35.665  29.477  29.543  1.00  0.00    -0.206 F 
ATOM     78  C   UNL A   1      34.810  31.241  28.248  1.00  0.00     0.040 A 
ATOM     79  C   UNL A   1      36.081  33.270  28.001  1.00  0.00     0.040 A 
ATOM     80  F   UNL A   1      38.177  33.477  29.038  1.00  0.00    -0.206 F 
ATOM     81  C   UNL A   1      34.942  32.519  27.713  1.00  0.00     0.006 A 
ENDBRANCH  53  74
BRANCH  65  82
ATOM     82  C   UNL A   1      39.300  32.693  35.790  1.00  0.00     0.057 A 
ATOM     83  C   UNL A   1      38.382  32.372  36.797  1.00  0.00     0.134 A 
ATOM     84  C   UNL A   1      39.897  33.959  35.838  1.00  0.00     0.134 A 
ATOM     85  F   UNL A   1      37.769  31.179  36.803  1.00  0.00    -0.206 F 
ATOM     86  C   UNL A   1      38.062  33.280  37.808  1.00  0.00     0.040 A 
ATOM     87  C   UNL A   1      39.602  34.868  36.856  1.00  0.00     0.040 A 
ATOM     88  F   UNL A   1      40.792  34.326  34.908  1.00  0.00    -0.206 F 
ATOM     89  C   UNL A   1      38.680  34.529  37.843  1.00  0.00     0.006 A 
ENDBRANCH  65  82
ENDBRANCH  39  40
ENDBRANCH  32  34
ENDBRANCH  31  32
ENDBRANCH  30  31
ENDBRANCH  29  30
ENDBRANCH  28  29
ENDBRANCH   1  28
TORSDOF 18
ENDMDL
