MODEL 1
REMARK VINA RESULT:     -11.2      0.000      0.000
REMARK SMILES O=C(OCCOCCOC(=O)c1ccc(-c2c3nc(c(-c4c(F)cccc4F)c4ccc([nH]4)c(-c4c(F)cccc4F)c4nc(c(-c5c(F)cccc5F)c5ccc2[nH]5)C=C4)C=C3)cc1)C1=Cc2c(ccc(Cl)c2Cl)O[C@H]1C(F)(F)F
REMARK SMILES IDX 7 1 6 2 5 3 4 4 3 5 2 6 1 7 66 8 67 9 77 10 68 11 76 12
REMARK SMILES IDX 69 13 74 14 70 15 72 16 75 17 71 18 73 19 78 20 79 21 80 22
REMARK SMILES IDX 81 23 8 24 9 25 10 26 11 27 12 28 13 29 65 30 14 31 64 32
REMARK SMILES IDX 15 33 16 34 17 35 58 36 18 37 63 38 57 39 59 40 19 41 62 42
REMARK SMILES IDX 56 43 55 44 20 46 46 47 29 48 45 49 30 50 33 51 44 52 60 53
REMARK SMILES IDX 31 54 32 55 43 57 61 58 34 59 21 60 22 61 27 62 23 63 24 64
REMARK SMILES IDX 26 65 28 66 25 67 47 68 48 69 53 70 49 71 50 72 52 73 54 74
REMARK SMILES IDX 51 75 35 76 36 77 41 78 37 79 38 80 40 81 42 82 39 83
REMARK H PARENT 59 45 33 56
REMARK Flexibility Score: inf
ROOT
ATOM      1  C   UNL A   1      31.507  31.911  26.652  1.00  0.00     0.202 C 
ENDROOT
BRANCH   1   2
ATOM      2  O   UNL A   1      32.161  30.734  26.196  1.00  0.00    -0.374 OA
BRANCH   2   3
ATOM      3  C   UNL A   1      32.680  29.922  27.251  1.00  0.00     0.202 C 
BRANCH   3   4
ATOM      4  C   UNL A   1      34.100  29.443  26.936  1.00  0.00     0.261 C 
BRANCH   4   5
ATOM      5  O   UNL A   1      34.141  28.069  26.499  1.00  0.00    -0.460 OA
BRANCH   5   6
ATOM      6  C   UNL A   1      33.688  27.574  25.320  1.00  0.00     0.338 C 
ATOM      7  O   UNL A   1      33.999  28.136  24.271  1.00  0.00    -0.246 OA
BRANCH   6   8
ATOM      8  C   UNL A   1      33.037  26.245  25.236  1.00  0.00     0.087 C 
ATOM      9  C   UNL A   1      33.319  25.165  25.970  1.00  0.00     0.029 C 
ATOM     10  C   UNL A   1      31.808  26.175  24.346  1.00  0.00     0.316 C 
ATOM     11  C   UNL A   1      33.180  23.883  25.313  1.00  0.00     0.037 A 
ATOM     12  O   UNL A   1      31.310  24.816  24.097  1.00  0.00    -0.475 OA
ATOM     13  C   UNL A   1      32.154  23.776  24.380  1.00  0.00     0.129 A 
ATOM     14  C   UNL A   1      34.107  22.832  25.480  1.00  0.00     0.070 A 
ATOM     15  C   UNL A   1      31.969  22.583  23.692  1.00  0.00     0.049 A 
ATOM     16  C   UNL A   1      33.945  21.651  24.751  1.00  0.00     0.060 A 
ATOM     17  Cl  UNL A   1      35.501  23.031  26.495  1.00  0.00    -0.082 Cl
ATOM     18  C   UNL A   1      32.865  21.523  23.874  1.00  0.00     0.026 A 
ATOM     19  Cl  UNL A   1      35.056  20.330  24.859  1.00  0.00    -0.083 Cl
BRANCH  10  20
ATOM     20  C   UNL A   1      30.652  27.037  24.946  1.00  0.00     0.430 C 
ATOM     21  F   UNL A   1      30.690  28.335  24.557  1.00  0.00    -0.167 F 
ATOM     22  F   UNL A   1      29.438  26.544  24.604  1.00  0.00    -0.167 F 
ATOM     23  F   UNL A   1      30.690  27.058  26.304  1.00  0.00    -0.167 F 
ENDBRANCH  10  20
ENDBRANCH   6   8
ENDBRANCH   5   6
ENDBRANCH   4   5
ENDBRANCH   3   4
ENDBRANCH   2   3
ENDBRANCH   1   2
BRANCH   1  24
ATOM     24  C   UNL A   1      32.469  33.080  26.876  1.00  0.00     0.261 C 
BRANCH  24  25
ATOM     25  O   UNL A   1      32.152  33.824  28.070  1.00  0.00    -0.460 OA
BRANCH  25  26
ATOM     26  C   UNL A   1      33.145  34.613  28.553  1.00  0.00     0.338 C 
ATOM     27  O   UNL A   1      33.086  35.826  28.725  1.00  0.00    -0.246 OA
BRANCH  26  28
ATOM     28  C   UNL A   1      34.344  33.814  28.929  1.00  0.00     0.060 A 
ATOM     29  C   UNL A   1      34.158  32.675  29.727  1.00  0.00     0.016 A 
ATOM     30  C   UNL A   1      35.639  34.151  28.514  1.00  0.00     0.016 A 
ATOM     31  C   UNL A   1      35.252  31.895  30.125  1.00  0.00     0.010 A 
ATOM     32  C   UNL A   1      36.733  33.366  28.907  1.00  0.00     0.010 A 
ATOM     33  C   UNL A   1      36.551  32.247  29.738  1.00  0.00    -0.014 A 
BRANCH  33  34
ATOM     34  C   UNL A   1      37.720  31.540  30.327  1.00  0.00     0.031 A 
ATOM     35  C   UNL A   1      38.102  31.833  31.754  1.00  0.00     0.074 A 
ATOM     36  C   UNL A   1      38.428  30.633  29.628  1.00  0.00     0.049 A 
ATOM     37  N   UNL A   1      39.042  31.297  32.492  1.00  0.00    -0.248 NA
ATOM     38  C   UNL A   1      37.319  32.876  32.437  1.00  0.00     0.031 C 
ATOM     39  C   UNL A   1      38.187  30.257  28.239  1.00  0.00     0.029 A 
ATOM     40  N   UNL A   1      39.505  29.863  30.002  1.00  0.00    -0.354 N 
ATOM     41  C   UNL A   1      38.945  31.915  33.732  1.00  0.00     0.074 A 
ATOM     42  C   UNL A   1      37.900  32.912  33.626  1.00  0.00     0.031 C 
ATOM     43  C   UNL A   1      39.090  29.328  27.874  1.00  0.00     0.029 A 
ATOM     44  C   UNL A   1      39.982  29.053  28.999  1.00  0.00     0.049 A 
ATOM     45  H   UNL A   1      39.898  29.890  30.905  1.00  0.00     0.167 HD
ATOM     46  C   UNL A   1      39.642  31.665  34.866  1.00  0.00     0.037 A 
ATOM     47  C   UNL A   1      41.020  28.191  28.990  1.00  0.00     0.037 A 
ATOM     48  C   UNL A   1      40.710  30.706  34.975  1.00  0.00     0.049 A 
ATOM     49  C   UNL A   1      41.828  27.979  30.248  1.00  0.00     0.074 A 
ATOM     50  C   UNL A   1      41.476  30.390  36.084  1.00  0.00     0.029 A 
ATOM     51  N   UNL A   1      41.176  29.920  33.933  1.00  0.00    -0.354 N 
ATOM     52  N   UNL A   1      41.683  28.522  31.432  1.00  0.00    -0.248 NA
ATOM     53  C   UNL A   1      42.940  27.017  30.167  1.00  0.00     0.031 C 
ATOM     54  C   UNL A   1      42.439  29.450  35.700  1.00  0.00     0.029 A 
ATOM     55  C   UNL A   1      42.234  29.135  34.367  1.00  0.00     0.049 A 
ATOM     56  H   UNL A   1      40.810  29.918  33.019  1.00  0.00     0.167 HD
ATOM     57  C   UNL A   1      42.660  27.947  32.240  1.00  0.00     0.074 A 
ATOM     58  C   UNL A   1      43.374  26.994  31.418  1.00  0.00     0.031 C 
ATOM     59  C   UNL A   1      42.942  28.187  33.545  1.00  0.00     0.037 A 
BRANCH  46  60
ATOM     60  C   UNL A   1      39.263  32.454  36.086  1.00  0.00     0.057 A 
ATOM     61  C   UNL A   1      39.797  33.726  36.331  1.00  0.00     0.134 A 
ATOM     62  C   UNL A   1      38.342  31.950  37.012  1.00  0.00     0.134 A 
ATOM     63  F   UNL A   1      40.696  34.260  35.489  1.00  0.00    -0.206 F 
ATOM     64  C   UNL A   1      39.451  34.458  37.468  1.00  0.00     0.040 A 
ATOM     65  C   UNL A   1      37.965  32.685  38.139  1.00  0.00     0.040 A 
ATOM     66  F   UNL A   1      37.789  30.741  36.837  1.00  0.00    -0.206 F 
ATOM     67  C   UNL A   1      38.526  33.939  38.373  1.00  0.00     0.006 A 
ENDBRANCH  46  60
BRANCH  47  68
ATOM     68  C   UNL A   1      41.377  27.453  27.747  1.00  0.00     0.057 A 
ATOM     69  C   UNL A   1      42.195  28.025  26.765  1.00  0.00     0.134 A 
ATOM     70  C   UNL A   1      40.849  26.183  27.483  1.00  0.00     0.134 A 
ATOM     71  F   UNL A   1      42.707  29.252  26.943  1.00  0.00    -0.206 F 
ATOM     72  C   UNL A   1      42.447  27.379  25.553  1.00  0.00     0.040 A 
ATOM     73  C   UNL A   1      41.119  25.512  26.288  1.00  0.00     0.040 A 
ATOM     74  F   UNL A   1      40.056  25.578  28.379  1.00  0.00    -0.206 F 
ATOM     75  C   UNL A   1      41.909  26.116  25.313  1.00  0.00     0.006 A 
ENDBRANCH  47  68
BRANCH  59  76
ATOM     76  C   UNL A   1      44.049  27.384  34.174  1.00  0.00     0.057 A 
ATOM     77  C   UNL A   1      43.824  26.127  34.752  1.00  0.00     0.134 A 
ATOM     78  C   UNL A   1      45.364  27.872  34.192  1.00  0.00     0.134 A 
ATOM     79  F   UNL A   1      42.590  25.602  34.778  1.00  0.00    -0.206 F 
ATOM     80  C   UNL A   1      44.854  25.405  35.359  1.00  0.00     0.040 A 
ATOM     81  C   UNL A   1      46.408  27.144  34.766  1.00  0.00     0.040 A 
ATOM     82  F   UNL A   1      45.658  29.060  33.644  1.00  0.00    -0.206 F 
ATOM     83  C   UNL A   1      46.152  25.912  35.363  1.00  0.00     0.006 A 
ENDBRANCH  59  76
ENDBRANCH  33  34
ENDBRANCH  26  28
ENDBRANCH  25  26
ENDBRANCH  24  25
ENDBRANCH   1  24
TORSDOF 15
ENDMDL
MODEL 2
REMARK VINA RESULT:     -10.9      3.356      8.164
REMARK SMILES O=C(OCCOCCOC(=O)c1ccc(-c2c3nc(c(-c4c(F)cccc4F)c4ccc([nH]4)c(-c4c(F)cccc4F)c4nc(c(-c5c(F)cccc5F)c5ccc2[nH]5)C=C4)C=C3)cc1)C1=Cc2c(ccc(Cl)c2Cl)O[C@H]1C(F)(F)F
REMARK SMILES IDX 7 1 6 2 5 3 4 4 3 5 2 6 1 7 66 8 67 9 77 10 68 11 76 12
REMARK SMILES IDX 69 13 74 14 70 15 72 16 75 17 71 18 73 19 78 20 79 21 80 22
REMARK SMILES IDX 81 23 8 24 9 25 10 26 11 27 12 28 13 29 65 30 14 31 64 32
REMARK SMILES IDX 15 33 16 34 17 35 58 36 18 37 63 38 57 39 59 40 19 41 62 42
REMARK SMILES IDX 56 43 55 44 20 46 46 47 29 48 45 49 30 50 33 51 44 52 60 53
REMARK SMILES IDX 31 54 32 55 43 57 61 58 34 59 21 60 22 61 27 62 23 63 24 64
REMARK SMILES IDX 26 65 28 66 25 67 47 68 48 69 53 70 49 71 50 72 52 73 54 74
REMARK SMILES IDX 51 75 35 76 36 77 41 78 37 79 38 80 40 81 42 82 39 83
REMARK H PARENT 59 45 33 56
REMARK Flexibility Score: inf
ROOT
ATOM      1  C   UNL A   1      42.395  21.148  25.935  1.00  0.00     0.202 C 
ENDROOT
BRANCH   1   2
ATOM      2  O   UNL A   1      42.107  21.470  27.289  1.00  0.00    -0.374 OA
BRANCH   2   3
ATOM      3  C   UNL A   1      40.712  21.630  27.555  1.00  0.00     0.202 C 
BRANCH   3   4
ATOM      4  C   UNL A   1      39.939  21.965  26.276  1.00  0.00     0.261 C 
BRANCH   4   5
ATOM      5  O   UNL A   1      38.539  22.211  26.519  1.00  0.00    -0.460 OA
BRANCH   5   6
ATOM      6  C   UNL A   1      37.818  23.288  26.120  1.00  0.00     0.338 C 
ATOM      7  O   UNL A   1      38.404  24.327  25.822  1.00  0.00    -0.246 OA
BRANCH   6   8
ATOM      8  C   UNL A   1      36.376  23.179  25.796  1.00  0.00     0.087 C 
ATOM      9  C   UNL A   1      35.610  24.109  25.219  1.00  0.00     0.029 C 
ATOM     10  C   UNL A   1      35.768  21.800  25.981  1.00  0.00     0.316 C 
ATOM     11  C   UNL A   1      34.228  24.163  25.646  1.00  0.00     0.037 A 
ATOM     12  O   UNL A   1      34.303  21.758  25.873  1.00  0.00    -0.475 OA
ATOM     13  C   UNL A   1      33.633  22.947  25.963  1.00  0.00     0.129 A 
ATOM     14  C   UNL A   1      33.544  25.376  25.876  1.00  0.00     0.070 A 
ATOM     15  C   UNL A   1      32.314  22.919  26.400  1.00  0.00     0.049 A 
ATOM     16  C   UNL A   1      32.234  25.344  26.361  1.00  0.00     0.060 A 
ATOM     17  Cl  UNL A   1      34.348  26.901  25.669  1.00  0.00    -0.082 Cl
ATOM     18  C   UNL A   1      31.616  24.115  26.602  1.00  0.00     0.026 A 
ATOM     19  Cl  UNL A   1      31.337  26.781  26.714  1.00  0.00    -0.083 Cl
BRANCH  10  20
ATOM     20  C   UNL A   1      36.381  20.792  24.958  1.00  0.00     0.430 C 
ATOM     21  F   UNL A   1      36.919  21.393  23.867  1.00  0.00    -0.167 F 
ATOM     22  F   UNL A   1      37.349  20.035  25.526  1.00  0.00    -0.167 F 
ATOM     23  F   UNL A   1      35.448  19.929  24.478  1.00  0.00    -0.167 F 
ENDBRANCH  10  20
ENDBRANCH   6   8
ENDBRANCH   5   6
ENDBRANCH   4   5
ENDBRANCH   3   4
ENDBRANCH   2   3
ENDBRANCH   1   2
BRANCH   1  24
ATOM     24  C   UNL A   1      43.599  21.916  25.382  1.00  0.00     0.261 C 
BRANCH  24  25
ATOM     25  O   UNL A   1      43.208  23.132  24.713  1.00  0.00    -0.460 OA
BRANCH  25  26
ATOM     26  C   UNL A   1      43.964  24.224  24.988  1.00  0.00     0.338 C 
ATOM     27  O   UNL A   1      45.041  24.506  24.471  1.00  0.00    -0.246 OA
BRANCH  26  28
ATOM     28  C   UNL A   1      43.299  25.117  25.976  1.00  0.00     0.060 A 
ATOM     29  C   UNL A   1      43.977  26.275  26.386  1.00  0.00     0.016 A 
ATOM     30  C   UNL A   1      42.029  24.849  26.502  1.00  0.00     0.016 A 
ATOM     31  C   UNL A   1      43.406  27.143  27.325  1.00  0.00     0.010 A 
ATOM     32  C   UNL A   1      41.454  25.722  27.438  1.00  0.00     0.010 A 
ATOM     33  C   UNL A   1      42.149  26.862  27.877  1.00  0.00    -0.014 A 
BRANCH  33  34
ATOM     34  C   UNL A   1      41.640  27.671  29.017  1.00  0.00     0.031 A 
ATOM     35  C   UNL A   1      42.331  27.562  30.350  1.00  0.00     0.074 A 
ATOM     36  C   UNL A   1      40.596  28.511  28.882  1.00  0.00     0.049 A 
ATOM     37  N   UNL A   1      42.100  28.212  31.464  1.00  0.00    -0.248 NA
ATOM     38  C   UNL A   1      43.427  26.584  30.438  1.00  0.00     0.031 C 
ATOM     39  C   UNL A   1      39.821  28.711  27.662  1.00  0.00     0.029 A 
ATOM     40  N   UNL A   1      40.006  29.353  29.796  1.00  0.00    -0.354 N 
ATOM     41  C   UNL A   1      43.039  27.743  32.374  1.00  0.00     0.074 A 
ATOM     42  C   UNL A   1      43.797  26.709  31.703  1.00  0.00     0.031 C 
ATOM     43  C   UNL A   1      38.855  29.617  27.899  1.00  0.00     0.029 A 
ATOM     44  C   UNL A   1      38.934  30.053  29.293  1.00  0.00     0.049 A 
ATOM     45  H   UNL A   1      40.322  29.447  30.724  1.00  0.00     0.167 HD
ATOM     46  C   UNL A   1      43.270  28.149  33.645  1.00  0.00     0.037 A 
ATOM     47  C   UNL A   1      38.112  30.940  29.890  1.00  0.00     0.037 A 
ATOM     48  C   UNL A   1      42.498  29.148  34.338  1.00  0.00     0.049 A 
ATOM     49  C   UNL A   1      38.346  31.326  31.331  1.00  0.00     0.074 A 
ATOM     50  C   UNL A   1      42.658  29.618  35.630  1.00  0.00     0.029 A 
ATOM     51  N   UNL A   1      41.410  29.819  33.802  1.00  0.00    -0.354 N 
ATOM     52  N   UNL A   1      39.279  30.924  32.160  1.00  0.00    -0.248 NA
ATOM     53  C   UNL A   1      37.415  32.307  31.914  1.00  0.00     0.031 C 
ATOM     54  C   UNL A   1      41.635  30.535  35.894  1.00  0.00     0.029 A 
ATOM     55  C   UNL A   1      40.874  30.683  34.746  1.00  0.00     0.049 A 
ATOM     56  H   UNL A   1      41.067  29.700  32.887  1.00  0.00     0.167 HD
ATOM     57  C   UNL A   1      39.065  31.622  33.345  1.00  0.00     0.074 A 
ATOM     58  C   UNL A   1      37.931  32.492  33.119  1.00  0.00     0.031 C 
ATOM     59  C   UNL A   1      39.745  31.547  34.517  1.00  0.00     0.037 A 
BRANCH  46  60
ATOM     60  C   UNL A   1      44.413  27.500  34.370  1.00  0.00     0.057 A 
ATOM     61  C   UNL A   1      45.699  28.057  34.359  1.00  0.00     0.134 A 
ATOM     62  C   UNL A   1      44.226  26.321  35.103  1.00  0.00     0.134 A 
ATOM     63  F   UNL A   1      45.948  29.178  33.664  1.00  0.00    -0.206 F 
ATOM     64  C   UNL A   1      46.764  27.451  35.027  1.00  0.00     0.040 A 
ATOM     65  C   UNL A   1      45.278  25.721  35.799  1.00  0.00     0.040 A 
ATOM     66  F   UNL A   1      43.020  25.737  35.159  1.00  0.00    -0.206 F 
ATOM     67  C   UNL A   1      46.552  26.282  35.755  1.00  0.00     0.006 A 
ENDBRANCH  46  60
BRANCH  47  68
ATOM     68  C   UNL A   1      36.973  31.535  29.140  1.00  0.00     0.057 A 
ATOM     69  C   UNL A   1      37.014  32.854  28.670  1.00  0.00     0.134 A 
ATOM     70  C   UNL A   1      35.787  30.819  28.934  1.00  0.00     0.134 A 
ATOM     71  F   UNL A   1      38.109  33.605  28.863  1.00  0.00    -0.206 F 
ATOM     72  C   UNL A   1      35.910  33.451  28.058  1.00  0.00     0.040 A 
ATOM     73  C   UNL A   1      34.686  31.392  28.294  1.00  0.00     0.040 A 
ATOM     74  F   UNL A   1      35.678  29.552  29.359  1.00  0.00    -0.206 F 
ATOM     75  C   UNL A   1      34.741  32.716  27.866  1.00  0.00     0.006 A 
ENDBRANCH  47  68
BRANCH  59  76
ATOM     76  C   UNL A   1      39.302  32.454  35.634  1.00  0.00     0.057 A 
ATOM     77  C   UNL A   1      38.367  32.050  36.597  1.00  0.00     0.134 A 
ATOM     78  C   UNL A   1      39.829  33.748  35.755  1.00  0.00     0.134 A 
ATOM     79  F   UNL A   1      37.816  30.829  36.539  1.00  0.00    -0.206 F 
ATOM     80  C   UNL A   1      37.941  32.912  37.611  1.00  0.00     0.040 A 
ATOM     81  C   UNL A   1      39.436  34.606  36.784  1.00  0.00     0.040 A 
ATOM     82  F   UNL A   1      40.740  34.198  34.879  1.00  0.00    -0.206 F 
ATOM     83  C   UNL A   1      38.480  34.193  37.708  1.00  0.00     0.006 A 
ENDBRANCH  59  76
ENDBRANCH  33  34
ENDBRANCH  26  28
ENDBRANCH  25  26
ENDBRANCH  24  25
ENDBRANCH   1  24
TORSDOF 15
ENDMDL
MODEL 3
REMARK VINA RESULT:     -10.9      0.843      6.176
REMARK SMILES O=C(OCCOCCOC(=O)c1ccc(-c2c3nc(c(-c4c(F)cccc4F)c4ccc([nH]4)c(-c4c(F)cccc4F)c4nc(c(-c5c(F)cccc5F)c5ccc2[nH]5)C=C4)C=C3)cc1)C1=Cc2c(ccc(Cl)c2Cl)O[C@H]1C(F)(F)F
REMARK SMILES IDX 7 1 6 2 5 3 4 4 3 5 2 6 1 7 66 8 67 9 77 10 68 11 76 12
REMARK SMILES IDX 69 13 74 14 70 15 72 16 75 17 71 18 73 19 78 20 79 21 80 22
REMARK SMILES IDX 81 23 8 24 9 25 10 26 11 27 12 28 13 29 65 30 14 31 64 32
REMARK SMILES IDX 15 33 16 34 17 35 58 36 18 37 63 38 57 39 59 40 19 41 62 42
REMARK SMILES IDX 56 43 55 44 20 46 46 47 29 48 45 49 30 50 33 51 44 52 60 53
REMARK SMILES IDX 31 54 32 55 43 57 61 58 34 59 21 60 22 61 27 62 23 63 24 64
REMARK SMILES IDX 26 65 28 66 25 67 47 68 48 69 53 70 49 71 50 72 52 73 54 74
REMARK SMILES IDX 51 75 35 76 36 77 41 78 37 79 38 80 40 81 42 82 39 83
REMARK H PARENT 59 45 33 56
REMARK Flexibility Score: inf
ROOT
ATOM      1  C   UNL A   1      31.687  32.163  26.743  1.00  0.00     0.202 C 
ENDROOT
BRANCH   1   2
ATOM      2  O   UNL A   1      32.100  30.806  26.649  1.00  0.00    -0.374 OA
BRANCH   2   3
ATOM      3  C   UNL A   1      33.355  30.545  27.281  1.00  0.00     0.202 C 
BRANCH   3   4
ATOM      4  C   UNL A   1      33.720  29.060  27.199  1.00  0.00     0.261 C 
BRANCH   4   5
ATOM      5  O   UNL A   1      34.338  28.706  25.945  1.00  0.00    -0.460 OA
BRANCH   5   6
ATOM      6  C   UNL A   1      33.770  28.023  24.920  1.00  0.00     0.338 C 
ATOM      7  O   UNL A   1      33.769  28.518  23.794  1.00  0.00    -0.246 OA
BRANCH   6   8
ATOM      8  C   UNL A   1      33.372  26.603  25.061  1.00  0.00     0.087 C 
ATOM      9  C   UNL A   1      33.991  25.663  25.781  1.00  0.00     0.029 C 
ATOM     10  C   UNL A   1      32.023  26.240  24.464  1.00  0.00     0.316 C 
ATOM     11  C   UNL A   1      33.960  24.317  25.249  1.00  0.00     0.037 A 
ATOM     12  O   UNL A   1      31.745  24.799  24.413  1.00  0.00    -0.475 OA
ATOM     13  C   UNL A   1      32.805  23.948  24.569  1.00  0.00     0.129 A 
ATOM     14  C   UNL A   1      35.080  23.457  25.275  1.00  0.00     0.070 A 
ATOM     15  C   UNL A   1      32.708  22.679  24.012  1.00  0.00     0.049 A 
ATOM     16  C   UNL A   1      34.994  22.200  24.672  1.00  0.00     0.060 A 
ATOM     17  Cl  UNL A   1      36.590  23.986  25.950  1.00  0.00    -0.082 Cl
ATOM     18  C   UNL A   1      33.802  21.807  24.061  1.00  0.00     0.026 A 
ATOM     19  Cl  UNL A   1      36.329  21.100  24.618  1.00  0.00    -0.083 Cl
BRANCH  10  20
ATOM     20  C   UNL A   1      30.874  26.951  25.246  1.00  0.00     0.430 C 
ATOM     21  F   UNL A   1      30.644  28.222  24.830  1.00  0.00    -0.167 F 
ATOM     22  F   UNL A   1      29.708  26.271  25.142  1.00  0.00    -0.167 F 
ATOM     23  F   UNL A   1      31.148  27.044  26.574  1.00  0.00    -0.167 F 
ENDBRANCH  10  20
ENDBRANCH   6   8
ENDBRANCH   5   6
ENDBRANCH   4   5
ENDBRANCH   3   4
ENDBRANCH   2   3
ENDBRANCH   1   2
BRANCH   1  24
ATOM     24  C   UNL A   1      32.791  33.089  27.259  1.00  0.00     0.261 C 
BRANCH  24  25
ATOM     25  O   UNL A   1      32.262  34.194  28.019  1.00  0.00    -0.460 OA
BRANCH  25  26
ATOM     26  C   UNL A   1      33.184  34.993  28.615  1.00  0.00     0.338 C 
ATOM     27  O   UNL A   1      33.090  36.205  28.782  1.00  0.00    -0.246 OA
BRANCH  26  28
ATOM     28  C   UNL A   1      34.342  34.208  29.124  1.00  0.00     0.060 A 
ATOM     29  C   UNL A   1      34.096  33.193  30.061  1.00  0.00     0.016 A 
ATOM     30  C   UNL A   1      35.657  34.438  28.699  1.00  0.00     0.016 A 
ATOM     31  C   UNL A   1      35.149  32.434  30.586  1.00  0.00     0.010 A 
ATOM     32  C   UNL A   1      36.711  33.672  29.220  1.00  0.00     0.010 A 
ATOM     33  C   UNL A   1      36.469  32.682  30.187  1.00  0.00    -0.014 A 
BRANCH  33  34
ATOM     34  C   UNL A   1      37.596  32.018  30.894  1.00  0.00     0.031 A 
ATOM     35  C   UNL A   1      38.302  30.872  30.220  1.00  0.00     0.074 A 
ATOM     36  C   UNL A   1      38.014  32.427  32.107  1.00  0.00     0.049 A 
ATOM     37  N   UNL A   1      39.343  30.183  30.618  1.00  0.00    -0.248 NA
ATOM     38  C   UNL A   1      37.756  30.443  28.922  1.00  0.00     0.031 C 
ATOM     39  C   UNL A   1      37.421  33.509  32.887  1.00  0.00     0.029 A 
ATOM     40  N   UNL A   1      39.042  31.968  32.897  1.00  0.00    -0.354 N 
ATOM     41  C   UNL A   1      39.594  29.262  29.610  1.00  0.00     0.074 A 
ATOM     42  C   UNL A   1      38.558  29.435  28.614  1.00  0.00     0.031 C 
ATOM     43  C   UNL A   1      38.093  33.632  34.046  1.00  0.00     0.029 A 
ATOM     44  C   UNL A   1      39.157  32.629  34.098  1.00  0.00     0.049 A 
ATOM     45  H   UNL A   1      39.641  31.234  32.629  1.00  0.00     0.167 HD
ATOM     46  C   UNL A   1      40.605  28.367  29.505  1.00  0.00     0.037 A 
ATOM     47  C   UNL A   1      40.018  32.445  35.119  1.00  0.00     0.037 A 
ATOM     48  C   UNL A   1      41.619  28.157  30.505  1.00  0.00     0.049 A 
ATOM     49  C   UNL A   1      41.095  31.393  35.009  1.00  0.00     0.074 A 
ATOM     50  C   UNL A   1      42.679  27.268  30.485  1.00  0.00     0.029 A 
ATOM     51  N   UNL A   1      41.689  28.832  31.714  1.00  0.00    -0.354 N 
ATOM     52  N   UNL A   1      41.362  30.574  34.021  1.00  0.00    -0.248 NA
ATOM     53  C   UNL A   1      42.006  31.254  36.158  1.00  0.00     0.031 C 
ATOM     54  C   UNL A   1      43.360  27.368  31.703  1.00  0.00     0.029 A 
ATOM     55  C   UNL A   1      42.762  28.363  32.457  1.00  0.00     0.049 A 
ATOM     56  H   UNL A   1      41.069  29.540  32.002  1.00  0.00     0.167 HD
ATOM     57  C   UNL A   1      42.481  29.847  34.416  1.00  0.00     0.074 A 
ATOM     58  C   UNL A   1      42.861  30.342  35.722  1.00  0.00     0.031 C 
ATOM     59  C   UNL A   1      43.136  28.858  33.757  1.00  0.00     0.037 A 
BRANCH  46  60
ATOM     60  C   UNL A   1      40.657  27.543  28.251  1.00  0.00     0.057 A 
ATOM     61  C   UNL A   1      41.397  27.954  27.133  1.00  0.00     0.134 A 
ATOM     62  C   UNL A   1      39.982  26.320  28.164  1.00  0.00     0.134 A 
ATOM     63  F   UNL A   1      42.055  29.124  27.147  1.00  0.00    -0.206 F 
ATOM     64  C   UNL A   1      41.441  27.192  25.965  1.00  0.00     0.040 A 
ATOM     65  C   UNL A   1      40.042  25.535  27.010  1.00  0.00     0.040 A 
ATOM     66  F   UNL A   1      39.258  25.864  29.198  1.00  0.00    -0.206 F 
ATOM     67  C   UNL A   1      40.766  25.975  25.904  1.00  0.00     0.006 A 
ENDBRANCH  46  60
BRANCH  47  68
ATOM     68  C   UNL A   1      39.908  33.267  36.355  1.00  0.00     0.057 A 
ATOM     69  C   UNL A   1      39.068  32.893  37.411  1.00  0.00     0.134 A 
ATOM     70  C   UNL A   1      40.592  34.483  36.479  1.00  0.00     0.134 A 
ATOM     71  F   UNL A   1      38.361  31.755  37.342  1.00  0.00    -0.206 F 
ATOM     72  C   UNL A   1      38.883  33.713  38.527  1.00  0.00     0.040 A 
ATOM     73  C   UNL A   1      40.440  35.297  37.603  1.00  0.00     0.040 A 
ATOM     74  F   UNL A   1      41.411  34.903  35.504  1.00  0.00    -0.206 F 
ATOM     75  C   UNL A   1      39.573  34.919  38.626  1.00  0.00     0.006 A 
ENDBRANCH  47  68
BRANCH  59  76
ATOM     76  C   UNL A   1      44.350  28.267  34.423  1.00  0.00     0.057 A 
ATOM     77  C   UNL A   1      44.270  27.141  35.255  1.00  0.00     0.134 A 
ATOM     78  C   UNL A   1      45.619  28.827  34.221  1.00  0.00     0.134 A 
ATOM     79  F   UNL A   1      43.088  26.558  35.499  1.00  0.00    -0.206 F 
ATOM     80  C   UNL A   1      45.400  26.621  35.892  1.00  0.00     0.040 A 
ATOM     81  C   UNL A   1      46.760  28.295  34.826  1.00  0.00     0.040 A 
ATOM     82  F   UNL A   1      45.774  29.896  33.426  1.00  0.00    -0.206 F 
ATOM     83  C   UNL A   1      46.650  27.196  35.674  1.00  0.00     0.006 A 
ENDBRANCH  59  76
ENDBRANCH  33  34
ENDBRANCH  26  28
ENDBRANCH  25  26
ENDBRANCH  24  25
ENDBRANCH   1  24
TORSDOF 15
ENDMDL
