MODEL 1
REMARK VINA RESULT:     -11.1      0.000      0.000
REMARK SMILES COc1cc(Cl)c2c(c1)C=C(C(=O)OCCOCCOC(=O)c1ccc(-c3c4nc(c(-c5c(F)cccc5F)c5ccc([nH]5)c(-c5c(F)cccc5F)c5nc(c(-c6c(F)cccc6F)c6ccc3[nH]6)C=C5)C=C4)cc1)[C@@H](C(F)(F)F)O2
REMARK SMILES IDX 18 1 17 2 16 3 15 4 14 5 12 6 13 7 11 8 3 9 4 10 9 11 5 12
REMARK SMILES IDX 8 13 6 14 7 15 10 16 82 17 77 18 2 19 1 20 78 21 79 22 80 23
REMARK SMILES IDX 81 24 19 25 20 26 21 27 22 28 23 29 24 30 76 31 25 32 75 33
REMARK SMILES IDX 26 34 27 35 28 36 69 37 29 38 74 39 68 40 70 41 30 42 73 43
REMARK SMILES IDX 67 44 66 45 31 47 57 48 40 49 56 50 41 51 44 52 55 53 71 54
REMARK SMILES IDX 42 55 43 56 54 58 72 59 45 60 32 61 33 62 38 63 34 64 35 65
REMARK SMILES IDX 37 66 39 67 36 68 58 69 59 70 64 71 60 72 61 73 63 74 65 75
REMARK SMILES IDX 62 76 46 77 47 78 52 79 48 80 49 81 51 82 53 83 50 84
REMARK H PARENT 70 46 44 57
REMARK Flexibility Score: inf
ROOT
ATOM      1  C   UNL A   1      41.973  20.840  26.280  1.00  0.00     0.202 C 
ENDROOT
BRANCH   1   2
ATOM      2  O   UNL A   1      40.694  21.149  25.717  1.00  0.00    -0.374 OA
BRANCH   2   3
ATOM      3  C   UNL A   1      39.661  21.553  26.610  1.00  0.00     0.202 C 
BRANCH   3   4
ATOM      4  C   UNL A   1      38.788  22.721  26.145  1.00  0.00     0.261 C 
BRANCH   4   5
ATOM      5  O   UNL A   1      37.394  22.374  26.147  1.00  0.00    -0.460 OA
BRANCH   5   6
ATOM      6  C   UNL A   1      36.921  21.956  24.951  1.00  0.00     0.338 C 
ATOM      7  O   UNL A   1      37.399  21.089  24.235  1.00  0.00    -0.246 OA
BRANCH   6   8
ATOM      8  C   UNL A   1      35.643  22.629  24.651  1.00  0.00     0.087 C 
ATOM      9  C   UNL A   1      32.993  26.606  25.100  1.00  0.00     0.121 A 
ATOM     10  C   UNL A   1      31.876  25.943  24.600  1.00  0.00     0.070 A 
ATOM     11  C   UNL A   1      34.227  25.965  25.158  1.00  0.00     0.058 A 
ATOM     12  C   UNL A   1      31.997  24.617  24.176  1.00  0.00     0.087 A 
ATOM     13  C   UNL A   1      34.339  24.627  24.766  1.00  0.00     0.022 A 
ATOM     14  Cl  UNL A   1      30.587  23.823  23.569  1.00  0.00    -0.080 Cl
ATOM     15  C   UNL A   1      33.227  23.947  24.260  1.00  0.00     0.146 A 
ATOM     16  C   UNL A   1      35.603  23.936  24.933  1.00  0.00     0.027 C 
ATOM     17  O   UNL A   1      33.294  22.652  23.817  1.00  0.00    -0.474 OA
ATOM     18  C   UNL A   1      34.480  21.857  24.096  1.00  0.00     0.316 C 
BRANCH   9  19
ATOM     19  O   UNL A   1      32.951  27.914  25.494  1.00  0.00    -0.497 OA
ATOM     20  C   UNL A   1      33.798  28.152  26.619  1.00  0.00     0.278 C 
ENDBRANCH   9  19
BRANCH  18  21
ATOM     21  C   UNL A   1      34.077  20.677  24.994  1.00  0.00     0.430 C 
ATOM     22  F   UNL A   1      34.205  20.989  26.305  1.00  0.00    -0.167 F 
ATOM     23  F   UNL A   1      32.785  20.322  24.807  1.00  0.00    -0.167 F 
ATOM     24  F   UNL A   1      34.835  19.581  24.761  1.00  0.00    -0.167 F 
ENDBRANCH  18  21
ENDBRANCH   6   8
ENDBRANCH   5   6
ENDBRANCH   4   5
ENDBRANCH   3   4
ENDBRANCH   2   3
ENDBRANCH   1   2
BRANCH   1  25
ATOM     25  C   UNL A   1      43.161  21.655  25.758  1.00  0.00     0.261 C 
BRANCH  25  26
ATOM     26  O   UNL A   1      42.716  22.784  24.979  1.00  0.00    -0.460 OA
BRANCH  26  27
ATOM     27  C   UNL A   1      43.484  23.892  25.095  1.00  0.00     0.338 C 
ATOM     28  O   UNL A   1      44.584  24.093  24.605  1.00  0.00    -0.246 OA
BRANCH  27  29
ATOM     29  C   UNL A   1      42.735  24.950  25.789  1.00  0.00     0.060 A 
ATOM     30  C   UNL A   1      43.310  26.227  25.855  1.00  0.00     0.016 A 
ATOM     31  C   UNL A   1      41.572  24.653  26.500  1.00  0.00     0.016 A 
ATOM     32  C   UNL A   1      42.754  27.199  26.683  1.00  0.00     0.010 A 
ATOM     33  C   UNL A   1      41.029  25.622  27.348  1.00  0.00     0.010 A 
ATOM     34  C   UNL A   1      41.647  26.879  27.479  1.00  0.00    -0.014 A 
BRANCH  34  35
ATOM     35  C   UNL A   1      41.294  27.757  28.618  1.00  0.00     0.031 A 
ATOM     36  C   UNL A   1      42.093  27.627  29.888  1.00  0.00     0.074 A 
ATOM     37  C   UNL A   1      40.299  28.655  28.528  1.00  0.00     0.049 A 
ATOM     38  N   UNL A   1      41.931  28.231  31.037  1.00  0.00    -0.248 NA
ATOM     39  C   UNL A   1      43.231  26.693  29.854  1.00  0.00     0.031 C 
ATOM     40  C   UNL A   1      39.495  28.915  27.337  1.00  0.00     0.029 A 
ATOM     41  N   UNL A   1      39.791  29.510  29.473  1.00  0.00    -0.354 N 
ATOM     42  C   UNL A   1      42.943  27.751  31.859  1.00  0.00     0.074 A 
ATOM     43  C   UNL A   1      43.704  26.794  31.087  1.00  0.00     0.031 C 
ATOM     44  C   UNL A   1      38.573  29.849  27.631  1.00  0.00     0.029 A 
ATOM     45  C   UNL A   1      38.706  30.229  29.036  1.00  0.00     0.049 A 
ATOM     46  H   UNL A   1      40.168  29.599  30.380  1.00  0.00     0.167 HD
ATOM     47  C   UNL A   1      43.214  28.078  33.144  1.00  0.00     0.037 A 
ATOM     48  C   UNL A   1      37.898  31.070  29.711  1.00  0.00     0.037 A 
ATOM     49  C   UNL A   1      42.449  29.016  33.918  1.00  0.00     0.049 A 
ATOM     50  C   UNL A   1      38.161  31.339  31.169  1.00  0.00     0.074 A 
ATOM     51  C   UNL A   1      42.641  29.412  35.229  1.00  0.00     0.029 A 
ATOM     52  N   UNL A   1      41.340  29.699  33.447  1.00  0.00    -0.354 N 
ATOM     53  N   UNL A   1      39.131  30.895  31.933  1.00  0.00    -0.248 NA
ATOM     54  C   UNL A   1      37.212  32.224  31.863  1.00  0.00     0.031 C 
ATOM     55  C   UNL A   1      41.621  30.307  35.567  1.00  0.00     0.029 A 
ATOM     56  C   UNL A   1      40.820  30.497  34.452  1.00  0.00     0.049 A 
ATOM     57  H   UNL A   1      40.974  29.626  32.537  1.00  0.00     0.167 HD
ATOM     58  C   UNL A   1      38.930  31.474  33.180  1.00  0.00     0.074 A 
ATOM     59  C   UNL A   1      37.747  32.302  33.073  1.00  0.00     0.031 C 
ATOM     60  C   UNL A   1      39.660  31.337  34.313  1.00  0.00     0.037 A 
BRANCH  47  61
ATOM     61  C   UNL A   1      44.372  27.390  33.801  1.00  0.00     0.057 A 
ATOM     62  C   UNL A   1      45.662  27.925  33.712  1.00  0.00     0.134 A 
ATOM     63  C   UNL A   1      44.214  26.183  34.492  1.00  0.00     0.134 A 
ATOM     64  F   UNL A   1      45.879  29.080  33.064  1.00  0.00    -0.206 F 
ATOM     65  C   UNL A   1      46.759  27.278  34.284  1.00  0.00     0.040 A 
ATOM     66  C   UNL A   1      45.301  25.537  35.085  1.00  0.00     0.040 A 
ATOM     67  F   UNL A   1      42.999  25.630  34.626  1.00  0.00    -0.206 F 
ATOM     68  C   UNL A   1      46.579  26.082  34.975  1.00  0.00     0.006 A 
ENDBRANCH  47  61
BRANCH  48  69
ATOM     69  C   UNL A   1      36.735  31.702  29.036  1.00  0.00     0.057 A 
ATOM     70  C   UNL A   1      35.557  30.984  28.798  1.00  0.00     0.134 A 
ATOM     71  C   UNL A   1      36.752  33.054  28.678  1.00  0.00     0.134 A 
ATOM     72  F   UNL A   1      35.476  29.686  29.123  1.00  0.00    -0.206 F 
ATOM     73  C   UNL A   1      34.436  31.590  28.229  1.00  0.00     0.040 A 
ATOM     74  C   UNL A   1      35.630  33.678  28.129  1.00  0.00     0.040 A 
ATOM     75  F   UNL A   1      37.843  33.799  28.906  1.00  0.00    -0.206 F 
ATOM     76  C   UNL A   1      34.467  32.944  27.903  1.00  0.00     0.006 A 
ENDBRANCH  48  69
BRANCH  60  77
ATOM     77  C   UNL A   1      39.243  32.142  35.507  1.00  0.00     0.057 A 
ATOM     78  C   UNL A   1      38.350  31.608  36.445  1.00  0.00     0.134 A 
ATOM     79  C   UNL A   1      39.676  33.459  35.699  1.00  0.00     0.134 A 
ATOM     80  F   UNL A   1      37.892  30.354  36.311  1.00  0.00    -0.206 F 
ATOM     81  C   UNL A   1      37.897  32.359  37.529  1.00  0.00     0.040 A 
ATOM     82  C   UNL A   1      39.247  34.212  36.792  1.00  0.00     0.040 A 
ATOM     83  F   UNL A   1      40.541  34.022  34.841  1.00  0.00    -0.206 F 
ATOM     84  C   UNL A   1      38.348  33.665  37.706  1.00  0.00     0.006 A 
ENDBRANCH  60  77
ENDBRANCH  34  35
ENDBRANCH  27  29
ENDBRANCH  26  27
ENDBRANCH  25  26
ENDBRANCH   1  25
TORSDOF 16
ENDMDL
MODEL 2
REMARK VINA RESULT:     -11.1      2.635      7.546
REMARK SMILES COc1cc(Cl)c2c(c1)C=C(C(=O)OCCOCCOC(=O)c1ccc(-c3c4nc(c(-c5c(F)cccc5F)c5ccc([nH]5)c(-c5c(F)cccc5F)c5nc(c(-c6c(F)cccc6F)c6ccc3[nH]6)C=C5)C=C4)cc1)[C@@H](C(F)(F)F)O2
REMARK SMILES IDX 18 1 17 2 16 3 15 4 14 5 12 6 13 7 11 8 3 9 4 10 9 11 5 12
REMARK SMILES IDX 8 13 6 14 7 15 10 16 82 17 77 18 2 19 1 20 78 21 79 22 80 23
REMARK SMILES IDX 81 24 19 25 20 26 21 27 22 28 23 29 24 30 76 31 25 32 75 33
REMARK SMILES IDX 26 34 27 35 28 36 69 37 29 38 74 39 68 40 70 41 30 42 73 43
REMARK SMILES IDX 67 44 66 45 31 47 57 48 40 49 56 50 41 51 44 52 55 53 71 54
REMARK SMILES IDX 42 55 43 56 54 58 72 59 45 60 32 61 33 62 38 63 34 64 35 65
REMARK SMILES IDX 37 66 39 67 36 68 58 69 59 70 64 71 60 72 61 73 63 74 65 75
REMARK SMILES IDX 62 76 46 77 47 78 52 79 48 80 49 81 51 82 53 83 50 84
REMARK H PARENT 70 46 44 57
REMARK Flexibility Score: inf
ROOT
ATOM      1  C   UNL A   1      31.341  29.087  25.275  1.00  0.00     0.202 C 
ENDROOT
BRANCH   1   2
ATOM      2  O   UNL A   1      31.522  28.769  23.892  1.00  0.00    -0.374 OA
BRANCH   2   3
ATOM      3  C   UNL A   1      30.581  27.884  23.290  1.00  0.00     0.202 C 
BRANCH   3   4
ATOM      4  C   UNL A   1      31.031  27.202  21.996  1.00  0.00     0.261 C 
BRANCH   4   5
ATOM      5  O   UNL A   1      31.415  25.837  22.222  1.00  0.00    -0.460 OA
BRANCH   5   6
ATOM      6  C   UNL A   1      32.671  25.536  21.818  1.00  0.00     0.338 C 
ATOM      7  O   UNL A   1      33.318  26.102  20.950  1.00  0.00    -0.246 OA
BRANCH   6   8
ATOM      8  C   UNL A   1      33.226  24.460  22.660  1.00  0.00     0.087 C 
ATOM      9  C   UNL A   1      32.784  19.944  24.224  1.00  0.00     0.121 A 
ATOM     10  C   UNL A   1      33.789  20.149  25.165  1.00  0.00     0.070 A 
ATOM     11  C   UNL A   1      32.454  20.944  23.315  1.00  0.00     0.058 A 
ATOM     12  C   UNL A   1      34.452  21.379  25.204  1.00  0.00     0.087 A 
ATOM     13  C   UNL A   1      33.094  22.186  23.378  1.00  0.00     0.022 A 
ATOM     14  Cl  UNL A   1      35.689  21.601  26.391  1.00  0.00    -0.080 Cl
ATOM     15  C   UNL A   1      34.107  22.408  24.316  1.00  0.00     0.146 A 
ATOM     16  C   UNL A   1      32.667  23.256  22.497  1.00  0.00     0.027 C 
ATOM     17  O   UNL A   1      34.799  23.588  24.387  1.00  0.00    -0.474 OA
ATOM     18  C   UNL A   1      34.324  24.747  23.646  1.00  0.00     0.316 C 
BRANCH   9  19
ATOM     19  O   UNL A   1      32.125  18.752  24.108  1.00  0.00    -0.497 OA
ATOM     20  C   UNL A   1      32.430  18.100  22.875  1.00  0.00     0.278 C 
ENDBRANCH   9  19
BRANCH  18  21
ATOM     21  C   UNL A   1      33.940  25.845  24.649  1.00  0.00     0.430 C 
ATOM     22  F   UNL A   1      34.063  27.078  24.100  1.00  0.00    -0.167 F 
ATOM     23  F   UNL A   1      32.654  25.730  25.053  1.00  0.00    -0.167 F 
ATOM     24  F   UNL A   1      34.716  25.814  25.756  1.00  0.00    -0.167 F 
ENDBRANCH  18  21
ENDBRANCH   6   8
ENDBRANCH   5   6
ENDBRANCH   4   5
ENDBRANCH   3   4
ENDBRANCH   2   3
ENDBRANCH   1   2
BRANCH   1  25
ATOM     25  C   UNL A   1      31.933  30.419  25.750  1.00  0.00     0.261 C 
BRANCH  25  26
ATOM     26  O   UNL A   1      32.819  30.225  26.871  1.00  0.00    -0.460 OA
BRANCH  26  27
ATOM     27  C   UNL A   1      33.432  31.348  27.311  1.00  0.00     0.338 C 
ATOM     28  O   UNL A   1      32.927  32.437  27.532  1.00  0.00    -0.246 OA
BRANCH  27  29
ATOM     29  C   UNL A   1      34.828  31.050  27.664  1.00  0.00     0.060 A 
ATOM     30  C   UNL A   1      35.189  29.707  27.840  1.00  0.00     0.016 A 
ATOM     31  C   UNL A   1      35.719  32.077  27.977  1.00  0.00     0.016 A 
ATOM     32  C   UNL A   1      36.429  29.385  28.387  1.00  0.00     0.010 A 
ATOM     33  C   UNL A   1      36.954  31.754  28.547  1.00  0.00     0.010 A 
ATOM     34  C   UNL A   1      37.290  30.411  28.799  1.00  0.00    -0.014 A 
BRANCH  34  35
ATOM     35  C   UNL A   1      38.413  30.093  29.711  1.00  0.00     0.031 A 
ATOM     36  C   UNL A   1      39.467  29.130  29.229  1.00  0.00     0.074 A 
ATOM     37  C   UNL A   1      38.507  30.650  30.929  1.00  0.00     0.049 A 
ATOM     38  N   UNL A   1      40.502  28.644  29.864  1.00  0.00    -0.248 NA
ATOM     39  C   UNL A   1      39.336  28.656  27.840  1.00  0.00     0.031 C 
ATOM     40  C   UNL A   1      37.584  31.638  31.483  1.00  0.00     0.029 A 
ATOM     41  N   UNL A   1      39.426  30.448  31.927  1.00  0.00    -0.354 N 
ATOM     42  C   UNL A   1      41.141  27.810  28.956  1.00  0.00     0.074 A 
ATOM     43  C   UNL A   1      40.374  27.840  27.732  1.00  0.00     0.031 C 
ATOM     44  C   UNL A   1      37.971  31.937  32.737  1.00  0.00     0.029 A 
ATOM     45  C   UNL A   1      39.148  31.140  33.079  1.00  0.00     0.049 A 
ATOM     46  H   UNL A   1      40.211  29.860  31.826  1.00  0.00     0.167 HD
ATOM     47  C   UNL A   1      42.270  27.083  29.127  1.00  0.00     0.037 A 
ATOM     48  C   UNL A   1      39.760  31.104  34.278  1.00  0.00     0.037 A 
ATOM     49  C   UNL A   1      43.026  27.039  30.348  1.00  0.00     0.049 A 
ATOM     50  C   UNL A   1      40.955  30.208  34.473  1.00  0.00     0.074 A 
ATOM     51  C   UNL A   1      44.181  26.330  30.623  1.00  0.00     0.029 A 
ATOM     52  N   UNL A   1      42.693  27.731  31.501  1.00  0.00    -0.354 N 
ATOM     53  N   UNL A   1      41.564  29.438  33.603  1.00  0.00    -0.248 NA
ATOM     54  C   UNL A   1      41.545  30.172  35.820  1.00  0.00     0.031 C 
ATOM     55  C   UNL A   1      44.527  26.562  31.959  1.00  0.00     0.029 A 
ATOM     56  C   UNL A   1      43.608  27.447  32.500  1.00  0.00     0.049 A 
ATOM     57  H   UNL A   1      41.921  28.334  31.596  1.00  0.00     0.167 HD
ATOM     58  C   UNL A   1      42.627  28.858  34.286  1.00  0.00     0.074 A 
ATOM     59  C   UNL A   1      42.582  29.365  35.642  1.00  0.00     0.031 C 
ATOM     60  C   UNL A   1      43.561  27.987  33.833  1.00  0.00     0.037 A 
BRANCH  47  61
ATOM     61  C   UNL A   1      42.738  26.253  27.971  1.00  0.00     0.057 A 
ATOM     62  C   UNL A   1      42.303  24.931  27.822  1.00  0.00     0.134 A 
ATOM     63  C   UNL A   1      43.642  26.752  27.026  1.00  0.00     0.134 A 
ATOM     64  F   UNL A   1      41.436  24.395  28.694  1.00  0.00    -0.206 F 
ATOM     65  C   UNL A   1      42.758  24.129  26.774  1.00  0.00     0.040 A 
ATOM     66  C   UNL A   1      44.089  25.965  25.962  1.00  0.00     0.040 A 
ATOM     67  F   UNL A   1      44.080  28.016  27.106  1.00  0.00    -0.206 F 
ATOM     68  C   UNL A   1      43.652  24.647  25.839  1.00  0.00     0.006 A 
ENDBRANCH  47  61
BRANCH  48  69
ATOM     69  C   UNL A   1      39.243  31.911  35.413  1.00  0.00     0.057 A 
ATOM     70  C   UNL A   1      39.580  33.263  35.555  1.00  0.00     0.134 A 
ATOM     71  C   UNL A   1      38.349  31.368  36.341  1.00  0.00     0.134 A 
ATOM     72  F   UNL A   1      40.429  33.844  34.694  1.00  0.00    -0.206 F 
ATOM     73  C   UNL A   1      39.044  34.046  36.577  1.00  0.00     0.040 A 
ATOM     74  C   UNL A   1      37.786  32.145  37.355  1.00  0.00     0.040 A 
ATOM     75  F   UNL A   1      37.968  30.086  36.241  1.00  0.00    -0.206 F 
ATOM     76  C   UNL A   1      38.135  33.489  37.476  1.00  0.00     0.006 A 
ENDBRANCH  48  69
BRANCH  60  77
ATOM     77  C   UNL A   1      44.642  27.574  34.785  1.00  0.00     0.057 A 
ATOM     78  C   UNL A   1      44.483  26.437  35.587  1.00  0.00     0.134 A 
ATOM     79  C   UNL A   1      45.810  28.328  34.949  1.00  0.00     0.134 A 
ATOM     80  F   UNL A   1      43.382  25.679  35.482  1.00  0.00    -0.206 F 
ATOM     81  C   UNL A   1      45.446  26.068  36.526  1.00  0.00     0.040 A 
ATOM     82  C   UNL A   1      46.791  27.956  35.870  1.00  0.00     0.040 A 
ATOM     83  F   UNL A   1      46.025  29.421  34.201  1.00  0.00    -0.206 F 
ATOM     84  C   UNL A   1      46.606  26.827  36.667  1.00  0.00     0.006 A 
ENDBRANCH  60  77
ENDBRANCH  34  35
ENDBRANCH  27  29
ENDBRANCH  26  27
ENDBRANCH  25  26
ENDBRANCH   1  25
TORSDOF 16
ENDMDL
MODEL 3
REMARK VINA RESULT:     -11.1      3.457      8.253
REMARK SMILES COc1cc(Cl)c2c(c1)C=C(C(=O)OCCOCCOC(=O)c1ccc(-c3c4nc(c(-c5c(F)cccc5F)c5ccc([nH]5)c(-c5c(F)cccc5F)c5nc(c(-c6c(F)cccc6F)c6ccc3[nH]6)C=C5)C=C4)cc1)[C@@H](C(F)(F)F)O2
REMARK SMILES IDX 18 1 17 2 16 3 15 4 14 5 12 6 13 7 11 8 3 9 4 10 9 11 5 12
REMARK SMILES IDX 8 13 6 14 7 15 10 16 82 17 77 18 2 19 1 20 78 21 79 22 80 23
REMARK SMILES IDX 81 24 19 25 20 26 21 27 22 28 23 29 24 30 76 31 25 32 75 33
REMARK SMILES IDX 26 34 27 35 28 36 69 37 29 38 74 39 68 40 70 41 30 42 73 43
REMARK SMILES IDX 67 44 66 45 31 47 57 48 40 49 56 50 41 51 44 52 55 53 71 54
REMARK SMILES IDX 42 55 43 56 54 58 72 59 45 60 32 61 33 62 38 63 34 64 35 65
REMARK SMILES IDX 37 66 39 67 36 68 58 69 59 70 64 71 60 72 61 73 63 74 65 75
REMARK SMILES IDX 62 76 46 77 47 78 52 79 48 80 49 81 51 82 53 83 50 84
REMARK H PARENT 70 46 44 57
REMARK Flexibility Score: inf
ROOT
ATOM      1  C   UNL A   1      31.682  30.362  26.107  1.00  0.00     0.202 C 
ENDROOT
BRANCH   1   2
ATOM      2  O   UNL A   1      32.648  29.421  26.585  1.00  0.00    -0.374 OA
BRANCH   2   3
ATOM      3  C   UNL A   1      33.659  28.995  25.676  1.00  0.00     0.202 C 
BRANCH   3   4
ATOM      4  C   UNL A   1      33.701  27.495  25.370  1.00  0.00     0.261 C 
BRANCH   4   5
ATOM      5  O   UNL A   1      33.556  27.238  23.965  1.00  0.00    -0.460 OA
BRANCH   5   6
ATOM      6  C   UNL A   1      32.709  26.226  23.666  1.00  0.00     0.338 C 
ATOM      7  O   UNL A   1      32.975  25.035  23.624  1.00  0.00    -0.246 OA
BRANCH   6   8
ATOM      8  C   UNL A   1      31.341  26.750  23.493  1.00  0.00     0.087 C 
ATOM      9  C   UNL A   1      28.590  30.414  22.063  1.00  0.00     0.121 A 
ATOM     10  C   UNL A   1      27.463  29.809  22.611  1.00  0.00     0.070 A 
ATOM     11  C   UNL A   1      29.819  29.761  22.077  1.00  0.00     0.058 A 
ATOM     12  C   UNL A   1      27.579  28.546  23.198  1.00  0.00     0.087 A 
ATOM     13  C   UNL A   1      29.940  28.513  22.696  1.00  0.00     0.022 A 
ATOM     14  Cl  UNL A   1      26.160  27.829  23.876  1.00  0.00    -0.080 Cl
ATOM     15  C   UNL A   1      28.817  27.890  23.250  1.00  0.00     0.146 A 
ATOM     16  C   UNL A   1      31.246  27.891  22.801  1.00  0.00     0.027 C 
ATOM     17  O   UNL A   1      28.872  26.647  23.822  1.00  0.00    -0.474 OA
ATOM     18  C   UNL A   1      30.164  26.039  24.099  1.00  0.00     0.316 C 
BRANCH   9  19
ATOM     19  O   UNL A   1      28.537  31.631  21.441  1.00  0.00    -0.497 OA
ATOM     20  C   UNL A   1      28.775  32.700  22.357  1.00  0.00     0.278 C 
ENDBRANCH   9  19
BRANCH  18  21
ATOM     21  C   UNL A   1      30.305  25.857  25.618  1.00  0.00     0.430 C 
ATOM     22  F   UNL A   1      30.754  26.990  26.209  1.00  0.00    -0.167 F 
ATOM     23  F   UNL A   1      29.119  25.563  26.200  1.00  0.00    -0.167 F 
ATOM     24  F   UNL A   1      31.167  24.864  25.932  1.00  0.00    -0.167 F 
ENDBRANCH  18  21
ENDBRANCH   6   8
ENDBRANCH   5   6
ENDBRANCH   4   5
ENDBRANCH   3   4
ENDBRANCH   2   3
ENDBRANCH   1   2
BRANCH   1  25
ATOM     25  C   UNL A   1      31.765  31.778  26.690  1.00  0.00     0.261 C 
BRANCH  25  26
ATOM     26  O   UNL A   1      33.066  32.032  27.256  1.00  0.00    -0.460 OA
BRANCH  26  27
ATOM     27  C   UNL A   1      33.191  33.227  27.879  1.00  0.00     0.338 C 
ATOM     28  O   UNL A   1      32.384  34.143  27.906  1.00  0.00    -0.246 OA
BRANCH  27  29
ATOM     29  C   UNL A   1      34.412  33.239  28.699  1.00  0.00     0.060 A 
ATOM     30  C   UNL A   1      35.612  33.625  28.084  1.00  0.00     0.016 A 
ATOM     31  C   UNL A   1      34.405  32.726  29.996  1.00  0.00     0.016 A 
ATOM     32  C   UNL A   1      36.823  33.443  28.747  1.00  0.00     0.010 A 
ATOM     33  C   UNL A   1      35.623  32.522  30.651  1.00  0.00     0.010 A 
ATOM     34  C   UNL A   1      36.836  32.833  30.008  1.00  0.00    -0.014 A 
BRANCH  34  35
ATOM     35  C   UNL A   1      38.109  32.297  30.542  1.00  0.00     0.031 A 
ATOM     36  C   UNL A   1      38.640  31.015  29.954  1.00  0.00     0.074 A 
ATOM     37  C   UNL A   1      38.786  32.932  31.512  1.00  0.00     0.049 A 
ATOM     38  N   UNL A   1      39.690  30.315  30.298  1.00  0.00    -0.248 NA
ATOM     39  C   UNL A   1      37.885  30.451  28.822  1.00  0.00     0.031 C 
ATOM     40  C   UNL A   1      38.407  34.206  32.117  1.00  0.00     0.029 A 
ATOM     41  N   UNL A   1      39.938  32.575  32.167  1.00  0.00    -0.354 N 
ATOM     42  C   UNL A   1      39.720  29.232  29.429  1.00  0.00     0.074 A 
ATOM     43  C   UNL A   1      38.578  29.355  28.552  1.00  0.00     0.031 C 
ATOM     44  C   UNL A   1      39.298  34.512  33.078  1.00  0.00     0.029 A 
ATOM     45  C   UNL A   1      40.289  33.443  33.171  1.00  0.00     0.049 A 
ATOM     46  H   UNL A   1      40.462  31.772  31.940  1.00  0.00     0.167 HD
ATOM     47  C   UNL A   1      40.621  28.224  29.367  1.00  0.00     0.037 A 
ATOM     48  C   UNL A   1      41.281  33.358  34.079  1.00  0.00     0.037 A 
ATOM     49  C   UNL A   1      41.747  28.091  30.248  1.00  0.00     0.049 A 
ATOM     50  C   UNL A   1      42.209  32.172  34.052  1.00  0.00     0.074 A 
ATOM     51  C   UNL A   1      42.715  27.103  30.269  1.00  0.00     0.029 A 
ATOM     52  N   UNL A   1      42.050  28.974  31.271  1.00  0.00    -0.354 N 
ATOM     53  N   UNL A   1      42.242  31.163  33.215  1.00  0.00    -0.248 NA
ATOM     54  C   UNL A   1      43.238  32.110  35.103  1.00  0.00     0.031 C 
ATOM     55  C   UNL A   1      43.584  27.367  31.333  1.00  0.00     0.029 A 
ATOM     56  C   UNL A   1      43.178  28.542  31.946  1.00  0.00     0.049 A 
ATOM     57  H   UNL A   1      41.539  29.788  31.486  1.00  0.00     0.167 HD
ATOM     58  C   UNL A   1      43.313  30.371  33.614  1.00  0.00     0.074 A 
ATOM     59  C   UNL A   1      43.905  31.015  34.767  1.00  0.00     0.031 C 
ATOM     60  C   UNL A   1      43.768  29.215  33.072  1.00  0.00     0.037 A 
BRANCH  47  61
ATOM     61  C   UNL A   1      40.403  27.168  28.326  1.00  0.00     0.057 A 
ATOM     62  C   UNL A   1      39.568  26.075  28.582  1.00  0.00     0.134 A 
ATOM     63  C   UNL A   1      41.046  27.219  27.083  1.00  0.00     0.134 A 
ATOM     64  F   UNL A   1      38.924  25.970  29.754  1.00  0.00    -0.206 F 
ATOM     65  C   UNL A   1      39.385  25.062  27.640  1.00  0.00     0.040 A 
ATOM     66  C   UNL A   1      40.856  26.221  26.125  1.00  0.00     0.040 A 
ATOM     67  F   UNL A   1      41.844  28.250  26.771  1.00  0.00    -0.206 F 
ATOM     68  C   UNL A   1      40.028  25.135  26.406  1.00  0.00     0.006 A 
ENDBRANCH  47  61
BRANCH  48  69
ATOM     69  C   UNL A   1      41.441  34.403  35.122  1.00  0.00     0.057 A 
ATOM     70  C   UNL A   1      40.827  34.279  36.374  1.00  0.00     0.134 A 
ATOM     71  C   UNL A   1      42.264  35.515  34.914  1.00  0.00     0.134 A 
ATOM     72  F   UNL A   1      40.029  33.234  36.637  1.00  0.00    -0.206 F 
ATOM     73  C   UNL A   1      41.029  35.221  37.383  1.00  0.00     0.040 A 
ATOM     74  C   UNL A   1      42.494  36.453  35.922  1.00  0.00     0.040 A 
ATOM     75  F   UNL A   1      42.901  35.674  33.744  1.00  0.00    -0.206 F 
ATOM     76  C   UNL A   1      41.874  36.307  37.161  1.00  0.00     0.006 A 
ENDBRANCH  48  69
BRANCH  60  77
ATOM     77  C   UNL A   1      44.997  28.605  33.677  1.00  0.00     0.057 A 
ATOM     78  C   UNL A   1      46.264  28.905  33.161  1.00  0.00     0.134 A 
ATOM     79  C   UNL A   1      44.924  27.682  34.727  1.00  0.00     0.134 A 
ATOM     80  F   UNL A   1      46.398  29.776  32.150  1.00  0.00    -0.206 F 
ATOM     81  C   UNL A   1      47.417  28.302  33.664  1.00  0.00     0.040 A 
ATOM     82  C   UNL A   1      46.072  27.089  35.253  1.00  0.00     0.040 A 
ATOM     83  F   UNL A   1      43.740  27.364  35.271  1.00  0.00    -0.206 F 
ATOM     84  C   UNL A   1      47.322  27.392  34.715  1.00  0.00     0.006 A 
ENDBRANCH  60  77
ENDBRANCH  34  35
ENDBRANCH  27  29
ENDBRANCH  26  27
ENDBRANCH  25  26
ENDBRANCH   1  25
TORSDOF 16
ENDMDL
