MODEL 1
REMARK VINA RESULT:     -11.6      0.000      0.000
REMARK SMILES Nc1ccc(C(=O)NC[C@@H]2CC[C@@H](C(=O)OCCOCCOC(=O)c3ccc(-c4c5nc(c(-c6c(F)cccc6F)c6ccc([nH]6)c(-c6c(F)cccc6F)c6nc(c(-c7c(F)cccc7F)c7ccc4[nH]7)C=C6)C=C5)cc3)O2)cc1Cl
REMARK SMILES IDX 18 1 17 2 16 3 14 4 15 5 13 6 10 7 11 8 79 9 12 10 9 11 8 12
REMARK SMILES IDX 6 13 7 14 5 16 2 17 3 18 81 19 4 20 80 21 82 22 1 23 19 26
REMARK SMILES IDX 20 27 21 28 22 29 23 30 24 31 25 32 26 33 78 34 27 35 77 36
REMARK SMILES IDX 28 37 29 38 30 39 71 40 31 41 76 42 70 43 72 44 32 45 75 46
REMARK SMILES IDX 69 47 68 48 33 50 59 51 42 52 58 53 43 54 46 55 57 56 73 57
REMARK SMILES IDX 44 58 45 59 56 61 74 62 47 63 34 64 35 65 40 66 36 67 37 68
REMARK SMILES IDX 39 69 41 70 38 71 60 72 61 73 66 74 62 75 63 76 65 77 67 78
REMARK SMILES IDX 64 79 48 80 49 81 54 82 50 83 51 84 53 85 55 86 52 87
REMARK H PARENT 8 15 1 24 1 25 72 49 46 60
REMARK Flexibility Score: inf
ROOT
ATOM      1  C   UNL A   1      33.174  30.258  26.491  1.00  0.00     0.202 C 
ENDROOT
BRANCH   1   2
ATOM      2  C   UNL A   1      33.399  29.030  27.378  1.00  0.00     0.261 C 
BRANCH   2   3
ATOM      3  O   UNL A   1      33.382  27.853  26.559  1.00  0.00    -0.461 OA
BRANCH   3   4
ATOM      4  C   UNL A   1      32.159  27.291  26.357  1.00  0.00     0.335 C 
ATOM      5  O   UNL A   1      31.353  27.016  27.236  1.00  0.00    -0.249 OA
BRANCH   4   6
ATOM      6  C   UNL A   1      31.902  27.141  24.855  1.00  0.00     0.228 C 
ATOM      7  C   UNL A   1      30.583  25.381  24.124  1.00  0.00     0.138 C 
ATOM      8  C   UNL A   1      29.932  26.652  23.602  1.00  0.00     0.037 C 
ATOM      9  O   UNL A   1      31.929  25.769  24.445  1.00  0.00    -0.361 OA
ATOM     10  C   UNL A   1      30.534  27.714  24.489  1.00  0.00     0.047 C 
BRANCH   7  11
ATOM     11  C   UNL A   1      30.584  24.160  23.187  1.00  0.00     0.148 C 
BRANCH  11  12
ATOM     12  N   UNL A   1      31.860  23.893  22.543  1.00  0.00    -0.349 N 
ATOM     13  C   UNL A   1      32.849  22.960  22.677  1.00  0.00     0.251 C 
ATOM     14  O   UNL A   1      33.829  23.120  21.943  1.00  0.00    -0.269 OA
ATOM     15  H   UNL A   1      32.062  24.547  21.836  1.00  0.00     0.163 HD
BRANCH  13  16
ATOM     16  C   UNL A   1      32.842  21.791  23.605  1.00  0.00     0.041 A 
ATOM     17  C   UNL A   1      32.974  19.712  25.548  1.00  0.00     0.050 A 
ATOM     18  C   UNL A   1      32.424  19.490  24.285  1.00  0.00     0.028 A 
ATOM     19  C   UNL A   1      33.402  21.012  25.853  1.00  0.00     0.064 A 
ATOM     20  C   UNL A   1      32.361  20.514  23.323  1.00  0.00     0.016 A 
ATOM     21  C   UNL A   1      33.350  22.028  24.896  1.00  0.00     0.036 A 
ATOM     22  Cl  UNL A   1      34.028  21.389  27.421  1.00  0.00    -0.082 Cl
BRANCH  17  23
ATOM     23  N   UNL A   1      32.956  18.695  26.498  1.00  0.00    -0.398 N 
ATOM     24  H   UNL A   1      32.099  18.304  26.784  1.00  0.00     0.156 HD
ATOM     25  H   UNL A   1      33.801  18.364  26.882  1.00  0.00     0.156 HD
ENDBRANCH  17  23
ENDBRANCH  13  16
ENDBRANCH  11  12
ENDBRANCH   7  11
ENDBRANCH   4   6
ENDBRANCH   3   4
ENDBRANCH   2   3
ENDBRANCH   1   2
BRANCH   1  26
ATOM     26  O   UNL A   1      31.824  30.723  26.408  1.00  0.00    -0.374 OA
BRANCH  26  27
ATOM     27  C   UNL A   1      31.571  32.098  26.693  1.00  0.00     0.202 C 
BRANCH  27  28
ATOM     28  C   UNL A   1      32.695  32.884  27.382  1.00  0.00     0.261 C 
BRANCH  28  29
ATOM     29  O   UNL A   1      32.284  34.200  27.791  1.00  0.00    -0.460 OA
BRANCH  29  30
ATOM     30  C   UNL A   1      33.031  34.738  28.785  1.00  0.00     0.338 C 
ATOM     31  O   UNL A   1      32.738  35.681  29.506  1.00  0.00    -0.246 OA
BRANCH  30  32
ATOM     32  C   UNL A   1      34.231  33.920  29.025  1.00  0.00     0.060 A 
ATOM     33  C   UNL A   1      34.064  32.734  29.751  1.00  0.00     0.016 A 
ATOM     34  C   UNL A   1      35.505  34.340  28.633  1.00  0.00     0.016 A 
ATOM     35  C   UNL A   1      35.176  31.984  30.125  1.00  0.00     0.010 A 
ATOM     36  C   UNL A   1      36.623  33.589  29.019  1.00  0.00     0.010 A 
ATOM     37  C   UNL A   1      36.464  32.425  29.793  1.00  0.00    -0.014 A 
BRANCH  37  38
ATOM     38  C   UNL A   1      37.635  31.721  30.370  1.00  0.00     0.031 A 
ATOM     39  C   UNL A   1      38.036  31.999  31.793  1.00  0.00     0.074 A 
ATOM     40  C   UNL A   1      38.294  30.793  29.654  1.00  0.00     0.049 A 
ATOM     41  N   UNL A   1      39.003  31.470  32.500  1.00  0.00    -0.248 NA
ATOM     42  C   UNL A   1      37.240  33.004  32.516  1.00  0.00     0.031 C 
ATOM     43  C   UNL A   1      37.986  30.412  28.277  1.00  0.00     0.029 A 
ATOM     44  N   UNL A   1      39.362  29.999  29.992  1.00  0.00    -0.354 N 
ATOM     45  C   UNL A   1      38.922  32.065  33.754  1.00  0.00     0.074 A 
ATOM     46  C   UNL A   1      37.839  33.023  33.698  1.00  0.00     0.031 C 
ATOM     47  C   UNL A   1      38.851  29.461  27.883  1.00  0.00     0.029 A 
ATOM     48  C   UNL A   1      39.784  29.182  28.973  1.00  0.00     0.049 A 
ATOM     49  H   UNL A   1      39.786  30.016  30.880  1.00  0.00     0.167 HD
ATOM     50  C   UNL A   1      39.671  31.824  34.855  1.00  0.00     0.037 A 
ATOM     51  C   UNL A   1      40.813  28.315  28.922  1.00  0.00     0.037 A 
ATOM     52  C   UNL A   1      40.756  30.879  34.912  1.00  0.00     0.049 A 
ATOM     53  C   UNL A   1      41.671  28.111  30.142  1.00  0.00     0.074 A 
ATOM     54  C   UNL A   1      41.578  30.572  35.982  1.00  0.00     0.029 A 
ATOM     55  N   UNL A   1      41.170  30.090  33.850  1.00  0.00    -0.354 N 
ATOM     56  N   UNL A   1      41.572  28.665  31.326  1.00  0.00    -0.248 NA
ATOM     57  C   UNL A   1      42.781  27.153  30.021  1.00  0.00     0.031 C 
ATOM     58  C   UNL A   1      42.512  29.621  35.558  1.00  0.00     0.029 A 
ATOM     59  C   UNL A   1      42.246  29.306  34.235  1.00  0.00     0.049 A 
ATOM     60  H   UNL A   1      40.760  30.086  32.955  1.00  0.00     0.167 HD
ATOM     61  C   UNL A   1      42.588  28.109  32.093  1.00  0.00     0.074 A 
ATOM     62  C   UNL A   1      43.280  27.160  31.249  1.00  0.00     0.031 C 
ATOM     63  C   UNL A   1      42.921  28.364  33.382  1.00  0.00     0.037 A 
BRANCH  50  64
ATOM     64  C   UNL A   1      39.347  32.601  36.095  1.00  0.00     0.057 A 
ATOM     65  C   UNL A   1      39.931  33.848  36.352  1.00  0.00     0.134 A 
ATOM     66  C   UNL A   1      38.409  32.123  37.018  1.00  0.00     0.134 A 
ATOM     67  F   UNL A   1      40.847  34.355  35.513  1.00  0.00    -0.206 F 
ATOM     68  C   UNL A   1      39.602  34.588  37.489  1.00  0.00     0.040 A 
ATOM     69  C   UNL A   1      38.056  32.863  38.148  1.00  0.00     0.040 A 
ATOM     70  F   UNL A   1      37.811  30.937  36.829  1.00  0.00    -0.206 F 
ATOM     71  C   UNL A   1      38.655  34.098  38.387  1.00  0.00     0.006 A 
ENDBRANCH  50  64
BRANCH  51  72
ATOM     72  C   UNL A   1      41.109  27.581  27.666  1.00  0.00     0.057 A 
ATOM     73  C   UNL A   1      40.594  26.303  27.429  1.00  0.00     0.134 A 
ATOM     74  C   UNL A   1      41.952  28.130  26.691  1.00  0.00     0.134 A 
ATOM     75  F   UNL A   1      39.802  25.715  28.336  1.00  0.00    -0.206 F 
ATOM     76  C   UNL A   1      40.922  25.585  26.277  1.00  0.00     0.040 A 
ATOM     77  C   UNL A   1      42.269  27.434  25.524  1.00  0.00     0.040 A 
ATOM     78  F   UNL A   1      42.477  29.352  26.859  1.00  0.00    -0.206 F 
ATOM     79  C   UNL A   1      41.760  26.153  25.319  1.00  0.00     0.006 A 
ENDBRANCH  51  72
BRANCH  63  80
ATOM     80  C   UNL A   1      44.068  27.587  33.960  1.00  0.00     0.057 A 
ATOM     81  C   UNL A   1      45.379  28.079  33.935  1.00  0.00     0.134 A 
ATOM     82  C   UNL A   1      43.855  26.343  34.568  1.00  0.00     0.134 A 
ATOM     83  F   UNL A   1      45.651  29.259  33.356  1.00  0.00    -0.206 F 
ATOM     84  C   UNL A   1      46.441  27.352  34.472  1.00  0.00     0.040 A 
ATOM     85  C   UNL A   1      44.905  25.617  35.130  1.00  0.00     0.040 A 
ATOM     86  F   UNL A   1      42.621  25.819  34.632  1.00  0.00    -0.206 F 
ATOM     87  C   UNL A   1      46.205  26.118  35.077  1.00  0.00     0.006 A 
ENDBRANCH  63  80
ENDBRANCH  37  38
ENDBRANCH  30  32
ENDBRANCH  29  30
ENDBRANCH  28  29
ENDBRANCH  27  28
ENDBRANCH  26  27
ENDBRANCH   1  26
TORSDOF 18
ENDMDL
MODEL 2
REMARK VINA RESULT:     -11.4      1.498      2.309
REMARK SMILES Nc1ccc(C(=O)NC[C@@H]2CC[C@@H](C(=O)OCCOCCOC(=O)c3ccc(-c4c5nc(c(-c6c(F)cccc6F)c6ccc([nH]6)c(-c6c(F)cccc6F)c6nc(c(-c7c(F)cccc7F)c7ccc4[nH]7)C=C6)C=C5)cc3)O2)cc1Cl
REMARK SMILES IDX 18 1 17 2 16 3 14 4 15 5 13 6 10 7 11 8 79 9 12 10 9 11 8 12
REMARK SMILES IDX 6 13 7 14 5 16 2 17 3 18 81 19 4 20 80 21 82 22 1 23 19 26
REMARK SMILES IDX 20 27 21 28 22 29 23 30 24 31 25 32 26 33 78 34 27 35 77 36
REMARK SMILES IDX 28 37 29 38 30 39 71 40 31 41 76 42 70 43 72 44 32 45 75 46
REMARK SMILES IDX 69 47 68 48 33 50 59 51 42 52 58 53 43 54 46 55 57 56 73 57
REMARK SMILES IDX 44 58 45 59 56 61 74 62 47 63 34 64 35 65 40 66 36 67 37 68
REMARK SMILES IDX 39 69 41 70 38 71 60 72 61 73 66 74 62 75 63 76 65 77 67 78
REMARK SMILES IDX 64 79 48 80 49 81 54 82 50 83 51 84 53 85 55 86 52 87
REMARK H PARENT 8 15 1 24 1 25 72 49 46 60
REMARK Flexibility Score: inf
ROOT
ATOM      1  C   UNL A   1      32.642  29.293  25.911  1.00  0.00     0.202 C 
ENDROOT
BRANCH   1   2
ATOM      2  C   UNL A   1      33.432  28.092  26.437  1.00  0.00     0.261 C 
BRANCH   2   3
ATOM      3  O   UNL A   1      33.078  26.930  25.675  1.00  0.00    -0.461 OA
BRANCH   3   4
ATOM      4  C   UNL A   1      32.101  26.147  26.209  1.00  0.00     0.335 C 
ATOM      5  O   UNL A   1      31.180  26.547  26.909  1.00  0.00    -0.249 OA
BRANCH   4   6
ATOM      6  C   UNL A   1      32.272  24.705  25.725  1.00  0.00     0.228 C 
ATOM      7  C   UNL A   1      32.613  23.039  27.299  1.00  0.00     0.138 C 
ATOM      8  C   UNL A   1      31.382  22.633  26.503  1.00  0.00     0.037 C 
ATOM      9  O   UNL A   1      33.276  24.008  26.471  1.00  0.00    -0.361 OA
ATOM     10  C   UNL A   1      30.959  23.936  25.871  1.00  0.00     0.047 C 
BRANCH   7  11
ATOM     11  C   UNL A   1      33.587  21.917  27.700  1.00  0.00     0.148 C 
BRANCH  11  12
ATOM     12  N   UNL A   1      34.780  21.829  26.874  1.00  0.00    -0.349 N 
ATOM     13  C   UNL A   1      35.119  21.211  25.703  1.00  0.00     0.251 C 
ATOM     14  O   UNL A   1      36.294  21.353  25.352  1.00  0.00    -0.269 OA
ATOM     15  H   UNL A   1      35.531  22.343  27.251  1.00  0.00     0.163 HD
BRANCH  13  16
ATOM     16  C   UNL A   1      34.211  20.406  24.833  1.00  0.00     0.041 A 
ATOM     17  C   UNL A   1      32.652  18.663  23.207  1.00  0.00     0.050 A 
ATOM     18  C   UNL A   1      32.334  20.017  23.331  1.00  0.00     0.028 A 
ATOM     19  C   UNL A   1      33.727  18.175  23.962  1.00  0.00     0.064 A 
ATOM     20  C   UNL A   1      33.105  20.880  24.130  1.00  0.00     0.016 A 
ATOM     21  C   UNL A   1      34.500  19.032  24.749  1.00  0.00     0.036 A 
ATOM     22  Cl  UNL A   1      34.141  16.495  23.923  1.00  0.00    -0.082 Cl
BRANCH  17  23
ATOM     23  N   UNL A   1      31.825  17.826  22.463  1.00  0.00    -0.398 N 
ATOM     24  H   UNL A   1      31.757  16.872  22.693  1.00  0.00     0.156 HD
ATOM     25  H   UNL A   1      31.308  18.189  21.707  1.00  0.00     0.156 HD
ENDBRANCH  17  23
ENDBRANCH  13  16
ENDBRANCH  11  12
ENDBRANCH   7  11
ENDBRANCH   4   6
ENDBRANCH   3   4
ENDBRANCH   2   3
ENDBRANCH   1   2
BRANCH   1  26
ATOM     26  O   UNL A   1      32.123  30.178  26.907  1.00  0.00    -0.374 OA
BRANCH  26  27
ATOM     27  C   UNL A   1      31.412  31.336  26.470  1.00  0.00     0.202 C 
BRANCH  27  28
ATOM     28  C   UNL A   1      32.141  32.681  26.577  1.00  0.00     0.261 C 
BRANCH  28  29
ATOM     29  O   UNL A   1      32.166  33.197  27.919  1.00  0.00    -0.460 OA
BRANCH  29  30
ATOM     30  C   UNL A   1      33.177  34.062  28.170  1.00  0.00     0.338 C 
ATOM     31  O   UNL A   1      33.104  35.279  28.273  1.00  0.00    -0.246 OA
BRANCH  30  32
ATOM     32  C   UNL A   1      34.415  33.329  28.481  1.00  0.00     0.060 A 
ATOM     33  C   UNL A   1      34.280  32.063  29.064  1.00  0.00     0.016 A 
ATOM     34  C   UNL A   1      35.678  33.895  28.296  1.00  0.00     0.016 A 
ATOM     35  C   UNL A   1      35.408  31.374  29.504  1.00  0.00     0.010 A 
ATOM     36  C   UNL A   1      36.811  33.205  28.748  1.00  0.00     0.010 A 
ATOM     37  C   UNL A   1      36.677  31.956  29.381  1.00  0.00    -0.014 A 
BRANCH  37  38
ATOM     38  C   UNL A   1      37.835  31.297  30.034  1.00  0.00     0.031 A 
ATOM     39  C   UNL A   1      38.135  31.592  31.477  1.00  0.00     0.074 A 
ATOM     40  C   UNL A   1      38.571  30.393  29.363  1.00  0.00     0.049 A 
ATOM     41  N   UNL A   1      39.075  31.101  32.246  1.00  0.00    -0.248 NA
ATOM     42  C   UNL A   1      37.259  32.567  32.145  1.00  0.00     0.031 C 
ATOM     43  C   UNL A   1      38.364  29.999  27.971  1.00  0.00     0.029 A 
ATOM     44  N   UNL A   1      39.644  29.640  29.770  1.00  0.00    -0.354 N 
ATOM     45  C   UNL A   1      38.894  31.694  33.489  1.00  0.00     0.074 A 
ATOM     46  C   UNL A   1      37.782  32.611  33.363  1.00  0.00     0.031 C 
ATOM     47  C   UNL A   1      39.287  29.080  27.635  1.00  0.00     0.029 A 
ATOM     48  C   UNL A   1      40.159  28.838  28.782  1.00  0.00     0.049 A 
ATOM     49  H   UNL A   1      40.011  29.674  30.683  1.00  0.00     0.167 HD
ATOM     50  C   UNL A   1      39.581  31.482  34.636  1.00  0.00     0.037 A 
ATOM     51  C   UNL A   1      41.221  28.010  28.800  1.00  0.00     0.037 A 
ATOM     52  C   UNL A   1      40.694  30.578  34.764  1.00  0.00     0.049 A 
ATOM     53  C   UNL A   1      42.008  27.839  30.071  1.00  0.00     0.074 A 
ATOM     54  C   UNL A   1      41.459  30.303  35.885  1.00  0.00     0.029 A 
ATOM     55  N   UNL A   1      41.203  29.804  33.733  1.00  0.00    -0.354 N 
ATOM     56  N   UNL A   1      41.814  28.391  31.245  1.00  0.00    -0.248 NA
ATOM     57  C   UNL A   1      43.158  26.923  30.023  1.00  0.00     0.031 C 
ATOM     58  C   UNL A   1      42.452  29.387  35.523  1.00  0.00     0.029 A 
ATOM     59  C   UNL A   1      42.281  29.061  34.188  1.00  0.00     0.049 A 
ATOM     60  H   UNL A   1      40.850  29.784  32.815  1.00  0.00     0.167 HD
ATOM     61  C   UNL A   1      42.800  27.875  32.076  1.00  0.00     0.074 A 
ATOM     62  C   UNL A   1      43.578  26.950  31.280  1.00  0.00     0.031 C 
ATOM     63  C   UNL A   1      43.042  28.143  33.382  1.00  0.00     0.037 A 
BRANCH  50  64
ATOM     64  C   UNL A   1      39.151  32.249  35.851  1.00  0.00     0.057 A 
ATOM     65  C   UNL A   1      39.577  33.564  36.075  1.00  0.00     0.134 A 
ATOM     66  C   UNL A   1      38.267  31.687  36.780  1.00  0.00     0.134 A 
ATOM     67  F   UNL A   1      40.435  34.154  35.229  1.00  0.00    -0.206 F 
ATOM     68  C   UNL A   1      39.149  34.289  37.188  1.00  0.00     0.040 A 
ATOM     69  C   UNL A   1      37.815  32.409  37.884  1.00  0.00     0.040 A 
ATOM     70  F   UNL A   1      37.820  30.431  36.621  1.00  0.00    -0.206 F 
ATOM     71  C   UNL A   1      38.258  33.714  38.092  1.00  0.00     0.006 A 
ENDBRANCH  50  64
BRANCH  51  72
ATOM     72  C   UNL A   1      41.622  27.286  27.567  1.00  0.00     0.057 A 
ATOM     73  C   UNL A   1      42.374  27.909  26.565  1.00  0.00     0.134 A 
ATOM     74  C   UNL A   1      41.223  25.962  27.346  1.00  0.00     0.134 A 
ATOM     75  F   UNL A   1      42.763  29.184  26.708  1.00  0.00    -0.206 F 
ATOM     76  C   UNL A   1      42.696  27.251  25.377  1.00  0.00     0.040 A 
ATOM     77  C   UNL A   1      41.560  25.283  26.174  1.00  0.00     0.040 A 
ATOM     78  F   UNL A   1      40.501  25.309  28.269  1.00  0.00    -0.206 F 
ATOM     79  C   UNL A   1      42.291  25.931  25.181  1.00  0.00     0.006 A 
ENDBRANCH  51  72
BRANCH  63  80
ATOM     80  C   UNL A   1      44.179  27.411  34.033  1.00  0.00     0.057 A 
ATOM     81  C   UNL A   1      44.004  26.152  34.623  1.00  0.00     0.134 A 
ATOM     82  C   UNL A   1      45.468  27.960  34.050  1.00  0.00     0.134 A 
ATOM     83  F   UNL A   1      42.792  25.577  34.650  1.00  0.00    -0.206 F 
ATOM     84  C   UNL A   1      45.065  25.477  35.228  1.00  0.00     0.040 A 
ATOM     85  C   UNL A   1      46.541  27.284  34.631  1.00  0.00     0.040 A 
ATOM     86  F   UNL A   1      45.704  29.158  33.495  1.00  0.00    -0.206 F 
ATOM     87  C   UNL A   1      46.339  26.041  35.228  1.00  0.00     0.006 A 
ENDBRANCH  63  80
ENDBRANCH  37  38
ENDBRANCH  30  32
ENDBRANCH  29  30
ENDBRANCH  28  29
ENDBRANCH  27  28
ENDBRANCH  26  27
ENDBRANCH   1  26
TORSDOF 18
ENDMDL
MODEL 3
REMARK VINA RESULT:     -11.4      3.205      8.313
REMARK SMILES Nc1ccc(C(=O)NC[C@@H]2CC[C@@H](C(=O)OCCOCCOC(=O)c3ccc(-c4c5nc(c(-c6c(F)cccc6F)c6ccc([nH]6)c(-c6c(F)cccc6F)c6nc(c(-c7c(F)cccc7F)c7ccc4[nH]7)C=C6)C=C5)cc3)O2)cc1Cl
REMARK SMILES IDX 18 1 17 2 16 3 14 4 15 5 13 6 10 7 11 8 79 9 12 10 9 11 8 12
REMARK SMILES IDX 6 13 7 14 5 16 2 17 3 18 81 19 4 20 80 21 82 22 1 23 19 26
REMARK SMILES IDX 20 27 21 28 22 29 23 30 24 31 25 32 26 33 78 34 27 35 77 36
REMARK SMILES IDX 28 37 29 38 30 39 71 40 31 41 76 42 70 43 72 44 32 45 75 46
REMARK SMILES IDX 69 47 68 48 33 50 59 51 42 52 58 53 43 54 46 55 57 56 73 57
REMARK SMILES IDX 44 58 45 59 56 61 74 62 47 63 34 64 35 65 40 66 36 67 37 68
REMARK SMILES IDX 39 69 41 70 38 71 60 72 61 73 66 74 62 75 63 76 65 77 67 78
REMARK SMILES IDX 64 79 48 80 49 81 54 82 50 83 51 84 53 85 55 86 52 87
REMARK H PARENT 8 15 1 24 1 25 72 49 46 60
REMARK Flexibility Score: inf
ROOT
ATOM      1  C   UNL A   1      41.487  21.810  25.751  1.00  0.00     0.202 C 
ENDROOT
BRANCH   1   2
ATOM      2  C   UNL A   1      40.549  21.527  26.928  1.00  0.00     0.261 C 
BRANCH   2   3
ATOM      3  O   UNL A   1      39.260  21.155  26.419  1.00  0.00    -0.461 OA
BRANCH   3   4
ATOM      4  C   UNL A   1      38.468  22.183  26.008  1.00  0.00     0.335 C 
ATOM      5  O   UNL A   1      38.630  23.361  26.300  1.00  0.00    -0.249 OA
BRANCH   4   6
ATOM      6  C   UNL A   1      37.396  21.659  25.050  1.00  0.00     0.228 C 
ATOM      7  C   UNL A   1      35.166  21.967  25.599  1.00  0.00     0.138 C 
ATOM      8  C   UNL A   1      35.366  22.607  24.234  1.00  0.00     0.037 C 
ATOM      9  O   UNL A   1      36.289  21.083  25.752  1.00  0.00    -0.361 OA
ATOM     10  C   UNL A   1      36.861  22.793  24.177  1.00  0.00     0.047 C 
BRANCH   7  11
ATOM     11  C   UNL A   1      33.848  21.207  25.830  1.00  0.00     0.148 C 
BRANCH  11  12
ATOM     12  N   UNL A   1      32.903  21.887  26.702  1.00  0.00    -0.349 N 
ATOM     13  C   UNL A   1      32.090  22.979  26.603  1.00  0.00     0.251 C 
ATOM     14  O   UNL A   1      31.458  23.262  27.625  1.00  0.00    -0.269 OA
ATOM     15  H   UNL A   1      32.833  21.451  27.582  1.00  0.00     0.163 HD
BRANCH  13  16
ATOM     16  C   UNL A   1      31.899  23.834  25.394  1.00  0.00     0.041 A 
ATOM     17  C   UNL A   1      31.697  25.648  23.207  1.00  0.00     0.050 A 
ATOM     18  C   UNL A   1      30.932  24.481  23.254  1.00  0.00     0.028 A 
ATOM     19  C   UNL A   1      32.617  25.866  24.242  1.00  0.00     0.064 A 
ATOM     20  C   UNL A   1      31.028  23.586  24.335  1.00  0.00     0.016 A 
ATOM     21  C   UNL A   1      32.706  24.984  25.321  1.00  0.00     0.036 A 
ATOM     22  Cl  UNL A   1      33.654  27.251  24.222  1.00  0.00    -0.082 Cl
BRANCH  17  23
ATOM     23  N   UNL A   1      31.627  26.474  22.089  1.00  0.00    -0.398 N 
ATOM     24  H   UNL A   1      30.772  26.893  21.839  1.00  0.00     0.156 HD
ATOM     25  H   UNL A   1      32.433  26.640  21.548  1.00  0.00     0.156 HD
ENDBRANCH  17  23
ENDBRANCH  13  16
ENDBRANCH  11  12
ENDBRANCH   7  11
ENDBRANCH   4   6
ENDBRANCH   3   4
ENDBRANCH   2   3
ENDBRANCH   1   2
BRANCH   1  26
ATOM     26  O   UNL A   1      42.640  20.969  25.662  1.00  0.00    -0.374 OA
BRANCH  26  27
ATOM     27  C   UNL A   1      43.924  21.592  25.652  1.00  0.00     0.202 C 
BRANCH  27  28
ATOM     28  C   UNL A   1      44.280  22.433  24.420  1.00  0.00     0.261 C 
BRANCH  28  29
ATOM     29  O   UNL A   1      43.660  23.731  24.433  1.00  0.00    -0.460 OA
BRANCH  29  30
ATOM     30  C   UNL A   1      44.409  24.705  25.003  1.00  0.00     0.338 C 
ATOM     31  O   UNL A   1      45.555  25.024  24.716  1.00  0.00    -0.246 OA
BRANCH  30  32
ATOM     32  C   UNL A   1      43.598  25.490  25.948  1.00  0.00     0.060 A 
ATOM     33  C   UNL A   1      44.015  26.800  26.216  1.00  0.00     0.016 A 
ATOM     34  C   UNL A   1      42.512  24.937  26.629  1.00  0.00     0.016 A 
ATOM     35  C   UNL A   1      43.372  27.549  27.197  1.00  0.00     0.010 A 
ATOM     36  C   UNL A   1      41.872  25.689  27.623  1.00  0.00     0.010 A 
ATOM     37  C   UNL A   1      42.319  26.986  27.932  1.00  0.00    -0.014 A 
BRANCH  37  38
ATOM     38  C   UNL A   1      41.784  27.726  29.101  1.00  0.00     0.031 A 
ATOM     39  C   UNL A   1      42.487  27.621  30.426  1.00  0.00     0.074 A 
ATOM     40  C   UNL A   1      40.719  28.537  28.965  1.00  0.00     0.049 A 
ATOM     41  N   UNL A   1      42.207  28.209  31.562  1.00  0.00    -0.248 NA
ATOM     42  C   UNL A   1      43.664  26.739  30.478  1.00  0.00     0.031 C 
ATOM     43  C   UNL A   1      39.968  28.747  27.729  1.00  0.00     0.029 A 
ATOM     44  N   UNL A   1      40.086  29.337  29.884  1.00  0.00    -0.354 N 
ATOM     45  C   UNL A   1      43.179  27.782  32.458  1.00  0.00     0.074 A 
ATOM     46  C   UNL A   1      44.032  26.855  31.746  1.00  0.00     0.031 C 
ATOM     47  C   UNL A   1      38.970  29.615  27.967  1.00  0.00     0.029 A 
ATOM     48  C   UNL A   1      39.000  30.006  29.375  1.00  0.00     0.049 A 
ATOM     49  H   UNL A   1      40.382  29.423  30.818  1.00  0.00     0.167 HD
ATOM     50  C   UNL A   1      43.355  28.142  33.751  1.00  0.00     0.037 A 
ATOM     51  C   UNL A   1      38.125  30.830  29.980  1.00  0.00     0.037 A 
ATOM     52  C   UNL A   1      42.504  29.056  34.466  1.00  0.00     0.049 A 
ATOM     53  C   UNL A   1      38.306  31.165  31.436  1.00  0.00     0.074 A 
ATOM     54  C   UNL A   1      42.599  29.475  35.782  1.00  0.00     0.029 A 
ATOM     55  N   UNL A   1      41.398  29.691  33.923  1.00  0.00    -0.354 N 
ATOM     56  N   UNL A   1      39.241  30.770  32.266  1.00  0.00    -0.248 NA
ATOM     57  C   UNL A   1      37.314  32.069  32.038  1.00  0.00     0.031 C 
ATOM     58  C   UNL A   1      41.529  30.338  36.045  1.00  0.00     0.029 A 
ATOM     59  C   UNL A   1      40.793  30.488  34.882  1.00  0.00     0.049 A 
ATOM     60  H   UNL A   1      41.089  29.592  32.994  1.00  0.00     0.167 HD
ATOM     61  C   UNL A   1      38.963  31.391  33.477  1.00  0.00     0.074 A 
ATOM     62  C   UNL A   1      37.785  32.206  33.270  1.00  0.00     0.031 C 
ATOM     63  C   UNL A   1      39.622  31.295  34.657  1.00  0.00     0.037 A 
BRANCH  50  64
ATOM     64  C   UNL A   1      44.516  27.539  34.484  1.00  0.00     0.057 A 
ATOM     65  C   UNL A   1      45.732  28.222  34.619  1.00  0.00     0.134 A 
ATOM     66  C   UNL A   1      44.405  26.287  35.101  1.00  0.00     0.134 A 
ATOM     67  F   UNL A   1      45.906  29.420  34.040  1.00  0.00    -0.206 F 
ATOM     68  C   UNL A   1      46.800  27.675  35.332  1.00  0.00     0.040 A 
ATOM     69  C   UNL A   1      45.458  25.739  35.833  1.00  0.00     0.040 A 
ATOM     70  F   UNL A   1      43.266  25.582  35.011  1.00  0.00    -0.206 F 
ATOM     71  C   UNL A   1      46.662  26.433  35.949  1.00  0.00     0.006 A 
ENDBRANCH  50  64
BRANCH  51  72
ATOM     72  C   UNL A   1      36.979  31.389  29.219  1.00  0.00     0.057 A 
ATOM     73  C   UNL A   1      35.860  30.609  28.906  1.00  0.00     0.134 A 
ATOM     74  C   UNL A   1      36.998  32.709  28.751  1.00  0.00     0.134 A 
ATOM     75  F   UNL A   1      35.795  29.331  29.304  1.00  0.00    -0.206 F 
ATOM     76  C   UNL A   1      34.811  31.113  28.135  1.00  0.00     0.040 A 
ATOM     77  C   UNL A   1      35.945  33.234  28.001  1.00  0.00     0.040 A 
ATOM     78  F   UNL A   1      38.042  33.507  29.019  1.00  0.00    -0.206 F 
ATOM     79  C   UNL A   1      34.851  32.432  27.683  1.00  0.00     0.006 A 
ENDBRANCH  51  72
BRANCH  63  80
ATOM     80  C   UNL A   1      39.096  32.107  35.804  1.00  0.00     0.057 A 
ATOM     81  C   UNL A   1      38.211  31.568  36.746  1.00  0.00     0.134 A 
ATOM     82  C   UNL A   1      39.499  33.437  35.982  1.00  0.00     0.134 A 
ATOM     83  F   UNL A   1      37.778  30.303  36.625  1.00  0.00    -0.206 F 
ATOM     84  C   UNL A   1      37.725  32.329  37.809  1.00  0.00     0.040 A 
ATOM     85  C   UNL A   1      39.037  34.201  37.054  1.00  0.00     0.040 A 
ATOM     86  F   UNL A   1      40.351  34.011  35.120  1.00  0.00    -0.206 F 
ATOM     87  C   UNL A   1      38.142  33.649  37.968  1.00  0.00     0.006 A 
ENDBRANCH  63  80
ENDBRANCH  37  38
ENDBRANCH  30  32
ENDBRANCH  29  30
ENDBRANCH  28  29
ENDBRANCH  27  28
ENDBRANCH  26  27
ENDBRANCH   1  26
TORSDOF 18
ENDMDL
