MODEL 1
REMARK VINA RESULT:     -12.0      0.000      0.000
REMARK SMILES C[C@@H](C(=O)OCCOCCOC(=O)c1ccc(-c2c3nc(c(-c4c(F)cccc4F)c4ccc([nH]4)c(-c4c(F)cccc4F)c4nc(c(-c5c(F)cccc5F)c5ccc2[nH]5)C=C4)C=C3)cc1)c1ccc(C[C@H]2CCCC2=O)c(-c2ccc(F)cc2)c1
REMARK SMILES IDX 7 1 6 2 5 3 3 4 4 5 2 6 1 7 68 8 69 9 87 10 70 11 79 12
REMARK SMILES IDX 71 13 80 14 81 15 86 16 82 17 85 18 83 19 84 20 72 21 73 22
REMARK SMILES IDX 74 23 77 24 75 25 76 26 78 27 8 28 9 29 10 30 11 31 12 32
REMARK SMILES IDX 13 33 14 34 15 35 67 36 16 37 66 38 17 39 18 40 19 41 60 42
REMARK SMILES IDX 20 43 65 44 59 45 61 46 21 47 64 48 58 49 57 50 22 52 48 53
REMARK SMILES IDX 31 54 47 55 32 56 35 57 46 58 62 59 33 60 34 61 45 63 63 64
REMARK SMILES IDX 36 65 23 66 24 67 29 68 25 69 26 70 28 71 30 72 27 73 49 74
REMARK SMILES IDX 50 75 55 76 51 77 52 78 54 79 56 80 53 81 37 82 38 83 43 84
REMARK SMILES IDX 39 85 40 86 42 87 44 88 41 89
REMARK H PARENT 61 51 35 62
REMARK Flexibility Score: inf
ROOT
ATOM      1  C   UNL A   1      41.360  20.237  26.304  1.00  0.00     0.202 C 
ENDROOT
BRANCH   1   2
ATOM      2  C   UNL A   1      39.872  20.190  25.944  1.00  0.00     0.261 C 
BRANCH   2   3
ATOM      3  O   UNL A   1      39.256  21.463  26.232  1.00  0.00    -0.463 OA
BRANCH   3   4
ATOM      4  C   UNL A   1      38.222  21.820  25.425  1.00  0.00     0.313 C 
ATOM      5  O   UNL A   1      37.665  21.054  24.644  1.00  0.00    -0.252 OA
BRANCH   4   6
ATOM      6  C   UNL A   1      37.810  23.290  25.604  1.00  0.00     0.126 C 
ATOM      7  C   UNL A   1      38.670  24.099  26.580  1.00  0.00     0.025 C 
BRANCH   6   8
ATOM      8  C   UNL A   1      36.323  23.375  25.936  1.00  0.00    -0.033 A 
ATOM      9  C   UNL A   1      35.627  22.321  26.531  1.00  0.00     0.005 A 
ATOM     10  C   UNL A   1      35.593  24.506  25.551  1.00  0.00     0.013 A 
ATOM     11  C   UNL A   1      34.237  22.354  26.636  1.00  0.00     0.004 A 
ATOM     12  C   UNL A   1      34.187  24.581  25.676  1.00  0.00    -0.015 A 
ATOM     13  C   UNL A   1      33.494  23.450  26.168  1.00  0.00    -0.039 A 
BRANCH  12  14
ATOM     14  C   UNL A   1      33.532  25.846  25.299  1.00  0.00    -0.018 A 
ATOM     15  C   UNL A   1      32.820  26.599  26.252  1.00  0.00     0.012 A 
ATOM     16  C   UNL A   1      33.660  26.368  24.000  1.00  0.00     0.012 A 
ATOM     17  C   UNL A   1      32.223  27.812  25.908  1.00  0.00     0.040 A 
ATOM     18  C   UNL A   1      33.077  27.591  23.659  1.00  0.00     0.040 A 
ATOM     19  C   UNL A   1      32.359  28.297  24.615  1.00  0.00     0.123 A 
ATOM     20  F   UNL A   1      31.796  29.467  24.287  1.00  0.00    -0.207 F 
ENDBRANCH  12  14
BRANCH  13  21
ATOM     21  C   UNL A   1      31.980  23.331  26.184  1.00  0.00     0.047 C 
BRANCH  21  22
ATOM     22  C   UNL A   1      31.317  22.733  24.933  1.00  0.00     0.060 C 
ATOM     23  C   UNL A   1      31.416  23.545  23.637  1.00  0.00     0.012 C 
ATOM     24  C   UNL A   1      31.907  21.403  24.521  1.00  0.00     0.136 C 
ATOM     25  C   UNL A   1      32.538  22.909  22.824  1.00  0.00     0.009 C 
ATOM     26  C   UNL A   1      32.441  21.418  23.114  1.00  0.00     0.076 C 
ATOM     27  O   UNL A   1      31.917  20.409  25.239  1.00  0.00    -0.299 OA
ENDBRANCH  21  22
ENDBRANCH  13  21
ENDBRANCH   6   8
ENDBRANCH   4   6
ENDBRANCH   3   4
ENDBRANCH   2   3
ENDBRANCH   1   2
BRANCH   1  28
ATOM     28  O   UNL A   1      42.080  21.384  25.841  1.00  0.00    -0.374 OA
BRANCH  28  29
ATOM     29  C   UNL A   1      43.499  21.279  25.795  1.00  0.00     0.202 C 
BRANCH  29  30
ATOM     30  C   UNL A   1      44.219  22.198  24.801  1.00  0.00     0.261 C 
BRANCH  30  31
ATOM     31  O   UNL A   1      43.535  23.449  24.628  1.00  0.00    -0.460 OA
BRANCH  31  32
ATOM     32  C   UNL A   1      44.244  24.527  25.035  1.00  0.00     0.338 C 
ATOM     33  O   UNL A   1      45.339  24.893  24.629  1.00  0.00    -0.246 OA
BRANCH  32  34
ATOM     34  C   UNL A   1      43.436  25.348  25.949  1.00  0.00     0.060 A 
ATOM     35  C   UNL A   1      43.829  26.682  26.123  1.00  0.00     0.016 A 
ATOM     36  C   UNL A   1      42.363  24.821  26.672  1.00  0.00     0.016 A 
ATOM     37  C   UNL A   1      43.186  27.480  27.063  1.00  0.00     0.010 A 
ATOM     38  C   UNL A   1      41.725  25.624  27.624  1.00  0.00     0.010 A 
ATOM     39  C   UNL A   1      42.159  26.942  27.849  1.00  0.00    -0.014 A 
BRANCH  39  40
ATOM     40  C   UNL A   1      41.667  27.715  29.012  1.00  0.00     0.031 A 
ATOM     41  C   UNL A   1      42.401  27.603  30.320  1.00  0.00     0.074 A 
ATOM     42  C   UNL A   1      40.618  28.547  28.891  1.00  0.00     0.049 A 
ATOM     43  N   UNL A   1      42.158  28.193  31.461  1.00  0.00    -0.248 NA
ATOM     44  C   UNL A   1      43.569  26.707  30.342  1.00  0.00     0.031 C 
ATOM     45  C   UNL A   1      39.855  28.773  27.665  1.00  0.00     0.029 A 
ATOM     46  N   UNL A   1      40.016  29.359  29.818  1.00  0.00    -0.354 N 
ATOM     47  C   UNL A   1      43.136  27.739  32.336  1.00  0.00     0.074 A 
ATOM     48  C   UNL A   1      43.960  26.803  31.603  1.00  0.00     0.031 C 
ATOM     49  C   UNL A   1      38.881  29.664  27.917  1.00  0.00     0.029 A 
ATOM     50  C   UNL A   1      38.937  30.051  29.326  1.00  0.00     0.049 A 
ATOM     51  H   UNL A   1      40.328  29.438  30.749  1.00  0.00     0.167 HD
ATOM     52  C   UNL A   1      43.336  28.080  33.631  1.00  0.00     0.037 A 
ATOM     53  C   UNL A   1      38.085  30.887  29.948  1.00  0.00     0.037 A 
ATOM     54  C   UNL A   1      42.518  29.014  34.357  1.00  0.00     0.049 A 
ATOM     55  C   UNL A   1      38.287  31.195  31.408  1.00  0.00     0.074 A 
ATOM     56  C   UNL A   1      42.653  29.442  35.666  1.00  0.00     0.029 A 
ATOM     57  N   UNL A   1      41.409  29.661  33.835  1.00  0.00    -0.354 N 
ATOM     58  N   UNL A   1      39.231  30.781  32.218  1.00  0.00    -0.248 NA
ATOM     59  C   UNL A   1      37.304  32.087  32.040  1.00  0.00     0.031 C 
ATOM     60  C   UNL A   1      41.596  30.312  35.951  1.00  0.00     0.029 A 
ATOM     61  C   UNL A   1      40.832  30.464  34.805  1.00  0.00     0.049 A 
ATOM     62  H   UNL A   1      41.079  29.563  32.913  1.00  0.00     0.167 HD
ATOM     63  C   UNL A   1      38.974  31.384  33.444  1.00  0.00     0.074 A 
ATOM     64  C   UNL A   1      37.791  32.199  33.268  1.00  0.00     0.031 C 
ATOM     65  C   UNL A   1      39.657  31.275  34.610  1.00  0.00     0.037 A 
BRANCH  52  66
ATOM     66  C   UNL A   1      44.471  27.415  34.352  1.00  0.00     0.057 A 
ATOM     67  C   UNL A   1      44.327  26.166  34.969  1.00  0.00     0.134 A 
ATOM     68  C   UNL A   1      45.733  28.022  34.403  1.00  0.00     0.134 A 
ATOM     69  F   UNL A   1      43.140  25.540  34.969  1.00  0.00    -0.206 F 
ATOM     70  C   UNL A   1      45.394  25.553  35.628  1.00  0.00     0.040 A 
ATOM     71  C   UNL A   1      46.812  27.407  35.039  1.00  0.00     0.040 A 
ATOM     72  F   UNL A   1      45.938  29.217  33.830  1.00  0.00    -0.206 F 
ATOM     73  C   UNL A   1      46.643  26.171  35.659  1.00  0.00     0.006 A 
ENDBRANCH  52  66
BRANCH  53  74
ATOM     74  C   UNL A   1      36.954  31.491  29.200  1.00  0.00     0.057 A 
ATOM     75  C   UNL A   1      35.806  30.751  28.898  1.00  0.00     0.134 A 
ATOM     76  C   UNL A   1      37.005  32.816  28.750  1.00  0.00     0.134 A 
ATOM     77  F   UNL A   1      35.709  29.470  29.282  1.00  0.00    -0.206 F 
ATOM     78  C   UNL A   1      34.756  31.299  28.160  1.00  0.00     0.040 A 
ATOM     79  C   UNL A   1      35.952  33.385  28.031  1.00  0.00     0.040 A 
ATOM     80  F   UNL A   1      38.078  33.578  29.006  1.00  0.00    -0.206 F 
ATOM     81  C   UNL A   1      34.826  32.623  27.729  1.00  0.00     0.006 A 
ENDBRANCH  53  74
BRANCH  65  82
ATOM     82  C   UNL A   1      39.163  32.079  35.775  1.00  0.00     0.057 A 
ATOM     83  C   UNL A   1      39.530  33.418  35.958  1.00  0.00     0.134 A 
ATOM     84  C   UNL A   1      38.273  31.519  36.701  1.00  0.00     0.134 A 
ATOM     85  F   UNL A   1      40.387  34.009  35.113  1.00  0.00    -0.206 F 
ATOM     86  C   UNL A   1      39.045  34.166  37.033  1.00  0.00     0.040 A 
ATOM     87  C   UNL A   1      37.763  32.263  37.765  1.00  0.00     0.040 A 
ATOM     88  F   UNL A   1      37.874  30.243  36.578  1.00  0.00    -0.206 F 
ATOM     89  C   UNL A   1      38.154  33.590  37.936  1.00  0.00     0.006 A 
ENDBRANCH  65  82
ENDBRANCH  39  40
ENDBRANCH  32  34
ENDBRANCH  31  32
ENDBRANCH  30  31
ENDBRANCH  29  30
ENDBRANCH  28  29
ENDBRANCH   1  28
TORSDOF 18
ENDMDL
MODEL 2
REMARK VINA RESULT:     -12.0      4.957      9.734
REMARK SMILES C[C@@H](C(=O)OCCOCCOC(=O)c1ccc(-c2c3nc(c(-c4c(F)cccc4F)c4ccc([nH]4)c(-c4c(F)cccc4F)c4nc(c(-c5c(F)cccc5F)c5ccc2[nH]5)C=C4)C=C3)cc1)c1ccc(C[C@H]2CCCC2=O)c(-c2ccc(F)cc2)c1
REMARK SMILES IDX 7 1 6 2 5 3 3 4 4 5 2 6 1 7 68 8 69 9 87 10 70 11 79 12
REMARK SMILES IDX 71 13 80 14 81 15 86 16 82 17 85 18 83 19 84 20 72 21 73 22
REMARK SMILES IDX 74 23 77 24 75 25 76 26 78 27 8 28 9 29 10 30 11 31 12 32
REMARK SMILES IDX 13 33 14 34 15 35 67 36 16 37 66 38 17 39 18 40 19 41 60 42
REMARK SMILES IDX 20 43 65 44 59 45 61 46 21 47 64 48 58 49 57 50 22 52 48 53
REMARK SMILES IDX 31 54 47 55 32 56 35 57 46 58 62 59 33 60 34 61 45 63 63 64
REMARK SMILES IDX 36 65 23 66 24 67 29 68 25 69 26 70 28 71 30 72 27 73 49 74
REMARK SMILES IDX 50 75 55 76 51 77 52 78 54 79 56 80 53 81 37 82 38 83 43 84
REMARK SMILES IDX 39 85 40 86 42 87 44 88 41 89
REMARK H PARENT 61 51 35 62
REMARK Flexibility Score: inf
ROOT
ATOM      1  C   UNL A   1      34.409  33.426  29.148  1.00  0.00     0.202 C 
ENDROOT
BRANCH   1   2
ATOM      2  C   UNL A   1      33.505  32.812  28.074  1.00  0.00     0.261 C 
BRANCH   2   3
ATOM      3  O   UNL A   1      34.155  31.670  27.480  1.00  0.00    -0.463 OA
BRANCH   3   4
ATOM      4  C   UNL A   1      33.364  30.587  27.250  1.00  0.00     0.313 C 
ATOM      5  O   UNL A   1      32.155  30.651  27.051  1.00  0.00    -0.252 OA
BRANCH   4   6
ATOM      6  C   UNL A   1      34.151  29.267  27.253  1.00  0.00     0.126 C 
ATOM      7  C   UNL A   1      35.630  29.384  27.634  1.00  0.00     0.025 C 
BRANCH   6   8
ATOM      8  C   UNL A   1      33.950  28.541  25.926  1.00  0.00    -0.033 A 
ATOM      9  C   UNL A   1      33.596  29.210  24.753  1.00  0.00     0.005 A 
ATOM     10  C   UNL A   1      34.028  27.143  25.883  1.00  0.00     0.013 A 
ATOM     11  C   UNL A   1      33.226  28.500  23.611  1.00  0.00     0.004 A 
ATOM     12  C   UNL A   1      33.690  26.399  24.731  1.00  0.00    -0.015 A 
ATOM     13  C   UNL A   1      33.216  27.095  23.595  1.00  0.00    -0.039 A 
BRANCH  12  14
ATOM     14  C   UNL A   1      33.873  24.937  24.781  1.00  0.00    -0.018 A 
ATOM     15  C   UNL A   1      33.244  24.167  25.776  1.00  0.00     0.012 A 
ATOM     16  C   UNL A   1      34.622  24.269  23.796  1.00  0.00     0.012 A 
ATOM     17  C   UNL A   1      33.389  22.780  25.810  1.00  0.00     0.040 A 
ATOM     18  C   UNL A   1      34.755  22.878  23.819  1.00  0.00     0.040 A 
ATOM     19  C   UNL A   1      34.142  22.149  24.829  1.00  0.00     0.123 A 
ATOM     20  F   UNL A   1      34.273  20.816  24.854  1.00  0.00    -0.207 F 
ENDBRANCH  12  14
BRANCH  13  21
ATOM     21  C   UNL A   1      32.653  26.411  22.361  1.00  0.00     0.047 C 
BRANCH  21  22
ATOM     22  C   UNL A   1      31.148  26.099  22.366  1.00  0.00     0.060 C 
ATOM     23  C   UNL A   1      30.653  25.077  23.395  1.00  0.00     0.012 C 
ATOM     24  C   UNL A   1      30.288  27.304  22.676  1.00  0.00     0.136 C 
ATOM     25  C   UNL A   1      30.054  25.885  24.540  1.00  0.00     0.009 C 
ATOM     26  C   UNL A   1      29.408  27.092  23.878  1.00  0.00     0.076 C 
ATOM     27  O   UNL A   1      30.280  28.328  22.001  1.00  0.00    -0.299 OA
ENDBRANCH  21  22
ENDBRANCH  13  21
ENDBRANCH   6   8
ENDBRANCH   4   6
ENDBRANCH   3   4
ENDBRANCH   2   3
ENDBRANCH   1   2
BRANCH   1  28
ATOM     28  O   UNL A   1      33.743  34.156  30.184  1.00  0.00    -0.374 OA
BRANCH  28  29
ATOM     29  C   UNL A   1      34.507  34.470  31.343  1.00  0.00     0.202 C 
BRANCH  29  30
ATOM     30  C   UNL A   1      34.307  33.559  32.560  1.00  0.00     0.261 C 
BRANCH  30  31
ATOM     31  O   UNL A   1      34.937  32.280  32.387  1.00  0.00    -0.460 OA
BRANCH  31  32
ATOM     32  C   UNL A   1      36.141  32.171  32.994  1.00  0.00     0.338 C 
ATOM     33  O   UNL A   1      36.433  32.510  34.134  1.00  0.00    -0.246 OA
BRANCH  32  34
ATOM     34  C   UNL A   1      37.068  31.408  32.146  1.00  0.00     0.060 A 
ATOM     35  C   UNL A   1      38.078  30.686  32.795  1.00  0.00     0.016 A 
ATOM     36  C   UNL A   1      37.002  31.444  30.751  1.00  0.00     0.016 A 
ATOM     37  C   UNL A   1      39.061  30.041  32.051  1.00  0.00     0.010 A 
ATOM     38  C   UNL A   1      37.998  30.803  30.005  1.00  0.00     0.010 A 
ATOM     39  C   UNL A   1      39.050  30.133  30.654  1.00  0.00    -0.014 A 
BRANCH  39  40
ATOM     40  C   UNL A   1      40.235  29.668  29.896  1.00  0.00     0.031 A 
ATOM     41  C   UNL A   1      41.379  30.621  29.685  1.00  0.00     0.074 A 
ATOM     42  C   UNL A   1      40.315  28.402  29.452  1.00  0.00     0.049 A 
ATOM     43  N   UNL A   1      42.515  30.430  29.065  1.00  0.00    -0.248 NA
ATOM     44  C   UNL A   1      41.222  31.971  30.251  1.00  0.00     0.031 C 
ATOM     45  C   UNL A   1      39.290  27.376  29.636  1.00  0.00     0.029 A 
ATOM     46  N   UNL A   1      41.311  27.765  28.757  1.00  0.00    -0.354 N 
ATOM     47  C   UNL A   1      43.205  31.631  29.163  1.00  0.00     0.074 A 
ATOM     48  C   UNL A   1      42.350  32.555  29.877  1.00  0.00     0.031 C 
ATOM     49  C   UNL A   1      39.710  26.235  29.062  1.00  0.00     0.029 A 
ATOM     50  C   UNL A   1      41.019  26.459  28.450  1.00  0.00     0.049 A 
ATOM     51  H   UNL A   1      42.155  28.203  28.501  1.00  0.00     0.167 HD
ATOM     52  C   UNL A   1      44.444  31.934  28.708  1.00  0.00     0.037 A 
ATOM     53  C   UNL A   1      41.724  25.555  27.744  1.00  0.00     0.037 A 
ATOM     54  C   UNL A   1      45.294  31.013  28.003  1.00  0.00     0.049 A 
ATOM     55  C   UNL A   1      43.069  25.940  27.187  1.00  0.00     0.074 A 
ATOM     56  C   UNL A   1      46.575  31.218  27.521  1.00  0.00     0.029 A 
ATOM     57  N   UNL A   1      44.945  29.712  27.674  1.00  0.00    -0.354 N 
ATOM     58  N   UNL A   1      43.723  27.070  27.309  1.00  0.00    -0.248 NA
ATOM     59  C   UNL A   1      43.774  24.921  26.395  1.00  0.00     0.031 C 
ATOM     60  C   UNL A   1      46.982  30.056  26.858  1.00  0.00     0.029 A 
ATOM     61  C   UNL A   1      45.975  29.111  26.971  1.00  0.00     0.049 A 
ATOM     62  H   UNL A   1      44.091  29.281  27.906  1.00  0.00     0.167 HD
ATOM     63  C   UNL A   1      44.926  26.889  26.637  1.00  0.00     0.074 A 
ATOM     64  C   UNL A   1      44.915  25.538  26.117  1.00  0.00     0.031 C 
ATOM     65  C   UNL A   1      45.949  27.762  26.467  1.00  0.00     0.037 A 
BRANCH  52  66
ATOM     66  C   UNL A   1      44.941  33.330  28.939  1.00  0.00     0.057 A 
ATOM     67  C   UNL A   1      45.691  33.671  30.071  1.00  0.00     0.134 A 
ATOM     68  C   UNL A   1      44.688  34.339  28.000  1.00  0.00     0.134 A 
ATOM     69  F   UNL A   1      45.953  32.755  31.015  1.00  0.00    -0.206 F 
ATOM     70  C   UNL A   1      46.156  34.973  30.271  1.00  0.00     0.040 A 
ATOM     71  C   UNL A   1      45.168  35.637  28.178  1.00  0.00     0.040 A 
ATOM     72  F   UNL A   1      43.977  34.077  26.894  1.00  0.00    -0.206 F 
ATOM     73  C   UNL A   1      45.900  35.958  29.319  1.00  0.00     0.006 A 
ENDBRANCH  52  66
BRANCH  53  74
ATOM     74  C   UNL A   1      41.172  24.198  27.510  1.00  0.00     0.057 A 
ATOM     75  C   UNL A   1      40.125  23.985  26.606  1.00  0.00     0.134 A 
ATOM     76  C   UNL A   1      41.662  23.084  28.204  1.00  0.00     0.134 A 
ATOM     77  F   UNL A   1      39.598  25.016  25.930  1.00  0.00    -0.206 F 
ATOM     78  C   UNL A   1      39.573  22.717  26.411  1.00  0.00     0.040 A 
ATOM     79  C   UNL A   1      41.137  21.807  28.001  1.00  0.00     0.040 A 
ATOM     80  F   UNL A   1      42.664  23.222  29.084  1.00  0.00    -0.206 F 
ATOM     81  C   UNL A   1      40.084  21.623  27.107  1.00  0.00     0.006 A 
ENDBRANCH  53  74
BRANCH  65  82
ATOM     82  C   UNL A   1      47.153  27.273  25.717  1.00  0.00     0.057 A 
ATOM     83  C   UNL A   1      47.327  27.528  24.352  1.00  0.00     0.134 A 
ATOM     84  C   UNL A   1      48.170  26.576  26.382  1.00  0.00     0.134 A 
ATOM     85  F   UNL A   1      46.385  28.181  23.656  1.00  0.00    -0.206 F 
ATOM     86  C   UNL A   1      48.463  27.090  23.669  1.00  0.00     0.040 A 
ATOM     87  C   UNL A   1      49.320  26.153  25.715  1.00  0.00     0.040 A 
ATOM     88  F   UNL A   1      48.069  26.307  27.693  1.00  0.00    -0.206 F 
ATOM     89  C   UNL A   1      49.467  26.406  24.352  1.00  0.00     0.006 A 
ENDBRANCH  65  82
ENDBRANCH  39  40
ENDBRANCH  32  34
ENDBRANCH  31  32
ENDBRANCH  30  31
ENDBRANCH  29  30
ENDBRANCH  28  29
ENDBRANCH   1  28
TORSDOF 18
ENDMDL
MODEL 3
REMARK VINA RESULT:     -11.6      4.975      9.811
REMARK SMILES C[C@@H](C(=O)OCCOCCOC(=O)c1ccc(-c2c3nc(c(-c4c(F)cccc4F)c4ccc([nH]4)c(-c4c(F)cccc4F)c4nc(c(-c5c(F)cccc5F)c5ccc2[nH]5)C=C4)C=C3)cc1)c1ccc(C[C@H]2CCCC2=O)c(-c2ccc(F)cc2)c1
REMARK SMILES IDX 7 1 6 2 5 3 3 4 4 5 2 6 1 7 68 8 69 9 87 10 70 11 79 12
REMARK SMILES IDX 71 13 80 14 81 15 86 16 82 17 85 18 83 19 84 20 72 21 73 22
REMARK SMILES IDX 74 23 77 24 75 25 76 26 78 27 8 28 9 29 10 30 11 31 12 32
REMARK SMILES IDX 13 33 14 34 15 35 67 36 16 37 66 38 17 39 18 40 19 41 60 42
REMARK SMILES IDX 20 43 65 44 59 45 61 46 21 47 64 48 58 49 57 50 22 52 48 53
REMARK SMILES IDX 31 54 47 55 32 56 35 57 46 58 62 59 33 60 34 61 45 63 63 64
REMARK SMILES IDX 36 65 23 66 24 67 29 68 25 69 26 70 28 71 30 72 27 73 49 74
REMARK SMILES IDX 50 75 55 76 51 77 52 78 54 79 56 80 53 81 37 82 38 83 43 84
REMARK SMILES IDX 39 85 40 86 42 87 44 88 41 89
REMARK H PARENT 61 51 35 62
REMARK Flexibility Score: inf
ROOT
ATOM      1  C   UNL A   1      35.265  33.561  28.588  1.00  0.00     0.202 C 
ENDROOT
BRANCH   1   2
ATOM      2  C   UNL A   1      34.052  32.638  28.430  1.00  0.00     0.261 C 
BRANCH   2   3
ATOM      3  O   UNL A   1      34.256  31.745  27.316  1.00  0.00    -0.463 OA
BRANCH   3   4
ATOM      4  C   UNL A   1      33.414  30.679  27.244  1.00  0.00     0.313 C 
ATOM      5  O   UNL A   1      32.193  30.775  27.166  1.00  0.00    -0.252 OA
BRANCH   4   6
ATOM      6  C   UNL A   1      34.157  29.334  27.257  1.00  0.00     0.126 C 
ATOM      7  C   UNL A   1      35.631  29.401  27.668  1.00  0.00     0.025 C 
BRANCH   6   8
ATOM      8  C   UNL A   1      33.960  28.620  25.923  1.00  0.00    -0.033 A 
ATOM      9  C   UNL A   1      33.626  29.302  24.751  1.00  0.00     0.005 A 
ATOM     10  C   UNL A   1      34.020  27.222  25.871  1.00  0.00     0.013 A 
ATOM     11  C   UNL A   1      33.259  28.605  23.600  1.00  0.00     0.004 A 
ATOM     12  C   UNL A   1      33.684  26.490  24.710  1.00  0.00    -0.015 A 
ATOM     13  C   UNL A   1      33.230  27.201  23.574  1.00  0.00    -0.039 A 
BRANCH  12  14
ATOM     14  C   UNL A   1      33.847  25.026  24.751  1.00  0.00    -0.018 A 
ATOM     15  C   UNL A   1      34.467  24.340  23.690  1.00  0.00     0.012 A 
ATOM     16  C   UNL A   1      33.451  24.287  25.880  1.00  0.00     0.012 A 
ATOM     17  C   UNL A   1      34.650  22.958  23.738  1.00  0.00     0.040 A 
ATOM     18  C   UNL A   1      33.650  22.905  25.937  1.00  0.00     0.040 A 
ATOM     19  C   UNL A   1      34.242  22.254  24.862  1.00  0.00     0.123 A 
ATOM     20  F   UNL A   1      34.427  20.929  24.914  1.00  0.00    -0.207 F 
ENDBRANCH  12  14
BRANCH  13  21
ATOM     21  C   UNL A   1      32.671  26.533  22.330  1.00  0.00     0.047 C 
BRANCH  21  22
ATOM     22  C   UNL A   1      31.172  26.190  22.341  1.00  0.00     0.060 C 
ATOM     23  C   UNL A   1      30.704  25.148  23.362  1.00  0.00     0.012 C 
ATOM     24  C   UNL A   1      30.290  27.374  22.666  1.00  0.00     0.136 C 
ATOM     25  C   UNL A   1      30.095  25.933  24.519  1.00  0.00     0.009 C 
ATOM     26  C   UNL A   1      29.420  27.133  23.871  1.00  0.00     0.076 C 
ATOM     27  O   UNL A   1      30.257  28.403  22.001  1.00  0.00    -0.299 OA
ENDBRANCH  21  22
ENDBRANCH  13  21
ENDBRANCH   6   8
ENDBRANCH   4   6
ENDBRANCH   3   4
ENDBRANCH   2   3
ENDBRANCH   1   2
BRANCH   1  28
ATOM     28  O   UNL A   1      35.478  34.094  29.899  1.00  0.00    -0.374 OA
BRANCH  28  29
ATOM     29  C   UNL A   1      34.352  34.134  30.769  1.00  0.00     0.202 C 
BRANCH  29  30
ATOM     30  C   UNL A   1      34.471  33.341  32.076  1.00  0.00     0.261 C 
BRANCH  30  31
ATOM     31  O   UNL A   1      35.143  32.086  31.887  1.00  0.00    -0.460 OA
BRANCH  31  32
ATOM     32  C   UNL A   1      36.291  31.963  32.591  1.00  0.00     0.338 C 
ATOM     33  O   UNL A   1      36.478  32.249  33.767  1.00  0.00    -0.246 OA
BRANCH  32  34
ATOM     34  C   UNL A   1      37.302  31.253  31.792  1.00  0.00     0.060 A 
ATOM     35  C   UNL A   1      38.333  30.613  32.491  1.00  0.00     0.016 A 
ATOM     36  C   UNL A   1      37.287  31.264  30.395  1.00  0.00     0.016 A 
ATOM     37  C   UNL A   1      39.386  30.028  31.797  1.00  0.00     0.010 A 
ATOM     38  C   UNL A   1      38.354  30.684  29.699  1.00  0.00     0.010 A 
ATOM     39  C   UNL A   1      39.424  30.099  30.398  1.00  0.00    -0.014 A 
BRANCH  39  40
ATOM     40  C   UNL A   1      40.666  29.707  29.694  1.00  0.00     0.031 A 
ATOM     41  C   UNL A   1      40.775  28.313  29.138  1.00  0.00     0.074 A 
ATOM     42  C   UNL A   1      41.658  30.593  29.502  1.00  0.00     0.049 A 
ATOM     43  N   UNL A   1      41.758  27.757  28.479  1.00  0.00    -0.248 NA
ATOM     44  C   UNL A   1      39.618  27.429  29.353  1.00  0.00     0.031 C 
ATOM     45  C   UNL A   1      41.648  31.984  29.953  1.00  0.00     0.029 A 
ATOM     46  N   UNL A   1      42.867  30.451  28.870  1.00  0.00    -0.354 N 
ATOM     47  C   UNL A   1      41.342  26.461  28.204  1.00  0.00     0.074 A 
ATOM     48  C   UNL A   1      40.029  26.303  28.792  1.00  0.00     0.031 C 
ATOM     49  C   UNL A   1      42.802  32.567  29.588  1.00  0.00     0.029 A 
ATOM     50  C   UNL A   1      43.640  31.586  28.900  1.00  0.00     0.049 A 
ATOM     51  H   UNL A   1      43.155  29.615  28.439  1.00  0.00     0.167 HD
ATOM     52  C   UNL A   1      41.991  25.493  27.516  1.00  0.00     0.037 A 
ATOM     53  C   UNL A   1      44.885  31.800  28.436  1.00  0.00     0.037 A 
ATOM     54  C   UNL A   1      43.294  25.652  26.928  1.00  0.00     0.049 A 
ATOM     55  C   UNL A   1      45.614  30.685  27.736  1.00  0.00     0.074 A 
ATOM     56  C   UNL A   1      44.026  24.738  26.192  1.00  0.00     0.029 A 
ATOM     57  N   UNL A   1      44.061  26.804  27.017  1.00  0.00    -0.354 N 
ATOM     58  N   UNL A   1      45.200  29.472  27.458  1.00  0.00    -0.248 NA
ATOM     59  C   UNL A   1      46.984  30.968  27.283  1.00  0.00     0.031 C 
ATOM     60  C   UNL A   1      45.258  25.320  25.875  1.00  0.00     0.029 A 
ATOM     61  C   UNL A   1      45.272  26.613  26.372  1.00  0.00     0.049 A 
ATOM     62  H   UNL A   1      43.787  27.632  27.471  1.00  0.00     0.167 HD
ATOM     63  C   UNL A   1      46.244  28.859  26.774  1.00  0.00     0.074 A 
ATOM     64  C   UNL A   1      47.307  29.837  26.671  1.00  0.00     0.031 C 
ATOM     65  C   UNL A   1      46.316  27.601  26.274  1.00  0.00     0.037 A 
BRANCH  52  66
ATOM     66  C   UNL A   1      41.307  24.164  27.384  1.00  0.00     0.057 A 
ATOM     67  C   UNL A   1      40.236  23.966  26.504  1.00  0.00     0.134 A 
ATOM     68  C   UNL A   1      41.747  23.061  28.128  1.00  0.00     0.134 A 
ATOM     69  F   UNL A   1      39.757  24.986  25.775  1.00  0.00    -0.206 F 
ATOM     70  C   UNL A   1      39.613  22.722  26.383  1.00  0.00     0.040 A 
ATOM     71  C   UNL A   1      41.147  21.808  27.998  1.00  0.00     0.040 A 
ATOM     72  F   UNL A   1      42.770  23.183  28.987  1.00  0.00    -0.206 F 
ATOM     73  C   UNL A   1      40.074  21.637  27.127  1.00  0.00     0.006 A 
ENDBRANCH  52  66
BRANCH  53  74
ATOM     74  C   UNL A   1      45.534  33.122  28.625  1.00  0.00     0.057 A 
ATOM     75  C   UNL A   1      46.324  33.390  29.748  1.00  0.00     0.134 A 
ATOM     76  C   UNL A   1      45.358  34.157  27.697  1.00  0.00     0.134 A 
ATOM     77  F   UNL A   1      46.509  32.446  30.683  1.00  0.00    -0.206 F 
ATOM     78  C   UNL A   1      46.903  34.643  29.953  1.00  0.00     0.040 A 
ATOM     79  C   UNL A   1      45.951  35.407  27.877  1.00  0.00     0.040 A 
ATOM     80  F   UNL A   1      44.612  33.964  26.600  1.00  0.00    -0.206 F 
ATOM     81  C   UNL A   1      46.721  35.655  29.011  1.00  0.00     0.006 A 
ENDBRANCH  53  74
BRANCH  65  82
ATOM     82  C   UNL A   1      47.570  27.222  25.543  1.00  0.00     0.057 A 
ATOM     83  C   UNL A   1      47.716  27.434  24.167  1.00  0.00     0.134 A 
ATOM     84  C   UNL A   1      48.659  26.677  26.235  1.00  0.00     0.134 A 
ATOM     85  F   UNL A   1      46.706  27.942  23.447  1.00  0.00    -0.206 F 
ATOM     86  C   UNL A   1      48.896  27.100  23.501  1.00  0.00     0.040 A 
ATOM     87  C   UNL A   1      49.852  26.361  25.584  1.00  0.00     0.040 A 
ATOM     88  F   UNL A   1      48.587  26.457  27.557  1.00  0.00    -0.206 F 
ATOM     89  C   UNL A   1      49.971  26.568  24.211  1.00  0.00     0.006 A 
ENDBRANCH  65  82
ENDBRANCH  39  40
ENDBRANCH  32  34
ENDBRANCH  31  32
ENDBRANCH  30  31
ENDBRANCH  29  30
ENDBRANCH  28  29
ENDBRANCH   1  28
TORSDOF 18
ENDMDL
