MODEL 1
REMARK VINA RESULT:     -11.4      0.000      0.000
REMARK SMILES CC[C@@H](C)[C@@H](C(=O)OCCOCCOC(=O)c1ccc(-c2c3nc(c(-c4c(F)cccc4F)c4ccc([nH]4)c(-c4c(F)cccc4F)c4nc(c(-c5c(F)cccc5F)c5ccc2[nH]5)C=C4)C=C3)cc1)N1C(=O)/C(=C/c2ccc(O)cc2)SC1=S
REMARK SMILES IDX 10 1 9 2 8 3 6 4 7 5 5 6 3 7 4 8 2 9 1 10 71 11 72 12 84 13
REMARK SMILES IDX 73 14 74 15 83 16 85 17 75 18 76 19 77 20 82 21 78 22 81 23
REMARK SMILES IDX 79 24 80 25 11 27 12 28 13 29 14 30 15 31 16 32 17 33 18 34
REMARK SMILES IDX 70 35 19 36 69 37 20 38 21 39 22 40 63 41 23 42 68 43 62 44
REMARK SMILES IDX 64 45 24 46 67 47 61 48 60 49 25 51 51 52 34 53 50 54 35 55
REMARK SMILES IDX 38 56 49 57 65 58 36 59 37 60 48 62 66 63 39 64 26 65 27 66
REMARK SMILES IDX 32 67 28 68 29 69 31 70 33 71 30 72 52 73 53 74 58 75 54 76
REMARK SMILES IDX 55 77 57 78 59 79 56 80 40 81 41 82 46 83 42 84 43 85 45 86
REMARK SMILES IDX 47 87 44 88
REMARK H PARENT 80 26 64 50 38 61
REMARK Flexibility Score: inf
ROOT
ATOM      1  C   UNL A   1      32.769  28.592  25.167  1.00  0.00     0.202 C 
ENDROOT
BRANCH   1   2
ATOM      2  C   UNL A   1      33.748  28.013  24.136  1.00  0.00     0.261 C 
BRANCH   2   3
ATOM      3  O   UNL A   1      34.032  26.653  24.502  1.00  0.00    -0.462 OA
BRANCH   3   4
ATOM      4  C   UNL A   1      33.613  25.664  23.679  1.00  0.00     0.329 C 
ATOM      5  O   UNL A   1      34.047  25.472  22.550  1.00  0.00    -0.250 OA
BRANCH   4   6
ATOM      6  C   UNL A   1      32.614  24.728  24.391  1.00  0.00     0.204 C 
BRANCH   6   7
ATOM      7  C   UNL A   1      31.928  25.205  25.741  1.00  0.00     0.020 C 
ATOM      8  C   UNL A   1      31.949  24.077  26.792  1.00  0.00     0.010 C 
BRANCH   7   9
ATOM      9  C   UNL A   1      30.459  25.694  25.556  1.00  0.00     0.002 C 
ATOM     10  C   UNL A   1      30.067  26.090  24.133  1.00  0.00     0.004 C 
ENDBRANCH   7   9
ENDBRANCH   6   7
BRANCH   6  11
ATOM     11  N   UNL A   1      33.158  23.327  24.470  1.00  0.00    -0.278 N 
ATOM     12  C   UNL A   1      32.402  22.312  23.901  1.00  0.00     0.267 C 
ATOM     13  C   UNL A   1      34.300  22.890  25.120  1.00  0.00     0.149 C 
ATOM     14  O   UNL A   1      31.428  22.461  23.176  1.00  0.00    -0.268 OA
ATOM     15  C   UNL A   1      32.903  20.975  24.316  1.00  0.00     0.081 C 
ATOM     16  S   UNL A   1      34.270  21.149  25.321  1.00  0.00    -0.054 SA
ATOM     17  S   UNL A   1      35.659  23.700  25.626  1.00  0.00    -0.052 S 
ATOM     18  C   UNL A   1      32.334  19.828  23.926  1.00  0.00     0.029 C 
BRANCH  18  19
ATOM     19  C   UNL A   1      32.827  18.488  24.272  1.00  0.00    -0.024 A 
ATOM     20  C   UNL A   1      32.524  17.969  25.535  1.00  0.00     0.012 A 
ATOM     21  C   UNL A   1      33.571  17.712  23.370  1.00  0.00     0.012 A 
ATOM     22  C   UNL A   1      32.938  16.682  25.883  1.00  0.00     0.047 A 
ATOM     23  C   UNL A   1      33.978  16.420  23.716  1.00  0.00     0.047 A 
ATOM     24  C   UNL A   1      33.654  15.916  24.971  1.00  0.00     0.115 A 
BRANCH  24  25
ATOM     25  O   UNL A   1      34.020  14.660  25.349  1.00  0.00    -0.508 OA
ATOM     26  H   UNL A   1      33.445  14.143  25.879  1.00  0.00     0.293 HD
ENDBRANCH  24  25
ENDBRANCH  18  19
ENDBRANCH   6  11
ENDBRANCH   4   6
ENDBRANCH   3   4
ENDBRANCH   2   3
ENDBRANCH   1   2
BRANCH   1  27
ATOM     27  O   UNL A   1      32.623  30.017  25.197  1.00  0.00    -0.374 OA
BRANCH  27  28
ATOM     28  C   UNL A   1      31.398  30.548  25.702  1.00  0.00     0.202 C 
BRANCH  28  29
ATOM     29  C   UNL A   1      31.468  31.844  26.504  1.00  0.00     0.261 C 
BRANCH  29  30
ATOM     30  O   UNL A   1      32.721  31.978  27.176  1.00  0.00    -0.460 OA
BRANCH  30  31
ATOM     31  C   UNL A   1      32.920  33.207  27.700  1.00  0.00     0.338 C 
ATOM     32  O   UNL A   1      32.193  34.187  27.612  1.00  0.00    -0.246 OA
BRANCH  31  33
ATOM     33  C   UNL A   1      34.104  33.170  28.566  1.00  0.00     0.060 A 
ATOM     34  C   UNL A   1      35.324  33.579  28.012  1.00  0.00     0.016 A 
ATOM     35  C   UNL A   1      34.028  32.693  29.876  1.00  0.00     0.016 A 
ATOM     36  C   UNL A   1      36.495  33.435  28.741  1.00  0.00     0.010 A 
ATOM     37  C   UNL A   1      35.204  32.542  30.605  1.00  0.00     0.010 A 
ATOM     38  C   UNL A   1      36.441  32.861  30.016  1.00  0.00    -0.014 A 
BRANCH  38  39
ATOM     39  C   UNL A   1      37.683  32.375  30.650  1.00  0.00     0.031 A 
ATOM     40  C   UNL A   1      38.360  31.180  30.042  1.00  0.00     0.074 A 
ATOM     41  C   UNL A   1      38.187  32.982  31.736  1.00  0.00     0.049 A 
ATOM     42  N   UNL A   1      39.377  30.489  30.481  1.00  0.00    -0.248 NA
ATOM     43  C   UNL A   1      37.804  30.692  28.767  1.00  0.00     0.031 C 
ATOM     44  C   UNL A   1      37.636  34.180  32.367  1.00  0.00     0.029 A 
ATOM     45  N   UNL A   1      39.268  32.655  32.509  1.00  0.00    -0.354 N 
ATOM     46  C   UNL A   1      39.568  29.474  29.551  1.00  0.00     0.074 A 
ATOM     47  C   UNL A   1      38.547  29.622  28.538  1.00  0.00     0.031 C 
ATOM     48  C   UNL A   1      38.374  34.476  33.451  1.00  0.00     0.029 A 
ATOM     49  C   UNL A   1      39.417  33.463  33.608  1.00  0.00     0.049 A 
ATOM     50  H   UNL A   1      39.879  31.912  32.298  1.00  0.00     0.167 HD
ATOM     51  C   UNL A   1      40.517  28.510  29.545  1.00  0.00     0.037 A 
ATOM     52  C   UNL A   1      40.279  33.368  34.637  1.00  0.00     0.037 A 
ATOM     53  C   UNL A   1      41.528  28.383  30.559  1.00  0.00     0.049 A 
ATOM     54  C   UNL A   1      41.281  32.242  34.647  1.00  0.00     0.074 A 
ATOM     55  C   UNL A   1      42.545  27.451  30.650  1.00  0.00     0.029 A 
ATOM     56  N   UNL A   1      41.644  29.218  31.661  1.00  0.00    -0.354 N 
ATOM     57  N   UNL A   1      41.462  31.288  33.765  1.00  0.00    -0.248 NA
ATOM     58  C   UNL A   1      42.198  32.180  35.792  1.00  0.00     0.031 C 
ATOM     59  C   UNL A   1      43.245  27.690  31.836  1.00  0.00     0.029 A 
ATOM     60  C   UNL A   1      42.704  28.810  32.450  1.00  0.00     0.049 A 
ATOM     61  H   UNL A   1      41.058  29.986  31.854  1.00  0.00     0.167 HD
ATOM     62  C   UNL A   1      42.539  30.542  34.225  1.00  0.00     0.074 A 
ATOM     63  C   UNL A   1      42.968  31.150  35.467  1.00  0.00     0.031 C 
ATOM     64  C   UNL A   1      43.128  29.455  33.666  1.00  0.00     0.037 A 
BRANCH  51  65
ATOM     65  C   UNL A   1      40.480  27.506  28.430  1.00  0.00     0.057 A 
ATOM     66  C   UNL A   1      41.201  27.685  27.242  1.00  0.00     0.134 A 
ATOM     67  C   UNL A   1      39.732  26.330  28.559  1.00  0.00     0.134 A 
ATOM     68  F   UNL A   1      41.924  28.799  27.047  1.00  0.00    -0.206 F 
ATOM     69  C   UNL A   1      41.160  26.744  26.213  1.00  0.00     0.040 A 
ATOM     70  C   UNL A   1      39.706  25.366  27.549  1.00  0.00     0.040 A 
ATOM     71  F   UNL A   1      39.018  26.092  29.670  1.00  0.00    -0.206 F 
ATOM     72  C   UNL A   1      40.415  25.575  26.369  1.00  0.00     0.006 A 
ENDBRANCH  51  65
BRANCH  52  73
ATOM     73  C   UNL A   1      40.225  34.352  35.745  1.00  0.00     0.057 A 
ATOM     74  C   UNL A   1      39.405  34.145  36.860  1.00  0.00     0.134 A 
ATOM     75  C   UNL A   1      40.985  35.529  35.715  1.00  0.00     0.134 A 
ATOM     76  F   UNL A   1      38.641  33.046  36.940  1.00  0.00    -0.206 F 
ATOM     77  C   UNL A   1      39.326  35.079  37.894  1.00  0.00     0.040 A 
ATOM     78  C   UNL A   1      40.936  36.459  36.755  1.00  0.00     0.040 A 
ATOM     79  F   UNL A   1      41.797  35.785  34.678  1.00  0.00    -0.206 F 
ATOM     80  C   UNL A   1      40.098  36.238  37.845  1.00  0.00     0.006 A 
ENDBRANCH  52  73
BRANCH  64  81
ATOM     81  C   UNL A   1      44.342  28.895  34.347  1.00  0.00     0.057 A 
ATOM     82  C   UNL A   1      45.624  29.413  34.133  1.00  0.00     0.134 A 
ATOM     83  C   UNL A   1      44.204  27.875  35.300  1.00  0.00     0.134 A 
ATOM     84  F   UNL A   1      45.824  30.383  33.228  1.00  0.00    -0.206 F 
ATOM     85  C   UNL A   1      46.730  28.927  34.832  1.00  0.00     0.040 A 
ATOM     86  C   UNL A   1      45.297  27.402  36.025  1.00  0.00     0.040 A 
ATOM     87  F   UNL A   1      43.000  27.345  35.560  1.00  0.00    -0.206 F 
ATOM     88  C   UNL A   1      46.566  27.926  35.789  1.00  0.00     0.006 A 
ENDBRANCH  64  81
ENDBRANCH  38  39
ENDBRANCH  31  33
ENDBRANCH  30  31
ENDBRANCH  29  30
ENDBRANCH  28  29
ENDBRANCH  27  28
ENDBRANCH   1  27
TORSDOF 19
ENDMDL
MODEL 2
REMARK VINA RESULT:     -11.4      1.542      2.550
REMARK SMILES CC[C@@H](C)[C@@H](C(=O)OCCOCCOC(=O)c1ccc(-c2c3nc(c(-c4c(F)cccc4F)c4ccc([nH]4)c(-c4c(F)cccc4F)c4nc(c(-c5c(F)cccc5F)c5ccc2[nH]5)C=C4)C=C3)cc1)N1C(=O)/C(=C/c2ccc(O)cc2)SC1=S
REMARK SMILES IDX 10 1 9 2 8 3 6 4 7 5 5 6 3 7 4 8 2 9 1 10 71 11 72 12 84 13
REMARK SMILES IDX 73 14 74 15 83 16 85 17 75 18 76 19 77 20 82 21 78 22 81 23
REMARK SMILES IDX 79 24 80 25 11 27 12 28 13 29 14 30 15 31 16 32 17 33 18 34
REMARK SMILES IDX 70 35 19 36 69 37 20 38 21 39 22 40 63 41 23 42 68 43 62 44
REMARK SMILES IDX 64 45 24 46 67 47 61 48 60 49 25 51 51 52 34 53 50 54 35 55
REMARK SMILES IDX 38 56 49 57 65 58 36 59 37 60 48 62 66 63 39 64 26 65 27 66
REMARK SMILES IDX 32 67 28 68 29 69 31 70 33 71 30 72 52 73 53 74 58 75 54 76
REMARK SMILES IDX 55 77 57 78 59 79 56 80 40 81 41 82 46 83 42 84 43 85 45 86
REMARK SMILES IDX 47 87 44 88
REMARK H PARENT 80 26 64 50 38 61
REMARK Flexibility Score: inf
ROOT
ATOM      1  C   UNL A   1      32.422  28.150  22.988  1.00  0.00     0.202 C 
ENDROOT
BRANCH   1   2
ATOM      2  C   UNL A   1      31.609  26.862  22.795  1.00  0.00     0.261 C 
BRANCH   2   3
ATOM      3  O   UNL A   1      32.530  25.779  22.584  1.00  0.00    -0.462 OA
BRANCH   3   4
ATOM      4  C   UNL A   1      33.186  25.275  23.654  1.00  0.00     0.329 C 
ATOM      5  O   UNL A   1      34.342  25.549  23.950  1.00  0.00    -0.250 OA
BRANCH   4   6
ATOM      6  C   UNL A   1      32.253  24.412  24.530  1.00  0.00     0.204 C 
BRANCH   6   7
ATOM      7  C   UNL A   1      31.667  25.020  25.874  1.00  0.00     0.020 C 
ATOM      8  C   UNL A   1      30.148  25.257  25.750  1.00  0.00     0.010 C 
BRANCH   7   9
ATOM      9  C   UNL A   1      32.351  26.353  26.306  1.00  0.00     0.002 C 
ATOM     10  C   UNL A   1      31.538  27.239  27.249  1.00  0.00     0.004 C 
ENDBRANCH   7   9
ENDBRANCH   6   7
BRANCH   6  11
ATOM     11  N   UNL A   1      32.815  23.027  24.705  1.00  0.00    -0.278 N 
ATOM     12  C   UNL A   1      32.327  22.027  23.875  1.00  0.00     0.267 C 
ATOM     13  C   UNL A   1      33.716  22.586  25.659  1.00  0.00     0.149 C 
ATOM     14  O   UNL A   1      31.623  22.192  22.889  1.00  0.00    -0.268 OA
ATOM     15  C   UNL A   1      32.740  20.683  24.359  1.00  0.00     0.081 C 
ATOM     16  S   UNL A   1      33.713  20.835  25.751  1.00  0.00    -0.054 SA
ATOM     17  S   UNL A   1      34.806  23.404  26.609  1.00  0.00    -0.052 S 
ATOM     18  C   UNL A   1      32.380  19.545  23.751  1.00  0.00     0.029 C 
BRANCH  18  19
ATOM     19  C   UNL A   1      32.808  18.203  24.166  1.00  0.00    -0.024 A 
ATOM     20  C   UNL A   1      32.180  17.611  25.268  1.00  0.00     0.012 A 
ATOM     21  C   UNL A   1      33.806  17.493  23.482  1.00  0.00     0.012 A 
ATOM     22  C   UNL A   1      32.528  16.319  25.665  1.00  0.00     0.047 A 
ATOM     23  C   UNL A   1      34.148  16.196  23.874  1.00  0.00     0.047 A 
ATOM     24  C   UNL A   1      33.503  15.620  24.962  1.00  0.00     0.115 A 
BRANCH  24  25
ATOM     25  O   UNL A   1      33.796  14.356  25.376  1.00  0.00    -0.508 OA
ATOM     26  H   UNL A   1      33.151  13.850  25.831  1.00  0.00     0.293 HD
ENDBRANCH  24  25
ENDBRANCH  18  19
ENDBRANCH   6  11
ENDBRANCH   4   6
ENDBRANCH   3   4
ENDBRANCH   2   3
ENDBRANCH   1   2
BRANCH   1  27
ATOM     27  O   UNL A   1      31.813  29.194  23.758  1.00  0.00    -0.374 OA
BRANCH  27  28
ATOM     28  C   UNL A   1      32.539  29.703  24.876  1.00  0.00     0.202 C 
BRANCH  28  29
ATOM     29  C   UNL A   1      31.778  30.564  25.880  1.00  0.00     0.261 C 
BRANCH  29  30
ATOM     30  O   UNL A   1      32.440  30.605  27.144  1.00  0.00    -0.460 OA
BRANCH  30  31
ATOM     31  C   UNL A   1      33.145  31.740  27.344  1.00  0.00     0.338 C 
ATOM     32  O   UNL A   1      32.729  32.890  27.345  1.00  0.00    -0.246 OA
BRANCH  31  33
ATOM     33  C   UNL A   1      34.514  31.388  27.737  1.00  0.00     0.060 A 
ATOM     34  C   UNL A   1      34.796  30.033  27.952  1.00  0.00     0.016 A 
ATOM     35  C   UNL A   1      35.483  32.371  27.945  1.00  0.00     0.016 A 
ATOM     36  C   UNL A   1      36.033  29.658  28.457  1.00  0.00     0.010 A 
ATOM     37  C   UNL A   1      36.721  31.996  28.458  1.00  0.00     0.010 A 
ATOM     38  C   UNL A   1      36.974  30.647  28.765  1.00  0.00    -0.014 A 
BRANCH  38  39
ATOM     39  C   UNL A   1      38.130  30.312  29.621  1.00  0.00     0.031 A 
ATOM     40  C   UNL A   1      39.159  29.365  29.070  1.00  0.00     0.074 A 
ATOM     41  C   UNL A   1      38.254  30.836  30.850  1.00  0.00     0.049 A 
ATOM     42  N   UNL A   1      40.185  28.818  29.664  1.00  0.00    -0.248 NA
ATOM     43  C   UNL A   1      38.999  28.975  27.658  1.00  0.00     0.031 C 
ATOM     44  C   UNL A   1      37.341  31.804  31.452  1.00  0.00     0.029 A 
ATOM     45  N   UNL A   1      39.194  30.605  31.818  1.00  0.00    -0.354 N 
ATOM     46  C   UNL A   1      40.778  28.003  28.707  1.00  0.00     0.074 A 
ATOM     47  C   UNL A   1      39.985  28.106  27.503  1.00  0.00     0.031 C 
ATOM     48  C   UNL A   1      37.756  32.070  32.703  1.00  0.00     0.029 A 
ATOM     49  C   UNL A   1      38.934  31.257  32.997  1.00  0.00     0.049 A 
ATOM     50  H   UNL A   1      39.980  30.027  31.682  1.00  0.00     0.167 HD
ATOM     51  C   UNL A   1      41.891  27.243  28.826  1.00  0.00     0.037 A 
ATOM     52  C   UNL A   1      39.562  31.173  34.184  1.00  0.00     0.037 A 
ATOM     53  C   UNL A   1      42.671  27.158  30.030  1.00  0.00     0.049 A 
ATOM     54  C   UNL A   1      40.756  30.263  34.315  1.00  0.00     0.074 A 
ATOM     55  C   UNL A   1      43.822  26.428  30.263  1.00  0.00     0.029 A 
ATOM     56  N   UNL A   1      42.373  27.829  31.208  1.00  0.00    -0.354 N 
ATOM     57  N   UNL A   1      41.318  29.499  33.408  1.00  0.00    -0.248 NA
ATOM     58  C   UNL A   1      41.405  30.205  35.632  1.00  0.00     0.031 C 
ATOM     59  C   UNL A   1      44.190  26.616  31.598  1.00  0.00     0.029 A 
ATOM     60  C   UNL A   1      43.307  27.514  32.178  1.00  0.00     0.049 A 
ATOM     61  H   UNL A   1      41.609  28.439  31.334  1.00  0.00     0.167 HD
ATOM     62  C   UNL A   1      42.409  28.906  34.030  1.00  0.00     0.074 A 
ATOM     63  C   UNL A   1      42.428  29.395  35.394  1.00  0.00     0.031 C 
ATOM     64  C   UNL A   1      43.320  28.041  33.519  1.00  0.00     0.037 A 
BRANCH  51  65
ATOM     65  C   UNL A   1      42.304  26.424  27.638  1.00  0.00     0.057 A 
ATOM     66  C   UNL A   1      41.871  25.104  27.456  1.00  0.00     0.134 A 
ATOM     67  C   UNL A   1      43.129  26.974  26.649  1.00  0.00     0.134 A 
ATOM     68  F   UNL A   1      41.094  24.510  28.375  1.00  0.00    -0.206 F 
ATOM     69  C   UNL A   1      42.262  24.353  26.346  1.00  0.00     0.040 A 
ATOM     70  C   UNL A   1      43.503  26.244  25.520  1.00  0.00     0.040 A 
ATOM     71  F   UNL A   1      43.580  28.233  26.759  1.00  0.00    -0.206 F 
ATOM     72  C   UNL A   1      43.075  24.927  25.370  1.00  0.00     0.006 A 
ENDBRANCH  51  65
BRANCH  52  73
ATOM     73  C   UNL A   1      39.069  31.957  35.343  1.00  0.00     0.057 A 
ATOM     74  C   UNL A   1      39.418  33.302  35.510  1.00  0.00     0.134 A 
ATOM     75  C   UNL A   1      38.243  31.382  36.317  1.00  0.00     0.134 A 
ATOM     76  F   UNL A   1      40.220  33.905  34.621  1.00  0.00    -0.206 F 
ATOM     77  C   UNL A   1      38.983  34.040  36.612  1.00  0.00     0.040 A 
ATOM     78  C   UNL A   1      37.778  32.115  37.409  1.00  0.00     0.040 A 
ATOM     79  F   UNL A   1      37.865  30.098  36.212  1.00  0.00    -0.206 F 
ATOM     80  C   UNL A   1      38.155  33.447  37.562  1.00  0.00     0.006 A 
ENDBRANCH  52  73
BRANCH  64  81
ATOM     81  C   UNL A   1      44.455  27.622  34.405  1.00  0.00     0.057 A 
ATOM     82  C   UNL A   1      44.384  26.490  35.225  1.00  0.00     0.134 A 
ATOM     83  C   UNL A   1      45.670  28.322  34.367  1.00  0.00     0.134 A 
ATOM     84  F   UNL A   1      43.247  25.784  35.313  1.00  0.00    -0.206 F 
ATOM     85  C   UNL A   1      45.477  26.076  35.986  1.00  0.00     0.040 A 
ATOM     86  C   UNL A   1      46.777  27.900  35.101  1.00  0.00     0.040 A 
ATOM     87  F   UNL A   1      45.805  29.408  33.592  1.00  0.00    -0.206 F 
ATOM     88  C   UNL A   1      46.682  26.775  35.917  1.00  0.00     0.006 A 
ENDBRANCH  64  81
ENDBRANCH  38  39
ENDBRANCH  31  33
ENDBRANCH  30  31
ENDBRANCH  29  30
ENDBRANCH  28  29
ENDBRANCH  27  28
ENDBRANCH   1  27
TORSDOF 19
ENDMDL
MODEL 3
REMARK VINA RESULT:     -11.2      4.386      9.825
REMARK SMILES CC[C@@H](C)[C@@H](C(=O)OCCOCCOC(=O)c1ccc(-c2c3nc(c(-c4c(F)cccc4F)c4ccc([nH]4)c(-c4c(F)cccc4F)c4nc(c(-c5c(F)cccc5F)c5ccc2[nH]5)C=C4)C=C3)cc1)N1C(=O)/C(=C/c2ccc(O)cc2)SC1=S
REMARK SMILES IDX 10 1 9 2 8 3 6 4 7 5 5 6 3 7 4 8 2 9 1 10 71 11 72 12 84 13
REMARK SMILES IDX 73 14 74 15 83 16 85 17 75 18 76 19 77 20 82 21 78 22 81 23
REMARK SMILES IDX 79 24 80 25 11 27 12 28 13 29 14 30 15 31 16 32 17 33 18 34
REMARK SMILES IDX 70 35 19 36 69 37 20 38 21 39 22 40 63 41 23 42 68 43 62 44
REMARK SMILES IDX 64 45 24 46 67 47 61 48 60 49 25 51 51 52 34 53 50 54 35 55
REMARK SMILES IDX 38 56 49 57 65 58 36 59 37 60 48 62 66 63 39 64 26 65 27 66
REMARK SMILES IDX 32 67 28 68 29 69 31 70 33 71 30 72 52 73 53 74 58 75 54 76
REMARK SMILES IDX 55 77 57 78 59 79 56 80 40 81 41 82 46 83 42 84 43 85 45 86
REMARK SMILES IDX 47 87 44 88
REMARK H PARENT 80 26 64 50 38 61
REMARK Flexibility Score: inf
ROOT
ATOM      1  C   UNL A   1      34.808  22.900  23.578  1.00  0.00     0.202 C 
ENDROOT
BRANCH   1   2
ATOM      2  C   UNL A   1      34.019  24.184  23.287  1.00  0.00     0.261 C 
BRANCH   2   3
ATOM      3  O   UNL A   1      32.805  23.820  22.609  1.00  0.00    -0.462 OA
BRANCH   3   4
ATOM      4  C   UNL A   1      31.625  24.154  23.179  1.00  0.00     0.329 C 
ATOM      5  O   UNL A   1      30.540  23.697  22.843  1.00  0.00    -0.250 OA
BRANCH   4   6
ATOM      6  C   UNL A   1      31.831  25.085  24.393  1.00  0.00     0.204 C 
BRANCH   6   7
ATOM      7  C   UNL A   1      31.337  24.612  25.826  1.00  0.00     0.020 C 
ATOM      8  C   UNL A   1      32.401  24.923  26.899  1.00  0.00     0.010 C 
BRANCH   7   9
ATOM      9  C   UNL A   1      30.980  23.096  25.895  1.00  0.00     0.002 C 
ATOM     10  C   UNL A   1      29.983  22.700  26.983  1.00  0.00     0.004 C 
ENDBRANCH   7   9
ENDBRANCH   6   7
BRANCH   6  11
ATOM     11  N   UNL A   1      31.416  26.493  24.062  1.00  0.00    -0.278 N 
ATOM     12  C   UNL A   1      30.056  26.760  23.987  1.00  0.00     0.267 C 
ATOM     13  C   UNL A   1      32.227  27.567  23.735  1.00  0.00     0.149 C 
ATOM     14  O   UNL A   1      29.156  26.014  24.345  1.00  0.00    -0.268 OA
ATOM     15  C   UNL A   1      29.806  28.087  23.363  1.00  0.00     0.081 C 
ATOM     16  S   UNL A   1      31.287  28.848  22.993  1.00  0.00    -0.054 SA
ATOM     17  S   UNL A   1      33.840  27.854  24.005  1.00  0.00    -0.052 S 
ATOM     18  C   UNL A   1      28.578  28.575  23.151  1.00  0.00     0.029 C 
BRANCH  18  19
ATOM     19  C   UNL A   1      28.289  29.899  22.587  1.00  0.00    -0.024 A 
ATOM     20  C   UNL A   1      28.126  30.979  23.461  1.00  0.00     0.012 A 
ATOM     21  C   UNL A   1      28.192  30.116  21.203  1.00  0.00     0.012 A 
ATOM     22  C   UNL A   1      27.894  32.261  22.960  1.00  0.00     0.047 A 
ATOM     23  C   UNL A   1      27.969  31.400  20.701  1.00  0.00     0.047 A 
ATOM     24  C   UNL A   1      27.824  32.463  21.586  1.00  0.00     0.115 A 
BRANCH  24  25
ATOM     25  O   UNL A   1      27.614  33.734  21.144  1.00  0.00    -0.508 OA
ATOM     26  H   UNL A   1      27.547  34.439  21.758  1.00  0.00     0.293 HD
ENDBRANCH  24  25
ENDBRANCH  18  19
ENDBRANCH   6  11
ENDBRANCH   4   6
ENDBRANCH   3   4
ENDBRANCH   2   3
ENDBRANCH   1   2
BRANCH   1  27
ATOM     27  O   UNL A   1      35.481  22.822  24.840  1.00  0.00    -0.374 OA
BRANCH  27  28
ATOM     28  C   UNL A   1      35.618  21.535  25.441  1.00  0.00     0.202 C 
BRANCH  28  29
ATOM     29  C   UNL A   1      36.832  20.698  25.048  1.00  0.00     0.261 C 
BRANCH  29  30
ATOM     30  O   UNL A   1      38.009  21.498  24.943  1.00  0.00    -0.460 OA
BRANCH  30  31
ATOM     31  C   UNL A   1      38.991  21.123  25.791  1.00  0.00     0.338 C 
ATOM     32  O   UNL A   1      39.518  20.023  25.889  1.00  0.00    -0.246 OA
BRANCH  31  33
ATOM     33  C   UNL A   1      39.481  22.305  26.508  1.00  0.00     0.060 A 
ATOM     34  C   UNL A   1      38.924  23.545  26.167  1.00  0.00     0.016 A 
ATOM     35  C   UNL A   1      40.503  22.208  27.455  1.00  0.00     0.016 A 
ATOM     36  C   UNL A   1      39.444  24.709  26.713  1.00  0.00     0.010 A 
ATOM     37  C   UNL A   1      41.030  23.375  27.997  1.00  0.00     0.010 A 
ATOM     38  C   UNL A   1      40.537  24.627  27.584  1.00  0.00    -0.014 A 
BRANCH  38  39
ATOM     39  C   UNL A   1      41.320  25.841  27.887  1.00  0.00     0.031 A 
ATOM     40  C   UNL A   1      40.644  26.937  28.660  1.00  0.00     0.074 A 
ATOM     41  C   UNL A   1      42.594  25.959  27.482  1.00  0.00     0.049 A 
ATOM     42  N   UNL A   1      41.067  28.141  28.936  1.00  0.00    -0.248 NA
ATOM     43  C   UNL A   1      39.300  26.636  29.182  1.00  0.00     0.031 C 
ATOM     44  C   UNL A   1      43.356  24.931  26.777  1.00  0.00     0.029 A 
ATOM     45  N   UNL A   1      43.462  27.012  27.593  1.00  0.00    -0.354 N 
ATOM     46  C   UNL A   1      40.035  28.746  29.643  1.00  0.00     0.074 A 
ATOM     47  C   UNL A   1      38.955  27.789  29.731  1.00  0.00     0.031 C 
ATOM     48  C   UNL A   1      44.578  25.414  26.497  1.00  0.00     0.029 A 
ATOM     49  C   UNL A   1      44.663  26.797  26.965  1.00  0.00     0.049 A 
ATOM     50  H   UNL A   1      43.246  27.842  28.076  1.00  0.00     0.167 HD
ATOM     51  C   UNL A   1      40.000  29.990  30.175  1.00  0.00     0.037 A 
ATOM     52  C   UNL A   1      45.694  27.638  26.765  1.00  0.00     0.037 A 
ATOM     53  C   UNL A   1      41.087  30.926  30.083  1.00  0.00     0.049 A 
ATOM     54  C   UNL A   1      45.603  29.043  27.303  1.00  0.00     0.074 A 
ATOM     55  C   UNL A   1      41.165  32.209  30.592  1.00  0.00     0.029 A 
ATOM     56  N   UNL A   1      42.286  30.674  29.432  1.00  0.00    -0.354 N 
ATOM     57  N   UNL A   1      44.629  29.611  27.975  1.00  0.00    -0.248 NA
ATOM     58  C   UNL A   1      46.752  29.924  27.057  1.00  0.00     0.031 C 
ATOM     59  C   UNL A   1      42.393  32.753  30.203  1.00  0.00     0.029 A 
ATOM     60  C   UNL A   1      43.105  31.786  29.510  1.00  0.00     0.049 A 
ATOM     61  H   UNL A   1      42.520  29.829  28.983  1.00  0.00     0.167 HD
ATOM     62  C   UNL A   1      45.066  30.895  28.270  1.00  0.00     0.074 A 
ATOM     63  C   UNL A   1      46.391  31.027  27.700  1.00  0.00     0.031 C 
ATOM     64  C   UNL A   1      44.433  31.878  28.959  1.00  0.00     0.037 A 
BRANCH  51  65
ATOM     65  C   UNL A   1      38.738  30.413  30.870  1.00  0.00     0.057 A 
ATOM     66  C   UNL A   1      38.538  30.209  32.241  1.00  0.00     0.134 A 
ATOM     67  C   UNL A   1      37.718  31.057  30.158  1.00  0.00     0.134 A 
ATOM     68  F   UNL A   1      39.469  29.582  32.978  1.00  0.00    -0.206 F 
ATOM     69  C   UNL A   1      37.361  30.608  32.876  1.00  0.00     0.040 A 
ATOM     70  C   UNL A   1      36.549  31.487  30.787  1.00  0.00     0.040 A 
ATOM     71  F   UNL A   1      37.843  31.284  28.842  1.00  0.00    -0.206 F 
ATOM     72  C   UNL A   1      36.364  31.257  32.148  1.00  0.00     0.006 A 
ENDBRANCH  51  65
BRANCH  52  73
ATOM     73  C   UNL A   1      46.890  27.184  26.014  1.00  0.00     0.057 A 
ATOM     74  C   UNL A   1      47.022  27.432  24.643  1.00  0.00     0.134 A 
ATOM     75  C   UNL A   1      47.927  26.485  26.644  1.00  0.00     0.134 A 
ATOM     76  F   UNL A   1      46.055  28.083  23.979  1.00  0.00    -0.206 F 
ATOM     77  C   UNL A   1      48.129  26.984  23.921  1.00  0.00     0.040 A 
ATOM     78  C   UNL A   1      49.052  26.054  25.941  1.00  0.00     0.040 A 
ATOM     79  F   UNL A   1      47.865  26.220  27.958  1.00  0.00    -0.206 F 
ATOM     80  C   UNL A   1      49.152  26.297  24.573  1.00  0.00     0.006 A 
ENDBRANCH  52  73
BRANCH  64  81
ATOM     81  C   UNL A   1      45.185  33.153  29.201  1.00  0.00     0.057 A 
ATOM     82  C   UNL A   1      46.037  33.320  30.298  1.00  0.00     0.134 A 
ATOM     83  C   UNL A   1      45.116  34.196  28.267  1.00  0.00     0.134 A 
ATOM     84  F   UNL A   1      46.140  32.363  31.232  1.00  0.00    -0.206 F 
ATOM     85  C   UNL A   1      46.785  34.486  30.466  1.00  0.00     0.040 A 
ATOM     86  C   UNL A   1      45.880  35.354  28.409  1.00  0.00     0.040 A 
ATOM     87  F   UNL A   1      44.327  34.092  27.188  1.00  0.00    -0.206 F 
ATOM     88  C   UNL A   1      46.716  35.503  29.513  1.00  0.00     0.006 A 
ENDBRANCH  64  81
ENDBRANCH  38  39
ENDBRANCH  31  33
ENDBRANCH  30  31
ENDBRANCH  29  30
ENDBRANCH  28  29
ENDBRANCH  27  28
ENDBRANCH   1  27
TORSDOF 19
ENDMDL
