MODEL 1
REMARK VINA RESULT:     -11.9      0.000      0.000
REMARK SMILES NS(=O)(=O)c1ccc(-n2nc(C(=O)NCCCC(=O)OCCOCCOC(=O)c3ccc(-c4c5nc(c(-c6c(F)cccc6F)c6ccc([nH]6)c(-c6c(F)cccc6F)c6nc(c(-c7c(F)cccc7F)c7ccc4[nH]7)C=C6)C=C5)cc3)cc2-c2ccccc2)cc1
REMARK SMILES IDX 21 1 20 2 18 3 19 4 17 5 16 6 15 7 14 8 12 9 13 10 11 12
REMARK SMILES IDX 9 13 10 14 84 15 83 16 8 17 5 18 6 19 92 20 7 21 91 22 2 23
REMARK SMILES IDX 3 24 4 25 1 26 85 29 86 30 90 31 87 32 89 33 88 34 22 35
REMARK SMILES IDX 23 36 24 37 25 38 26 39 27 40 28 41 29 42 30 43 82 44 31 45
REMARK SMILES IDX 81 46 32 47 33 48 34 49 75 50 35 51 80 52 74 53 76 54 36 55
REMARK SMILES IDX 79 56 73 57 72 58 37 60 63 61 46 62 62 63 47 64 50 65 61 66
REMARK SMILES IDX 77 67 48 68 49 69 60 71 78 72 51 73 38 74 39 75 44 76 40 77
REMARK SMILES IDX 41 78 43 79 45 80 42 81 64 82 65 83 70 84 66 85 67 86 69 87
REMARK SMILES IDX 71 88 68 89 52 90 53 91 58 92 54 93 55 94 57 95 59 96 56 97
REMARK H PARENT 14 11 1 27 1 28 76 59 50 70
REMARK Flexibility Score: inf
ROOT
ATOM      1  C   UNL A   1      33.469  32.428  27.599  1.00  0.00     0.261 C 
ENDROOT
BRANCH   1   2
ATOM      2  O   UNL A   1      33.426  31.042  27.201  1.00  0.00    -0.463 OA
BRANCH   2   3
ATOM      3  C   UNL A   1      32.237  30.552  26.779  1.00  0.00     0.305 C 
ATOM      4  O   UNL A   1      31.416  31.173  26.117  1.00  0.00    -0.252 OA
BRANCH   3   5
ATOM      5  C   UNL A   1      32.006  29.129  27.245  1.00  0.00     0.124 C 
BRANCH   5   6
ATOM      6  C   UNL A   1      31.930  28.041  26.165  1.00  0.00     0.033 C 
BRANCH   6   7
ATOM      7  C   UNL A   1      30.947  26.904  26.451  1.00  0.00     0.117 C 
BRANCH   7   8
ATOM      8  N   UNL A   1      30.148  26.581  25.288  1.00  0.00    -0.351 N 
ATOM      9  C   UNL A   1      30.246  25.654  24.276  1.00  0.00     0.271 C 
ATOM     10  O   UNL A   1      29.308  25.662  23.474  1.00  0.00    -0.267 OA
ATOM     11  H   UNL A   1      29.354  27.156  25.201  1.00  0.00     0.163 HD
BRANCH   9  12
ATOM     12  C   UNL A   1      31.353  24.677  24.182  1.00  0.00     0.151 A 
ATOM     13  N   UNL A   1      32.240  22.720  24.253  1.00  0.00    -0.232 N 
ATOM     14  N   UNL A   1      31.069  23.359  24.076  1.00  0.00    -0.162 NA
ATOM     15  C   UNL A   1      33.305  23.604  24.302  1.00  0.00     0.075 A 
ATOM     16  C   UNL A   1      32.759  24.859  24.165  1.00  0.00     0.065 A 
BRANCH  13  17
ATOM     17  C   UNL A   1      32.323  21.303  24.297  1.00  0.00     0.065 A 
ATOM     18  C   UNL A   1      33.008  18.605  24.283  1.00  0.00     0.082 A 
ATOM     19  C   UNL A   1      33.058  19.316  25.481  1.00  0.00     0.024 A 
ATOM     20  C   UNL A   1      32.550  19.218  23.107  1.00  0.00     0.024 A 
ATOM     21  C   UNL A   1      32.704  20.662  25.485  1.00  0.00     0.030 A 
ATOM     22  C   UNL A   1      32.189  20.572  23.114  1.00  0.00     0.030 A 
BRANCH  18  23
ATOM     23  S   UNL A   1      33.540  16.920  24.205  1.00  0.00     0.238 S 
ATOM     24  O   UNL A   1      34.595  16.737  25.191  1.00  0.00    -0.207 OA
ATOM     25  O   UNL A   1      33.678  16.542  22.833  1.00  0.00    -0.207 OA
BRANCH  23  26
ATOM     26  N   UNL A   1      32.239  16.024  24.795  1.00  0.00    -0.225 NA
ATOM     27  H   UNL A   1      31.605  15.800  24.028  1.00  0.00     0.137 HD
ATOM     28  H   UNL A   1      31.742  16.569  25.499  1.00  0.00     0.137 HD
ENDBRANCH  23  26
ENDBRANCH  18  23
ENDBRANCH  13  17
BRANCH  15  29
ATOM     29  C   UNL A   1      34.686  23.179  24.440  1.00  0.00     0.000 A 
ATOM     30  C   UNL A   1      35.353  23.287  25.661  1.00  0.00     0.010 A 
ATOM     31  C   UNL A   1      35.394  22.860  23.280  1.00  0.00     0.010 A 
ATOM     32  C   UNL A   1      36.738  23.159  25.695  1.00  0.00     0.001 A 
ATOM     33  C   UNL A   1      36.776  22.769  23.309  1.00  0.00     0.001 A 
ATOM     34  C   UNL A   1      37.445  22.941  24.513  1.00  0.00     0.000 A 
ENDBRANCH  15  29
ENDBRANCH   9  12
ENDBRANCH   7   8
ENDBRANCH   6   7
ENDBRANCH   5   6
ENDBRANCH   3   5
ENDBRANCH   2   3
ENDBRANCH   1   2
BRANCH   1  35
ATOM     35  C   UNL A   1      34.289  32.572  28.879  1.00  0.00     0.202 C 
BRANCH  35  36
ATOM     36  O   UNL A   1      34.394  33.912  29.363  1.00  0.00    -0.374 OA
BRANCH  36  37
ATOM     37  C   UNL A   1      33.356  34.823  29.016  1.00  0.00     0.202 C 
BRANCH  37  38
ATOM     38  C   UNL A   1      32.955  35.784  30.124  1.00  0.00     0.261 C 
BRANCH  38  39
ATOM     39  O   UNL A   1      32.511  35.073  31.274  1.00  0.00    -0.460 OA
BRANCH  39  40
ATOM     40  C   UNL A   1      32.866  35.593  32.472  1.00  0.00     0.338 C 
ATOM     41  O   UNL A   1      32.408  36.574  33.027  1.00  0.00    -0.246 OA
BRANCH  40  42
ATOM     42  C   UNL A   1      34.068  34.866  32.904  1.00  0.00     0.060 A 
ATOM     43  C   UNL A   1      35.255  35.594  32.973  1.00  0.00     0.016 A 
ATOM     44  C   UNL A   1      34.058  33.465  32.931  1.00  0.00     0.016 A 
ATOM     45  C   UNL A   1      36.447  34.912  32.840  1.00  0.00     0.010 A 
ATOM     46  C   UNL A   1      35.241  32.792  32.756  1.00  0.00     0.010 A 
ATOM     47  C   UNL A   1      36.414  33.527  32.638  1.00  0.00    -0.014 A 
BRANCH  47  48
ATOM     48  C   UNL A   1      37.664  32.847  32.369  1.00  0.00     0.031 A 
ATOM     49  C   UNL A   1      38.586  32.822  33.530  1.00  0.00     0.074 A 
ATOM     50  C   UNL A   1      37.898  32.190  31.215  1.00  0.00     0.049 A 
ATOM     51  N   UNL A   1      39.780  33.304  33.609  1.00  0.00    -0.248 NA
ATOM     52  C   UNL A   1      38.071  32.287  34.802  1.00  0.00     0.031 C 
ATOM     53  C   UNL A   1      36.960  31.870  30.139  1.00  0.00     0.029 A 
ATOM     54  N   UNL A   1      39.043  31.574  30.809  1.00  0.00    -0.354 N 
ATOM     55  C   UNL A   1      40.235  32.987  34.886  1.00  0.00     0.074 A 
ATOM     56  C   UNL A   1      39.112  32.462  35.613  1.00  0.00     0.031 C 
ATOM     57  C   UNL A   1      37.526  30.966  29.305  1.00  0.00     0.029 A 
ATOM     58  C   UNL A   1      38.899  30.716  29.718  1.00  0.00     0.049 A 
ATOM     59  H   UNL A   1      39.909  31.722  31.253  1.00  0.00     0.167 HD
ATOM     60  C   UNL A   1      41.557  33.002  35.194  1.00  0.00     0.037 A 
ATOM     61  C   UNL A   1      39.835  29.828  29.283  1.00  0.00     0.037 A 
ATOM     62  C   UNL A   1      42.306  33.807  34.268  1.00  0.00     0.049 A 
ATOM     63  C   UNL A   1      41.125  30.251  29.903  1.00  0.00     0.074 A 
ATOM     64  C   UNL A   1      42.250  35.137  33.892  1.00  0.00     0.029 A 
ATOM     65  N   UNL A   1      43.028  33.173  33.286  1.00  0.00    -0.354 N 
ATOM     66  N   UNL A   1      41.796  31.305  29.533  1.00  0.00    -0.248 NA
ATOM     67  C   UNL A   1      41.480  29.721  31.216  1.00  0.00     0.031 C 
ATOM     68  C   UNL A   1      42.494  35.133  32.489  1.00  0.00     0.029 A 
ATOM     69  C   UNL A   1      42.731  33.812  32.108  1.00  0.00     0.049 A 
ATOM     70  H   UNL A   1      43.638  32.410  33.404  1.00  0.00     0.167 HD
ATOM     71  C   UNL A   1      42.351  31.805  30.700  1.00  0.00     0.074 A 
ATOM     72  C   UNL A   1      42.212  30.736  31.684  1.00  0.00     0.031 C 
ATOM     73  C   UNL A   1      42.604  33.139  30.840  1.00  0.00     0.037 A 
BRANCH  60  74
ATOM     74  C   UNL A   1      42.196  32.022  36.137  1.00  0.00     0.057 A 
ATOM     75  C   UNL A   1      42.926  32.498  37.239  1.00  0.00     0.134 A 
ATOM     76  C   UNL A   1      42.359  30.650  35.849  1.00  0.00     0.134 A 
ATOM     77  F   UNL A   1      42.872  33.790  37.594  1.00  0.00    -0.206 F 
ATOM     78  C   UNL A   1      43.799  31.679  37.965  1.00  0.00     0.040 A 
ATOM     79  C   UNL A   1      43.186  29.813  36.601  1.00  0.00     0.040 A 
ATOM     80  F   UNL A   1      41.811  30.074  34.771  1.00  0.00    -0.206 F 
ATOM     81  C   UNL A   1      43.934  30.334  37.644  1.00  0.00     0.006 A 
ENDBRANCH  60  74
BRANCH  61  82
ATOM     82  C   UNL A   1      39.724  28.510  28.584  1.00  0.00     0.057 A 
ATOM     83  C   UNL A   1      40.357  28.325  27.339  1.00  0.00     0.134 A 
ATOM     84  C   UNL A   1      39.274  27.328  29.197  1.00  0.00     0.134 A 
ATOM     85  F   UNL A   1      40.800  29.375  26.631  1.00  0.00    -0.206 F 
ATOM     86  C   UNL A   1      40.637  27.058  26.809  1.00  0.00     0.040 A 
ATOM     87  C   UNL A   1      39.555  26.054  28.681  1.00  0.00     0.040 A 
ATOM     88  F   UNL A   1      38.644  27.343  30.376  1.00  0.00    -0.206 F 
ATOM     89  C   UNL A   1      40.268  25.914  27.500  1.00  0.00     0.006 A 
ENDBRANCH  61  82
BRANCH  73  90
ATOM     90  C   UNL A   1      42.452  34.004  29.620  1.00  0.00     0.057 A 
ATOM     91  C   UNL A   1      41.273  34.697  29.303  1.00  0.00     0.134 A 
ATOM     92  C   UNL A   1      43.568  34.260  28.819  1.00  0.00     0.134 A 
ATOM     93  F   UNL A   1      40.188  34.608  30.082  1.00  0.00    -0.206 F 
ATOM     94  C   UNL A   1      41.190  35.557  28.207  1.00  0.00     0.040 A 
ATOM     95  C   UNL A   1      43.511  35.148  27.742  1.00  0.00     0.040 A 
ATOM     96  F   UNL A   1      44.748  33.685  29.099  1.00  0.00    -0.206 F 
ATOM     97  C   UNL A   1      42.315  35.789  27.424  1.00  0.00     0.006 A 
ENDBRANCH  73  90
ENDBRANCH  47  48
ENDBRANCH  40  42
ENDBRANCH  39  40
ENDBRANCH  38  39
ENDBRANCH  37  38
ENDBRANCH  36  37
ENDBRANCH  35  36
ENDBRANCH   1  35
TORSDOF 22
ENDMDL
MODEL 2
REMARK VINA RESULT:     -11.9      3.546      5.443
REMARK SMILES NS(=O)(=O)c1ccc(-n2nc(C(=O)NCCCC(=O)OCCOCCOC(=O)c3ccc(-c4c5nc(c(-c6c(F)cccc6F)c6ccc([nH]6)c(-c6c(F)cccc6F)c6nc(c(-c7c(F)cccc7F)c7ccc4[nH]7)C=C6)C=C5)cc3)cc2-c2ccccc2)cc1
REMARK SMILES IDX 21 1 20 2 18 3 19 4 17 5 16 6 15 7 14 8 12 9 13 10 11 12
REMARK SMILES IDX 9 13 10 14 84 15 83 16 8 17 5 18 6 19 92 20 7 21 91 22 2 23
REMARK SMILES IDX 3 24 4 25 1 26 85 29 86 30 90 31 87 32 89 33 88 34 22 35
REMARK SMILES IDX 23 36 24 37 25 38 26 39 27 40 28 41 29 42 30 43 82 44 31 45
REMARK SMILES IDX 81 46 32 47 33 48 34 49 75 50 35 51 80 52 74 53 76 54 36 55
REMARK SMILES IDX 79 56 73 57 72 58 37 60 63 61 46 62 62 63 47 64 50 65 61 66
REMARK SMILES IDX 77 67 48 68 49 69 60 71 78 72 51 73 38 74 39 75 44 76 40 77
REMARK SMILES IDX 41 78 43 79 45 80 42 81 64 82 65 83 70 84 66 85 67 86 69 87
REMARK SMILES IDX 71 88 68 89 52 90 53 91 58 92 54 93 55 94 57 95 59 96 56 97
REMARK H PARENT 14 11 1 27 1 28 76 59 50 70
REMARK Flexibility Score: inf
ROOT
ATOM      1  C   UNL A   1      33.592  28.547  25.928  1.00  0.00     0.261 C 
ENDROOT
BRANCH   1   2
ATOM      2  O   UNL A   1      32.941  29.258  24.855  1.00  0.00    -0.463 OA
BRANCH   2   3
ATOM      3  C   UNL A   1      33.228  28.874  23.589  1.00  0.00     0.305 C 
ATOM      4  O   UNL A   1      34.331  28.521  23.195  1.00  0.00    -0.252 OA
BRANCH   3   5
ATOM      5  C   UNL A   1      32.019  28.951  22.680  1.00  0.00     0.124 C 
BRANCH   5   6
ATOM      6  C   UNL A   1      30.648  28.663  23.309  1.00  0.00     0.033 C 
BRANCH   6   7
ATOM      7  C   UNL A   1      30.204  27.199  23.264  1.00  0.00     0.117 C 
BRANCH   7   8
ATOM      8  N   UNL A   1      29.821  26.715  24.574  1.00  0.00    -0.351 N 
ATOM      9  C   UNL A   1      30.268  25.712  25.401  1.00  0.00     0.271 C 
ATOM     10  O   UNL A   1      29.699  25.650  26.495  1.00  0.00    -0.267 OA
ATOM     11  H   UNL A   1      29.069  27.220  24.960  1.00  0.00     0.163 HD
BRANCH   9  12
ATOM     12  C   UNL A   1      31.387  24.812  25.046  1.00  0.00     0.151 A 
ATOM     13  N   UNL A   1      32.350  22.910  24.768  1.00  0.00    -0.232 N 
ATOM     14  N   UNL A   1      31.142  23.500  24.827  1.00  0.00    -0.162 NA
ATOM     15  C   UNL A   1      33.377  23.840  24.775  1.00  0.00     0.075 A 
ATOM     16  C   UNL A   1      32.769  25.071  24.859  1.00  0.00     0.065 A 
BRANCH  13  17
ATOM     17  C   UNL A   1      32.492  21.504  24.635  1.00  0.00     0.065 A 
ATOM     18  C   UNL A   1      33.268  18.865  24.204  1.00  0.00     0.082 A 
ATOM     19  C   UNL A   1      33.486  19.445  25.452  1.00  0.00     0.024 A 
ATOM     20  C   UNL A   1      32.601  19.574  23.193  1.00  0.00     0.024 A 
ATOM     21  C   UNL A   1      33.086  20.761  25.667  1.00  0.00     0.030 A 
ATOM     22  C   UNL A   1      32.195  20.897  23.413  1.00  0.00     0.030 A 
BRANCH  18  23
ATOM     23  S   UNL A   1      33.843  17.230  23.849  1.00  0.00     0.238 S 
ATOM     24  O   UNL A   1      35.081  17.021  24.587  1.00  0.00    -0.207 OA
ATOM     25  O   UNL A   1      33.719  16.991  22.446  1.00  0.00    -0.207 OA
BRANCH  23  26
ATOM     26  N   UNL A   1      32.725  16.205  24.586  1.00  0.00    -0.225 NA
ATOM     27  H   UNL A   1      32.723  15.304  24.107  1.00  0.00     0.137 HD
ATOM     28  H   UNL A   1      31.795  16.620  24.532  1.00  0.00     0.137 HD
ENDBRANCH  23  26
ENDBRANCH  18  23
ENDBRANCH  13  17
BRANCH  15  29
ATOM     29  C   UNL A   1      34.779  23.477  24.675  1.00  0.00     0.000 A 
ATOM     30  C   UNL A   1      35.345  23.126  23.449  1.00  0.00     0.010 A 
ATOM     31  C   UNL A   1      35.492  23.281  25.859  1.00  0.00     0.010 A 
ATOM     32  C   UNL A   1      36.588  22.502  23.426  1.00  0.00     0.001 A 
ATOM     33  C   UNL A   1      36.713  22.628  25.837  1.00  0.00     0.001 A 
ATOM     34  C   UNL A   1      37.247  22.220  24.622  1.00  0.00     0.000 A 
ENDBRANCH  15  29
ENDBRANCH   9  12
ENDBRANCH   7   8
ENDBRANCH   6   7
ENDBRANCH   5   6
ENDBRANCH   3   5
ENDBRANCH   2   3
ENDBRANCH   1   2
BRANCH   1  35
ATOM     35  C   UNL A   1      33.312  29.248  27.256  1.00  0.00     0.202 C 
BRANCH  35  36
ATOM     36  O   UNL A   1      34.343  30.143  27.677  1.00  0.00    -0.374 OA
BRANCH  36  37
ATOM     37  C   UNL A   1      34.027  31.529  27.746  1.00  0.00     0.202 C 
BRANCH  37  38
ATOM     38  C   UNL A   1      34.544  32.241  28.986  1.00  0.00     0.261 C 
BRANCH  38  39
ATOM     39  O   UNL A   1      35.490  31.431  29.676  1.00  0.00    -0.460 OA
BRANCH  39  40
ATOM     40  C   UNL A   1      36.681  32.010  29.955  1.00  0.00     0.338 C 
ATOM     41  O   UNL A   1      36.885  33.117  30.415  1.00  0.00    -0.246 OA
BRANCH  40  42
ATOM     42  C   UNL A   1      37.716  31.125  29.403  1.00  0.00     0.060 A 
ATOM     43  C   UNL A   1      37.327  29.827  29.071  1.00  0.00     0.016 A 
ATOM     44  C   UNL A   1      39.066  31.486  29.512  1.00  0.00     0.016 A 
ATOM     45  C   UNL A   1      38.288  28.838  29.073  1.00  0.00     0.010 A 
ATOM     46  C   UNL A   1      40.014  30.495  29.555  1.00  0.00     0.010 A 
ATOM     47  C   UNL A   1      39.605  29.175  29.409  1.00  0.00    -0.014 A 
BRANCH  47  48
ATOM     48  C   UNL A   1      40.573  28.104  29.533  1.00  0.00     0.031 A 
ATOM     49  C   UNL A   1      41.143  27.977  30.897  1.00  0.00     0.074 A 
ATOM     50  C   UNL A   1      40.822  27.233  28.535  1.00  0.00     0.049 A 
ATOM     51  N   UNL A   1      42.379  28.068  31.254  1.00  0.00    -0.248 NA
ATOM     52  C   UNL A   1      40.202  27.838  32.021  1.00  0.00     0.031 C 
ATOM     53  C   UNL A   1      40.100  27.056  27.275  1.00  0.00     0.029 A 
ATOM     54  N   UNL A   1      41.747  26.233  28.495  1.00  0.00    -0.354 N 
ATOM     55  C   UNL A   1      42.397  27.831  32.626  1.00  0.00     0.074 A 
ATOM     56  C   UNL A   1      41.028  27.806  33.065  1.00  0.00     0.031 C 
ATOM     57  C   UNL A   1      40.495  25.900  26.691  1.00  0.00     0.029 A 
ATOM     58  C   UNL A   1      41.568  25.302  27.472  1.00  0.00     0.049 A 
ATOM     59  H   UNL A   1      42.487  26.172  29.142  1.00  0.00     0.167 HD
ATOM     60  C   UNL A   1      43.538  27.481  33.273  1.00  0.00     0.037 A 
ATOM     61  C   UNL A   1      42.215  24.109  27.369  1.00  0.00     0.037 A 
ATOM     62  C   UNL A   1      44.705  27.854  32.523  1.00  0.00     0.049 A 
ATOM     63  C   UNL A   1      43.396  24.201  28.276  1.00  0.00     0.074 A 
ATOM     64  C   UNL A   1      45.195  29.058  32.048  1.00  0.00     0.029 A 
ATOM     65  N   UNL A   1      45.368  26.879  31.818  1.00  0.00    -0.354 N 
ATOM     66  N   UNL A   1      44.453  24.919  28.021  1.00  0.00    -0.248 NA
ATOM     67  C   UNL A   1      43.242  23.802  29.671  1.00  0.00     0.031 C 
ATOM     68  C   UNL A   1      45.734  28.755  30.764  1.00  0.00     0.029 A 
ATOM     69  C   UNL A   1      45.582  27.384  30.559  1.00  0.00     0.049 A 
ATOM     70  H   UNL A   1      45.637  25.993  32.150  1.00  0.00     0.167 HD
ATOM     71  C   UNL A   1      44.867  25.400  29.253  1.00  0.00     0.074 A 
ATOM     72  C   UNL A   1      44.151  24.598  30.241  1.00  0.00     0.031 C 
ATOM     73  C   UNL A   1      45.523  26.592  29.357  1.00  0.00     0.037 A 
BRANCH  60  74
ATOM     74  C   UNL A   1      43.572  26.513  34.421  1.00  0.00     0.057 A 
ATOM     75  C   UNL A   1      43.806  26.991  35.722  1.00  0.00     0.134 A 
ATOM     76  C   UNL A   1      43.664  25.114  34.264  1.00  0.00     0.134 A 
ATOM     77  F   UNL A   1      43.771  28.304  35.989  1.00  0.00    -0.206 F 
ATOM     78  C   UNL A   1      44.163  26.141  36.775  1.00  0.00     0.040 A 
ATOM     79  C   UNL A   1      43.967  24.253  35.321  1.00  0.00     0.040 A 
ATOM     80  F   UNL A   1      43.568  24.519  33.068  1.00  0.00    -0.206 F 
ATOM     81  C   UNL A   1      44.248  24.769  36.576  1.00  0.00     0.006 A 
ENDBRANCH  60  74
BRANCH  61  82
ATOM     82  C   UNL A   1      41.820  22.799  26.765  1.00  0.00     0.057 A 
ATOM     83  C   UNL A   1      42.790  22.010  26.113  1.00  0.00     0.134 A 
ATOM     84  C   UNL A   1      40.610  22.138  27.037  1.00  0.00     0.134 A 
ATOM     85  F   UNL A   1      43.976  22.530  25.762  1.00  0.00    -0.206 F 
ATOM     86  C   UNL A   1      42.618  20.640  25.871  1.00  0.00     0.040 A 
ATOM     87  C   UNL A   1      40.429  20.766  26.807  1.00  0.00     0.040 A 
ATOM     88  F   UNL A   1      39.590  22.758  27.641  1.00  0.00    -0.206 F 
ATOM     89  C   UNL A   1      41.447  20.004  26.253  1.00  0.00     0.006 A 
ENDBRANCH  61  82
BRANCH  73  90
ATOM     90  C   UNL A   1      45.956  27.256  28.080  1.00  0.00     0.057 A 
ATOM     91  C   UNL A   1      45.144  28.140  27.351  1.00  0.00     0.134 A 
ATOM     92  C   UNL A   1      47.277  27.112  27.647  1.00  0.00     0.134 A 
ATOM     93  F   UNL A   1      43.903  28.433  27.757  1.00  0.00    -0.206 F 
ATOM     94  C   UNL A   1      45.606  28.804  26.213  1.00  0.00     0.040 A 
ATOM     95  C   UNL A   1      47.764  27.801  26.533  1.00  0.00     0.040 A 
ATOM     96  F   UNL A   1      48.132  26.335  28.330  1.00  0.00    -0.206 F 
ATOM     97  C   UNL A   1      46.923  28.639  25.803  1.00  0.00     0.006 A 
ENDBRANCH  73  90
ENDBRANCH  47  48
ENDBRANCH  40  42
ENDBRANCH  39  40
ENDBRANCH  38  39
ENDBRANCH  37  38
ENDBRANCH  36  37
ENDBRANCH  35  36
ENDBRANCH   1  35
TORSDOF 22
ENDMDL
MODEL 3
REMARK VINA RESULT:     -11.8      3.692      9.010
REMARK SMILES NS(=O)(=O)c1ccc(-n2nc(C(=O)NCCCC(=O)OCCOCCOC(=O)c3ccc(-c4c5nc(c(-c6c(F)cccc6F)c6ccc([nH]6)c(-c6c(F)cccc6F)c6nc(c(-c7c(F)cccc7F)c7ccc4[nH]7)C=C6)C=C5)cc3)cc2-c2ccccc2)cc1
REMARK SMILES IDX 21 1 20 2 18 3 19 4 17 5 16 6 15 7 14 8 12 9 13 10 11 12
REMARK SMILES IDX 9 13 10 14 84 15 83 16 8 17 5 18 6 19 92 20 7 21 91 22 2 23
REMARK SMILES IDX 3 24 4 25 1 26 85 29 86 30 90 31 87 32 89 33 88 34 22 35
REMARK SMILES IDX 23 36 24 37 25 38 26 39 27 40 28 41 29 42 30 43 82 44 31 45
REMARK SMILES IDX 81 46 32 47 33 48 34 49 75 50 35 51 80 52 74 53 76 54 36 55
REMARK SMILES IDX 79 56 73 57 72 58 37 60 63 61 46 62 62 63 47 64 50 65 61 66
REMARK SMILES IDX 77 67 48 68 49 69 60 71 78 72 51 73 38 74 39 75 44 76 40 77
REMARK SMILES IDX 41 78 43 79 45 80 42 81 64 82 65 83 70 84 66 85 67 86 69 87
REMARK SMILES IDX 71 88 68 89 52 90 53 91 58 92 54 93 55 94 57 95 59 96 56 97
REMARK H PARENT 14 11 1 27 1 28 76 59 50 70
REMARK Flexibility Score: inf
ROOT
ATOM      1  C   UNL A   1      36.328  21.564  24.807  1.00  0.00     0.261 C 
ENDROOT
BRANCH   1   2
ATOM      2  O   UNL A   1      35.420  22.035  25.825  1.00  0.00    -0.463 OA
BRANCH   2   3
ATOM      3  C   UNL A   1      34.363  21.247  26.129  1.00  0.00     0.305 C 
ATOM      4  O   UNL A   1      33.716  21.307  27.166  1.00  0.00    -0.252 OA
BRANCH   3   5
ATOM      5  C   UNL A   1      34.069  20.237  25.038  1.00  0.00     0.124 C 
BRANCH   5   6
ATOM      6  C   UNL A   1      32.600  20.049  24.634  1.00  0.00     0.033 C 
BRANCH   6   7
ATOM      7  C   UNL A   1      31.947  21.260  23.963  1.00  0.00     0.117 C 
BRANCH   7   8
ATOM      8  N   UNL A   1      32.824  21.866  22.984  1.00  0.00    -0.351 N 
ATOM      9  C   UNL A   1      33.249  23.150  22.732  1.00  0.00     0.271 C 
ATOM     10  O   UNL A   1      34.064  23.255  21.811  1.00  0.00    -0.267 OA
ATOM     11  H   UNL A   1      33.203  21.210  22.355  1.00  0.00     0.163 HD
BRANCH   9  12
ATOM     12  C   UNL A   1      32.818  24.314  23.537  1.00  0.00     0.151 A 
ATOM     13  N   UNL A   1      31.837  26.197  23.878  1.00  0.00    -0.232 N 
ATOM     14  N   UNL A   1      31.839  25.121  23.070  1.00  0.00    -0.162 NA
ATOM     15  C   UNL A   1      32.682  26.025  24.962  1.00  0.00     0.075 A 
ATOM     16  C   UNL A   1      33.249  24.781  24.805  1.00  0.00     0.065 A 
BRANCH  13  17
ATOM     17  C   UNL A   1      30.991  27.312  23.641  1.00  0.00     0.065 A 
ATOM     18  C   UNL A   1      29.296  29.299  22.678  1.00  0.00     0.082 A 
ATOM     19  C   UNL A   1      28.748  28.153  23.250  1.00  0.00     0.024 A 
ATOM     20  C   UNL A   1      30.687  29.488  22.648  1.00  0.00     0.024 A 
ATOM     21  C   UNL A   1      29.599  27.167  23.741  1.00  0.00     0.030 A 
ATOM     22  C   UNL A   1      31.541  28.497  23.147  1.00  0.00     0.030 A 
BRANCH  18  23
ATOM     23  S   UNL A   1      28.261  30.536  21.953  1.00  0.00     0.238 S 
ATOM     24  O   UNL A   1      27.200  30.844  22.901  1.00  0.00    -0.207 OA
ATOM     25  O   UNL A   1      28.013  30.190  20.588  1.00  0.00    -0.207 OA
BRANCH  23  26
ATOM     26  N   UNL A   1      29.212  31.928  21.904  1.00  0.00    -0.225 NA
ATOM     27  H   UNL A   1      29.688  31.982  21.003  1.00  0.00     0.137 HD
ATOM     28  H   UNL A   1      29.904  31.893  22.652  1.00  0.00     0.137 HD
ENDBRANCH  23  26
ENDBRANCH  18  23
ENDBRANCH  13  17
BRANCH  15  29
ATOM     29  C   UNL A   1      32.837  27.013  26.014  1.00  0.00     0.000 A 
ATOM     30  C   UNL A   1      31.765  27.363  26.835  1.00  0.00     0.010 A 
ATOM     31  C   UNL A   1      34.018  27.757  26.048  1.00  0.00     0.010 A 
ATOM     32  C   UNL A   1      31.853  28.508  27.621  1.00  0.00     0.001 A 
ATOM     33  C   UNL A   1      34.091  28.916  26.803  1.00  0.00     0.001 A 
ATOM     34  C   UNL A   1      33.000  29.299  27.570  1.00  0.00     0.000 A 
ENDBRANCH  15  29
ENDBRANCH   9  12
ENDBRANCH   7   8
ENDBRANCH   6   7
ENDBRANCH   5   6
ENDBRANCH   3   5
ENDBRANCH   2   3
ENDBRANCH   1   2
BRANCH   1  35
ATOM     35  C   UNL A   1      37.768  21.841  25.233  1.00  0.00     0.202 C 
BRANCH  35  36
ATOM     36  O   UNL A   1      37.951  23.083  25.915  1.00  0.00    -0.374 OA
BRANCH  36  37
ATOM     37  C   UNL A   1      39.084  23.207  26.768  1.00  0.00     0.202 C 
BRANCH  37  38
ATOM     38  C   UNL A   1      40.181  22.183  26.524  1.00  0.00     0.261 C 
BRANCH  38  39
ATOM     39  O   UNL A   1      41.451  22.704  26.899  1.00  0.00    -0.460 OA
BRANCH  39  40
ATOM     40  C   UNL A   1      42.207  23.215  25.899  1.00  0.00     0.338 C 
ATOM     41  O   UNL A   1      42.756  22.616  24.995  1.00  0.00    -0.246 OA
BRANCH  40  42
ATOM     42  C   UNL A   1      42.420  24.634  26.219  1.00  0.00     0.060 A 
ATOM     43  C   UNL A   1      43.200  24.918  27.340  1.00  0.00     0.016 A 
ATOM     44  C   UNL A   1      41.620  25.609  25.609  1.00  0.00     0.016 A 
ATOM     45  C   UNL A   1      42.999  26.122  27.984  1.00  0.00     0.010 A 
ATOM     46  C   UNL A   1      41.391  26.788  26.273  1.00  0.00     0.010 A 
ATOM     47  C   UNL A   1      42.027  26.999  27.491  1.00  0.00    -0.014 A 
BRANCH  47  48
ATOM     48  C   UNL A   1      41.739  28.197  28.253  1.00  0.00     0.031 A 
ATOM     49  C   UNL A   1      42.763  29.258  28.098  1.00  0.00     0.074 A 
ATOM     50  C   UNL A   1      40.583  28.367  28.927  1.00  0.00     0.049 A 
ATOM     51  N   UNL A   1      43.488  29.805  29.013  1.00  0.00    -0.248 NA
ATOM     52  C   UNL A   1      43.098  29.690  26.730  1.00  0.00     0.031 C 
ATOM     53  C   UNL A   1      39.375  27.543  28.892  1.00  0.00     0.029 A 
ATOM     54  N   UNL A   1      40.217  29.403  29.732  1.00  0.00    -0.354 N 
ATOM     55  C   UNL A   1      44.255  30.770  28.366  1.00  0.00     0.074 A 
ATOM     56  C   UNL A   1      44.060  30.583  26.954  1.00  0.00     0.031 C 
ATOM     57  C   UNL A   1      38.360  28.210  29.489  1.00  0.00     0.029 A 
ATOM     58  C   UNL A   1      38.858  29.461  30.041  1.00  0.00     0.049 A 
ATOM     59  H   UNL A   1      40.864  30.063  30.071  1.00  0.00     0.167 HD
ATOM     60  C   UNL A   1      44.851  31.781  29.049  1.00  0.00     0.037 A 
ATOM     61  C   UNL A   1      38.226  30.515  30.628  1.00  0.00     0.037 A 
ATOM     62  C   UNL A   1      44.998  31.462  30.442  1.00  0.00     0.049 A 
ATOM     63  C   UNL A   1      39.301  31.355  31.232  1.00  0.00     0.074 A 
ATOM     64  C   UNL A   1      45.643  30.450  31.130  1.00  0.00     0.029 A 
ATOM     65  N   UNL A   1      44.114  32.014  31.336  1.00  0.00    -0.354 N 
ATOM     66  N   UNL A   1      39.969  31.021  32.300  1.00  0.00    -0.248 NA
ATOM     67  C   UNL A   1      39.917  32.398  30.419  1.00  0.00     0.031 C 
ATOM     68  C   UNL A   1      44.772  30.125  32.210  1.00  0.00     0.029 A 
ATOM     69  C   UNL A   1      43.679  30.989  32.140  1.00  0.00     0.049 A 
ATOM     70  H   UNL A   1      43.844  32.959  31.390  1.00  0.00     0.167 HD
ATOM     71  C   UNL A   1      41.252  31.500  32.086  1.00  0.00     0.074 A 
ATOM     72  C   UNL A   1      41.137  32.427  30.965  1.00  0.00     0.031 C 
ATOM     73  C   UNL A   1      42.333  30.881  32.643  1.00  0.00     0.037 A 
BRANCH  60  74
ATOM     74  C   UNL A   1      44.992  33.174  28.504  1.00  0.00     0.057 A 
ATOM     75  C   UNL A   1      46.244  33.610  28.038  1.00  0.00     0.134 A 
ATOM     76  C   UNL A   1      44.025  34.186  28.678  1.00  0.00     0.134 A 
ATOM     77  F   UNL A   1      47.252  32.744  27.858  1.00  0.00    -0.206 F 
ATOM     78  C   UNL A   1      46.527  34.963  27.819  1.00  0.00     0.040 A 
ATOM     79  C   UNL A   1      44.281  35.532  28.410  1.00  0.00     0.040 A 
ATOM     80  F   UNL A   1      42.820  33.941  29.211  1.00  0.00    -0.206 F 
ATOM     81  C   UNL A   1      45.547  35.928  28.008  1.00  0.00     0.006 A 
ENDBRANCH  60  74
BRANCH  61  82
ATOM     82  C   UNL A   1      36.823  31.025  30.537  1.00  0.00     0.057 A 
ATOM     83  C   UNL A   1      36.153  31.436  31.707  1.00  0.00     0.134 A 
ATOM     84  C   UNL A   1      36.199  31.404  29.336  1.00  0.00     0.134 A 
ATOM     85  F   UNL A   1      36.623  31.108  32.919  1.00  0.00    -0.206 F 
ATOM     86  C   UNL A   1      35.025  32.268  31.684  1.00  0.00     0.040 A 
ATOM     87  C   UNL A   1      35.075  32.242  29.300  1.00  0.00     0.040 A 
ATOM     88  F   UNL A   1      36.709  31.077  28.144  1.00  0.00    -0.206 F 
ATOM     89  C   UNL A   1      34.504  32.705  30.476  1.00  0.00     0.006 A 
ENDBRANCH  61  82
BRANCH  73  90
ATOM     90  C   UNL A   1      42.067  29.799  33.652  1.00  0.00     0.057 A 
ATOM     91  C   UNL A   1      41.880  28.449  33.311  1.00  0.00     0.134 A 
ATOM     92  C   UNL A   1      42.142  30.099  35.015  1.00  0.00     0.134 A 
ATOM     93  F   UNL A   1      41.912  28.048  32.034  1.00  0.00    -0.206 F 
ATOM     94  C   UNL A   1      41.715  27.456  34.277  1.00  0.00     0.040 A 
ATOM     95  C   UNL A   1      42.019  29.109  35.993  1.00  0.00     0.040 A 
ATOM     96  F   UNL A   1      42.384  31.356  35.418  1.00  0.00    -0.206 F 
ATOM     97  C   UNL A   1      41.790  27.784  35.626  1.00  0.00     0.006 A 
ENDBRANCH  73  90
ENDBRANCH  47  48
ENDBRANCH  40  42
ENDBRANCH  39  40
ENDBRANCH  38  39
ENDBRANCH  37  38
ENDBRANCH  36  37
ENDBRANCH  35  36
ENDBRANCH   1  35
TORSDOF 22
ENDMDL
