MODEL 1
REMARK VINA RESULT:     -10.6      0.000      0.000
REMARK SMILES O=C(OCCOCCOC(=O)[C@@H]1C[C@@H]2CC(=O)[C@H]1C2)c1ccc(-c2c3nc(c(-c4c(F)cccc4F)c4ccc([nH]4)c(-c4c(F)cccc4F)c4nc(c(-c5c(F)cccc5F)c5ccc2[nH]5)C=C4)C=C3)cc1
REMARK SMILES IDX 5 1 4 2 3 3 2 4 1 5 20 6 21 7 73 8 22 9 72 10 23 11 24 12
REMARK SMILES IDX 25 13 66 14 26 15 71 16 65 17 67 18 27 19 70 20 64 21 63 22
REMARK SMILES IDX 28 24 54 25 37 26 53 27 38 28 41 29 52 30 68 31 39 32 40 33
REMARK SMILES IDX 51 35 69 36 42 37 29 38 30 39 35 40 31 41 32 42 34 43 36 44
REMARK SMILES IDX 33 45 55 46 56 47 61 48 57 49 58 50 60 51 62 52 59 53 43 54
REMARK SMILES IDX 44 55 49 56 45 57 46 58 48 59 50 60 47 61 6 62 7 63 8 64
REMARK SMILES IDX 9 65 10 66 11 67 12 68 13 69 18 70 14 71 16 72 19 73 15 74
REMARK SMILES IDX 17 75
REMARK H PARENT 67 23 41 34
REMARK Flexibility Score: inf
ROOT
ATOM      1  C   UNL A   1      32.294  31.282  26.792  1.00  0.00     0.202 C 
ENDROOT
BRANCH   1   2
ATOM      2  C   UNL A   1      31.552  32.575  27.154  1.00  0.00     0.261 C 
BRANCH   2   3
ATOM      3  O   UNL A   1      32.467  33.680  27.251  1.00  0.00    -0.460 OA
BRANCH   3   4
ATOM      4  C   UNL A   1      33.081  34.150  28.364  1.00  0.00     0.338 C 
ATOM      5  O   UNL A   1      32.592  35.101  28.969  1.00  0.00    -0.246 OA
BRANCH   4   6
ATOM      6  C   UNL A   1      34.328  33.538  28.904  1.00  0.00     0.060 A 
ATOM      7  C   UNL A   1      34.366  32.309  29.554  1.00  0.00     0.016 A 
ATOM      8  C   UNL A   1      35.544  34.204  28.693  1.00  0.00     0.016 A 
ATOM      9  C   UNL A   1      35.524  31.774  30.053  1.00  0.00     0.010 A 
ATOM     10  C   UNL A   1      36.747  33.640  29.135  1.00  0.00     0.010 A 
ATOM     11  C   UNL A   1      36.725  32.420  29.819  1.00  0.00    -0.014 A 
BRANCH  11  12
ATOM     12  C   UNL A   1      37.891  31.776  30.428  1.00  0.00     0.031 A 
ATOM     13  C   UNL A   1      38.136  32.008  31.881  1.00  0.00     0.074 A 
ATOM     14  C   UNL A   1      38.514  30.806  29.732  1.00  0.00     0.049 A 
ATOM     15  N   UNL A   1      39.071  31.519  32.642  1.00  0.00    -0.248 NA
ATOM     16  C   UNL A   1      37.180  32.888  32.579  1.00  0.00     0.031 C 
ATOM     17  C   UNL A   1      38.176  30.400  28.359  1.00  0.00     0.029 A 
ATOM     18  N   UNL A   1      39.505  29.941  30.095  1.00  0.00    -0.354 N 
ATOM     19  C   UNL A   1      38.838  32.053  33.900  1.00  0.00     0.074 A 
ATOM     20  C   UNL A   1      37.675  32.904  33.806  1.00  0.00     0.031 C 
ATOM     21  C   UNL A   1      38.931  29.348  28.013  1.00  0.00     0.029 A 
ATOM     22  C   UNL A   1      39.862  29.069  29.096  1.00  0.00     0.049 A 
ATOM     23  H   UNL A   1      39.925  29.943  30.986  1.00  0.00     0.167 HD
ATOM     24  C   UNL A   1      39.552  31.843  35.027  1.00  0.00     0.037 A 
ATOM     25  C   UNL A   1      40.871  28.182  29.058  1.00  0.00     0.037 A 
ATOM     26  C   UNL A   1      40.704  30.985  35.068  1.00  0.00     0.049 A 
ATOM     27  C   UNL A   1      41.733  28.078  30.284  1.00  0.00     0.074 A 
ATOM     28  C   UNL A   1      41.583  30.761  36.108  1.00  0.00     0.029 A 
ATOM     29  N   UNL A   1      41.127  30.200  34.001  1.00  0.00    -0.354 N 
ATOM     30  N   UNL A   1      41.588  28.669  31.449  1.00  0.00    -0.248 NA
ATOM     31  C   UNL A   1      42.907  27.205  30.193  1.00  0.00     0.031 C 
ATOM     32  C   UNL A   1      42.566  29.874  35.656  1.00  0.00     0.029 A 
ATOM     33  C   UNL A   1      42.266  29.500  34.352  1.00  0.00     0.049 A 
ATOM     34  H   UNL A   1      40.681  30.149  33.125  1.00  0.00     0.167 HD
ATOM     35  C   UNL A   1      42.642  28.231  32.233  1.00  0.00     0.074 A 
ATOM     36  C   UNL A   1      43.396  27.295  31.421  1.00  0.00     0.031 C 
ATOM     37  C   UNL A   1      42.973  28.573  33.504  1.00  0.00     0.037 A 
BRANCH  24  38
ATOM     38  C   UNL A   1      39.151  32.616  36.244  1.00  0.00     0.057 A 
ATOM     39  C   UNL A   1      39.664  33.887  36.529  1.00  0.00     0.134 A 
ATOM     40  C   UNL A   1      38.258  32.059  37.169  1.00  0.00     0.134 A 
ATOM     41  F   UNL A   1      40.556  34.462  35.705  1.00  0.00    -0.206 F 
ATOM     42  C   UNL A   1      39.315  34.572  37.696  1.00  0.00     0.040 A 
ATOM     43  C   UNL A   1      37.883  32.742  38.326  1.00  0.00     0.040 A 
ATOM     44  F   UNL A   1      37.744  30.836  36.967  1.00  0.00    -0.206 F 
ATOM     45  C   UNL A   1      38.415  34.001  38.595  1.00  0.00     0.006 A 
ENDBRANCH  24  38
BRANCH  25  46
ATOM     46  C   UNL A   1      41.180  27.422  27.817  1.00  0.00     0.057 A 
ATOM     47  C   UNL A   1      41.953  27.970  26.788  1.00  0.00     0.134 A 
ATOM     48  C   UNL A   1      40.652  26.138  27.605  1.00  0.00     0.134 A 
ATOM     49  F   UNL A   1      42.474  29.198  26.916  1.00  0.00    -0.206 F 
ATOM     50  C   UNL A   1      42.158  27.290  25.584  1.00  0.00     0.040 A 
ATOM     51  C   UNL A   1      40.880  25.433  26.423  1.00  0.00     0.040 A 
ATOM     52  F   UNL A   1      39.903  25.547  28.547  1.00  0.00    -0.206 F 
ATOM     53  C   UNL A   1      41.623  26.017  25.400  1.00  0.00     0.006 A 
ENDBRANCH  25  46
BRANCH  37  54
ATOM     54  C   UNL A   1      44.179  27.896  34.080  1.00  0.00     0.057 A 
ATOM     55  C   UNL A   1      44.094  26.652  34.715  1.00  0.00     0.134 A 
ATOM     56  C   UNL A   1      45.441  28.492  33.974  1.00  0.00     0.134 A 
ATOM     57  F   UNL A   1      42.909  26.040  34.861  1.00  0.00    -0.206 F 
ATOM     58  C   UNL A   1      45.221  26.038  35.259  1.00  0.00     0.040 A 
ATOM     59  C   UNL A   1      46.581  27.871  34.481  1.00  0.00     0.040 A 
ATOM     60  F   UNL A   1      45.587  29.679  33.365  1.00  0.00    -0.206 F 
ATOM     61  C   UNL A   1      46.470  26.645  35.135  1.00  0.00     0.006 A 
ENDBRANCH  37  54
ENDBRANCH  11  12
ENDBRANCH   4   6
ENDBRANCH   3   4
ENDBRANCH   2   3
ENDBRANCH   1   2
BRANCH   1  62
ATOM     62  O   UNL A   1      31.800  30.543  25.673  1.00  0.00    -0.374 OA
BRANCH  62  63
ATOM     63  C   UNL A   1      32.624  29.456  25.235  1.00  0.00     0.202 C 
BRANCH  63  64
ATOM     64  C   UNL A   1      31.851  28.597  24.234  1.00  0.00     0.261 C 
BRANCH  64  65
ATOM     65  O   UNL A   1      30.724  29.357  23.772  1.00  0.00    -0.463 OA
BRANCH  65  66
ATOM     66  C   UNL A   1      30.233  28.999  22.564  1.00  0.00     0.309 C 
ATOM     67  O   UNL A   1      30.337  27.885  22.065  1.00  0.00    -0.252 OA
BRANCH  66  68
ATOM     68  C   UNL A   1      29.563  30.159  21.848  1.00  0.00     0.110 C 
ATOM     69  C   UNL A   1      29.748  31.456  22.657  1.00  0.00     0.020 C 
ATOM     70  C   UNL A   1      28.042  30.140  21.582  1.00  0.00     0.070 C 
ATOM     71  C   UNL A   1      28.307  31.976  22.827  1.00  0.00    -0.002 C 
ATOM     72  C   UNL A   1      27.303  29.886  22.874  1.00  0.00     0.137 C 
ATOM     73  C   UNL A   1      27.709  31.627  21.464  1.00  0.00     0.016 C 
ATOM     74  C   UNL A   1      27.507  31.065  23.791  1.00  0.00     0.079 C 
ATOM     75  O   UNL A   1      26.641  28.886  23.124  1.00  0.00    -0.299 OA
ENDBRANCH  66  68
ENDBRANCH  65  66
ENDBRANCH  64  65
ENDBRANCH  63  64
ENDBRANCH  62  63
ENDBRANCH   1  62
TORSDOF 14
ENDMDL
MODEL 2
REMARK VINA RESULT:     -10.4      6.196     11.470
REMARK SMILES O=C(OCCOCCOC(=O)[C@@H]1C[C@@H]2CC(=O)[C@H]1C2)c1ccc(-c2c3nc(c(-c4c(F)cccc4F)c4ccc([nH]4)c(-c4c(F)cccc4F)c4nc(c(-c5c(F)cccc5F)c5ccc2[nH]5)C=C4)C=C3)cc1
REMARK SMILES IDX 5 1 4 2 3 3 2 4 1 5 20 6 21 7 73 8 22 9 72 10 23 11 24 12
REMARK SMILES IDX 25 13 66 14 26 15 71 16 65 17 67 18 27 19 70 20 64 21 63 22
REMARK SMILES IDX 28 24 54 25 37 26 53 27 38 28 41 29 52 30 68 31 39 32 40 33
REMARK SMILES IDX 51 35 69 36 42 37 29 38 30 39 35 40 31 41 32 42 34 43 36 44
REMARK SMILES IDX 33 45 55 46 56 47 61 48 57 49 58 50 60 51 62 52 59 53 43 54
REMARK SMILES IDX 44 55 49 56 45 57 46 58 48 59 50 60 47 61 6 62 7 63 8 64
REMARK SMILES IDX 9 65 10 66 11 67 12 68 13 69 18 70 14 71 16 72 19 73 15 74
REMARK SMILES IDX 17 75
REMARK H PARENT 67 23 41 34
REMARK Flexibility Score: inf
ROOT
ATOM      1  C   UNL A   1      41.238  19.264  26.071  1.00  0.00     0.202 C 
ENDROOT
BRANCH   1   2
ATOM      2  C   UNL A   1      40.680  20.400  26.936  1.00  0.00     0.261 C 
BRANCH   2   3
ATOM      3  O   UNL A   1      40.599  21.623  26.185  1.00  0.00    -0.460 OA
BRANCH   3   4
ATOM      4  C   UNL A   1      39.727  22.645  26.359  1.00  0.00     0.338 C 
ATOM      5  O   UNL A   1      38.541  22.483  26.085  1.00  0.00    -0.246 OA
BRANCH   4   6
ATOM      6  C   UNL A   1      40.149  23.969  26.900  1.00  0.00     0.060 A 
ATOM      7  C   UNL A   1      40.650  24.154  28.184  1.00  0.00     0.016 A 
ATOM      8  C   UNL A   1      40.102  25.084  26.050  1.00  0.00     0.016 A 
ATOM      9  C   UNL A   1      41.019  25.383  28.662  1.00  0.00     0.010 A 
ATOM     10  C   UNL A   1      40.540  26.336  26.498  1.00  0.00     0.010 A 
ATOM     11  C   UNL A   1      40.997  26.475  27.813  1.00  0.00    -0.014 A 
BRANCH  11  12
ATOM     12  C   UNL A   1      41.379  27.742  28.440  1.00  0.00     0.031 A 
ATOM     13  C   UNL A   1      42.816  28.138  28.392  1.00  0.00     0.074 A 
ATOM     14  C   UNL A   1      40.400  28.602  28.779  1.00  0.00     0.049 A 
ATOM     15  N   UNL A   1      43.383  29.221  28.839  1.00  0.00    -0.248 NA
ATOM     16  C   UNL A   1      43.737  27.200  27.723  1.00  0.00     0.031 C 
ATOM     17  C   UNL A   1      38.959  28.332  28.657  1.00  0.00     0.029 A 
ATOM     18  N   UNL A   1      40.456  29.890  29.225  1.00  0.00    -0.354 N 
ATOM     19  C   UNL A   1      44.729  29.084  28.535  1.00  0.00     0.074 A 
ATOM     20  C   UNL A   1      44.899  27.816  27.866  1.00  0.00     0.031 C 
ATOM     21  C   UNL A   1      38.275  29.435  28.994  1.00  0.00     0.029 A 
ATOM     22  C   UNL A   1      39.219  30.448  29.441  1.00  0.00     0.049 A 
ATOM     23  H   UNL A   1      41.300  30.373  29.378  1.00  0.00     0.167 HD
ATOM     24  C   UNL A   1      45.725  29.954  28.807  1.00  0.00     0.037 A 
ATOM     25  C   UNL A   1      38.902  31.632  29.992  1.00  0.00     0.037 A 
ATOM     26  C   UNL A   1      45.501  31.206  29.476  1.00  0.00     0.049 A 
ATOM     27  C   UNL A   1      40.043  32.515  30.413  1.00  0.00     0.074 A 
ATOM     28  C   UNL A   1      46.425  32.135  29.910  1.00  0.00     0.029 A 
ATOM     29  N   UNL A   1      44.244  31.700  29.802  1.00  0.00    -0.354 N 
ATOM     30  N   UNL A   1      41.332  32.341  30.232  1.00  0.00    -0.248 NA
ATOM     31  C   UNL A   1      39.695  33.746  31.128  1.00  0.00     0.031 C 
ATOM     32  C   UNL A   1      45.728  33.172  30.540  1.00  0.00     0.029 A 
ATOM     33  C   UNL A   1      44.366  32.916  30.447  1.00  0.00     0.049 A 
ATOM     34  H   UNL A   1      43.390  31.250  29.603  1.00  0.00     0.167 HD
ATOM     35  C   UNL A   1      41.949  33.444  30.798  1.00  0.00     0.074 A 
ATOM     36  C   UNL A   1      40.887  34.298  31.294  1.00  0.00     0.031 C 
ATOM     37  C   UNL A   1      43.271  33.729  30.914  1.00  0.00     0.037 A 
BRANCH  24  38
ATOM     38  C   UNL A   1      47.117  29.530  28.458  1.00  0.00     0.057 A 
ATOM     39  C   UNL A   1      47.710  29.839  27.228  1.00  0.00     0.134 A 
ATOM     40  C   UNL A   1      47.867  28.764  29.361  1.00  0.00     0.134 A 
ATOM     41  F   UNL A   1      47.032  30.535  26.301  1.00  0.00    -0.206 F 
ATOM     42  C   UNL A   1      48.993  29.391  26.902  1.00  0.00     0.040 A 
ATOM     43  C   UNL A   1      49.157  28.330  29.057  1.00  0.00     0.040 A 
ATOM     44  F   UNL A   1      47.350  28.415  30.549  1.00  0.00    -0.206 F 
ATOM     45  C   UNL A   1      49.722  28.640  27.822  1.00  0.00     0.006 A 
ENDBRANCH  24  38
BRANCH  25  46
ATOM     46  C   UNL A   1      37.486  31.996  30.270  1.00  0.00     0.057 A 
ATOM     47  C   UNL A   1      36.827  31.567  31.426  1.00  0.00     0.134 A 
ATOM     48  C   UNL A   1      36.736  32.738  29.345  1.00  0.00     0.134 A 
ATOM     49  F   UNL A   1      37.477  30.840  32.345  1.00  0.00    -0.206 F 
ATOM     50  C   UNL A   1      35.470  31.829  31.636  1.00  0.00     0.040 A 
ATOM     51  C   UNL A   1      35.390  33.038  29.558  1.00  0.00     0.040 A 
ATOM     52  F   UNL A   1      37.301  33.185  28.213  1.00  0.00    -0.206 F 
ATOM     53  C   UNL A   1      34.749  32.568  30.701  1.00  0.00     0.006 A 
ENDBRANCH  25  46
BRANCH  37  54
ATOM     54  C   UNL A   1      43.613  35.031  31.572  1.00  0.00     0.057 A 
ATOM     55  C   UNL A   1      43.756  36.214  30.837  1.00  0.00     0.134 A 
ATOM     56  C   UNL A   1      43.777  35.099  32.960  1.00  0.00     0.134 A 
ATOM     57  F   UNL A   1      43.626  36.208  29.502  1.00  0.00    -0.206 F 
ATOM     58  C   UNL A   1      44.087  37.417  31.459  1.00  0.00     0.040 A 
ATOM     59  C   UNL A   1      44.073  36.303  33.597  1.00  0.00     0.040 A 
ATOM     60  F   UNL A   1      43.641  34.000  33.718  1.00  0.00    -0.206 F 
ATOM     61  C   UNL A   1      44.238  37.464  32.844  1.00  0.00     0.006 A 
ENDBRANCH  37  54
ENDBRANCH  11  12
ENDBRANCH   4   6
ENDBRANCH   3   4
ENDBRANCH   2   3
ENDBRANCH   1   2
BRANCH   1  62
ATOM     62  O   UNL A   1      42.381  19.562  25.267  1.00  0.00    -0.374 OA
BRANCH  62  63
ATOM     63  C   UNL A   1      43.612  18.965  25.693  1.00  0.00     0.202 C 
BRANCH  63  64
ATOM     64  C   UNL A   1      44.627  19.012  24.551  1.00  0.00     0.261 C 
BRANCH  64  65
ATOM     65  O   UNL A   1      44.517  20.292  23.910  1.00  0.00    -0.463 OA
BRANCH  65  66
ATOM     66  C   UNL A   1      45.310  21.266  24.409  1.00  0.00     0.309 C 
ATOM     67  O   UNL A   1      46.376  21.080  24.984  1.00  0.00    -0.252 OA
BRANCH  66  68
ATOM     68  C   UNL A   1      44.710  22.649  24.223  1.00  0.00     0.110 C 
ATOM     69  C   UNL A   1      45.791  23.725  24.430  1.00  0.00     0.020 C 
ATOM     70  C   UNL A   1      43.567  23.137  25.140  1.00  0.00     0.070 C 
ATOM     71  C   UNL A   1      45.172  24.648  25.500  1.00  0.00    -0.002 C 
ATOM     72  C   UNL A   1      43.975  22.984  26.586  1.00  0.00     0.137 C 
ATOM     73  C   UNL A   1      43.708  24.656  25.064  1.00  0.00     0.016 C 
ATOM     74  C   UNL A   1      45.114  23.931  26.872  1.00  0.00     0.079 C 
ATOM     75  O   UNL A   1      43.456  22.220  27.390  1.00  0.00    -0.299 OA
ENDBRANCH  66  68
ENDBRANCH  65  66
ENDBRANCH  64  65
ENDBRANCH  63  64
ENDBRANCH  62  63
ENDBRANCH   1  62
TORSDOF 14
ENDMDL
MODEL 3
REMARK VINA RESULT:     -10.2      6.166     10.569
REMARK SMILES O=C(OCCOCCOC(=O)[C@@H]1C[C@@H]2CC(=O)[C@H]1C2)c1ccc(-c2c3nc(c(-c4c(F)cccc4F)c4ccc([nH]4)c(-c4c(F)cccc4F)c4nc(c(-c5c(F)cccc5F)c5ccc2[nH]5)C=C4)C=C3)cc1
REMARK SMILES IDX 5 1 4 2 3 3 2 4 1 5 20 6 21 7 73 8 22 9 72 10 23 11 24 12
REMARK SMILES IDX 25 13 66 14 26 15 71 16 65 17 67 18 27 19 70 20 64 21 63 22
REMARK SMILES IDX 28 24 54 25 37 26 53 27 38 28 41 29 52 30 68 31 39 32 40 33
REMARK SMILES IDX 51 35 69 36 42 37 29 38 30 39 35 40 31 41 32 42 34 43 36 44
REMARK SMILES IDX 33 45 55 46 56 47 61 48 57 49 58 50 60 51 62 52 59 53 43 54
REMARK SMILES IDX 44 55 49 56 45 57 46 58 48 59 50 60 47 61 6 62 7 63 8 64
REMARK SMILES IDX 9 65 10 66 11 67 12 68 13 69 18 70 14 71 16 72 19 73 15 74
REMARK SMILES IDX 17 75
REMARK H PARENT 67 23 41 34
REMARK Flexibility Score: inf
ROOT
ATOM      1  C   UNL A   1      40.866  19.452  26.239  1.00  0.00     0.202 C 
ENDROOT
BRANCH   1   2
ATOM      2  C   UNL A   1      40.712  20.732  27.070  1.00  0.00     0.261 C 
BRANCH   2   3
ATOM      3  O   UNL A   1      40.411  21.857  26.227  1.00  0.00    -0.460 OA
BRANCH   3   4
ATOM      4  C   UNL A   1      39.498  22.833  26.444  1.00  0.00     0.338 C 
ATOM      5  O   UNL A   1      38.303  22.587  26.303  1.00  0.00    -0.246 OA
BRANCH   4   6
ATOM      6  C   UNL A   1      39.887  24.206  26.877  1.00  0.00     0.060 A 
ATOM      7  C   UNL A   1      40.306  25.202  26.001  1.00  0.00     0.016 A 
ATOM      8  C   UNL A   1      39.766  24.538  28.235  1.00  0.00     0.016 A 
ATOM      9  C   UNL A   1      40.670  26.452  26.426  1.00  0.00     0.010 A 
ATOM     10  C   UNL A   1      40.069  25.831  28.678  1.00  0.00     0.010 A 
ATOM     11  C   UNL A   1      40.524  26.784  27.761  1.00  0.00    -0.014 A 
BRANCH  11  12
ATOM     12  C   UNL A   1      40.977  28.133  28.106  1.00  0.00     0.031 A 
ATOM     13  C   UNL A   1      39.973  29.085  28.662  1.00  0.00     0.074 A 
ATOM     14  C   UNL A   1      42.303  28.361  28.165  1.00  0.00     0.049 A 
ATOM     15  N   UNL A   1      40.142  30.308  29.074  1.00  0.00    -0.248 NA
ATOM     16  C   UNL A   1      38.593  28.581  28.802  1.00  0.00     0.031 C 
ATOM     17  C   UNL A   1      43.345  27.382  27.816  1.00  0.00     0.029 A 
ATOM     18  N   UNL A   1      43.005  29.447  28.600  1.00  0.00    -0.354 N 
ATOM     19  C   UNL A   1      38.890  30.732  29.492  1.00  0.00     0.074 A 
ATOM     20  C   UNL A   1      37.967  29.641  29.287  1.00  0.00     0.031 C 
ATOM     21  C   UNL A   1      44.549  27.909  28.080  1.00  0.00     0.029 A 
ATOM     22  C   UNL A   1      44.367  29.283  28.523  1.00  0.00     0.049 A 
ATOM     23  H   UNL A   1      42.578  30.268  28.935  1.00  0.00     0.167 HD
ATOM     24  C   UNL A   1      38.559  31.941  29.996  1.00  0.00     0.037 A 
ATOM     25  C   UNL A   1      45.347  30.176  28.741  1.00  0.00     0.037 A 
ATOM     26  C   UNL A   1      39.517  32.994  30.181  1.00  0.00     0.049 A 
ATOM     27  C   UNL A   1      44.930  31.556  29.166  1.00  0.00     0.074 A 
ATOM     28  C   UNL A   1      39.307  34.299  30.580  1.00  0.00     0.029 A 
ATOM     29  N   UNL A   1      40.884  32.847  29.976  1.00  0.00    -0.354 N 
ATOM     30  N   UNL A   1      43.728  32.003  29.455  1.00  0.00    -0.248 NA
ATOM     31  C   UNL A   1      45.990  32.561  29.278  1.00  0.00     0.031 C 
ATOM     32  C   UNL A   1      40.543  34.954  30.574  1.00  0.00     0.029 A 
ATOM     33  C   UNL A   1      41.532  34.043  30.226  1.00  0.00     0.049 A 
ATOM     34  H   UNL A   1      41.328  32.014  29.695  1.00  0.00     0.167 HD
ATOM     35  C   UNL A   1      43.889  33.336  29.795  1.00  0.00     0.074 A 
ATOM     36  C   UNL A   1      45.311  33.612  29.712  1.00  0.00     0.031 C 
ATOM     37  C   UNL A   1      42.954  34.259  30.135  1.00  0.00     0.037 A 
BRANCH  24  38
ATOM     38  C   UNL A   1      37.111  32.186  30.286  1.00  0.00     0.057 A 
ATOM     39  C   UNL A   1      36.217  32.640  29.309  1.00  0.00     0.134 A 
ATOM     40  C   UNL A   1      36.610  31.996  31.581  1.00  0.00     0.134 A 
ATOM     41  F   UNL A   1      36.640  32.882  28.058  1.00  0.00    -0.206 F 
ATOM     42  C   UNL A   1      34.880  32.911  29.612  1.00  0.00     0.040 A 
ATOM     43  C   UNL A   1      35.272  32.240  31.890  1.00  0.00     0.040 A 
ATOM     44  F   UNL A   1      37.418  31.581  32.568  1.00  0.00    -0.206 F 
ATOM     45  C   UNL A   1      34.403  32.703  30.905  1.00  0.00     0.006 A 
ENDBRANCH  24  38
BRANCH  25  46
ATOM     46  C   UNL A   1      46.770  29.839  28.465  1.00  0.00     0.057 A 
ATOM     47  C   UNL A   1      47.320  29.949  27.184  1.00  0.00     0.134 A 
ATOM     48  C   UNL A   1      47.603  29.337  29.477  1.00  0.00     0.134 A 
ATOM     49  F   UNL A   1      46.577  30.405  26.166  1.00  0.00    -0.206 F 
ATOM     50  C   UNL A   1      48.628  29.538  26.911  1.00  0.00     0.040 A 
ATOM     51  C   UNL A   1      48.922  28.958  29.226  1.00  0.00     0.040 A 
ATOM     52  F   UNL A   1      47.146  29.205  30.731  1.00  0.00    -0.206 F 
ATOM     53  C   UNL A   1      49.433  29.043  27.934  1.00  0.00     0.006 A 
ENDBRANCH  25  46
BRANCH  37  54
ATOM     54  C   UNL A   1      43.464  35.627  30.470  1.00  0.00     0.057 A 
ATOM     55  C   UNL A   1      43.836  35.978  31.773  1.00  0.00     0.134 A 
ATOM     56  C   UNL A   1      43.604  36.593  29.466  1.00  0.00     0.134 A 
ATOM     57  F   UNL A   1      43.709  35.099  32.778  1.00  0.00    -0.206 F 
ATOM     58  C   UNL A   1      44.297  37.259  32.074  1.00  0.00     0.040 A 
ATOM     59  C   UNL A   1      44.098  37.865  29.749  1.00  0.00     0.040 A 
ATOM     60  F   UNL A   1      43.275  36.311  28.197  1.00  0.00    -0.206 F 
ATOM     61  C   UNL A   1      44.437  38.204  31.058  1.00  0.00     0.006 A 
ENDBRANCH  37  54
ENDBRANCH  11  12
ENDBRANCH   4   6
ENDBRANCH   3   4
ENDBRANCH   2   3
ENDBRANCH   1   2
BRANCH   1  62
ATOM     62  O   UNL A   1      41.982  19.388  25.348  1.00  0.00    -0.374 OA
BRANCH  62  63
ATOM     63  C   UNL A   1      43.147  18.729  25.859  1.00  0.00     0.202 C 
BRANCH  63  64
ATOM     64  C   UNL A   1      44.360  19.093  25.003  1.00  0.00     0.261 C 
BRANCH  64  65
ATOM     65  O   UNL A   1      44.153  20.413  24.476  1.00  0.00    -0.463 OA
BRANCH  65  66
ATOM     66  C   UNL A   1      45.090  21.328  24.809  1.00  0.00     0.309 C 
ATOM     67  O   UNL A   1      46.147  21.079  25.376  1.00  0.00    -0.252 OA
BRANCH  66  68
ATOM     68  C   UNL A   1      44.671  22.741  24.441  1.00  0.00     0.110 C 
ATOM     69  C   UNL A   1      45.868  23.699  24.581  1.00  0.00     0.020 C 
ATOM     70  C   UNL A   1      43.564  23.463  25.241  1.00  0.00     0.070 C 
ATOM     71  C   UNL A   1      45.329  24.807  25.510  1.00  0.00    -0.002 C 
ATOM     72  C   UNL A   1      43.899  23.432  26.713  1.00  0.00     0.137 C 
ATOM     73  C   UNL A   1      43.893  24.936  25.003  1.00  0.00     0.016 C 
ATOM     74  C   UNL A   1      45.134  24.265  26.948  1.00  0.00     0.079 C 
ATOM     75  O   UNL A   1      43.262  22.833  27.570  1.00  0.00    -0.299 OA
ENDBRANCH  66  68
ENDBRANCH  65  66
ENDBRANCH  64  65
ENDBRANCH  63  64
ENDBRANCH  62  63
ENDBRANCH   1  62
TORSDOF 14
ENDMDL
