MODEL 1
REMARK VINA RESULT:      -8.7      0.000      0.000
REMARK SMILES O=C(COC[C@@H]1CCCCO1)OCCOCCOC(=O)c1ccc(-c2c3nc(c(-c4c(F)cccc4F)c4ccc([nH]4)c(-c4c(F)cccc4F)c4nc(c(-c5c(F)cccc5F)c5ccc2[nH]5)C=C4)C=C3)cc1
REMARK SMILES IDX 14 1 13 2 12 3 2 4 1 5 3 6 4 7 5 8 6 9 7 10 11 11 8 12 10 13
REMARK SMILES IDX 9 14 15 15 16 16 17 17 18 18 19 19 20 20 21 21 22 22 74 23
REMARK SMILES IDX 23 24 73 25 24 26 25 27 26 28 67 29 27 30 72 31 66 32 68 33
REMARK SMILES IDX 28 34 71 35 65 36 64 37 29 39 55 40 38 41 54 42 39 43 42 44
REMARK SMILES IDX 53 45 69 46 40 47 41 48 52 50 70 51 43 52 30 53 31 54 36 55
REMARK SMILES IDX 32 56 33 57 35 58 37 59 34 60 56 61 57 62 62 63 58 64 59 65
REMARK SMILES IDX 61 66 63 67 60 68 44 69 45 70 50 71 46 72 47 73 49 74 51 75
REMARK SMILES IDX 48 76
REMARK H PARENT 68 38 42 49
REMARK Flexibility Score: inf
ROOT
ATOM      1  C   UNL A   1      42.430  19.225  26.425  1.00  0.00     0.202 C 
ENDROOT
BRANCH   1   2
ATOM      2  C   UNL A   1      43.401  18.094  26.099  1.00  0.00     0.261 C 
BRANCH   2   3
ATOM      3  O   UNL A   1      44.159  18.390  24.911  1.00  0.00    -0.462 OA
BRANCH   3   4
ATOM      4  C   UNL A   1      45.441  18.820  24.969  1.00  0.00     0.332 C 
ATOM      5  O   UNL A   1      46.341  18.068  25.338  1.00  0.00    -0.250 OA
BRANCH   4   6
ATOM      6  C   UNL A   1      45.724  20.252  24.546  1.00  0.00     0.282 C 
BRANCH   6   7
ATOM      7  O   UNL A   1      44.636  20.910  23.920  1.00  0.00    -0.367 OA
BRANCH   7   8
ATOM      8  C   UNL A   1      44.716  22.329  24.004  1.00  0.00     0.193 C 
BRANCH   8   9
ATOM      9  C   UNL A   1      43.667  22.918  24.965  1.00  0.00     0.144 C 
ATOM     10  C   UNL A   1      43.589  24.448  24.892  1.00  0.00     0.034 C 
ATOM     11  O   UNL A   1      43.870  22.483  26.311  1.00  0.00    -0.376 OA
ATOM     12  C   UNL A   1      44.846  25.074  25.475  1.00  0.00     0.005 C 
ATOM     13  C   UNL A   1      45.045  23.010  26.924  1.00  0.00     0.160 C 
ATOM     14  C   UNL A   1      45.081  24.533  26.879  1.00  0.00     0.029 C 
ENDBRANCH   8   9
ENDBRANCH   7   8
ENDBRANCH   6   7
ENDBRANCH   4   6
ENDBRANCH   3   4
ENDBRANCH   2   3
ENDBRANCH   1   2
BRANCH   1  15
ATOM     15  O   UNL A   1      41.198  19.228  25.701  1.00  0.00    -0.374 OA
BRANCH  15  16
ATOM     16  C   UNL A   1      40.141  20.033  26.236  1.00  0.00     0.202 C 
BRANCH  16  17
ATOM     17  C   UNL A   1      40.202  21.525  25.907  1.00  0.00     0.261 C 
BRANCH  17  18
ATOM     18  O   UNL A   1      39.381  22.275  26.808  1.00  0.00    -0.460 OA
BRANCH  18  19
ATOM     19  C   UNL A   1      38.844  23.403  26.289  1.00  0.00     0.338 C 
ATOM     20  O   UNL A   1      37.864  23.499  25.569  1.00  0.00    -0.246 OA
BRANCH  19  21
ATOM     21  C   UNL A   1      39.503  24.556  26.928  1.00  0.00     0.060 A 
ATOM     22  C   UNL A   1      39.236  24.803  28.285  1.00  0.00     0.016 A 
ATOM     23  C   UNL A   1      40.390  25.362  26.214  1.00  0.00     0.016 A 
ATOM     24  C   UNL A   1      39.808  25.900  28.917  1.00  0.00     0.010 A 
ATOM     25  C   UNL A   1      40.951  26.466  26.841  1.00  0.00     0.010 A 
ATOM     26  C   UNL A   1      40.620  26.763  28.176  1.00  0.00    -0.014 A 
BRANCH  26  27
ATOM     27  C   UNL A   1      40.940  28.109  28.681  1.00  0.00     0.031 A 
ATOM     28  C   UNL A   1      42.353  28.362  29.114  1.00  0.00     0.074 A 
ATOM     29  C   UNL A   1      39.984  29.037  28.830  1.00  0.00     0.049 A 
ATOM     30  N   UNL A   1      42.849  29.359  29.794  1.00  0.00    -0.248 NA
ATOM     31  C   UNL A   1      43.334  27.325  28.753  1.00  0.00     0.031 C 
ATOM     32  C   UNL A   1      38.594  28.893  28.411  1.00  0.00     0.029 A 
ATOM     33  N   UNL A   1      40.041  30.271  29.422  1.00  0.00    -0.354 N 
ATOM     34  C   UNL A   1      44.192  29.052  29.975  1.00  0.00     0.074 A 
ATOM     35  C   UNL A   1      44.425  27.767  29.356  1.00  0.00     0.031 C 
ATOM     36  C   UNL A   1      37.912  29.983  28.801  1.00  0.00     0.029 A 
ATOM     37  C   UNL A   1      38.813  30.870  29.534  1.00  0.00     0.049 A 
ATOM     38  H   UNL A   1      40.878  30.685  29.735  1.00  0.00     0.167 HD
ATOM     39  C   UNL A   1      45.139  29.780  30.609  1.00  0.00     0.037 A 
ATOM     40  C   UNL A   1      38.456  31.984  30.202  1.00  0.00     0.037 A 
ATOM     41  C   UNL A   1      44.877  31.052  31.225  1.00  0.00     0.049 A 
ATOM     42  C   UNL A   1      39.510  32.760  30.942  1.00  0.00     0.074 A 
ATOM     43  C   UNL A   1      45.760  31.902  31.860  1.00  0.00     0.029 A 
ATOM     44  N   UNL A   1      43.623  31.647  31.292  1.00  0.00    -0.354 N 
ATOM     45  N   UNL A   1      40.787  32.489  31.087  1.00  0.00    -0.248 NA
ATOM     46  C   UNL A   1      39.080  33.996  31.606  1.00  0.00     0.031 C 
ATOM     47  C   UNL A   1      45.030  32.982  32.369  1.00  0.00     0.029 A 
ATOM     48  C   UNL A   1      43.703  32.841  31.986  1.00  0.00     0.049 A 
ATOM     49  H   UNL A   1      42.799  31.274  30.904  1.00  0.00     0.167 HD
ATOM     50  C   UNL A   1      41.319  33.536  31.831  1.00  0.00     0.074 A 
ATOM     51  C   UNL A   1      40.223  34.445  32.106  1.00  0.00     0.031 C 
ATOM     52  C   UNL A   1      42.597  33.732  32.240  1.00  0.00     0.037 A 
BRANCH  39  53
ATOM     53  C   UNL A   1      46.514  29.183  30.704  1.00  0.00     0.057 A 
ATOM     54  C   UNL A   1      46.912  28.385  31.787  1.00  0.00     0.134 A 
ATOM     55  C   UNL A   1      47.466  29.432  29.707  1.00  0.00     0.134 A 
ATOM     56  F   UNL A   1      46.057  28.119  32.787  1.00  0.00    -0.206 F 
ATOM     57  C   UNL A   1      48.216  27.895  31.895  1.00  0.00     0.040 A 
ATOM     58  C   UNL A   1      48.762  28.920  29.787  1.00  0.00     0.040 A 
ATOM     59  F   UNL A   1      47.156  30.187  28.642  1.00  0.00    -0.206 F 
ATOM     60  C   UNL A   1      49.144  28.160  30.890  1.00  0.00     0.006 A 
ENDBRANCH  39  53
BRANCH  40  61
ATOM     61  C   UNL A   1      37.034  32.404  30.200  1.00  0.00     0.057 A 
ATOM     62  C   UNL A   1      36.169  32.026  31.232  1.00  0.00     0.134 A 
ATOM     63  C   UNL A   1      36.519  33.235  29.197  1.00  0.00     0.134 A 
ATOM     64  F   UNL A   1      36.600  31.219  32.212  1.00  0.00    -0.206 F 
ATOM     65  C   UNL A   1      34.842  32.459  31.268  1.00  0.00     0.040 A 
ATOM     66  C   UNL A   1      35.202  33.695  29.233  1.00  0.00     0.040 A 
ATOM     67  F   UNL A   1      37.301  33.639  28.185  1.00  0.00    -0.206 F 
ATOM     68  C   UNL A   1      34.359  33.305  30.271  1.00  0.00     0.006 A 
ENDBRANCH  40  61
BRANCH  52  69
ATOM     69  C   UNL A   1      42.900  35.002  32.980  1.00  0.00     0.057 A 
ATOM     70  C   UNL A   1      43.388  36.145  32.335  1.00  0.00     0.134 A 
ATOM     71  C   UNL A   1      42.621  35.102  34.350  1.00  0.00     0.134 A 
ATOM     72  F   UNL A   1      43.684  36.112  31.026  1.00  0.00    -0.206 F 
ATOM     73  C   UNL A   1      43.600  37.337  33.028  1.00  0.00     0.040 A 
ATOM     74  C   UNL A   1      42.801  36.296  35.047  1.00  0.00     0.040 A 
ATOM     75  F   UNL A   1      42.140  34.048  35.026  1.00  0.00    -0.206 F 
ATOM     76  C   UNL A   1      43.295  37.417  34.386  1.00  0.00     0.006 A 
ENDBRANCH  52  69
ENDBRANCH  26  27
ENDBRANCH  19  21
ENDBRANCH  18  19
ENDBRANCH  17  18
ENDBRANCH  16  17
ENDBRANCH  15  16
ENDBRANCH   1  15
TORSDOF 17
ENDMDL
MODEL 2
REMARK VINA RESULT:      -8.7      0.925      1.693
REMARK SMILES O=C(COC[C@@H]1CCCCO1)OCCOCCOC(=O)c1ccc(-c2c3nc(c(-c4c(F)cccc4F)c4ccc([nH]4)c(-c4c(F)cccc4F)c4nc(c(-c5c(F)cccc5F)c5ccc2[nH]5)C=C4)C=C3)cc1
REMARK SMILES IDX 14 1 13 2 12 3 2 4 1 5 3 6 4 7 5 8 6 9 7 10 11 11 8 12 10 13
REMARK SMILES IDX 9 14 15 15 16 16 17 17 18 18 19 19 20 20 21 21 22 22 74 23
REMARK SMILES IDX 23 24 73 25 24 26 25 27 26 28 67 29 27 30 72 31 66 32 68 33
REMARK SMILES IDX 28 34 71 35 65 36 64 37 29 39 55 40 38 41 54 42 39 43 42 44
REMARK SMILES IDX 53 45 69 46 40 47 41 48 52 50 70 51 43 52 30 53 31 54 36 55
REMARK SMILES IDX 32 56 33 57 35 58 37 59 34 60 56 61 57 62 62 63 58 64 59 65
REMARK SMILES IDX 61 66 63 67 60 68 44 69 45 70 50 71 46 72 47 73 49 74 51 75
REMARK SMILES IDX 48 76
REMARK H PARENT 68 38 42 49
REMARK Flexibility Score: inf
ROOT
ATOM      1  C   UNL A   1      42.485  19.137  26.400  1.00  0.00     0.202 C 
ENDROOT
BRANCH   1   2
ATOM      2  C   UNL A   1      43.428  18.495  25.388  1.00  0.00     0.261 C 
BRANCH   2   3
ATOM      3  O   UNL A   1      43.985  19.484  24.502  1.00  0.00    -0.462 OA
BRANCH   3   4
ATOM      4  C   UNL A   1      45.317  19.576  24.278  1.00  0.00     0.332 C 
ATOM      5  O   UNL A   1      45.891  18.762  23.557  1.00  0.00    -0.250 OA
BRANCH   4   6
ATOM      6  C   UNL A   1      46.064  20.726  24.933  1.00  0.00     0.282 C 
BRANCH   6   7
ATOM      7  O   UNL A   1      46.109  21.915  24.166  1.00  0.00    -0.367 OA
BRANCH   7   8
ATOM      8  C   UNL A   1      45.749  23.076  24.908  1.00  0.00     0.193 C 
BRANCH   8   9
ATOM      9  C   UNL A   1      44.247  23.398  24.798  1.00  0.00     0.144 C 
ATOM     10  C   UNL A   1      43.927  24.859  25.135  1.00  0.00     0.034 C 
ATOM     11  O   UNL A   1      43.450  22.509  25.583  1.00  0.00    -0.376 OA
ATOM     12  C   UNL A   1      44.134  25.122  26.618  1.00  0.00     0.005 C 
ATOM     13  C   UNL A   1      43.604  22.676  26.991  1.00  0.00     0.160 C 
ATOM     14  C   UNL A   1      43.336  24.111  27.431  1.00  0.00     0.029 C 
ENDBRANCH   8   9
ENDBRANCH   7   8
ENDBRANCH   6   7
ENDBRANCH   4   6
ENDBRANCH   3   4
ENDBRANCH   2   3
ENDBRANCH   1   2
BRANCH   1  15
ATOM     15  O   UNL A   1      41.215  19.562  25.901  1.00  0.00    -0.374 OA
BRANCH  15  16
ATOM     16  C   UNL A   1      40.479  20.482  26.716  1.00  0.00     0.202 C 
BRANCH  16  17
ATOM     17  C   UNL A   1      40.211  21.856  26.101  1.00  0.00     0.261 C 
BRANCH  17  18
ATOM     18  O   UNL A   1      39.079  22.475  26.721  1.00  0.00    -0.460 OA
BRANCH  18  19
ATOM     19  C   UNL A   1      38.680  23.637  26.155  1.00  0.00     0.338 C 
ATOM     20  O   UNL A   1      37.797  23.800  25.331  1.00  0.00    -0.246 OA
BRANCH  19  21
ATOM     21  C   UNL A   1      39.338  24.742  26.875  1.00  0.00     0.060 A 
ATOM     22  C   UNL A   1      39.153  24.830  28.265  1.00  0.00     0.016 A 
ATOM     23  C   UNL A   1      40.144  25.659  26.200  1.00  0.00     0.016 A 
ATOM     24  C   UNL A   1      39.726  25.876  28.977  1.00  0.00     0.010 A 
ATOM     25  C   UNL A   1      40.705  26.713  26.909  1.00  0.00     0.010 A 
ATOM     26  C   UNL A   1      40.454  26.848  28.287  1.00  0.00    -0.014 A 
BRANCH  26  27
ATOM     27  C   UNL A   1      40.757  28.145  28.917  1.00  0.00     0.031 A 
ATOM     28  C   UNL A   1      42.078  28.279  29.612  1.00  0.00     0.074 A 
ATOM     29  C   UNL A   1      39.849  29.131  28.941  1.00  0.00     0.049 A 
ATOM     30  N   UNL A   1      42.501  29.207  30.426  1.00  0.00    -0.248 NA
ATOM     31  C   UNL A   1      43.044  27.191  29.377  1.00  0.00     0.031 C 
ATOM     32  C   UNL A   1      38.554  29.105  28.270  1.00  0.00     0.029 A 
ATOM     33  N   UNL A   1      39.872  30.331  29.603  1.00  0.00    -0.354 N 
ATOM     34  C   UNL A   1      43.766  28.798  30.830  1.00  0.00     0.074 A 
ATOM     35  C   UNL A   1      44.030  27.528  30.192  1.00  0.00     0.031 C 
ATOM     36  C   UNL A   1      37.880  30.221  28.590  1.00  0.00     0.029 A 
ATOM     37  C   UNL A   1      38.682  31.010  29.524  1.00  0.00     0.049 A 
ATOM     38  H   UNL A   1      40.660  30.671  30.084  1.00  0.00     0.167 HD
ATOM     39  C   UNL A   1      44.622  29.429  31.665  1.00  0.00     0.037 A 
ATOM     40  C   UNL A   1      38.278  32.115  30.176  1.00  0.00     0.037 A 
ATOM     41  C   UNL A   1      44.330  30.687  32.293  1.00  0.00     0.049 A 
ATOM     42  C   UNL A   1      39.223  32.782  31.138  1.00  0.00     0.074 A 
ATOM     43  C   UNL A   1      45.131  31.445  33.125  1.00  0.00     0.029 A 
ATOM     44  N   UNL A   1      43.124  31.366  32.166  1.00  0.00    -0.354 N 
ATOM     45  N   UNL A   1      40.432  32.415  31.497  1.00  0.00    -0.248 NA
ATOM     46  C   UNL A   1      38.754  34.015  31.782  1.00  0.00     0.031 C 
ATOM     47  C   UNL A   1      44.388  32.550  33.553  1.00  0.00     0.029 A 
ATOM     48  C   UNL A   1      43.148  32.520  32.929  1.00  0.00     0.049 A 
ATOM     49  H   UNL A   1      42.364  31.070  31.614  1.00  0.00     0.167 HD
ATOM     50  C   UNL A   1      40.880  33.388  32.383  1.00  0.00     0.074 A 
ATOM     51  C   UNL A   1      39.811  34.360  32.505  1.00  0.00     0.031 C 
ATOM     52  C   UNL A   1      42.071  33.475  33.027  1.00  0.00     0.037 A 
BRANCH  39  53
ATOM     53  C   UNL A   1      45.916  28.732  31.975  1.00  0.00     0.057 A 
ATOM     54  C   UNL A   1      46.057  27.858  33.063  1.00  0.00     0.134 A 
ATOM     55  C   UNL A   1      47.051  28.959  31.184  1.00  0.00     0.134 A 
ATOM     56  F   UNL A   1      45.016  27.608  33.873  1.00  0.00    -0.206 F 
ATOM     57  C   UNL A   1      47.286  27.274  33.378  1.00  0.00     0.040 A 
ATOM     58  C   UNL A   1      48.276  28.354  31.469  1.00  0.00     0.040 A 
ATOM     59  F   UNL A   1      46.990  29.782  30.126  1.00  0.00    -0.206 F 
ATOM     60  C   UNL A   1      48.398  27.518  32.577  1.00  0.00     0.006 A 
ENDBRANCH  39  53
BRANCH  40  61
ATOM     61  C   UNL A   1      36.909  32.635  29.941  1.00  0.00     0.057 A 
ATOM     62  C   UNL A   1      36.636  33.486  28.865  1.00  0.00     0.134 A 
ATOM     63  C   UNL A   1      35.833  32.253  30.752  1.00  0.00     0.134 A 
ATOM     64  F   UNL A   1      37.628  33.899  28.063  1.00  0.00    -0.206 F 
ATOM     65  C   UNL A   1      35.342  33.940  28.603  1.00  0.00     0.040 A 
ATOM     66  C   UNL A   1      34.531  32.679  30.488  1.00  0.00     0.040 A 
ATOM     67  F   UNL A   1      36.029  31.431  31.794  1.00  0.00    -0.206 F 
ATOM     68  C   UNL A   1      34.283  33.527  29.411  1.00  0.00     0.006 A 
ENDBRANCH  40  61
BRANCH  52  69
ATOM     69  C   UNL A   1      42.309  34.687  33.881  1.00  0.00     0.057 A 
ATOM     70  C   UNL A   1      42.072  34.687  35.260  1.00  0.00     0.134 A 
ATOM     71  C   UNL A   1      42.861  35.846  33.319  1.00  0.00     0.134 A 
ATOM     72  F   UNL A   1      41.535  33.611  35.858  1.00  0.00    -0.206 F 
ATOM     73  C   UNL A   1      42.362  35.801  36.048  1.00  0.00     0.040 A 
ATOM     74  C   UNL A   1      43.183  36.955  34.101  1.00  0.00     0.040 A 
ATOM     75  F   UNL A   1      43.125  35.908  32.005  1.00  0.00    -0.206 F 
ATOM     76  C   UNL A   1      42.930  36.935  35.470  1.00  0.00     0.006 A 
ENDBRANCH  52  69
ENDBRANCH  26  27
ENDBRANCH  19  21
ENDBRANCH  18  19
ENDBRANCH  17  18
ENDBRANCH  16  17
ENDBRANCH  15  16
ENDBRANCH   1  15
TORSDOF 17
ENDMDL
MODEL 3
REMARK VINA RESULT:      -8.6      3.669      5.909
REMARK SMILES O=C(COC[C@@H]1CCCCO1)OCCOCCOC(=O)c1ccc(-c2c3nc(c(-c4c(F)cccc4F)c4ccc([nH]4)c(-c4c(F)cccc4F)c4nc(c(-c5c(F)cccc5F)c5ccc2[nH]5)C=C4)C=C3)cc1
REMARK SMILES IDX 14 1 13 2 12 3 2 4 1 5 3 6 4 7 5 8 6 9 7 10 11 11 8 12 10 13
REMARK SMILES IDX 9 14 15 15 16 16 17 17 18 18 19 19 20 20 21 21 22 22 74 23
REMARK SMILES IDX 23 24 73 25 24 26 25 27 26 28 67 29 27 30 72 31 66 32 68 33
REMARK SMILES IDX 28 34 71 35 65 36 64 37 29 39 55 40 38 41 54 42 39 43 42 44
REMARK SMILES IDX 53 45 69 46 40 47 41 48 52 50 70 51 43 52 30 53 31 54 36 55
REMARK SMILES IDX 32 56 33 57 35 58 37 59 34 60 56 61 57 62 62 63 58 64 59 65
REMARK SMILES IDX 61 66 63 67 60 68 44 69 45 70 50 71 46 72 47 73 49 74 51 75
REMARK SMILES IDX 48 76
REMARK H PARENT 68 38 42 49
REMARK Flexibility Score: inf
ROOT
ATOM      1  C   UNL A   1      40.043  20.814  26.236  1.00  0.00     0.202 C 
ENDROOT
BRANCH   1   2
ATOM      2  C   UNL A   1      38.722  20.484  25.547  1.00  0.00     0.261 C 
BRANCH   2   3
ATOM      3  O   UNL A   1      37.758  21.533  25.752  1.00  0.00    -0.462 OA
BRANCH   3   4
ATOM      4  C   UNL A   1      36.855  21.871  24.802  1.00  0.00     0.332 C 
ATOM      5  O   UNL A   1      37.179  22.578  23.849  1.00  0.00    -0.250 OA
BRANCH   4   6
ATOM      6  C   UNL A   1      35.442  21.329  24.948  1.00  0.00     0.282 C 
BRANCH   6   7
ATOM      7  O   UNL A   1      35.327  19.926  24.794  1.00  0.00    -0.367 OA
BRANCH   7   8
ATOM      8  C   UNL A   1      34.004  19.445  25.004  1.00  0.00     0.193 C 
BRANCH   8   9
ATOM      9  C   UNL A   1      33.604  18.366  23.981  1.00  0.00     0.144 C 
ATOM     10  C   UNL A   1      32.261  17.703  24.312  1.00  0.00     0.034 C 
ATOM     11  O   UNL A   1      34.628  17.384  23.812  1.00  0.00    -0.376 OA
ATOM     12  C   UNL A   1      32.386  16.838  25.556  1.00  0.00     0.005 C 
ATOM     13  C   UNL A   1      34.824  16.543  24.947  1.00  0.00     0.160 C 
ATOM     14  C   UNL A   1      33.534  15.854  25.380  1.00  0.00     0.029 C 
ENDBRANCH   8   9
ENDBRANCH   7   8
ENDBRANCH   6   7
ENDBRANCH   4   6
ENDBRANCH   3   4
ENDBRANCH   2   3
ENDBRANCH   1   2
BRANCH   1  15
ATOM     15  O   UNL A   1      41.007  19.760  26.293  1.00  0.00    -0.374 OA
BRANCH  15  16
ATOM     16  C   UNL A   1      42.302  20.044  25.752  1.00  0.00     0.202 C 
BRANCH  16  17
ATOM     17  C   UNL A   1      42.928  21.374  26.171  1.00  0.00     0.261 C 
BRANCH  17  18
ATOM     18  O   UNL A   1      42.387  22.452  25.399  1.00  0.00    -0.460 OA
BRANCH  18  19
ATOM     19  C   UNL A   1      43.191  23.534  25.285  1.00  0.00     0.338 C 
ATOM     20  O   UNL A   1      44.128  23.689  24.520  1.00  0.00    -0.246 OA
BRANCH  19  21
ATOM     21  C   UNL A   1      42.605  24.622  26.089  1.00  0.00     0.060 A 
ATOM     22  C   UNL A   1      43.107  25.922  25.909  1.00  0.00     0.016 A 
ATOM     23  C   UNL A   1      41.563  24.372  26.982  1.00  0.00     0.016 A 
ATOM     24  C   UNL A   1      42.608  26.970  26.672  1.00  0.00     0.010 A 
ATOM     25  C   UNL A   1      41.074  25.417  27.755  1.00  0.00     0.010 A 
ATOM     26  C   UNL A   1      41.631  26.703  27.635  1.00  0.00    -0.014 A 
BRANCH  26  27
ATOM     27  C   UNL A   1      41.344  27.679  28.701  1.00  0.00     0.031 A 
ATOM     28  C   UNL A   1      42.129  27.560  29.972  1.00  0.00     0.074 A 
ATOM     29  C   UNL A   1      40.358  28.578  28.568  1.00  0.00     0.049 A 
ATOM     30  N   UNL A   1      41.930  28.126  31.130  1.00  0.00    -0.248 NA
ATOM     31  C   UNL A   1      43.283  26.645  29.934  1.00  0.00     0.031 C 
ATOM     32  C   UNL A   1      39.563  28.789  27.362  1.00  0.00     0.029 A 
ATOM     33  N   UNL A   1      39.833  29.449  29.485  1.00  0.00    -0.354 N 
ATOM     34  C   UNL A   1      42.909  27.610  31.970  1.00  0.00     0.074 A 
ATOM     35  C   UNL A   1      43.683  26.666  31.195  1.00  0.00     0.031 C 
ATOM     36  C   UNL A   1      38.615  29.702  27.626  1.00  0.00     0.029 A 
ATOM     37  C   UNL A   1      38.714  30.098  29.030  1.00  0.00     0.049 A 
ATOM     38  H   UNL A   1      40.219  29.595  30.379  1.00  0.00     0.167 HD
ATOM     39  C   UNL A   1      43.132  27.896  33.272  1.00  0.00     0.037 A 
ATOM     40  C   UNL A   1      37.843  30.882  29.694  1.00  0.00     0.037 A 
ATOM     41  C   UNL A   1      42.339  28.831  34.021  1.00  0.00     0.049 A 
ATOM     42  C   UNL A   1      38.075  31.156  31.155  1.00  0.00     0.074 A 
ATOM     43  C   UNL A   1      42.490  29.236  35.333  1.00  0.00     0.029 A 
ATOM     44  N   UNL A   1      41.228  29.498  33.519  1.00  0.00    -0.354 N 
ATOM     45  N   UNL A   1      39.019  30.694  31.942  1.00  0.00    -0.248 NA
ATOM     46  C   UNL A   1      37.129  32.060  31.818  1.00  0.00     0.031 C 
ATOM     47  C   UNL A   1      41.434  30.099  35.645  1.00  0.00     0.029 A 
ATOM     48  C   UNL A   1      40.665  30.289  34.504  1.00  0.00     0.049 A 
ATOM     49  H   UNL A   1      40.891  29.419  32.597  1.00  0.00     0.167 HD
ATOM     50  C   UNL A   1      38.800  31.276  33.185  1.00  0.00     0.074 A 
ATOM     51  C   UNL A   1      37.632  32.124  33.044  1.00  0.00     0.031 C 
ATOM     52  C   UNL A   1      39.506  31.131  34.335  1.00  0.00     0.037 A 
BRANCH  39  53
ATOM     53  C   UNL A   1      44.236  27.146  33.960  1.00  0.00     0.057 A 
ATOM     54  C   UNL A   1      44.008  25.959  34.671  1.00  0.00     0.134 A 
ATOM     55  C   UNL A   1      45.549  27.636  33.933  1.00  0.00     0.134 A 
ATOM     56  F   UNL A   1      42.772  25.443  34.755  1.00  0.00    -0.206 F 
ATOM     57  C   UNL A   1      45.034  25.313  35.365  1.00  0.00     0.040 A 
ATOM     58  C   UNL A   1      46.589  26.980  34.593  1.00  0.00     0.040 A 
ATOM     59  F   UNL A   1      45.841  28.765  33.272  1.00  0.00    -0.206 F 
ATOM     60  C   UNL A   1      46.330  25.821  35.323  1.00  0.00     0.006 A 
ENDBRANCH  39  53
BRANCH  40  61
ATOM     61  C   UNL A   1      36.674  31.439  28.971  1.00  0.00     0.057 A 
ATOM     62  C   UNL A   1      35.557  30.647  28.689  1.00  0.00     0.134 A 
ATOM     63  C   UNL A   1      36.623  32.786  28.593  1.00  0.00     0.134 A 
ATOM     64  F   UNL A   1      35.553  29.346  29.013  1.00  0.00    -0.206 F 
ATOM     65  C   UNL A   1      34.429  31.174  28.056  1.00  0.00     0.040 A 
ATOM     66  C   UNL A   1      35.494  33.333  27.982  1.00  0.00     0.040 A 
ATOM     67  F   UNL A   1      37.660  33.599  28.845  1.00  0.00    -0.206 F 
ATOM     68  C   UNL A   1      34.393  32.524  27.710  1.00  0.00     0.006 A 
ENDBRANCH  40  61
BRANCH  52  69
ATOM     69  C   UNL A   1      39.074  31.945  35.520  1.00  0.00     0.057 A 
ATOM     70  C   UNL A   1      38.268  31.415  36.535  1.00  0.00     0.134 A 
ATOM     71  C   UNL A   1      39.541  33.256  35.681  1.00  0.00     0.134 A 
ATOM     72  F   UNL A   1      37.780  30.169  36.436  1.00  0.00    -0.206 F 
ATOM     73  C   UNL A   1      37.932  32.166  37.662  1.00  0.00     0.040 A 
ATOM     74  C   UNL A   1      39.236  34.006  36.817  1.00  0.00     0.040 A 
ATOM     75  F   UNL A   1      40.327  33.819  34.750  1.00  0.00    -0.206 F 
ATOM     76  C   UNL A   1      38.426  33.462  37.810  1.00  0.00     0.006 A 
ENDBRANCH  52  69
ENDBRANCH  26  27
ENDBRANCH  19  21
ENDBRANCH  18  19
ENDBRANCH  17  18
ENDBRANCH  16  17
ENDBRANCH  15  16
ENDBRANCH   1  15
TORSDOF 17
ENDMDL
