MODEL 1
REMARK VINA RESULT:     -11.3      0.000      0.000
REMARK SMILES O=C(CNc1ccccc1C(=O)N1CCCC1)OCCOCCOC(=O)c1ccc(-c2c3nc(c(-c4c(F)cccc4F)c4ccc([nH]4)c(-c4c(F)cccc4F)c4nc(c(-c5c(F)cccc5F)c5ccc2[nH]5)C=C4)C=C3)cc1
REMARK SMILES IDX 20 1 19 2 18 3 2 4 1 5 3 6 4 7 5 9 6 10 10 11 7 12 9 13 8 14
REMARK SMILES IDX 11 15 12 16 13 17 14 18 17 19 15 20 16 21 21 22 22 23 23 24
REMARK SMILES IDX 24 25 25 26 26 27 27 28 28 29 80 30 29 31 79 32 30 33 31 34
REMARK SMILES IDX 32 35 73 36 33 37 78 38 72 39 74 40 34 41 77 42 71 43 70 44
REMARK SMILES IDX 35 46 61 47 44 48 60 49 45 50 48 51 59 52 75 53 46 54 47 55
REMARK SMILES IDX 58 57 76 58 49 59 36 60 37 61 42 62 38 63 39 64 41 65 43 66
REMARK SMILES IDX 40 67 62 68 63 69 68 70 64 71 65 72 67 73 69 74 66 75 50 76
REMARK SMILES IDX 51 77 56 78 52 79 53 80 55 81 57 82 54 83
REMARK H PARENT 4 8 74 45 48 56
REMARK Flexibility Score: inf
ROOT
ATOM      1  C   UNL A   1      41.235  21.069  26.390  1.00  0.00     0.202 C 
ENDROOT
BRANCH   1   2
ATOM      2  C   UNL A   1      39.894  21.774  26.551  1.00  0.00     0.261 C 
BRANCH   2   3
ATOM      3  O   UNL A   1      38.935  21.342  25.571  1.00  0.00    -0.462 OA
BRANCH   3   4
ATOM      4  C   UNL A   1      37.728  21.935  25.421  1.00  0.00     0.325 C 
ATOM      5  O   UNL A   1      37.635  23.161  25.490  1.00  0.00    -0.250 OA
BRANCH   4   6
ATOM      6  C   UNL A   1      36.494  21.066  25.232  1.00  0.00     0.236 C 
BRANCH   6   7
ATOM      7  N   UNL A   1      35.390  21.732  24.558  1.00  0.00    -0.374 N 
ATOM      8  H   UNL A   1      35.518  22.042  23.632  1.00  0.00     0.161 HD
BRANCH   7   9
ATOM      9  C   UNL A   1      34.158  21.946  25.173  1.00  0.00     0.047 A 
ATOM     10  C   UNL A   1      34.145  23.072  26.042  1.00  0.00     0.026 A 
ATOM     11  C   UNL A   1      32.919  21.310  24.910  1.00  0.00     0.063 A 
ATOM     12  C   UNL A   1      32.974  23.599  26.588  1.00  0.00     0.002 A 
ATOM     13  C   UNL A   1      31.750  21.841  25.520  1.00  0.00     0.016 A 
ATOM     14  C   UNL A   1      31.768  22.979  26.327  1.00  0.00     0.001 A 
BRANCH  11  15
ATOM     15  C   UNL A   1      32.594  20.215  23.926  1.00  0.00     0.255 C 
ATOM     16  O   UNL A   1      32.119  20.569  22.838  1.00  0.00    -0.269 OA
ATOM     17  N   UNL A   1      32.815  18.864  24.133  1.00  0.00    -0.339 N 
ATOM     18  C   UNL A   1      32.845  18.085  25.355  1.00  0.00     0.120 C 
ATOM     19  C   UNL A   1      32.757  17.966  22.998  1.00  0.00     0.120 C 
ATOM     20  C   UNL A   1      33.513  16.765  24.950  1.00  0.00     0.023 C 
ATOM     21  C   UNL A   1      33.626  16.800  23.423  1.00  0.00     0.023 C 
ENDBRANCH  11  15
ENDBRANCH   7   9
ENDBRANCH   6   7
ENDBRANCH   4   6
ENDBRANCH   3   4
ENDBRANCH   2   3
ENDBRANCH   1   2
BRANCH   1  22
ATOM     22  O   UNL A   1      42.078  21.669  25.411  1.00  0.00    -0.374 OA
BRANCH  22  23
ATOM     23  C   UNL A   1      43.482  21.458  25.590  1.00  0.00     0.202 C 
BRANCH  23  24
ATOM     24  C   UNL A   1      44.308  22.362  24.678  1.00  0.00     0.261 C 
BRANCH  24  25
ATOM     25  O   UNL A   1      43.689  23.653  24.656  1.00  0.00    -0.460 OA
BRANCH  25  26
ATOM     26  C   UNL A   1      44.460  24.661  25.118  1.00  0.00     0.338 C 
ATOM     27  O   UNL A   1      45.547  25.020  24.698  1.00  0.00    -0.246 OA
BRANCH  26  28
ATOM     28  C   UNL A   1      43.651  25.437  26.080  1.00  0.00     0.060 A 
ATOM     29  C   UNL A   1      44.038  26.761  26.322  1.00  0.00     0.016 A 
ATOM     30  C   UNL A   1      42.484  24.919  26.656  1.00  0.00     0.016 A 
ATOM     31  C   UNL A   1      43.286  27.555  27.177  1.00  0.00     0.010 A 
ATOM     32  C   UNL A   1      41.732  25.712  27.518  1.00  0.00     0.010 A 
ATOM     33  C   UNL A   1      42.161  27.015  27.812  1.00  0.00    -0.014 A 
BRANCH  33  34
ATOM     34  C   UNL A   1      41.601  27.736  28.971  1.00  0.00     0.031 A 
ATOM     35  C   UNL A   1      42.319  27.593  30.283  1.00  0.00     0.074 A 
ATOM     36  C   UNL A   1      40.540  28.546  28.835  1.00  0.00     0.049 A 
ATOM     37  N   UNL A   1      42.079  28.173  31.427  1.00  0.00    -0.248 NA
ATOM     38  C   UNL A   1      43.470  26.672  30.303  1.00  0.00     0.031 C 
ATOM     39  C   UNL A   1      39.792  28.762  27.597  1.00  0.00     0.029 A 
ATOM     40  N   UNL A   1      39.916  29.346  29.754  1.00  0.00    -0.354 N 
ATOM     41  C   UNL A   1      43.059  27.704  32.293  1.00  0.00     0.074 A 
ATOM     42  C   UNL A   1      43.862  26.752  31.563  1.00  0.00     0.031 C 
ATOM     43  C   UNL A   1      38.800  29.638  27.837  1.00  0.00     0.029 A 
ATOM     44  C   UNL A   1      38.841  30.031  29.244  1.00  0.00     0.049 A 
ATOM     45  H   UNL A   1      40.208  29.422  30.690  1.00  0.00     0.167 HD
ATOM     46  C   UNL A   1      43.281  28.057  33.580  1.00  0.00     0.037 A 
ATOM     47  C   UNL A   1      37.990  30.874  29.858  1.00  0.00     0.037 A 
ATOM     48  C   UNL A   1      42.458  28.987  34.301  1.00  0.00     0.049 A 
ATOM     49  C   UNL A   1      38.224  31.206  31.309  1.00  0.00     0.074 A 
ATOM     50  C   UNL A   1      42.569  29.402  35.615  1.00  0.00     0.029 A 
ATOM     51  N   UNL A   1      41.362  29.644  33.761  1.00  0.00    -0.354 N 
ATOM     52  N   UNL A   1      39.167  30.776  32.116  1.00  0.00    -0.248 NA
ATOM     53  C   UNL A   1      37.286  32.150  31.931  1.00  0.00     0.031 C 
ATOM     54  C   UNL A   1      41.514  30.282  35.881  1.00  0.00     0.029 A 
ATOM     55  C   UNL A   1      40.777  30.453  34.719  1.00  0.00     0.049 A 
ATOM     56  H   UNL A   1      41.047  29.548  32.834  1.00  0.00     0.167 HD
ATOM     57  C   UNL A   1      38.949  31.412  33.331  1.00  0.00     0.074 A 
ATOM     58  C   UNL A   1      37.800  32.276  33.145  1.00  0.00     0.031 C 
ATOM     59  C   UNL A   1      39.629  31.296  34.499  1.00  0.00     0.037 A 
BRANCH  46  60
ATOM     60  C   UNL A   1      44.447  27.415  34.274  1.00  0.00     0.057 A 
ATOM     61  C   UNL A   1      45.728  27.984  34.240  1.00  0.00     0.134 A 
ATOM     62  C   UNL A   1      44.291  26.217  34.978  1.00  0.00     0.134 A 
ATOM     63  F   UNL A   1      45.950  29.119  33.559  1.00  0.00    -0.206 F 
ATOM     64  C   UNL A   1      46.815  27.374  34.867  1.00  0.00     0.040 A 
ATOM     65  C   UNL A   1      45.365  25.609  35.631  1.00  0.00     0.040 A 
ATOM     66  F   UNL A   1      43.093  25.614  35.043  1.00  0.00    -0.206 F 
ATOM     67  C   UNL A   1      46.633  26.185  35.571  1.00  0.00     0.006 A 
ENDBRANCH  46  60
BRANCH  47  68
ATOM     68  C   UNL A   1      36.846  31.458  29.112  1.00  0.00     0.057 A 
ATOM     69  C   UNL A   1      36.864  32.781  28.657  1.00  0.00     0.134 A 
ATOM     70  C   UNL A   1      35.693  30.706  28.855  1.00  0.00     0.134 A 
ATOM     71  F   UNL A   1      37.931  33.559  28.887  1.00  0.00    -0.206 F 
ATOM     72  C   UNL A   1      35.770  33.342  27.995  1.00  0.00     0.040 A 
ATOM     73  C   UNL A   1      34.602  31.245  28.171  1.00  0.00     0.040 A 
ATOM     74  F   UNL A   1      35.612  29.430  29.260  1.00  0.00    -0.206 F 
ATOM     75  C   UNL A   1      34.636  32.572  27.747  1.00  0.00     0.006 A 
ENDBRANCH  47  68
BRANCH  59  76
ATOM     76  C   UNL A   1      39.155  32.139  35.646  1.00  0.00     0.057 A 
ATOM     77  C   UNL A   1      38.304  31.630  36.634  1.00  0.00     0.134 A 
ATOM     78  C   UNL A   1      39.574  33.471  35.772  1.00  0.00     0.134 A 
ATOM     79  F   UNL A   1      37.861  30.365  36.565  1.00  0.00    -0.206 F 
ATOM     80  C   UNL A   1      37.856  32.426  37.689  1.00  0.00     0.040 A 
ATOM     81  C   UNL A   1      39.157  34.267  36.838  1.00  0.00     0.040 A 
ATOM     82  F   UNL A   1      40.400  34.014  34.867  1.00  0.00    -0.206 F 
ATOM     83  C   UNL A   1      38.286  33.748  37.795  1.00  0.00     0.006 A 
ENDBRANCH  59  76
ENDBRANCH  33  34
ENDBRANCH  26  28
ENDBRANCH  25  26
ENDBRANCH  24  25
ENDBRANCH  23  24
ENDBRANCH  22  23
ENDBRANCH   1  22
TORSDOF 17
ENDMDL
MODEL 2
REMARK VINA RESULT:     -10.9      1.115      2.512
REMARK SMILES O=C(CNc1ccccc1C(=O)N1CCCC1)OCCOCCOC(=O)c1ccc(-c2c3nc(c(-c4c(F)cccc4F)c4ccc([nH]4)c(-c4c(F)cccc4F)c4nc(c(-c5c(F)cccc5F)c5ccc2[nH]5)C=C4)C=C3)cc1
REMARK SMILES IDX 20 1 19 2 18 3 2 4 1 5 3 6 4 7 5 9 6 10 10 11 7 12 9 13 8 14
REMARK SMILES IDX 11 15 12 16 13 17 14 18 17 19 15 20 16 21 21 22 22 23 23 24
REMARK SMILES IDX 24 25 25 26 26 27 27 28 28 29 80 30 29 31 79 32 30 33 31 34
REMARK SMILES IDX 32 35 73 36 33 37 78 38 72 39 74 40 34 41 77 42 71 43 70 44
REMARK SMILES IDX 35 46 61 47 44 48 60 49 45 50 48 51 59 52 75 53 46 54 47 55
REMARK SMILES IDX 58 57 76 58 49 59 36 60 37 61 42 62 38 63 39 64 41 65 43 66
REMARK SMILES IDX 40 67 62 68 63 69 68 70 64 71 65 72 67 73 69 74 66 75 50 76
REMARK SMILES IDX 51 77 56 78 52 79 53 80 55 81 57 82 54 83
REMARK H PARENT 4 8 74 45 48 56
REMARK Flexibility Score: inf
ROOT
ATOM      1  C   UNL A   1      41.560  21.393  26.588  1.00  0.00     0.202 C 
ENDROOT
BRANCH   1   2
ATOM      2  C   UNL A   1      40.087  21.381  26.200  1.00  0.00     0.261 C 
BRANCH   2   3
ATOM      3  O   UNL A   1      39.444  22.635  26.484  1.00  0.00    -0.462 OA
BRANCH   3   4
ATOM      4  C   UNL A   1      38.177  22.909  26.097  1.00  0.00     0.325 C 
ATOM      5  O   UNL A   1      37.755  24.065  26.154  1.00  0.00    -0.250 OA
BRANCH   4   6
ATOM      6  C   UNL A   1      37.273  21.768  25.657  1.00  0.00     0.236 C 
BRANCH   6   7
ATOM      7  N   UNL A   1      35.882  21.916  26.057  1.00  0.00    -0.374 N 
ATOM      8  H   UNL A   1      35.682  22.218  26.973  1.00  0.00     0.161 HD
BRANCH   7   9
ATOM      9  C   UNL A   1      34.822  21.645  25.194  1.00  0.00     0.047 A 
ATOM     10  C   UNL A   1      34.581  20.256  25.009  1.00  0.00     0.026 A 
ATOM     11  C   UNL A   1      33.881  22.551  24.643  1.00  0.00     0.063 A 
ATOM     12  C   UNL A   1      33.445  19.759  24.367  1.00  0.00     0.002 A 
ATOM     13  C   UNL A   1      32.760  22.014  23.953  1.00  0.00     0.016 A 
ATOM     14  C   UNL A   1      32.529  20.644  23.834  1.00  0.00     0.001 A 
BRANCH  11  15
ATOM     15  C   UNL A   1      33.781  24.046  24.808  1.00  0.00     0.255 C 
ATOM     16  O   UNL A   1      34.752  24.713  24.426  1.00  0.00    -0.269 OA
ATOM     17  N   UNL A   1      32.686  24.721  25.319  1.00  0.00    -0.339 N 
ATOM     18  C   UNL A   1      31.680  24.308  26.277  1.00  0.00     0.120 C 
ATOM     19  C   UNL A   1      32.598  26.154  25.126  1.00  0.00     0.120 C 
ATOM     20  C   UNL A   1      30.555  25.339  26.118  1.00  0.00     0.023 C 
ATOM     21  C   UNL A   1      31.111  26.433  25.200  1.00  0.00     0.023 C 
ENDBRANCH  11  15
ENDBRANCH   7   9
ENDBRANCH   6   7
ENDBRANCH   4   6
ENDBRANCH   3   4
ENDBRANCH   2   3
ENDBRANCH   1   2
BRANCH   1  22
ATOM     22  O   UNL A   1      42.434  21.077  25.508  1.00  0.00    -0.374 OA
BRANCH  22  23
ATOM     23  C   UNL A   1      43.804  21.448  25.691  1.00  0.00     0.202 C 
BRANCH  23  24
ATOM     24  C   UNL A   1      44.301  22.347  24.562  1.00  0.00     0.261 C 
BRANCH  24  25
ATOM     25  O   UNL A   1      43.614  23.600  24.660  1.00  0.00    -0.460 OA
BRANCH  25  26
ATOM     26  C   UNL A   1      44.376  24.633  25.082  1.00  0.00     0.338 C 
ATOM     27  O   UNL A   1      45.443  25.006  24.626  1.00  0.00    -0.246 OA
BRANCH  26  28
ATOM     28  C   UNL A   1      43.575  25.411  26.049  1.00  0.00     0.060 A 
ATOM     29  C   UNL A   1      43.956  26.740  26.276  1.00  0.00     0.016 A 
ATOM     30  C   UNL A   1      42.420  24.890  26.645  1.00  0.00     0.016 A 
ATOM     31  C   UNL A   1      43.211  27.535  27.135  1.00  0.00     0.010 A 
ATOM     32  C   UNL A   1      41.675  25.684  27.512  1.00  0.00     0.010 A 
ATOM     33  C   UNL A   1      42.099  26.993  27.790  1.00  0.00    -0.014 A 
BRANCH  33  34
ATOM     34  C   UNL A   1      41.550  27.719  28.951  1.00  0.00     0.031 A 
ATOM     35  C   UNL A   1      42.266  27.561  30.263  1.00  0.00     0.074 A 
ATOM     36  C   UNL A   1      40.503  28.547  28.817  1.00  0.00     0.049 A 
ATOM     37  N   UNL A   1      42.034  28.140  31.409  1.00  0.00    -0.248 NA
ATOM     38  C   UNL A   1      43.402  26.621  30.280  1.00  0.00     0.031 C 
ATOM     39  C   UNL A   1      39.758  28.778  27.580  1.00  0.00     0.029 A 
ATOM     40  N   UNL A   1      39.891  29.354  29.739  1.00  0.00    -0.354 N 
ATOM     41  C   UNL A   1      43.007  27.653  32.273  1.00  0.00     0.074 A 
ATOM     42  C   UNL A   1      43.795  26.691  31.541  1.00  0.00     0.031 C 
ATOM     43  C   UNL A   1      38.781  29.669  27.823  1.00  0.00     0.029 A 
ATOM     44  C   UNL A   1      38.827  30.057  29.231  1.00  0.00     0.049 A 
ATOM     45  H   UNL A   1      40.185  29.422  30.675  1.00  0.00     0.167 HD
ATOM     46  C   UNL A   1      43.234  27.998  33.561  1.00  0.00     0.037 A 
ATOM     47  C   UNL A   1      37.990  30.912  29.847  1.00  0.00     0.037 A 
ATOM     48  C   UNL A   1      42.426  28.939  34.286  1.00  0.00     0.049 A 
ATOM     49  C   UNL A   1      38.229  31.235  31.300  1.00  0.00     0.074 A 
ATOM     50  C   UNL A   1      42.544  29.348  35.601  1.00  0.00     0.029 A 
ATOM     51  N   UNL A   1      41.341  29.615  33.747  1.00  0.00    -0.354 N 
ATOM     52  N   UNL A   1      39.165  30.788  32.105  1.00  0.00    -0.248 NA
ATOM     53  C   UNL A   1      37.307  32.192  31.925  1.00  0.00     0.031 C 
ATOM     54  C   UNL A   1      41.503  30.244  35.869  1.00  0.00     0.029 A 
ATOM     55  C   UNL A   1      40.769  30.430  34.708  1.00  0.00     0.049 A 
ATOM     56  H   UNL A   1      41.025  29.527  32.819  1.00  0.00     0.167 HD
ATOM     57  C   UNL A   1      38.957  31.423  33.323  1.00  0.00     0.074 A 
ATOM     58  C   UNL A   1      37.822  32.306  33.139  1.00  0.00     0.031 C 
ATOM     59  C   UNL A   1      39.635  31.292  34.490  1.00  0.00     0.037 A 
BRANCH  46  60
ATOM     60  C   UNL A   1      44.389  27.335  34.253  1.00  0.00     0.057 A 
ATOM     61  C   UNL A   1      45.667  27.912  34.269  1.00  0.00     0.134 A 
ATOM     62  C   UNL A   1      44.227  26.109  34.906  1.00  0.00     0.134 A 
ATOM     63  F   UNL A   1      45.896  29.074  33.638  1.00  0.00    -0.206 F 
ATOM     64  C   UNL A   1      46.745  27.283  34.893  1.00  0.00     0.040 A 
ATOM     65  C   UNL A   1      45.291  25.481  35.556  1.00  0.00     0.040 A 
ATOM     66  F   UNL A   1      43.032  25.498  34.922  1.00  0.00    -0.206 F 
ATOM     67  C   UNL A   1      46.556  26.066  35.546  1.00  0.00     0.006 A 
ENDBRANCH  46  60
BRANCH  47  68
ATOM     68  C   UNL A   1      36.856  31.516  29.103  1.00  0.00     0.057 A 
ATOM     69  C   UNL A   1      36.891  32.843  28.660  1.00  0.00     0.134 A 
ATOM     70  C   UNL A   1      35.694  30.780  28.836  1.00  0.00     0.134 A 
ATOM     71  F   UNL A   1      37.967  33.606  28.901  1.00  0.00    -0.206 F 
ATOM     72  C   UNL A   1      35.807  33.424  28.001  1.00  0.00     0.040 A 
ATOM     73  C   UNL A   1      34.612  31.339  28.154  1.00  0.00     0.040 A 
ATOM     74  F   UNL A   1      35.597  29.502  29.229  1.00  0.00    -0.206 F 
ATOM     75  C   UNL A   1      34.664  32.670  27.742  1.00  0.00     0.006 A 
ENDBRANCH  47  68
BRANCH  59  76
ATOM     76  C   UNL A   1      39.174  32.139  35.640  1.00  0.00     0.057 A 
ATOM     77  C   UNL A   1      39.621  33.455  35.814  1.00  0.00     0.134 A 
ATOM     78  C   UNL A   1      38.257  31.635  36.572  1.00  0.00     0.134 A 
ATOM     79  F   UNL A   1      40.507  33.991  34.960  1.00  0.00    -0.206 F 
ATOM     80  C   UNL A   1      39.199  34.229  36.896  1.00  0.00     0.040 A 
ATOM     81  C   UNL A   1      37.805  32.411  37.640  1.00  0.00     0.040 A 
ATOM     82  F   UNL A   1      37.780  30.388  36.454  1.00  0.00    -0.206 F 
ATOM     83  C   UNL A   1      38.285  33.708  37.810  1.00  0.00     0.006 A 
ENDBRANCH  59  76
ENDBRANCH  33  34
ENDBRANCH  26  28
ENDBRANCH  25  26
ENDBRANCH  24  25
ENDBRANCH  23  24
ENDBRANCH  22  23
ENDBRANCH   1  22
TORSDOF 17
ENDMDL
MODEL 3
REMARK VINA RESULT:     -10.8      5.322     11.316
REMARK SMILES O=C(CNc1ccccc1C(=O)N1CCCC1)OCCOCCOC(=O)c1ccc(-c2c3nc(c(-c4c(F)cccc4F)c4ccc([nH]4)c(-c4c(F)cccc4F)c4nc(c(-c5c(F)cccc5F)c5ccc2[nH]5)C=C4)C=C3)cc1
REMARK SMILES IDX 20 1 19 2 18 3 2 4 1 5 3 6 4 7 5 9 6 10 10 11 7 12 9 13 8 14
REMARK SMILES IDX 11 15 12 16 13 17 14 18 17 19 15 20 16 21 21 22 22 23 23 24
REMARK SMILES IDX 24 25 25 26 26 27 27 28 28 29 80 30 29 31 79 32 30 33 31 34
REMARK SMILES IDX 32 35 73 36 33 37 78 38 72 39 74 40 34 41 77 42 71 43 70 44
REMARK SMILES IDX 35 46 61 47 44 48 60 49 45 50 48 51 59 52 75 53 46 54 47 55
REMARK SMILES IDX 58 57 76 58 49 59 36 60 37 61 42 62 38 63 39 64 41 65 43 66
REMARK SMILES IDX 40 67 62 68 63 69 68 70 64 71 65 72 67 73 69 74 66 75 50 76
REMARK SMILES IDX 51 77 56 78 52 79 53 80 55 81 57 82 54 83
REMARK H PARENT 4 8 74 45 48 56
REMARK Flexibility Score: inf
ROOT
ATOM      1  C   UNL A   1      33.063  35.603  29.879  1.00  0.00     0.202 C 
ENDROOT
BRANCH   1   2
ATOM      2  C   UNL A   1      33.015  35.806  31.387  1.00  0.00     0.261 C 
BRANCH   2   3
ATOM      3  O   UNL A   1      33.502  34.657  32.103  1.00  0.00    -0.462 OA
BRANCH   3   4
ATOM      4  C   UNL A   1      34.341  34.758  33.159  1.00  0.00     0.325 C 
ATOM      5  O   UNL A   1      34.770  35.861  33.498  1.00  0.00    -0.250 OA
BRANCH   4   6
ATOM      6  C   UNL A   1      34.790  33.492  33.873  1.00  0.00     0.236 C 
BRANCH   6   7
ATOM      7  N   UNL A   1      35.599  32.599  33.057  1.00  0.00    -0.374 N 
ATOM      8  H   UNL A   1      35.352  31.646  33.010  1.00  0.00     0.161 HD
BRANCH   7   9
ATOM      9  C   UNL A   1      36.709  33.040  32.341  1.00  0.00     0.047 A 
ATOM     10  C   UNL A   1      36.557  32.927  30.931  1.00  0.00     0.026 A 
ATOM     11  C   UNL A   1      37.853  33.726  32.822  1.00  0.00     0.063 A 
ATOM     12  C   UNL A   1      37.444  33.504  30.022  1.00  0.00     0.002 A 
ATOM     13  C   UNL A   1      38.763  34.260  31.870  1.00  0.00     0.016 A 
ATOM     14  C   UNL A   1      38.555  34.174  30.493  1.00  0.00     0.001 A 
BRANCH  11  15
ATOM     15  C   UNL A   1      38.201  34.138  34.230  1.00  0.00     0.255 C 
ATOM     16  O   UNL A   1      38.457  35.336  34.410  1.00  0.00    -0.269 OA
ATOM     17  N   UNL A   1      38.224  33.293  35.326  1.00  0.00    -0.339 N 
ATOM     18  C   UNL A   1      38.488  31.872  35.422  1.00  0.00     0.120 C 
ATOM     19  C   UNL A   1      38.260  33.874  36.653  1.00  0.00     0.120 C 
ATOM     20  C   UNL A   1      37.982  31.482  36.818  1.00  0.00     0.023 C 
ATOM     21  C   UNL A   1      37.651  32.798  37.528  1.00  0.00     0.023 C 
ENDBRANCH  11  15
ENDBRANCH   7   9
ENDBRANCH   6   7
ENDBRANCH   4   6
ENDBRANCH   3   4
ENDBRANCH   2   3
ENDBRANCH   1   2
BRANCH   1  22
ATOM     22  O   UNL A   1      33.904  34.525  29.477  1.00  0.00    -0.374 OA
BRANCH  22  23
ATOM     23  C   UNL A   1      33.450  33.775  28.347  1.00  0.00     0.202 C 
BRANCH  23  24
ATOM     24  C   UNL A   1      34.495  32.759  27.889  1.00  0.00     0.261 C 
BRANCH  24  25
ATOM     25  O   UNL A   1      34.132  31.481  28.423  1.00  0.00    -0.460 OA
BRANCH  25  26
ATOM     26  C   UNL A   1      34.639  30.422  27.755  1.00  0.00     0.338 C 
ATOM     27  O   UNL A   1      34.234  29.935  26.713  1.00  0.00    -0.246 OA
BRANCH  26  28
ATOM     28  C   UNL A   1      35.940  30.087  28.370  1.00  0.00     0.060 A 
ATOM     29  C   UNL A   1      37.094  30.405  27.642  1.00  0.00     0.016 A 
ATOM     30  C   UNL A   1      36.036  29.569  29.668  1.00  0.00     0.016 A 
ATOM     31  C   UNL A   1      38.345  30.161  28.191  1.00  0.00     0.010 A 
ATOM     32  C   UNL A   1      37.290  29.318  30.217  1.00  0.00     0.010 A 
ATOM     33  C   UNL A   1      38.443  29.573  29.458  1.00  0.00    -0.014 A 
BRANCH  33  34
ATOM     34  C   UNL A   1      39.739  28.996  29.861  1.00  0.00     0.031 A 
ATOM     35  C   UNL A   1      40.416  29.596  31.061  1.00  0.00     0.074 A 
ATOM     36  C   UNL A   1      40.248  27.929  29.228  1.00  0.00     0.049 A 
ATOM     37  N   UNL A   1      41.516  29.232  31.661  1.00  0.00    -0.248 NA
ATOM     38  C   UNL A   1      39.756  30.766  31.668  1.00  0.00     0.031 C 
ATOM     39  C   UNL A   1      39.652  27.267  28.067  1.00  0.00     0.029 A 
ATOM     40  N   UNL A   1      41.385  27.209  29.482  1.00  0.00    -0.354 N 
ATOM     41  C   UNL A   1      41.667  30.112  32.725  1.00  0.00     0.074 A 
ATOM     42  C   UNL A   1      40.582  31.061  32.659  1.00  0.00     0.031 C 
ATOM     43  C   UNL A   1      40.436  26.237  27.706  1.00  0.00     0.029 A 
ATOM     44  C   UNL A   1      41.589  26.176  28.601  1.00  0.00     0.049 A 
ATOM     45  H   UNL A   1      41.997  27.413  30.225  1.00  0.00     0.167 HD
ATOM     46  C   UNL A   1      42.618  30.112  33.687  1.00  0.00     0.037 A 
ATOM     47  C   UNL A   1      42.601  25.293  28.533  1.00  0.00     0.037 A 
ATOM     48  C   UNL A   1      43.707  29.176  33.726  1.00  0.00     0.049 A 
ATOM     49  C   UNL A   1      43.681  25.351  29.583  1.00  0.00     0.074 A 
ATOM     50  C   UNL A   1      44.745  29.093  34.636  1.00  0.00     0.029 A 
ATOM     51  N   UNL A   1      43.897  28.158  32.803  1.00  0.00    -0.354 N 
ATOM     52  N   UNL A   1      43.805  26.171  30.600  1.00  0.00    -0.248 NA
ATOM     53  C   UNL A   1      44.752  24.350  29.485  1.00  0.00     0.031 C 
ATOM     54  C   UNL A   1      45.585  28.048  34.239  1.00  0.00     0.029 A 
ATOM     55  C   UNL A   1      45.044  27.448  33.112  1.00  0.00     0.049 A 
ATOM     56  H   UNL A   1      43.303  27.969  32.041  1.00  0.00     0.167 HD
ATOM     57  C   UNL A   1      44.953  25.775  31.274  1.00  0.00     0.074 A 
ATOM     58  C   UNL A   1      45.473  24.624  30.562  1.00  0.00     0.031 C 
ATOM     59  C   UNL A   1      45.533  26.309  32.377  1.00  0.00     0.037 A 
BRANCH  46  60
ATOM     60  C   UNL A   1      42.516  31.166  34.750  1.00  0.00     0.057 A 
ATOM     61  C   UNL A   1      43.054  32.448  34.569  1.00  0.00     0.134 A 
ATOM     62  C   UNL A   1      41.880  30.898  35.967  1.00  0.00     0.134 A 
ATOM     63  F   UNL A   1      43.700  32.761  33.435  1.00  0.00    -0.206 F 
ATOM     64  C   UNL A   1      42.978  33.419  35.568  1.00  0.00     0.040 A 
ATOM     65  C   UNL A   1      41.776  31.869  36.964  1.00  0.00     0.040 A 
ATOM     66  F   UNL A   1      41.352  29.689  36.209  1.00  0.00    -0.206 F 
ATOM     67  C   UNL A   1      42.331  33.133  36.768  1.00  0.00     0.006 A 
ENDBRANCH  46  60
BRANCH  47  68
ATOM     68  C   UNL A   1      42.646  24.287  27.441  1.00  0.00     0.057 A 
ATOM     69  C   UNL A   1      43.191  24.588  26.188  1.00  0.00     0.134 A 
ATOM     70  C   UNL A   1      42.121  23.002  27.622  1.00  0.00     0.134 A 
ATOM     71  F   UNL A   1      43.693  25.807  25.945  1.00  0.00    -0.206 F 
ATOM     72  C   UNL A   1      43.192  23.657  25.148  1.00  0.00     0.040 A 
ATOM     73  C   UNL A   1      42.138  22.051  26.599  1.00  0.00     0.040 A 
ATOM     74  F   UNL A   1      41.587  22.647  28.800  1.00  0.00    -0.206 F 
ATOM     75  C   UNL A   1      42.668  22.382  25.353  1.00  0.00     0.006 A 
ENDBRANCH  47  68
BRANCH  59  76
ATOM     76  C   UNL A   1      46.775  25.637  32.883  1.00  0.00     0.057 A 
ATOM     77  C   UNL A   1      46.726  24.625  33.849  1.00  0.00     0.134 A 
ATOM     78  C   UNL A   1      48.034  25.995  32.380  1.00  0.00     0.134 A 
ATOM     79  F   UNL A   1      45.553  24.244  34.376  1.00  0.00    -0.206 F 
ATOM     80  C   UNL A   1      47.889  24.017  34.325  1.00  0.00     0.040 A 
ATOM     81  C   UNL A   1      49.199  25.373  32.826  1.00  0.00     0.040 A 
ATOM     82  F   UNL A   1      48.148  26.947  31.443  1.00  0.00    -0.206 F 
ATOM     83  C   UNL A   1      49.129  24.388  33.810  1.00  0.00     0.006 A 
ENDBRANCH  59  76
ENDBRANCH  33  34
ENDBRANCH  26  28
ENDBRANCH  25  26
ENDBRANCH  24  25
ENDBRANCH  23  24
ENDBRANCH  22  23
ENDBRANCH   1  22
TORSDOF 17
ENDMDL
