MODEL 1
REMARK VINA RESULT:     -10.6      0.000      0.000
REMARK SMILES C/C(=N/OCc1ccccc1Nc1c(Cl)cccc1Cl)C(=O)OCCOCCOC(=O)c1ccc(-c2c3nc(c(-c4c(F)cccc4F)c4ccc([nH]4)c(-c4c(F)cccc4F)c4nc(c(-c5c(F)cccc5F)c5ccc2[nH]5)C=C4)C=C3)cc1
REMARK SMILES IDX 24 1 23 2 21 3 22 4 2 5 1 6 3 7 4 8 5 9 6 10 7 11 11 12 8 13
REMARK SMILES IDX 10 14 9 15 12 16 13 18 14 19 19 20 15 21 16 22 18 23 20 24
REMARK SMILES IDX 17 25 25 26 26 27 27 28 28 29 29 30 30 31 31 32 32 33 33 34
REMARK SMILES IDX 85 35 34 36 84 37 35 38 36 39 37 40 78 41 38 42 83 43 77 44
REMARK SMILES IDX 79 45 39 46 82 47 76 48 75 49 40 51 66 52 49 53 65 54 50 55
REMARK SMILES IDX 53 56 64 57 80 58 51 59 52 60 63 62 81 63 54 64 41 65 42 66
REMARK SMILES IDX 47 67 43 68 44 69 46 70 48 71 45 72 67 73 68 74 73 75 69 76
REMARK SMILES IDX 70 77 72 78 74 79 71 80 55 81 56 82 61 83 57 84 58 85 60 86
REMARK SMILES IDX 62 87 59 88
REMARK H PARENT 12 17 79 50 53 61
REMARK Flexibility Score: inf
ROOT
ATOM      1  C   UNL A   1      31.422  27.806  24.568  1.00  0.00     0.261 C 
ENDROOT
BRANCH   1   2
ATOM      2  O   UNL A   1      32.179  26.667  24.994  1.00  0.00    -0.459 OA
BRANCH   2   3
ATOM      3  C   UNL A   1      31.581  25.828  25.863  1.00  0.00     0.355 C 
ATOM      4  O   UNL A   1      31.002  26.117  26.894  1.00  0.00    -0.245 OA
BRANCH   3   5
ATOM      5  C   UNL A   1      31.497  24.428  25.256  1.00  0.00     0.161 C 
ATOM      6  C   UNL A   1      30.655  24.310  24.015  1.00  0.00     0.079 C 
ATOM      7  N   UNL A   1      32.152  23.383  25.676  1.00  0.00    -0.084 NA
BRANCH   7   8
ATOM      8  O   UNL A   1      32.895  23.682  26.827  1.00  0.00    -0.390 OA
BRANCH   8   9
ATOM      9  C   UNL A   1      33.760  22.590  27.139  1.00  0.00     0.302 C 
BRANCH   9  10
ATOM     10  C   UNL A   1      34.875  22.519  26.124  1.00  0.00     0.016 A 
ATOM     11  C   UNL A   1      35.657  23.679  25.942  1.00  0.00     0.009 A 
ATOM     12  C   UNL A   1      35.188  21.345  25.405  1.00  0.00     0.045 A 
ATOM     13  C   UNL A   1      36.697  23.706  25.020  1.00  0.00     0.001 A 
ATOM     14  C   UNL A   1      36.190  21.425  24.424  1.00  0.00     0.026 A 
ATOM     15  C   UNL A   1      36.951  22.583  24.245  1.00  0.00     0.002 A 
BRANCH  12  16
ATOM     16  N   UNL A   1      34.467  20.148  25.610  1.00  0.00    -0.353 N 
ATOM     17  H   UNL A   1      34.294  19.915  26.551  1.00  0.00     0.167 HD
BRANCH  16  18
ATOM     18  C   UNL A   1      33.956  19.237  24.656  1.00  0.00     0.076 A 
ATOM     19  C   UNL A   1      34.663  18.051  24.372  1.00  0.00     0.066 A 
ATOM     20  C   UNL A   1      32.820  19.515  23.867  1.00  0.00     0.066 A 
ATOM     21  Cl  UNL A   1      36.145  17.675  25.186  1.00  0.00    -0.082 Cl
ATOM     22  C   UNL A   1      34.193  17.129  23.429  1.00  0.00     0.023 A 
ATOM     23  C   UNL A   1      32.344  18.588  22.931  1.00  0.00     0.023 A 
ATOM     24  Cl  UNL A   1      31.980  21.028  23.962  1.00  0.00    -0.082 Cl
ATOM     25  C   UNL A   1      33.022  17.388  22.723  1.00  0.00     0.003 A 
ENDBRANCH  16  18
ENDBRANCH  12  16
ENDBRANCH   9  10
ENDBRANCH   8   9
ENDBRANCH   7   8
ENDBRANCH   3   5
ENDBRANCH   2   3
ENDBRANCH   1   2
BRANCH   1  26
ATOM     26  C   UNL A   1      32.386  28.867  24.029  1.00  0.00     0.202 C 
BRANCH  26  27
ATOM     27  O   UNL A   1      32.986  29.722  25.004  1.00  0.00    -0.374 OA
BRANCH  27  28
ATOM     28  C   UNL A   1      32.128  30.413  25.911  1.00  0.00     0.202 C 
BRANCH  28  29
ATOM     29  C   UNL A   1      32.759  31.013  27.173  1.00  0.00     0.261 C 
BRANCH  29  30
ATOM     30  O   UNL A   1      33.841  30.228  27.697  1.00  0.00    -0.460 OA
BRANCH  30  31
ATOM     31  C   UNL A   1      34.754  30.934  28.404  1.00  0.00     0.338 C 
ATOM     32  O   UNL A   1      34.569  31.960  29.040  1.00  0.00    -0.246 OA
BRANCH  31  33
ATOM     33  C   UNL A   1      36.031  30.202  28.452  1.00  0.00     0.060 A 
ATOM     34  C   UNL A   1      36.399  29.620  29.672  1.00  0.00     0.016 A 
ATOM     35  C   UNL A   1      36.896  30.170  27.357  1.00  0.00     0.016 A 
ATOM     36  C   UNL A   1      37.658  29.042  29.816  1.00  0.00     0.010 A 
ATOM     37  C   UNL A   1      38.162  29.595  27.505  1.00  0.00     0.010 A 
ATOM     38  C   UNL A   1      38.562  29.062  28.746  1.00  0.00    -0.014 A 
BRANCH  38  39
ATOM     39  C   UNL A   1      39.970  28.655  28.970  1.00  0.00     0.031 A 
ATOM     40  C   UNL A   1      40.913  29.620  29.636  1.00  0.00     0.074 A 
ATOM     41  C   UNL A   1      40.397  27.432  28.611  1.00  0.00     0.049 A 
ATOM     42  N   UNL A   1      42.192  29.491  29.889  1.00  0.00    -0.248 NA
ATOM     43  C   UNL A   1      40.339  30.901  30.075  1.00  0.00     0.031 C 
ATOM     44  C   UNL A   1      39.571  26.395  27.995  1.00  0.00     0.029 A 
ATOM     45  N   UNL A   1      41.641  26.859  28.707  1.00  0.00    -0.354 N 
ATOM     46  C   UNL A   1      42.574  30.676  30.506  1.00  0.00     0.074 A 
ATOM     47  C   UNL A   1      41.402  31.523  30.560  1.00  0.00     0.031 C 
ATOM     48  C   UNL A   1      40.332  25.313  27.760  1.00  0.00     0.029 A 
ATOM     49  C   UNL A   1      41.705  25.595  28.173  1.00  0.00     0.049 A 
ATOM     50  H   UNL A   1      42.412  27.311  29.118  1.00  0.00     0.167 HD
ATOM     51  C   UNL A   1      43.790  31.022  30.992  1.00  0.00     0.037 A 
ATOM     52  C   UNL A   1      42.760  24.771  28.017  1.00  0.00     0.037 A 
ATOM     53  C   UNL A   1      44.953  30.174  30.939  1.00  0.00     0.049 A 
ATOM     54  C   UNL A   1      44.117  25.209  28.497  1.00  0.00     0.074 A 
ATOM     55  C   UNL A   1      46.227  30.427  31.420  1.00  0.00     0.029 A 
ATOM     56  N   UNL A   1      44.986  28.913  30.363  1.00  0.00    -0.354 N 
ATOM     57  N   UNL A   1      44.464  26.321  29.101  1.00  0.00    -0.248 NA
ATOM     58  C   UNL A   1      45.231  24.276  28.277  1.00  0.00     0.031 C 
ATOM     59  C   UNL A   1      47.043  29.342  31.088  1.00  0.00     0.029 A 
ATOM     60  C   UNL A   1      46.265  28.387  30.454  1.00  0.00     0.049 A 
ATOM     61  H   UNL A   1      44.216  28.459  29.952  1.00  0.00     0.167 HD
ATOM     62  C   UNL A   1      45.825  26.205  29.363  1.00  0.00     0.074 A 
ATOM     63  C   UNL A   1      46.237  24.910  28.863  1.00  0.00     0.031 C 
ATOM     64  C   UNL A   1      46.658  27.090  29.964  1.00  0.00     0.037 A 
BRANCH  51  65
ATOM     65  C   UNL A   1      43.931  32.385  31.603  1.00  0.00     0.057 A 
ATOM     66  C   UNL A   1      43.597  32.638  32.940  1.00  0.00     0.134 A 
ATOM     67  C   UNL A   1      44.446  33.452  30.856  1.00  0.00     0.134 A 
ATOM     68  F   UNL A   1      43.087  31.664  33.710  1.00  0.00    -0.206 F 
ATOM     69  C   UNL A   1      43.749  33.906  33.504  1.00  0.00     0.040 A 
ATOM     70  C   UNL A   1      44.628  34.717  31.415  1.00  0.00     0.040 A 
ATOM     71  F   UNL A   1      44.791  33.279  29.571  1.00  0.00    -0.206 F 
ATOM     72  C   UNL A   1      44.273  34.948  32.742  1.00  0.00     0.006 A 
ENDBRANCH  51  65
BRANCH  52  73
ATOM     73  C   UNL A   1      42.583  23.449  27.361  1.00  0.00     0.057 A 
ATOM     74  C   UNL A   1      42.227  22.315  28.099  1.00  0.00     0.134 A 
ATOM     75  C   UNL A   1      42.798  23.283  25.988  1.00  0.00     0.134 A 
ATOM     76  F   UNL A   1      42.029  22.404  29.423  1.00  0.00    -0.206 F 
ATOM     77  C   UNL A   1      42.114  21.059  27.500  1.00  0.00     0.040 A 
ATOM     78  C   UNL A   1      42.661  22.039  25.371  1.00  0.00     0.040 A 
ATOM     79  F   UNL A   1      43.140  24.331  25.224  1.00  0.00    -0.206 F 
ATOM     80  C   UNL A   1      42.328  20.920  26.130  1.00  0.00     0.006 A 
ENDBRANCH  52  73
BRANCH  64  81
ATOM     81  C   UNL A   1      48.088  26.671  30.161  1.00  0.00     0.057 A 
ATOM     82  C   UNL A   1      49.094  27.002  29.245  1.00  0.00     0.134 A 
ATOM     83  C   UNL A   1      48.468  25.961  31.308  1.00  0.00     0.134 A 
ATOM     84  F   UNL A   1      48.796  27.670  28.119  1.00  0.00    -0.206 F 
ATOM     85  C   UNL A   1      50.421  26.619  29.448  1.00  0.00     0.040 A 
ATOM     86  C   UNL A   1      49.796  25.600  31.538  1.00  0.00     0.040 A 
ATOM     87  F   UNL A   1      47.557  25.621  32.233  1.00  0.00    -0.206 F 
ATOM     88  C   UNL A   1      50.776  25.923  30.602  1.00  0.00     0.006 A 
ENDBRANCH  64  81
ENDBRANCH  38  39
ENDBRANCH  31  33
ENDBRANCH  30  31
ENDBRANCH  29  30
ENDBRANCH  28  29
ENDBRANCH  27  28
ENDBRANCH  26  27
ENDBRANCH   1  26
TORSDOF 19
ENDMDL
MODEL 2
REMARK VINA RESULT:     -10.6      3.979      8.860
REMARK SMILES C/C(=N/OCc1ccccc1Nc1c(Cl)cccc1Cl)C(=O)OCCOCCOC(=O)c1ccc(-c2c3nc(c(-c4c(F)cccc4F)c4ccc([nH]4)c(-c4c(F)cccc4F)c4nc(c(-c5c(F)cccc5F)c5ccc2[nH]5)C=C4)C=C3)cc1
REMARK SMILES IDX 24 1 23 2 21 3 22 4 2 5 1 6 3 7 4 8 5 9 6 10 7 11 11 12 8 13
REMARK SMILES IDX 10 14 9 15 12 16 13 18 14 19 19 20 15 21 16 22 18 23 20 24
REMARK SMILES IDX 17 25 25 26 26 27 27 28 28 29 29 30 30 31 31 32 32 33 33 34
REMARK SMILES IDX 85 35 34 36 84 37 35 38 36 39 37 40 78 41 38 42 83 43 77 44
REMARK SMILES IDX 79 45 39 46 82 47 76 48 75 49 40 51 66 52 49 53 65 54 50 55
REMARK SMILES IDX 53 56 64 57 80 58 51 59 52 60 63 62 81 63 54 64 41 65 42 66
REMARK SMILES IDX 47 67 43 68 44 69 46 70 48 71 45 72 67 73 68 74 73 75 69 76
REMARK SMILES IDX 70 77 72 78 74 79 71 80 55 81 56 82 61 83 57 84 58 85 60 86
REMARK SMILES IDX 62 87 59 88
REMARK H PARENT 12 17 79 50 53 61
REMARK Flexibility Score: inf
ROOT
ATOM      1  C   UNL A   1      39.501  21.855  26.289  1.00  0.00     0.261 C 
ENDROOT
BRANCH   1   2
ATOM      2  O   UNL A   1      38.211  21.575  25.732  1.00  0.00    -0.459 OA
BRANCH   2   3
ATOM      3  C   UNL A   1      37.362  22.613  25.606  1.00  0.00     0.355 C 
ATOM      4  O   UNL A   1      37.421  23.692  26.168  1.00  0.00    -0.245 OA
BRANCH   3   5
ATOM      5  C   UNL A   1      36.407  22.363  24.440  1.00  0.00     0.161 C 
ATOM      6  C   UNL A   1      36.826  22.953  23.122  1.00  0.00     0.079 C 
ATOM      7  N   UNL A   1      35.335  21.625  24.489  1.00  0.00    -0.084 NA
BRANCH   7   8
ATOM      8  O   UNL A   1      35.110  21.145  25.788  1.00  0.00    -0.390 OA
BRANCH   8   9
ATOM      9  C   UNL A   1      33.756  20.711  25.914  1.00  0.00     0.302 C 
BRANCH   9  10
ATOM     10  C   UNL A   1      33.053  20.846  24.585  1.00  0.00     0.016 A 
ATOM     11  C   UNL A   1      32.784  19.656  23.875  1.00  0.00     0.009 A 
ATOM     12  C   UNL A   1      32.618  22.083  24.066  1.00  0.00     0.045 A 
ATOM     13  C   UNL A   1      32.150  19.687  22.638  1.00  0.00     0.001 A 
ATOM     14  C   UNL A   1      32.054  22.093  22.779  1.00  0.00     0.026 A 
ATOM     15  C   UNL A   1      31.802  20.910  22.080  1.00  0.00     0.002 A 
BRANCH  12  16
ATOM     16  N   UNL A   1      32.813  23.285  24.782  1.00  0.00    -0.353 N 
ATOM     17  H   UNL A   1      33.637  23.328  25.319  1.00  0.00     0.167 HD
BRANCH  16  18
ATOM     18  C   UNL A   1      31.993  24.437  24.835  1.00  0.00     0.076 A 
ATOM     19  C   UNL A   1      30.853  24.447  25.664  1.00  0.00     0.066 A 
ATOM     20  C   UNL A   1      32.188  25.553  23.993  1.00  0.00     0.066 A 
ATOM     21  Cl  UNL A   1      30.442  23.075  26.639  1.00  0.00    -0.082 Cl
ATOM     22  C   UNL A   1      30.014  25.566  25.738  1.00  0.00     0.023 A 
ATOM     23  C   UNL A   1      31.355  26.675  24.075  1.00  0.00     0.023 A 
ATOM     24  Cl  UNL A   1      33.424  25.585  22.778  1.00  0.00    -0.082 Cl
ATOM     25  C   UNL A   1      30.277  26.689  24.958  1.00  0.00     0.003 A 
ENDBRANCH  16  18
ENDBRANCH  12  16
ENDBRANCH   9  10
ENDBRANCH   8   9
ENDBRANCH   7   8
ENDBRANCH   3   5
ENDBRANCH   2   3
ENDBRANCH   1   2
BRANCH   1  26
ATOM     26  C   UNL A   1      40.367  20.596  26.190  1.00  0.00     0.202 C 
BRANCH  26  27
ATOM     27  O   UNL A   1      41.160  20.289  27.339  1.00  0.00    -0.374 OA
BRANCH  27  28
ATOM     28  C   UNL A   1      42.547  20.623  27.307  1.00  0.00     0.202 C 
BRANCH  28  29
ATOM     29  C   UNL A   1      43.083  21.320  26.051  1.00  0.00     0.261 C 
BRANCH  29  30
ATOM     30  O   UNL A   1      43.805  22.528  26.336  1.00  0.00    -0.460 OA
BRANCH  30  31
ATOM     31  C   UNL A   1      43.480  23.575  25.540  1.00  0.00     0.338 C 
ATOM     32  O   UNL A   1      43.543  23.630  24.322  1.00  0.00    -0.246 OA
BRANCH  31  33
ATOM     33  C   UNL A   1      42.859  24.644  26.342  1.00  0.00     0.060 A 
ATOM     34  C   UNL A   1      43.631  25.781  26.614  1.00  0.00     0.016 A 
ATOM     35  C   UNL A   1      41.588  24.496  26.898  1.00  0.00     0.016 A 
ATOM     36  C   UNL A   1      43.153  26.756  27.485  1.00  0.00     0.010 A 
ATOM     37  C   UNL A   1      41.111  25.473  27.778  1.00  0.00     0.010 A 
ATOM     38  C   UNL A   1      41.907  26.589  28.103  1.00  0.00    -0.014 A 
BRANCH  38  39
ATOM     39  C   UNL A   1      41.503  27.506  29.196  1.00  0.00     0.031 A 
ATOM     40  C   UNL A   1      42.252  27.466  30.500  1.00  0.00     0.074 A 
ATOM     41  C   UNL A   1      40.500  28.384  29.020  1.00  0.00     0.049 A 
ATOM     42  N   UNL A   1      42.042  28.144  31.600  1.00  0.00    -0.248 NA
ATOM     43  C   UNL A   1      43.392  26.537  30.573  1.00  0.00     0.031 C 
ATOM     44  C   UNL A   1      39.725  28.546  27.791  1.00  0.00     0.029 A 
ATOM     45  N   UNL A   1      39.956  29.300  29.885  1.00  0.00    -0.354 N 
ATOM     46  C   UNL A   1      43.013  27.717  32.497  1.00  0.00     0.074 A 
ATOM     47  C   UNL A   1      43.793  26.699  31.825  1.00  0.00     0.031 C 
ATOM     48  C   UNL A   1      38.799  29.501  27.983  1.00  0.00     0.029 A 
ATOM     49  C   UNL A   1      38.891  29.988  29.358  1.00  0.00     0.049 A 
ATOM     50  H   UNL A   1      40.298  29.449  30.796  1.00  0.00     0.167 HD
ATOM     51  C   UNL A   1      43.242  28.141  33.763  1.00  0.00     0.037 A 
ATOM     52  C   UNL A   1      38.070  30.890  29.930  1.00  0.00     0.037 A 
ATOM     53  C   UNL A   1      42.466  29.156  34.427  1.00  0.00     0.049 A 
ATOM     54  C   UNL A   1      38.298  31.290  31.363  1.00  0.00     0.074 A 
ATOM     55  C   UNL A   1      42.628  29.668  35.703  1.00  0.00     0.029 A 
ATOM     56  N   UNL A   1      41.375  29.807  33.871  1.00  0.00    -0.354 N 
ATOM     57  N   UNL A   1      39.234  30.899  32.195  1.00  0.00    -0.248 NA
ATOM     58  C   UNL A   1      37.355  32.262  31.937  1.00  0.00     0.031 C 
ATOM     59  C   UNL A   1      41.604  30.590  35.938  1.00  0.00     0.029 A 
ATOM     60  C   UNL A   1      40.839  30.698  34.787  1.00  0.00     0.049 A 
ATOM     61  H   UNL A   1      41.033  29.660  32.960  1.00  0.00     0.167 HD
ATOM     62  C   UNL A   1      39.013  31.601  33.375  1.00  0.00     0.074 A 
ATOM     63  C   UNL A   1      37.863  32.451  33.148  1.00  0.00     0.031 C 
ATOM     64  C   UNL A   1      39.702  31.548  34.543  1.00  0.00     0.037 A 
BRANCH  51  65
ATOM     65  C   UNL A   1      44.362  27.492  34.522  1.00  0.00     0.057 A 
ATOM     66  C   UNL A   1      45.659  28.021  34.528  1.00  0.00     0.134 A 
ATOM     67  C   UNL A   1      44.131  26.344  35.290  1.00  0.00     0.134 A 
ATOM     68  F   UNL A   1      45.952  29.112  33.804  1.00  0.00    -0.206 F 
ATOM     69  C   UNL A   1      46.690  27.419  35.252  1.00  0.00     0.040 A 
ATOM     70  C   UNL A   1      45.146  25.748  36.040  1.00  0.00     0.040 A 
ATOM     71  F   UNL A   1      42.910  25.787  35.333  1.00  0.00    -0.206 F 
ATOM     72  C   UNL A   1      46.432  26.283  36.017  1.00  0.00     0.006 A 
ENDBRANCH  51  65
BRANCH  52  73
ATOM     73  C   UNL A   1      36.943  31.471  29.155  1.00  0.00     0.057 A 
ATOM     74  C   UNL A   1      36.990  32.787  28.681  1.00  0.00     0.134 A 
ATOM     75  C   UNL A   1      35.780  30.736  28.899  1.00  0.00     0.134 A 
ATOM     76  F   UNL A   1      38.068  33.551  28.914  1.00  0.00    -0.206 F 
ATOM     77  C   UNL A   1      35.913  33.358  28.002  1.00  0.00     0.040 A 
ATOM     78  C   UNL A   1      34.707  31.284  28.196  1.00  0.00     0.040 A 
ATOM     79  F   UNL A   1      35.672  29.468  29.325  1.00  0.00    -0.206 F 
ATOM     80  C   UNL A   1      34.768  32.604  27.754  1.00  0.00     0.006 A 
ENDBRANCH  52  73
BRANCH  64  81
ATOM     81  C   UNL A   1      39.263  32.467  35.647  1.00  0.00     0.057 A 
ATOM     82  C   UNL A   1      38.351  32.067  36.631  1.00  0.00     0.134 A 
ATOM     83  C   UNL A   1      39.796  33.759  35.749  1.00  0.00     0.134 A 
ATOM     84  F   UNL A   1      37.793  30.847  36.586  1.00  0.00    -0.206 F 
ATOM     85  C   UNL A   1      37.964  32.927  37.661  1.00  0.00     0.040 A 
ATOM     86  C   UNL A   1      39.441  34.617  36.791  1.00  0.00     0.040 A 
ATOM     87  F   UNL A   1      40.684  34.204  34.847  1.00  0.00    -0.206 F 
ATOM     88  C   UNL A   1      38.517  34.203  37.747  1.00  0.00     0.006 A 
ENDBRANCH  64  81
ENDBRANCH  38  39
ENDBRANCH  31  33
ENDBRANCH  30  31
ENDBRANCH  29  30
ENDBRANCH  28  29
ENDBRANCH  27  28
ENDBRANCH  26  27
ENDBRANCH   1  26
TORSDOF 19
ENDMDL
MODEL 3
REMARK VINA RESULT:     -10.5      2.479      3.600
REMARK SMILES C/C(=N/OCc1ccccc1Nc1c(Cl)cccc1Cl)C(=O)OCCOCCOC(=O)c1ccc(-c2c3nc(c(-c4c(F)cccc4F)c4ccc([nH]4)c(-c4c(F)cccc4F)c4nc(c(-c5c(F)cccc5F)c5ccc2[nH]5)C=C4)C=C3)cc1
REMARK SMILES IDX 24 1 23 2 21 3 22 4 2 5 1 6 3 7 4 8 5 9 6 10 7 11 11 12 8 13
REMARK SMILES IDX 10 14 9 15 12 16 13 18 14 19 19 20 15 21 16 22 18 23 20 24
REMARK SMILES IDX 17 25 25 26 26 27 27 28 28 29 29 30 30 31 31 32 32 33 33 34
REMARK SMILES IDX 85 35 34 36 84 37 35 38 36 39 37 40 78 41 38 42 83 43 77 44
REMARK SMILES IDX 79 45 39 46 82 47 76 48 75 49 40 51 66 52 49 53 65 54 50 55
REMARK SMILES IDX 53 56 64 57 80 58 51 59 52 60 63 62 81 63 54 64 41 65 42 66
REMARK SMILES IDX 47 67 43 68 44 69 46 70 48 71 45 72 67 73 68 74 73 75 69 76
REMARK SMILES IDX 70 77 72 78 74 79 71 80 55 81 56 82 61 83 57 84 58 85 60 86
REMARK SMILES IDX 62 87 59 88
REMARK H PARENT 12 17 79 50 53 61
REMARK Flexibility Score: inf
ROOT
ATOM      1  C   UNL A   1      31.204  26.455  25.475  1.00  0.00     0.261 C 
ENDROOT
BRANCH   1   2
ATOM      2  O   UNL A   1      32.207  26.302  24.463  1.00  0.00    -0.459 OA
BRANCH   2   3
ATOM      3  C   UNL A   1      31.889  26.719  23.222  1.00  0.00     0.355 C 
ATOM      4  O   UNL A   1      30.855  27.249  22.859  1.00  0.00    -0.245 OA
BRANCH   3   5
ATOM      5  C   UNL A   1      33.126  26.669  22.327  1.00  0.00     0.161 C 
ATOM      6  C   UNL A   1      33.904  27.952  22.226  1.00  0.00     0.079 C 
ATOM      7  N   UNL A   1      33.586  25.604  21.734  1.00  0.00    -0.084 NA
BRANCH   7   8
ATOM      8  O   UNL A   1      32.745  24.502  21.952  1.00  0.00    -0.390 OA
BRANCH   8   9
ATOM      9  C   UNL A   1      33.528  23.358  22.295  1.00  0.00     0.302 C 
BRANCH   9  10
ATOM     10  C   UNL A   1      33.087  22.825  23.636  1.00  0.00     0.016 A 
ATOM     11  C   UNL A   1      31.715  22.922  23.949  1.00  0.00     0.009 A 
ATOM     12  C   UNL A   1      33.968  22.200  24.544  1.00  0.00     0.045 A 
ATOM     13  C   UNL A   1      31.222  22.466  25.166  1.00  0.00     0.001 A 
ATOM     14  C   UNL A   1      33.458  21.822  25.798  1.00  0.00     0.026 A 
ATOM     15  C   UNL A   1      32.099  21.933  26.101  1.00  0.00     0.002 A 
BRANCH  12  16
ATOM     16  N   UNL A   1      35.335  22.028  24.235  1.00  0.00    -0.353 N 
ATOM     17  H   UNL A   1      35.522  21.534  23.404  1.00  0.00     0.167 HD
BRANCH  16  18
ATOM     18  C   UNL A   1      36.476  22.465  24.949  1.00  0.00     0.076 A 
ATOM     19  C   UNL A   1      37.504  21.551  25.255  1.00  0.00     0.066 A 
ATOM     20  C   UNL A   1      36.585  23.763  25.491  1.00  0.00     0.066 A 
ATOM     21  Cl  UNL A   1      37.407  19.894  24.755  1.00  0.00    -0.082 Cl
ATOM     22  C   UNL A   1      38.644  21.945  25.966  1.00  0.00     0.023 A 
ATOM     23  C   UNL A   1      37.731  24.160  26.194  1.00  0.00     0.023 A 
ATOM     24  Cl  UNL A   1      35.302  24.922  25.373  1.00  0.00    -0.082 Cl
ATOM     25  C   UNL A   1      38.767  23.256  26.418  1.00  0.00     0.003 A 
ENDBRANCH  16  18
ENDBRANCH  12  16
ENDBRANCH   9  10
ENDBRANCH   8   9
ENDBRANCH   7   8
ENDBRANCH   3   5
ENDBRANCH   2   3
ENDBRANCH   1   2
BRANCH   1  26
ATOM     26  C   UNL A   1      31.876  26.911  26.773  1.00  0.00     0.202 C 
BRANCH  26  27
ATOM     27  O   UNL A   1      31.523  28.217  27.237  1.00  0.00    -0.374 OA
BRANCH  27  28
ATOM     28  C   UNL A   1      31.712  29.319  26.350  1.00  0.00     0.202 C 
BRANCH  28  29
ATOM     29  C   UNL A   1      32.295  30.612  26.934  1.00  0.00     0.261 C 
BRANCH  29  30
ATOM     30  O   UNL A   1      33.719  30.713  26.783  1.00  0.00    -0.460 OA
BRANCH  30  31
ATOM     31  C   UNL A   1      34.333  31.444  27.743  1.00  0.00     0.338 C 
ATOM     32  O   UNL A   1      33.849  32.339  28.419  1.00  0.00    -0.246 OA
BRANCH  31  33
ATOM     33  C   UNL A   1      35.680  30.907  28.002  1.00  0.00     0.060 A 
ATOM     34  C   UNL A   1      35.823  29.514  28.050  1.00  0.00     0.016 A 
ATOM     35  C   UNL A   1      36.758  31.744  28.291  1.00  0.00     0.016 A 
ATOM     36  C   UNL A   1      37.037  28.952  28.434  1.00  0.00     0.010 A 
ATOM     37  C   UNL A   1      37.975  31.179  28.683  1.00  0.00     0.010 A 
ATOM     38  C   UNL A   1      38.109  29.781  28.792  1.00  0.00    -0.014 A 
BRANCH  38  39
ATOM     39  C   UNL A   1      39.317  29.188  29.415  1.00  0.00     0.031 A 
ATOM     40  C   UNL A   1      39.823  29.755  30.713  1.00  0.00     0.074 A 
ATOM     41  C   UNL A   1      39.940  28.141  28.846  1.00  0.00     0.049 A 
ATOM     42  N   UNL A   1      40.882  29.423  31.408  1.00  0.00    -0.248 NA
ATOM     43  C   UNL A   1      39.029  30.842  31.308  1.00  0.00     0.031 C 
ATOM     44  C   UNL A   1      39.523  27.478  27.612  1.00  0.00     0.029 A 
ATOM     45  N   UNL A   1      41.064  27.456  29.234  1.00  0.00    -0.354 N 
ATOM     46  C   UNL A   1      40.887  30.265  32.513  1.00  0.00     0.074 A 
ATOM     47  C   UNL A   1      39.744  31.144  32.381  1.00  0.00     0.031 C 
ATOM     48  C   UNL A   1      40.386  26.485  27.338  1.00  0.00     0.029 A 
ATOM     49  C   UNL A   1      41.435  26.468  28.355  1.00  0.00     0.049 A 
ATOM     50  H   UNL A   1      41.557  27.655  30.062  1.00  0.00     0.167 HD
ATOM     51  C   UNL A   1      41.758  30.296  33.550  1.00  0.00     0.037 A 
ATOM     52  C   UNL A   1      42.512  25.659  28.362  1.00  0.00     0.037 A 
ATOM     53  C   UNL A   1      42.891  29.417  33.679  1.00  0.00     0.049 A 
ATOM     54  C   UNL A   1      43.508  25.764  29.486  1.00  0.00     0.074 A 
ATOM     55  C   UNL A   1      43.824  29.358  34.701  1.00  0.00     0.029 A 
ATOM     56  N   UNL A   1      43.251  28.450  32.753  1.00  0.00    -0.354 N 
ATOM     57  N   UNL A   1      43.490  26.546  30.539  1.00  0.00    -0.248 NA
ATOM     58  C   UNL A   1      44.673  24.869  29.424  1.00  0.00     0.031 C 
ATOM     59  C   UNL A   1      44.778  28.392  34.367  1.00  0.00     0.029 A 
ATOM     60  C   UNL A   1      44.406  27.806  33.168  1.00  0.00     0.049 A 
ATOM     61  H   UNL A   1      42.759  28.249  31.925  1.00  0.00     0.167 HD
ATOM     62  C   UNL A   1      44.619  26.215  31.280  1.00  0.00     0.074 A 
ATOM     63  C   UNL A   1      45.292  25.152  30.562  1.00  0.00     0.031 C 
ATOM     64  C   UNL A   1      45.059  26.741  32.450  1.00  0.00     0.037 A 
BRANCH  51  65
ATOM     65  C   UNL A   1      41.534  31.329  34.615  1.00  0.00     0.057 A 
ATOM     66  C   UNL A   1      40.684  31.099  35.705  1.00  0.00     0.134 A 
ATOM     67  C   UNL A   1      42.207  32.556  34.571  1.00  0.00     0.134 A 
ATOM     68  F   UNL A   1      39.998  29.950  35.802  1.00  0.00    -0.206 F 
ATOM     69  C   UNL A   1      40.496  32.060  36.700  1.00  0.00     0.040 A 
ATOM     70  C   UNL A   1      42.049  33.514  35.574  1.00  0.00     0.040 A 
ATOM     71  F   UNL A   1      43.041  32.840  33.559  1.00  0.00    -0.206 F 
ATOM     72  C   UNL A   1      41.186  33.269  36.640  1.00  0.00     0.006 A 
ENDBRANCH  51  65
BRANCH  52  73
ATOM     73  C   UNL A   1      42.719  24.684  27.260  1.00  0.00     0.057 A 
ATOM     74  C   UNL A   1      42.269  23.363  27.364  1.00  0.00     0.134 A 
ATOM     75  C   UNL A   1      43.403  25.040  26.091  1.00  0.00     0.134 A 
ATOM     76  F   UNL A   1      41.627  22.954  28.469  1.00  0.00    -0.206 F 
ATOM     77  C   UNL A   1      42.509  22.426  26.357  1.00  0.00     0.040 A 
ATOM     78  C   UNL A   1      43.626  24.123  25.064  1.00  0.00     0.040 A 
ATOM     79  F   UNL A   1      43.859  26.291  25.928  1.00  0.00    -0.206 F 
ATOM     80  C   UNL A   1      43.187  22.807  25.201  1.00  0.00     0.006 A 
ENDBRANCH  52  73
BRANCH  64  81
ATOM     81  C   UNL A   1      46.298  26.145  33.054  1.00  0.00     0.057 A 
ATOM     82  C   UNL A   1      46.251  25.036  33.909  1.00  0.00     0.134 A 
ATOM     83  C   UNL A   1      47.561  26.664  32.741  1.00  0.00     0.134 A 
ATOM     84  F   UNL A   1      45.072  24.498  34.260  1.00  0.00    -0.206 F 
ATOM     85  C   UNL A   1      47.413  24.483  34.451  1.00  0.00     0.040 A 
ATOM     86  C   UNL A   1      48.732  26.100  33.252  1.00  0.00     0.040 A 
ATOM     87  F   UNL A   1      47.681  27.718  31.919  1.00  0.00    -0.206 F 
ATOM     88  C   UNL A   1      48.658  25.010  34.115  1.00  0.00     0.006 A 
ENDBRANCH  64  81
ENDBRANCH  38  39
ENDBRANCH  31  33
ENDBRANCH  30  31
ENDBRANCH  29  30
ENDBRANCH  28  29
ENDBRANCH  27  28
ENDBRANCH  26  27
ENDBRANCH   1  26
TORSDOF 19
ENDMDL
