MODEL 1
REMARK VINA RESULT:     -12.6      0.000      0.000
REMARK SMILES O=C(CSc1nnnn1-c1ccc(C(=O)OCCOCCOC(=O)c2ccc(-c3c4nc(c(-c5c(F)cccc5F)c5ccc([nH]5)c(-c5c(F)cccc5F)c5nc(c(-c6c(F)cccc6F)c6ccc3[nH]6)C=C5)C=C4)cc2)cc1)Nc1nc(-c2ccccc2)cs1
REMARK SMILES IDX 17 1 16 2 14 3 15 4 13 5 10 6 11 7 80 8 12 9 79 10 9 11 5 12
REMARK SMILES IDX 6 13 7 14 8 15 4 16 3 17 2 18 1 19 81 20 82 22 83 23 92 24
REMARK SMILES IDX 84 25 91 26 85 27 86 28 90 29 87 30 89 31 88 32 18 33 19 34
REMARK SMILES IDX 20 35 21 36 22 37 23 38 24 39 25 40 26 41 78 42 27 43 77 44
REMARK SMILES IDX 28 45 29 46 30 47 71 48 31 49 76 50 70 51 72 52 32 53 75 54
REMARK SMILES IDX 69 55 68 56 33 58 59 59 42 60 58 61 43 62 46 63 57 64 73 65
REMARK SMILES IDX 44 66 45 67 56 69 74 70 47 71 34 72 35 73 40 74 36 75 37 76
REMARK SMILES IDX 39 77 41 78 38 79 60 80 61 81 66 82 62 83 63 84 65 85 67 86
REMARK SMILES IDX 64 87 48 88 49 89 54 90 50 91 51 92 53 93 55 94 52 95
REMARK H PARENT 81 21 72 57 46 68
REMARK Flexibility Score: inf
ROOT
ATOM      1  C   UNL A   1      41.836  19.788  27.058  1.00  0.00     0.261 C 
ENDROOT
BRANCH   1   2
ATOM      2  O   UNL A   1      40.577  20.461  27.213  1.00  0.00    -0.460 OA
BRANCH   2   3
ATOM      3  C   UNL A   1      40.485  21.641  26.551  1.00  0.00     0.338 C 
ATOM      4  O   UNL A   1      41.399  22.384  26.239  1.00  0.00    -0.246 OA
BRANCH   3   5
ATOM      5  C   UNL A   1      39.094  21.869  26.106  1.00  0.00     0.060 A 
ATOM      6  C   UNL A   1      36.621  22.275  24.922  1.00  0.00     0.069 A 
ATOM      7  C   UNL A   1      37.146  20.982  24.959  1.00  0.00     0.029 A 
ATOM      8  C   UNL A   1      37.253  23.327  25.601  1.00  0.00     0.029 A 
ATOM      9  C   UNL A   1      38.404  20.790  25.529  1.00  0.00     0.018 A 
ATOM     10  C   UNL A   1      38.492  23.124  26.202  1.00  0.00     0.018 A 
BRANCH   6  11
ATOM     11  N   UNL A   1      35.520  22.549  24.092  1.00  0.00    -0.187 N 
ATOM     12  C   UNL A   1      34.186  22.232  24.290  1.00  0.00     0.214 A 
ATOM     13  N   UNL A   1      33.493  22.662  23.259  1.00  0.00    -0.101 NA
ATOM     14  N   UNL A   1      34.393  23.318  22.453  1.00  0.00    -0.022 NA
ATOM     15  N   UNL A   1      35.606  23.330  22.992  1.00  0.00    -0.039 NA
BRANCH  12  16
ATOM     16  S   UNL A   1      33.494  21.881  25.849  1.00  0.00    -0.074 SA
BRANCH  16  17
ATOM     17  C   UNL A   1      31.747  22.275  25.626  1.00  0.00     0.178 C 
BRANCH  17  18
ATOM     18  C   UNL A   1      31.451  23.755  25.695  1.00  0.00     0.236 C 
ATOM     19  O   UNL A   1      31.347  24.298  26.792  1.00  0.00    -0.274 OA
ATOM     20  N   UNL A   1      31.374  24.354  24.459  1.00  0.00    -0.301 N 
ATOM     21  H   UNL A   1      31.415  23.790  23.653  1.00  0.00     0.172 HD
BRANCH  20  22
ATOM     22  C   UNL A   1      31.241  25.701  24.318  1.00  0.00     0.189 A 
ATOM     23  N   UNL A   1      30.172  26.397  24.042  1.00  0.00    -0.220 NA
ATOM     24  S   UNL A   1      32.690  26.572  24.552  1.00  0.00    -0.105 S 
ATOM     25  C   UNL A   1      30.523  27.725  23.915  1.00  0.00     0.084 A 
ATOM     26  C   UNL A   1      31.860  28.011  24.121  1.00  0.00     0.097 A 
BRANCH  25  27
ATOM     27  C   UNL A   1      29.538  28.736  23.595  1.00  0.00     0.001 A 
ATOM     28  C   UNL A   1      29.877  30.090  23.694  1.00  0.00     0.010 A 
ATOM     29  C   UNL A   1      28.248  28.369  23.199  1.00  0.00     0.010 A 
ATOM     30  C   UNL A   1      28.936  31.070  23.375  1.00  0.00     0.001 A 
ATOM     31  C   UNL A   1      27.306  29.352  22.892  1.00  0.00     0.001 A 
ATOM     32  C   UNL A   1      27.653  30.701  22.973  1.00  0.00     0.000 A 
ENDBRANCH  25  27
ENDBRANCH  20  22
ENDBRANCH  17  18
ENDBRANCH  16  17
ENDBRANCH  12  16
ENDBRANCH   6  11
ENDBRANCH   3   5
ENDBRANCH   2   3
ENDBRANCH   1   2
BRANCH   1  33
ATOM     33  C   UNL A   1      41.918  18.996  25.750  1.00  0.00     0.202 C 
BRANCH  33  34
ATOM     34  O   UNL A   1      43.017  18.103  25.582  1.00  0.00    -0.374 OA
BRANCH  34  35
ATOM     35  C   UNL A   1      44.328  18.628  25.422  1.00  0.00     0.202 C 
BRANCH  35  36
ATOM     36  C   UNL A   1      44.729  19.177  24.062  1.00  0.00     0.261 C 
BRANCH  36  37
ATOM     37  O   UNL A   1      44.524  20.578  23.935  1.00  0.00    -0.460 OA
BRANCH  37  38
ATOM     38  C   UNL A   1      45.499  21.308  24.530  1.00  0.00     0.338 C 
ATOM     39  O   UNL A   1      46.683  21.044  24.586  1.00  0.00    -0.246 OA
BRANCH  38  40
ATOM     40  C   UNL A   1      44.872  22.384  25.305  1.00  0.00     0.060 A 
ATOM     41  C   UNL A   1      44.141  23.325  24.581  1.00  0.00     0.016 A 
ATOM     42  C   UNL A   1      45.222  22.589  26.649  1.00  0.00     0.016 A 
ATOM     43  C   UNL A   1      43.898  24.551  25.161  1.00  0.00     0.010 A 
ATOM     44  C   UNL A   1      44.988  23.818  27.222  1.00  0.00     0.010 A 
ATOM     45  C   UNL A   1      44.382  24.806  26.452  1.00  0.00    -0.014 A 
BRANCH  45  46
ATOM     46  C   UNL A   1      43.997  26.058  27.077  1.00  0.00     0.031 A 
ATOM     47  C   UNL A   1      44.977  27.115  26.745  1.00  0.00     0.074 A 
ATOM     48  C   UNL A   1      42.864  26.245  27.783  1.00  0.00     0.049 A 
ATOM     49  N   UNL A   1      45.872  27.601  27.536  1.00  0.00    -0.248 NA
ATOM     50  C   UNL A   1      45.155  27.504  25.334  1.00  0.00     0.031 C 
ATOM     51  C   UNL A   1      41.750  25.305  27.936  1.00  0.00     0.029 A 
ATOM     52  N   UNL A   1      42.424  27.352  28.453  1.00  0.00    -0.354 N 
ATOM     53  C   UNL A   1      46.512  28.584  26.793  1.00  0.00     0.074 A 
ATOM     54  C   UNL A   1      46.217  28.308  25.415  1.00  0.00     0.031 C 
ATOM     55  C   UNL A   1      40.681  25.956  28.454  1.00  0.00     0.029 A 
ATOM     56  C   UNL A   1      41.073  27.313  28.799  1.00  0.00     0.049 A 
ATOM     57  H   UNL A   1      43.010  28.112  28.673  1.00  0.00     0.167 HD
ATOM     58  C   UNL A   1      46.859  29.745  27.410  1.00  0.00     0.037 A 
ATOM     59  C   UNL A   1      40.335  28.330  29.316  1.00  0.00     0.037 A 
ATOM     60  C   UNL A   1      46.878  29.563  28.842  1.00  0.00     0.049 A 
ATOM     61  C   UNL A   1      41.274  29.291  29.930  1.00  0.00     0.074 A 
ATOM     62  C   UNL A   1      47.661  28.908  29.767  1.00  0.00     0.029 A 
ATOM     63  N   UNL A   1      45.659  29.777  29.423  1.00  0.00    -0.354 N 
ATOM     64  N   UNL A   1      41.919  29.046  31.034  1.00  0.00    -0.248 NA
ATOM     65  C   UNL A   1      41.771  30.417  29.149  1.00  0.00     0.031 C 
ATOM     66  C   UNL A   1      46.821  28.644  30.893  1.00  0.00     0.029 A 
ATOM     67  C   UNL A   1      45.564  29.191  30.653  1.00  0.00     0.049 A 
ATOM     68  H   UNL A   1      44.934  30.293  29.004  1.00  0.00     0.167 HD
ATOM     69  C   UNL A   1      43.141  29.653  30.843  1.00  0.00     0.074 A 
ATOM     70  C   UNL A   1      42.924  30.634  29.786  1.00  0.00     0.031 C 
ATOM     71  C   UNL A   1      44.279  29.053  31.295  1.00  0.00     0.037 A 
BRANCH  58  72
ATOM     72  C   UNL A   1      46.575  31.112  26.814  1.00  0.00     0.057 A 
ATOM     73  C   UNL A   1      47.597  32.080  26.840  1.00  0.00     0.134 A 
ATOM     74  C   UNL A   1      45.288  31.621  26.531  1.00  0.00     0.134 A 
ATOM     75  F   UNL A   1      48.861  31.735  27.130  1.00  0.00    -0.206 F 
ATOM     76  C   UNL A   1      47.345  33.446  26.660  1.00  0.00     0.040 A 
ATOM     77  C   UNL A   1      45.034  32.976  26.301  1.00  0.00     0.040 A 
ATOM     78  F   UNL A   1      44.185  30.867  26.565  1.00  0.00    -0.206 F 
ATOM     79  C   UNL A   1      46.059  33.899  26.393  1.00  0.00     0.006 A 
ENDBRANCH  58  72
BRANCH  59  80
ATOM     80  C   UNL A   1      38.893  28.656  29.220  1.00  0.00     0.057 A 
ATOM     81  C   UNL A   1      38.079  28.684  30.367  1.00  0.00     0.134 A 
ATOM     82  C   UNL A   1      38.359  29.262  28.073  1.00  0.00     0.134 A 
ATOM     83  F   UNL A   1      38.503  28.149  31.521  1.00  0.00    -0.206 F 
ATOM     84  C   UNL A   1      36.837  29.331  30.389  1.00  0.00     0.040 A 
ATOM     85  C   UNL A   1      37.116  29.908  28.081  1.00  0.00     0.040 A 
ATOM     86  F   UNL A   1      39.068  29.332  26.937  1.00  0.00    -0.206 F 
ATOM     87  C   UNL A   1      36.361  29.965  29.248  1.00  0.00     0.006 A 
ENDBRANCH  59  80
BRANCH  71  88
ATOM     88  C   UNL A   1      44.135  28.102  32.440  1.00  0.00     0.057 A 
ATOM     89  C   UNL A   1      44.019  28.472  33.787  1.00  0.00     0.134 A 
ATOM     90  C   UNL A   1      44.095  26.733  32.149  1.00  0.00     0.134 A 
ATOM     91  F   UNL A   1      43.971  29.761  34.153  1.00  0.00    -0.206 F 
ATOM     92  C   UNL A   1      43.925  27.515  34.802  1.00  0.00     0.040 A 
ATOM     93  C   UNL A   1      43.964  25.771  33.148  1.00  0.00     0.040 A 
ATOM     94  F   UNL A   1      44.165  26.311  30.876  1.00  0.00    -0.206 F 
ATOM     95  C   UNL A   1      43.895  26.160  34.482  1.00  0.00     0.006 A 
ENDBRANCH  71  88
ENDBRANCH  45  46
ENDBRANCH  38  40
ENDBRANCH  37  38
ENDBRANCH  36  37
ENDBRANCH  35  36
ENDBRANCH  34  35
ENDBRANCH  33  34
ENDBRANCH   1  33
TORSDOF 20
ENDMDL
MODEL 2
REMARK VINA RESULT:     -12.2      4.257     10.351
REMARK SMILES O=C(CSc1nnnn1-c1ccc(C(=O)OCCOCCOC(=O)c2ccc(-c3c4nc(c(-c5c(F)cccc5F)c5ccc([nH]5)c(-c5c(F)cccc5F)c5nc(c(-c6c(F)cccc6F)c6ccc3[nH]6)C=C5)C=C4)cc2)cc1)Nc1nc(-c2ccccc2)cs1
REMARK SMILES IDX 17 1 16 2 14 3 15 4 13 5 10 6 11 7 80 8 12 9 79 10 9 11 5 12
REMARK SMILES IDX 6 13 7 14 8 15 4 16 3 17 2 18 1 19 81 20 82 22 83 23 92 24
REMARK SMILES IDX 84 25 91 26 85 27 86 28 90 29 87 30 89 31 88 32 18 33 19 34
REMARK SMILES IDX 20 35 21 36 22 37 23 38 24 39 25 40 26 41 78 42 27 43 77 44
REMARK SMILES IDX 28 45 29 46 30 47 71 48 31 49 76 50 70 51 72 52 32 53 75 54
REMARK SMILES IDX 69 55 68 56 33 58 59 59 42 60 58 61 43 62 46 63 57 64 73 65
REMARK SMILES IDX 44 66 45 67 56 69 74 70 47 71 34 72 35 73 40 74 36 75 37 76
REMARK SMILES IDX 39 77 41 78 38 79 60 80 61 81 66 82 62 83 63 84 65 85 67 86
REMARK SMILES IDX 64 87 48 88 49 89 54 90 50 91 51 92 53 93 55 94 52 95
REMARK H PARENT 81 21 72 57 46 68
REMARK Flexibility Score: inf
ROOT
ATOM      1  C   UNL A   1      34.025  35.011  29.023  1.00  0.00     0.261 C 
ENDROOT
BRANCH   1   2
ATOM      2  O   UNL A   1      33.562  33.710  28.629  1.00  0.00    -0.460 OA
BRANCH   2   3
ATOM      3  C   UNL A   1      34.547  32.842  28.290  1.00  0.00     0.338 C 
ATOM      4  O   UNL A   1      35.730  32.923  28.571  1.00  0.00    -0.246 OA
BRANCH   3   5
ATOM      5  C   UNL A   1      33.972  31.653  27.626  1.00  0.00     0.060 A 
ATOM      6  C   UNL A   1      32.653  29.410  26.670  1.00  0.00     0.069 A 
ATOM      7  C   UNL A   1      32.049  30.661  26.523  1.00  0.00     0.029 A 
ATOM      8  C   UNL A   1      33.965  29.298  27.153  1.00  0.00     0.029 A 
ATOM      9  C   UNL A   1      32.704  31.780  27.033  1.00  0.00     0.018 A 
ATOM     10  C   UNL A   1      34.631  30.424  27.627  1.00  0.00     0.018 A 
BRANCH   6  11
ATOM     11  N   UNL A   1      31.892  28.248  26.454  1.00  0.00    -0.187 N 
ATOM     12  C   UNL A   1      31.630  27.594  25.260  1.00  0.00     0.214 A 
ATOM     13  N   UNL A   1      30.865  26.555  25.508  1.00  0.00    -0.101 NA
ATOM     14  N   UNL A   1      30.715  26.520  26.875  1.00  0.00    -0.022 NA
ATOM     15  N   UNL A   1      31.405  27.491  27.462  1.00  0.00    -0.039 NA
BRANCH  12  16
ATOM     16  S   UNL A   1      32.605  27.765  23.827  1.00  0.00    -0.074 SA
BRANCH  16  17
ATOM     17  C   UNL A   1      32.019  26.429  22.765  1.00  0.00     0.178 C 
BRANCH  17  18
ATOM     18  C   UNL A   1      32.769  25.132  22.960  1.00  0.00     0.236 C 
ATOM     19  O   UNL A   1      33.849  24.970  22.399  1.00  0.00    -0.274 OA
ATOM     20  N   UNL A   1      32.141  24.263  23.822  1.00  0.00    -0.301 N 
ATOM     21  H   UNL A   1      31.244  24.490  24.159  1.00  0.00     0.172 HD
BRANCH  20  22
ATOM     22  C   UNL A   1      32.722  23.099  24.224  1.00  0.00     0.189 A 
ATOM     23  N   UNL A   1      32.676  21.922  23.662  1.00  0.00    -0.220 NA
ATOM     24  S   UNL A   1      33.639  23.236  25.657  1.00  0.00    -0.105 S 
ATOM     25  C   UNL A   1      33.344  21.019  24.462  1.00  0.00     0.084 A 
ATOM     26  C   UNL A   1      33.906  21.542  25.612  1.00  0.00     0.097 A 
BRANCH  25  27
ATOM     27  C   UNL A   1      33.446  19.622  24.096  1.00  0.00     0.001 A 
ATOM     28  C   UNL A   1      34.479  18.841  24.626  1.00  0.00     0.010 A 
ATOM     29  C   UNL A   1      32.528  19.052  23.209  1.00  0.00     0.010 A 
ATOM     30  C   UNL A   1      34.576  17.490  24.288  1.00  0.00     0.001 A 
ATOM     31  C   UNL A   1      32.634  17.704  22.865  1.00  0.00     0.001 A 
ATOM     32  C   UNL A   1      33.653  16.923  23.409  1.00  0.00     0.000 A 
ENDBRANCH  25  27
ENDBRANCH  20  22
ENDBRANCH  17  18
ENDBRANCH  16  17
ENDBRANCH  12  16
ENDBRANCH   6  11
ENDBRANCH   3   5
ENDBRANCH   2   3
ENDBRANCH   1   2
BRANCH   1  33
ATOM     33  C   UNL A   1      32.901  36.049  29.046  1.00  0.00     0.202 C 
BRANCH  33  34
ATOM     34  O   UNL A   1      32.443  36.505  30.317  1.00  0.00    -0.374 OA
BRANCH  34  35
ATOM     35  C   UNL A   1      33.336  37.204  31.175  1.00  0.00     0.202 C 
BRANCH  35  36
ATOM     36  C   UNL A   1      33.373  36.825  32.647  1.00  0.00     0.261 C 
BRANCH  36  37
ATOM     37  O   UNL A   1      34.368  35.859  32.957  1.00  0.00    -0.460 OA
BRANCH  37  38
ATOM     38  C   UNL A   1      33.973  34.591  32.687  1.00  0.00     0.338 C 
ATOM     39  O   UNL A   1      32.914  34.073  32.982  1.00  0.00    -0.246 OA
BRANCH  38  40
ATOM     40  C   UNL A   1      35.120  33.844  32.163  1.00  0.00     0.060 A 
ATOM     41  C   UNL A   1      34.936  32.475  31.974  1.00  0.00     0.016 A 
ATOM     42  C   UNL A   1      36.393  34.434  32.117  1.00  0.00     0.016 A 
ATOM     43  C   UNL A   1      36.051  31.668  31.899  1.00  0.00     0.010 A 
ATOM     44  C   UNL A   1      37.506  33.627  32.054  1.00  0.00     0.010 A 
ATOM     45  C   UNL A   1      37.324  32.248  32.007  1.00  0.00    -0.014 A 
BRANCH  45  46
ATOM     46  C   UNL A   1      38.471  31.387  31.796  1.00  0.00     0.031 A 
ATOM     47  C   UNL A   1      39.153  31.123  33.082  1.00  0.00     0.074 A 
ATOM     48  C   UNL A   1      38.811  30.837  30.613  1.00  0.00     0.049 A 
ATOM     49  N   UNL A   1      40.269  31.635  33.473  1.00  0.00    -0.248 NA
ATOM     50  C   UNL A   1      38.416  30.419  34.148  1.00  0.00     0.031 C 
ATOM     51  C   UNL A   1      38.039  30.869  29.367  1.00  0.00     0.029 A 
ATOM     52  N   UNL A   1      39.887  30.060  30.285  1.00  0.00    -0.354 N 
ATOM     53  C   UNL A   1      40.515  31.058  34.712  1.00  0.00     0.074 A 
ATOM     54  C   UNL A   1      39.259  30.539  35.176  1.00  0.00     0.031 C 
ATOM     55  C   UNL A   1      38.552  29.966  28.497  1.00  0.00     0.029 A 
ATOM     56  C   UNL A   1      39.763  29.397  29.064  1.00  0.00     0.049 A 
ATOM     57  H   UNL A   1      40.680  29.975  30.862  1.00  0.00     0.167 HD
ATOM     58  C   UNL A   1      41.790  30.702  35.023  1.00  0.00     0.037 A 
ATOM     59  C   UNL A   1      40.593  28.441  28.569  1.00  0.00     0.037 A 
ATOM     60  C   UNL A   1      42.725  31.392  34.165  1.00  0.00     0.049 A 
ATOM     61  C   UNL A   1      41.893  28.583  29.256  1.00  0.00     0.074 A 
ATOM     62  C   UNL A   1      43.188  32.678  34.003  1.00  0.00     0.029 A 
ATOM     63  N   UNL A   1      42.968  30.724  32.997  1.00  0.00    -0.354 N 
ATOM     64  N   UNL A   1      42.710  29.571  29.031  1.00  0.00    -0.248 NA
ATOM     65  C   UNL A   1      42.165  27.805  30.459  1.00  0.00     0.031 C 
ATOM     66  C   UNL A   1      43.624  32.783  32.645  1.00  0.00     0.029 A 
ATOM     67  C   UNL A   1      43.470  31.545  32.028  1.00  0.00     0.049 A 
ATOM     68  H   UNL A   1      42.801  29.763  32.868  1.00  0.00     0.167 HD
ATOM     69  C   UNL A   1      43.272  29.822  30.264  1.00  0.00     0.074 A 
ATOM     70  C   UNL A   1      43.067  28.603  31.037  1.00  0.00     0.031 C 
ATOM     71  C   UNL A   1      43.517  31.105  30.655  1.00  0.00     0.037 A 
BRANCH  58  72
ATOM     72  C   UNL A   1      42.148  29.352  35.619  1.00  0.00     0.057 A 
ATOM     73  C   UNL A   1      43.129  29.303  36.626  1.00  0.00     0.134 A 
ATOM     74  C   UNL A   1      41.834  28.103  35.039  1.00  0.00     0.134 A 
ATOM     75  F   UNL A   1      43.544  30.424  37.235  1.00  0.00    -0.206 F 
ATOM     76  C   UNL A   1      43.785  28.116  36.981  1.00  0.00     0.040 A 
ATOM     77  C   UNL A   1      42.447  26.906  35.420  1.00  0.00     0.040 A 
ATOM     78  F   UNL A   1      41.001  27.971  34.001  1.00  0.00    -0.206 F 
ATOM     79  C   UNL A   1      43.447  26.912  36.375  1.00  0.00     0.006 A 
ENDBRANCH  58  72
BRANCH  59  80
ATOM     80  C   UNL A   1      40.355  27.299  27.655  1.00  0.00     0.057 A 
ATOM     81  C   UNL A   1      41.070  27.176  26.450  1.00  0.00     0.134 A 
ATOM     82  C   UNL A   1      39.678  26.150  28.089  1.00  0.00     0.134 A 
ATOM     83  F   UNL A   1      41.767  28.210  25.958  1.00  0.00    -0.206 F 
ATOM     84  C   UNL A   1      41.158  25.966  25.751  1.00  0.00     0.040 A 
ATOM     85  C   UNL A   1      39.755  24.934  27.396  1.00  0.00     0.040 A 
ATOM     86  F   UNL A   1      39.003  26.143  29.247  1.00  0.00    -0.206 F 
ATOM     87  C   UNL A   1      40.515  24.833  26.236  1.00  0.00     0.006 A 
ENDBRANCH  59  80
BRANCH  71  88
ATOM     88  C   UNL A   1      43.713  32.118  29.571  1.00  0.00     0.057 A 
ATOM     89  C   UNL A   1      42.779  33.096  29.203  1.00  0.00     0.134 A 
ATOM     90  C   UNL A   1      44.930  32.105  28.881  1.00  0.00     0.134 A 
ATOM     91  F   UNL A   1      41.619  33.233  29.860  1.00  0.00    -0.206 F 
ATOM     92  C   UNL A   1      43.028  33.984  28.152  1.00  0.00     0.040 A 
ATOM     93  C   UNL A   1      45.206  33.009  27.856  1.00  0.00     0.040 A 
ATOM     94  F   UNL A   1      45.884  31.218  29.207  1.00  0.00    -0.206 F 
ATOM     95  C   UNL A   1      44.246  33.942  27.477  1.00  0.00     0.006 A 
ENDBRANCH  71  88
ENDBRANCH  45  46
ENDBRANCH  38  40
ENDBRANCH  37  38
ENDBRANCH  36  37
ENDBRANCH  35  36
ENDBRANCH  34  35
ENDBRANCH  33  34
ENDBRANCH   1  33
TORSDOF 20
ENDMDL
MODEL 3
REMARK VINA RESULT:     -11.7      4.729     10.640
REMARK SMILES O=C(CSc1nnnn1-c1ccc(C(=O)OCCOCCOC(=O)c2ccc(-c3c4nc(c(-c5c(F)cccc5F)c5ccc([nH]5)c(-c5c(F)cccc5F)c5nc(c(-c6c(F)cccc6F)c6ccc3[nH]6)C=C5)C=C4)cc2)cc1)Nc1nc(-c2ccccc2)cs1
REMARK SMILES IDX 17 1 16 2 14 3 15 4 13 5 10 6 11 7 80 8 12 9 79 10 9 11 5 12
REMARK SMILES IDX 6 13 7 14 8 15 4 16 3 17 2 18 1 19 81 20 82 22 83 23 92 24
REMARK SMILES IDX 84 25 91 26 85 27 86 28 90 29 87 30 89 31 88 32 18 33 19 34
REMARK SMILES IDX 20 35 21 36 22 37 23 38 24 39 25 40 26 41 78 42 27 43 77 44
REMARK SMILES IDX 28 45 29 46 30 47 71 48 31 49 76 50 70 51 72 52 32 53 75 54
REMARK SMILES IDX 69 55 68 56 33 58 59 59 42 60 58 61 43 62 46 63 57 64 73 65
REMARK SMILES IDX 44 66 45 67 56 69 74 70 47 71 34 72 35 73 40 74 36 75 37 76
REMARK SMILES IDX 39 77 41 78 38 79 60 80 61 81 66 82 62 83 63 84 65 85 67 86
REMARK SMILES IDX 64 87 48 88 49 89 54 90 50 91 51 92 53 93 55 94 52 95
REMARK H PARENT 81 21 72 57 46 68
REMARK Flexibility Score: inf
ROOT
ATOM      1  C   UNL A   1      34.224  32.697  28.297  1.00  0.00     0.261 C 
ENDROOT
BRANCH   1   2
ATOM      2  O   UNL A   1      34.891  31.799  27.396  1.00  0.00    -0.460 OA
BRANCH   2   3
ATOM      3  C   UNL A   1      34.680  30.484  27.654  1.00  0.00     0.338 C 
ATOM      4  O   UNL A   1      35.153  29.827  28.564  1.00  0.00    -0.246 OA
BRANCH   3   5
ATOM      5  C   UNL A   1      33.650  29.945  26.741  1.00  0.00     0.060 A 
ATOM      6  C   UNL A   1      31.901  29.119  24.756  1.00  0.00     0.069 A 
ATOM      7  C   UNL A   1      33.148  28.498  24.856  1.00  0.00     0.029 A 
ATOM      8  C   UNL A   1      31.474  30.035  25.727  1.00  0.00     0.029 A 
ATOM      9  C   UNL A   1      34.034  28.939  25.837  1.00  0.00     0.018 A 
ATOM     10  C   UNL A   1      32.349  30.447  26.728  1.00  0.00     0.018 A 
BRANCH   6  11
ATOM     11  N   UNL A   1      31.122  28.918  23.602  1.00  0.00    -0.187 N 
ATOM     12  C   UNL A   1      30.736  27.724  23.015  1.00  0.00     0.214 A 
ATOM     13  N   UNL A   1      30.025  27.992  21.943  1.00  0.00    -0.101 NA
ATOM     14  N   UNL A   1      29.904  29.361  21.909  1.00  0.00    -0.022 NA
ATOM     15  N   UNL A   1      30.492  29.925  22.958  1.00  0.00    -0.039 NA
BRANCH  12  16
ATOM     16  S   UNL A   1      30.691  26.200  23.857  1.00  0.00    -0.074 SA
BRANCH  16  17
ATOM     17  C   UNL A   1      32.054  25.277  23.116  1.00  0.00     0.178 C 
BRANCH  17  18
ATOM     18  C   UNL A   1      32.541  24.131  23.974  1.00  0.00     0.236 C 
ATOM     19  O   UNL A   1      32.068  23.976  25.096  1.00  0.00    -0.274 OA
ATOM     20  N   UNL A   1      33.468  23.334  23.344  1.00  0.00    -0.301 N 
ATOM     21  H   UNL A   1      33.809  23.606  22.461  1.00  0.00     0.172 HD
BRANCH  20  22
ATOM     22  C   UNL A   1      33.928  22.182  23.905  1.00  0.00     0.189 A 
ATOM     23  N   UNL A   1      33.426  20.979  23.840  1.00  0.00    -0.220 NA
ATOM     24  S   UNL A   1      35.369  22.370  24.799  1.00  0.00    -0.105 S 
ATOM     25  C   UNL A   1      34.181  20.136  24.628  1.00  0.00     0.084 A 
ATOM     26  C   UNL A   1      35.262  20.721  25.261  1.00  0.00     0.097 A 
BRANCH  25  27
ATOM     27  C   UNL A   1      33.849  18.734  24.761  1.00  0.00     0.001 A 
ATOM     28  C   UNL A   1      34.628  17.772  24.109  1.00  0.00     0.010 A 
ATOM     29  C   UNL A   1      32.749  18.334  25.528  1.00  0.00     0.010 A 
ATOM     30  C   UNL A   1      34.322  16.417  24.242  1.00  0.00     0.001 A 
ATOM     31  C   UNL A   1      32.440  16.979  25.651  1.00  0.00     0.001 A 
ATOM     32  C   UNL A   1      33.230  16.022  25.014  1.00  0.00     0.000 A 
ENDBRANCH  25  27
ENDBRANCH  20  22
ENDBRANCH  17  18
ENDBRANCH  16  17
ENDBRANCH  12  16
ENDBRANCH   6  11
ENDBRANCH   3   5
ENDBRANCH   2   3
ENDBRANCH   1   2
BRANCH   1  33
ATOM     33  C   UNL A   1      34.670  34.149  28.112  1.00  0.00     0.202 C 
BRANCH  33  34
ATOM     34  O   UNL A   1      34.511  35.039  29.215  1.00  0.00    -0.374 OA
BRANCH  34  35
ATOM     35  C   UNL A   1      33.565  36.097  29.131  1.00  0.00     0.202 C 
BRANCH  35  36
ATOM     36  C   UNL A   1      32.641  36.339  30.313  1.00  0.00     0.261 C 
BRANCH  36  37
ATOM     37  O   UNL A   1      32.502  35.208  31.163  1.00  0.00    -0.460 OA
BRANCH  37  38
ATOM     38  C   UNL A   1      32.915  35.449  32.431  1.00  0.00     0.338 C 
ATOM     39  O   UNL A   1      32.460  36.264  33.209  1.00  0.00    -0.246 OA
BRANCH  38  40
ATOM     40  C   UNL A   1      34.164  34.717  32.665  1.00  0.00     0.060 A 
ATOM     41  C   UNL A   1      35.314  35.488  32.828  1.00  0.00     0.016 A 
ATOM     42  C   UNL A   1      34.224  33.329  32.463  1.00  0.00     0.016 A 
ATOM     43  C   UNL A   1      36.539  34.888  32.628  1.00  0.00     0.010 A 
ATOM     44  C   UNL A   1      35.446  32.733  32.251  1.00  0.00     0.010 A 
ATOM     45  C   UNL A   1      36.587  33.531  32.276  1.00  0.00    -0.014 A 
BRANCH  45  46
ATOM     46  C   UNL A   1      37.893  32.905  32.199  1.00  0.00     0.031 A 
ATOM     47  C   UNL A   1      38.583  33.002  33.503  1.00  0.00     0.074 A 
ATOM     48  C   UNL A   1      38.367  32.252  31.118  1.00  0.00     0.049 A 
ATOM     49  N   UNL A   1      39.560  33.793  33.792  1.00  0.00    -0.248 NA
ATOM     50  C   UNL A   1      37.983  32.345  34.678  1.00  0.00     0.031 C 
ATOM     51  C   UNL A   1      37.635  31.918  29.893  1.00  0.00     0.029 A 
ATOM     52  N   UNL A   1      39.587  31.672  30.912  1.00  0.00    -0.354 N 
ATOM     53  C   UNL A   1      39.890  33.491  35.106  1.00  0.00     0.074 A 
ATOM     54  C   UNL A   1      38.758  32.804  35.662  1.00  0.00     0.031 C 
ATOM     55  C   UNL A   1      38.344  31.011  29.179  1.00  0.00     0.029 A 
ATOM     56  C   UNL A   1      39.633  30.807  29.818  1.00  0.00     0.049 A 
ATOM     57  H   UNL A   1      40.367  31.850  31.486  1.00  0.00     0.167 HD
ATOM     58  C   UNL A   1      41.203  33.463  35.457  1.00  0.00     0.037 A 
ATOM     59  C   UNL A   1      40.654  29.977  29.479  1.00  0.00     0.037 A 
ATOM     60  C   UNL A   1      41.995  34.182  34.487  1.00  0.00     0.049 A 
ATOM     61  C   UNL A   1      41.880  30.498  30.119  1.00  0.00     0.074 A 
ATOM     62  C   UNL A   1      42.186  35.493  34.110  1.00  0.00     0.029 A 
ATOM     63  N   UNL A   1      42.399  33.397  33.443  1.00  0.00    -0.354 N 
ATOM     64  N   UNL A   1      42.480  31.583  29.725  1.00  0.00    -0.248 NA
ATOM     65  C   UNL A   1      42.278  30.000  31.430  1.00  0.00     0.031 C 
ATOM     66  C   UNL A   1      42.623  35.462  32.749  1.00  0.00     0.029 A 
ATOM     67  C   UNL A   1      42.743  34.135  32.346  1.00  0.00     0.049 A 
ATOM     68  H   UNL A   1      42.437  32.415  33.476  1.00  0.00     0.167 HD
ATOM     69  C   UNL A   1      42.948  32.144  30.893  1.00  0.00     0.074 A 
ATOM     70  C   UNL A   1      42.981  31.052  31.859  1.00  0.00     0.031 C 
ATOM     71  C   UNL A   1      42.913  33.495  31.064  1.00  0.00     0.037 A 
BRANCH  58  72
ATOM     72  C   UNL A   1      41.818  32.333  36.264  1.00  0.00     0.057 A 
ATOM     73  C   UNL A   1      42.661  32.661  37.342  1.00  0.00     0.134 A 
ATOM     74  C   UNL A   1      41.894  30.987  35.844  1.00  0.00     0.134 A 
ATOM     75  F   UNL A   1      42.710  33.915  37.818  1.00  0.00    -0.206 F 
ATOM     76  C   UNL A   1      43.549  31.738  37.912  1.00  0.00     0.040 A 
ATOM     77  C   UNL A   1      42.741  30.046  36.436  1.00  0.00     0.040 A 
ATOM     78  F   UNL A   1      41.244  30.522  34.772  1.00  0.00    -0.206 F 
ATOM     79  C   UNL A   1      43.593  30.426  37.457  1.00  0.00     0.006 A 
ENDBRANCH  58  72
BRANCH  59  80
ATOM     80  C   UNL A   1      40.680  28.677  28.769  1.00  0.00     0.057 A 
ATOM     81  C   UNL A   1      39.943  27.577  29.244  1.00  0.00     0.134 A 
ATOM     82  C   UNL A   1      41.150  28.578  27.451  1.00  0.00     0.134 A 
ATOM     83  F   UNL A   1      39.433  27.580  30.484  1.00  0.00    -0.206 F 
ATOM     84  C   UNL A   1      39.639  26.474  28.438  1.00  0.00     0.040 A 
ATOM     85  C   UNL A   1      40.856  27.478  26.635  1.00  0.00     0.040 A 
ATOM     86  F   UNL A   1      41.824  29.588  26.882  1.00  0.00    -0.206 F 
ATOM     87  C   UNL A   1      40.078  26.431  27.120  1.00  0.00     0.006 A 
ENDBRANCH  59  80
BRANCH  71  88
ATOM     88  C   UNL A   1      42.921  34.336  29.826  1.00  0.00     0.057 A 
ATOM     89  C   UNL A   1      41.780  34.830  29.179  1.00  0.00     0.134 A 
ATOM     90  C   UNL A   1      44.163  34.675  29.277  1.00  0.00     0.134 A 
ATOM     91  F   UNL A   1      40.553  34.621  29.676  1.00  0.00    -0.206 F 
ATOM     92  C   UNL A   1      41.875  35.581  28.004  1.00  0.00     0.040 A 
ATOM     93  C   UNL A   1      44.273  35.453  28.126  1.00  0.00     0.040 A 
ATOM     94  F   UNL A   1      45.297  34.265  29.867  1.00  0.00    -0.206 F 
ATOM     95  C   UNL A   1      43.125  35.895  27.475  1.00  0.00     0.006 A 
ENDBRANCH  71  88
ENDBRANCH  45  46
ENDBRANCH  38  40
ENDBRANCH  37  38
ENDBRANCH  36  37
ENDBRANCH  35  36
ENDBRANCH  34  35
ENDBRANCH  33  34
ENDBRANCH   1  33
TORSDOF 20
ENDMDL
