MODEL 1
REMARK VINA RESULT:     -11.4      0.000      0.000
REMARK SMILES Nc1nonc1C(=O)N1[C@@H]2CC[C@H]1C[C@H](CC(=O)OCCOCCOC(=O)c1ccc(-c3c4nc(c(-c5c(F)cccc5F)c5ccc([nH]5)c(-c5c(F)cccc5F)c5nc(c(-c6c(F)cccc6F)c6ccc3[nH]6)C=C5)C=C4)cc1)C2
REMARK SMILES IDX 21 1 20 2 19 3 17 4 18 5 16 6 15 7 9 8 10 9 13 10 11 11
REMARK SMILES IDX 82 12 12 13 14 14 7 15 8 16 6 17 2 18 3 19 4 20 5 21 1 22
REMARK SMILES IDX 22 25 23 26 24 27 25 28 26 29 27 30 28 31 29 32 81 33 30 34
REMARK SMILES IDX 80 35 31 36 32 37 33 38 74 39 34 40 79 41 73 42 75 43 35 44
REMARK SMILES IDX 78 45 72 46 71 47 36 49 62 50 45 51 61 52 46 53 49 54 60 55
REMARK SMILES IDX 76 56 47 57 48 58 59 60 77 61 50 62 37 63 38 64 43 65 39 66
REMARK SMILES IDX 40 67 42 68 44 69 41 70 63 71 64 72 69 73 65 74 66 75 68 76
REMARK SMILES IDX 70 77 67 78 51 79 52 80 57 81 53 82 54 83 56 84 58 85 55 86
REMARK H PARENT 1 23 1 24 75 48 49 59
REMARK Flexibility Score: inf
ROOT
ATOM      1  C   UNL A   1      42.359  20.994  26.234  1.00  0.00     0.202 C 
ENDROOT
BRANCH   1   2
ATOM      2  C   UNL A   1      41.075  21.625  26.777  1.00  0.00     0.261 C 
BRANCH   2   3
ATOM      3  O   UNL A   1      39.948  21.247  25.964  1.00  0.00    -0.463 OA
BRANCH   3   4
ATOM      4  C   UNL A   1      38.912  22.120  25.930  1.00  0.00     0.306 C 
ATOM      5  O   UNL A   1      38.859  23.177  26.546  1.00  0.00    -0.252 OA
BRANCH   4   6
ATOM      6  C   UNL A   1      37.764  21.613  25.087  1.00  0.00     0.126 C 
BRANCH   6   7
ATOM      7  C   UNL A   1      36.369  22.272  25.238  1.00  0.00     0.004 C 
ATOM      8  N   UNL A   1      33.913  20.908  24.854  1.00  0.00    -0.331 N 
ATOM      9  C   UNL A   1      34.103  21.445  26.186  1.00  0.00     0.086 C 
ATOM     10  C   UNL A   1      34.097  22.036  23.955  1.00  0.00     0.086 C 
ATOM     11  C   UNL A   1      33.450  22.831  26.150  1.00  0.00     0.027 C 
ATOM     12  C   UNL A   1      35.616  21.515  26.373  1.00  0.00     0.029 C 
ATOM     13  C   UNL A   1      33.324  23.159  24.660  1.00  0.00     0.027 C 
ATOM     14  C   UNL A   1      35.596  22.373  23.887  1.00  0.00     0.029 C 
BRANCH   8  15
ATOM     15  C   UNL A   1      32.950  19.923  24.637  1.00  0.00     0.280 C 
ATOM     16  O   UNL A   1      31.780  20.118  24.969  1.00  0.00    -0.267 OA
BRANCH  15  17
ATOM     17  C   UNL A   1      33.418  18.634  24.120  1.00  0.00     0.216 A 
ATOM     18  C   UNL A   1      32.905  17.774  23.113  1.00  0.00     0.201 A 
ATOM     19  N   UNL A   1      33.707  16.724  22.965  1.00  0.00    -0.032 NA
ATOM     20  O   UNL A   1      34.759  16.944  23.836  1.00  0.00    -0.242 OA
ATOM     21  N   UNL A   1      34.578  18.114  24.553  1.00  0.00    -0.042 NA
BRANCH  18  22
ATOM     22  N   UNL A   1      31.809  17.961  22.363  1.00  0.00    -0.379 N 
ATOM     23  H   UNL A   1      31.086  18.549  22.684  1.00  0.00     0.158 HD
ATOM     24  H   UNL A   1      31.726  17.512  21.490  1.00  0.00     0.158 HD
ENDBRANCH  18  22
ENDBRANCH  15  17
ENDBRANCH   8  15
ENDBRANCH   6   7
ENDBRANCH   4   6
ENDBRANCH   3   4
ENDBRANCH   2   3
ENDBRANCH   1   2
BRANCH   1  25
ATOM     25  O   UNL A   1      42.945  21.656  25.112  1.00  0.00    -0.374 OA
BRANCH  25  26
ATOM     26  C   UNL A   1      44.369  21.683  25.050  1.00  0.00     0.202 C 
BRANCH  26  27
ATOM     27  C   UNL A   1      44.978  22.715  24.097  1.00  0.00     0.261 C 
BRANCH  27  28
ATOM     28  O   UNL A   1      44.369  24.010  24.256  1.00  0.00    -0.460 OA
BRANCH  28  29
ATOM     29  C   UNL A   1      44.994  24.812  25.146  1.00  0.00     0.338 C 
ATOM     30  O   UNL A   1      46.188  25.093  25.173  1.00  0.00    -0.246 OA
BRANCH  29  31
ATOM     31  C   UNL A   1      44.016  25.482  26.024  1.00  0.00     0.060 A 
ATOM     32  C   UNL A   1      44.187  26.857  26.225  1.00  0.00     0.016 A 
ATOM     33  C   UNL A   1      43.004  24.789  26.695  1.00  0.00     0.016 A 
ATOM     34  C   UNL A   1      43.404  27.529  27.158  1.00  0.00     0.010 A 
ATOM     35  C   UNL A   1      42.215  25.468  27.634  1.00  0.00     0.010 A 
ATOM     36  C   UNL A   1      42.447  26.829  27.906  1.00  0.00    -0.014 A 
BRANCH  36  37
ATOM     37  C   UNL A   1      41.838  27.505  29.080  1.00  0.00     0.031 A 
ATOM     38  C   UNL A   1      42.533  27.421  30.414  1.00  0.00     0.074 A 
ATOM     39  C   UNL A   1      40.742  28.270  28.944  1.00  0.00     0.049 A 
ATOM     40  N   UNL A   1      42.242  28.018  31.542  1.00  0.00    -0.248 NA
ATOM     41  C   UNL A   1      43.719  26.552  30.482  1.00  0.00     0.031 C 
ATOM     42  C   UNL A   1      40.000  28.471  27.701  1.00  0.00     0.029 A 
ATOM     43  N   UNL A   1      40.076  29.043  29.863  1.00  0.00    -0.354 N 
ATOM     44  C   UNL A   1      43.209  27.604  32.450  1.00  0.00     0.074 A 
ATOM     45  C   UNL A   1      44.067  26.668  31.754  1.00  0.00     0.031 C 
ATOM     46  C   UNL A   1      38.992  29.330  27.929  1.00  0.00     0.029 A 
ATOM     47  C   UNL A   1      39.005  29.723  29.337  1.00  0.00     0.049 A 
ATOM     48  H   UNL A   1      40.342  29.104  30.808  1.00  0.00     0.167 HD
ATOM     49  C   UNL A   1      43.384  27.982  33.739  1.00  0.00     0.037 A 
ATOM     50  C   UNL A   1      38.139  30.569  29.925  1.00  0.00     0.037 A 
ATOM     51  C   UNL A   1      42.532  28.907  34.438  1.00  0.00     0.049 A 
ATOM     52  C   UNL A   1      38.303  30.910  31.382  1.00  0.00     0.074 A 
ATOM     53  C   UNL A   1      42.630  29.356  35.743  1.00  0.00     0.029 A 
ATOM     54  N   UNL A   1      41.415  29.519  33.889  1.00  0.00    -0.354 N 
ATOM     55  N   UNL A   1      39.240  30.535  32.221  1.00  0.00    -0.248 NA
ATOM     56  C   UNL A   1      37.292  31.799  31.971  1.00  0.00     0.031 C 
ATOM     57  C   UNL A   1      41.546  30.204  35.998  1.00  0.00     0.029 A 
ATOM     58  C   UNL A   1      40.802  30.323  34.835  1.00  0.00     0.049 A 
ATOM     59  H   UNL A   1      41.104  29.400  32.962  1.00  0.00     0.167 HD
ATOM     60  C   UNL A   1      38.951  31.172  33.423  1.00  0.00     0.074 A 
ATOM     61  C   UNL A   1      37.757  31.962  33.201  1.00  0.00     0.031 C 
ATOM     62  C   UNL A   1      39.617  31.110  34.603  1.00  0.00     0.037 A 
BRANCH  49  63
ATOM     63  C   UNL A   1      44.536  27.365  34.481  1.00  0.00     0.057 A 
ATOM     64  C   UNL A   1      45.802  27.963  34.512  1.00  0.00     0.134 A 
ATOM     65  C   UNL A   1      44.374  26.159  35.174  1.00  0.00     0.134 A 
ATOM     66  F   UNL A   1      46.029  29.111  33.856  1.00  0.00    -0.206 F 
ATOM     67  C   UNL A   1      46.875  27.368  35.179  1.00  0.00     0.040 A 
ATOM     68  C   UNL A   1      45.433  25.568  35.867  1.00  0.00     0.040 A 
ATOM     69  F   UNL A   1      43.188  25.534  35.188  1.00  0.00    -0.206 F 
ATOM     70  C   UNL A   1      46.689  26.168  35.863  1.00  0.00     0.006 A 
ENDBRANCH  49  63
BRANCH  50  71
ATOM     71  C   UNL A   1      37.041  31.178  29.133  1.00  0.00     0.057 A 
ATOM     72  C   UNL A   1      37.104  32.512  28.714  1.00  0.00     0.134 A 
ATOM     73  C   UNL A   1      35.895  30.448  28.792  1.00  0.00     0.134 A 
ATOM     74  F   UNL A   1      38.166  33.269  29.031  1.00  0.00    -0.206 F 
ATOM     75  C   UNL A   1      36.062  33.104  28.000  1.00  0.00     0.040 A 
ATOM     76  C   UNL A   1      34.857  31.020  28.057  1.00  0.00     0.040 A 
ATOM     77  F   UNL A   1      35.775  29.165  29.164  1.00  0.00    -0.206 F 
ATOM     78  C   UNL A   1      34.936  32.355  27.664  1.00  0.00     0.006 A 
ENDBRANCH  50  71
BRANCH  62  79
ATOM     79  C   UNL A   1      39.095  31.953  35.731  1.00  0.00     0.057 A 
ATOM     80  C   UNL A   1      38.215  31.445  36.696  1.00  0.00     0.134 A 
ATOM     81  C   UNL A   1      39.496  33.290  35.865  1.00  0.00     0.134 A 
ATOM     82  F   UNL A   1      37.782  30.177  36.619  1.00  0.00    -0.206 F 
ATOM     83  C   UNL A   1      37.729  32.242  37.733  1.00  0.00     0.040 A 
ATOM     84  C   UNL A   1      39.038  34.089  36.915  1.00  0.00     0.040 A 
ATOM     85  F   UNL A   1      40.345  33.838  34.983  1.00  0.00    -0.206 F 
ATOM     86  C   UNL A   1      38.144  33.567  37.847  1.00  0.00     0.006 A 
ENDBRANCH  62  79
ENDBRANCH  36  37
ENDBRANCH  29  31
ENDBRANCH  28  29
ENDBRANCH  27  28
ENDBRANCH  26  27
ENDBRANCH  25  26
ENDBRANCH   1  25
TORSDOF 18
ENDMDL
MODEL 2
REMARK VINA RESULT:     -11.3      6.009     10.717
REMARK SMILES Nc1nonc1C(=O)N1[C@@H]2CC[C@H]1C[C@H](CC(=O)OCCOCCOC(=O)c1ccc(-c3c4nc(c(-c5c(F)cccc5F)c5ccc([nH]5)c(-c5c(F)cccc5F)c5nc(c(-c6c(F)cccc6F)c6ccc3[nH]6)C=C5)C=C4)cc1)C2
REMARK SMILES IDX 21 1 20 2 19 3 17 4 18 5 16 6 15 7 9 8 10 9 13 10 11 11
REMARK SMILES IDX 82 12 12 13 14 14 7 15 8 16 6 17 2 18 3 19 4 20 5 21 1 22
REMARK SMILES IDX 22 25 23 26 24 27 25 28 26 29 27 30 28 31 29 32 81 33 30 34
REMARK SMILES IDX 80 35 31 36 32 37 33 38 74 39 34 40 79 41 73 42 75 43 35 44
REMARK SMILES IDX 78 45 72 46 71 47 36 49 62 50 45 51 61 52 46 53 49 54 60 55
REMARK SMILES IDX 76 56 47 57 48 58 59 60 77 61 50 62 37 63 38 64 43 65 39 66
REMARK SMILES IDX 40 67 42 68 44 69 41 70 63 71 64 72 69 73 65 74 66 75 68 76
REMARK SMILES IDX 70 77 67 78 51 79 52 80 57 81 53 82 54 83 56 84 58 85 55 86
REMARK H PARENT 1 23 1 24 75 48 49 59
REMARK Flexibility Score: inf
ROOT
ATOM      1  C   UNL A   1      34.391  32.943  28.940  1.00  0.00     0.202 C 
ENDROOT
BRANCH   1   2
ATOM      2  C   UNL A   1      34.319  31.529  28.360  1.00  0.00     0.261 C 
BRANCH   2   3
ATOM      3  O   UNL A   1      33.732  31.555  27.045  1.00  0.00    -0.463 OA
BRANCH   3   4
ATOM      4  C   UNL A   1      32.587  30.847  26.885  1.00  0.00     0.306 C 
ATOM      5  O   UNL A   1      31.497  31.325  26.598  1.00  0.00    -0.252 OA
BRANCH   4   6
ATOM      6  C   UNL A   1      32.779  29.375  27.172  1.00  0.00     0.126 C 
BRANCH   6   7
ATOM      7  C   UNL A   1      32.696  28.362  26.002  1.00  0.00     0.004 C 
ATOM      8  N   UNL A   1      31.156  28.765  23.654  1.00  0.00    -0.331 N 
ATOM      9  C   UNL A   1      32.580  28.625  23.426  1.00  0.00     0.086 C 
ATOM     10  C   UNL A   1      30.769  27.582  24.406  1.00  0.00     0.086 C 
ATOM     11  C   UNL A   1      32.790  27.132  23.148  1.00  0.00     0.027 C 
ATOM     12  C   UNL A   1      33.237  29.077  24.727  1.00  0.00     0.029 C 
ATOM     13  C   UNL A   1      31.522  26.459  23.679  1.00  0.00     0.027 C 
ATOM     14  C   UNL A   1      31.279  27.726  25.850  1.00  0.00     0.029 C 
BRANCH   8  15
ATOM     15  C   UNL A   1      30.349  29.323  22.664  1.00  0.00     0.280 C 
ATOM     16  O   UNL A   1      30.771  29.435  21.512  1.00  0.00    -0.267 OA
BRANCH  15  17
ATOM     17  C   UNL A   1      29.054  29.865  23.084  1.00  0.00     0.216 A 
ATOM     18  C   UNL A   1      28.695  31.095  23.699  1.00  0.00     0.201 A 
ATOM     19  N   UNL A   1      27.375  31.155  23.850  1.00  0.00    -0.032 NA
ATOM     20  O   UNL A   1      26.891  29.991  23.282  1.00  0.00    -0.242 OA
ATOM     21  N   UNL A   1      27.922  29.193  22.817  1.00  0.00    -0.042 NA
BRANCH  18  22
ATOM     22  N   UNL A   1      29.513  32.097  24.053  1.00  0.00    -0.379 N 
ATOM     23  H   UNL A   1      29.354  32.589  24.892  1.00  0.00     0.158 HD
ATOM     24  H   UNL A   1      30.272  32.342  23.475  1.00  0.00     0.158 HD
ENDBRANCH  18  22
ENDBRANCH  15  17
ENDBRANCH   8  15
ENDBRANCH   6   7
ENDBRANCH   4   6
ENDBRANCH   3   4
ENDBRANCH   2   3
ENDBRANCH   1   2
BRANCH   1  25
ATOM     25  O   UNL A   1      34.055  33.060  30.323  1.00  0.00    -0.374 OA
BRANCH  25  26
ATOM     26  C   UNL A   1      34.558  34.201  31.015  1.00  0.00     0.202 C 
BRANCH  26  27
ATOM     27  C   UNL A   1      35.084  33.947  32.430  1.00  0.00     0.261 C 
BRANCH  27  28
ATOM     28  O   UNL A   1      35.197  32.539  32.710  1.00  0.00    -0.460 OA
BRANCH  28  29
ATOM     29  C   UNL A   1      36.348  32.186  33.325  1.00  0.00     0.338 C 
ATOM     30  O   UNL A   1      36.633  32.348  34.506  1.00  0.00    -0.246 OA
BRANCH  29  31
ATOM     31  C   UNL A   1      37.203  31.395  32.419  1.00  0.00     0.060 A 
ATOM     32  C   UNL A   1      38.340  30.804  32.980  1.00  0.00     0.016 A 
ATOM     33  C   UNL A   1      36.954  31.287  31.047  1.00  0.00     0.016 A 
ATOM     34  C   UNL A   1      39.276  30.175  32.166  1.00  0.00     0.010 A 
ATOM     35  C   UNL A   1      37.897  30.652  30.228  1.00  0.00     0.010 A 
ATOM     36  C   UNL A   1      39.086  30.139  30.777  1.00  0.00    -0.014 A 
BRANCH  36  37
ATOM     37  C   UNL A   1      40.226  29.722  29.920  1.00  0.00     0.031 A 
ATOM     38  C   UNL A   1      41.360  30.686  29.694  1.00  0.00     0.074 A 
ATOM     39  C   UNL A   1      40.304  28.470  29.438  1.00  0.00     0.049 A 
ATOM     40  N   UNL A   1      42.499  30.499  29.075  1.00  0.00    -0.248 NA
ATOM     41  C   UNL A   1      41.191  32.040  30.244  1.00  0.00     0.031 C 
ATOM     42  C   UNL A   1      39.297  27.428  29.622  1.00  0.00     0.029 A 
ATOM     43  N   UNL A   1      41.295  27.858  28.711  1.00  0.00    -0.354 N 
ATOM     44  C   UNL A   1      43.183  31.705  29.168  1.00  0.00     0.074 A 
ATOM     45  C   UNL A   1      42.311  32.631  29.860  1.00  0.00     0.031 C 
ATOM     46  C   UNL A   1      39.730  26.296  29.042  1.00  0.00     0.029 A 
ATOM     47  C   UNL A   1      41.034  26.540  28.428  1.00  0.00     0.049 A 
ATOM     48  H   UNL A   1      42.114  28.320  28.422  1.00  0.00     0.167 HD
ATOM     49  C   UNL A   1      44.429  32.013  28.736  1.00  0.00     0.037 A 
ATOM     50  C   UNL A   1      41.768  25.633  27.756  1.00  0.00     0.037 A 
ATOM     51  C   UNL A   1      45.298  31.099  28.043  1.00  0.00     0.049 A 
ATOM     52  C   UNL A   1      43.117  26.022  27.212  1.00  0.00     0.074 A 
ATOM     53  C   UNL A   1      46.581  31.315  27.570  1.00  0.00     0.029 A 
ATOM     54  N   UNL A   1      44.967  29.793  27.713  1.00  0.00    -0.354 N 
ATOM     55  N   UNL A   1      43.764  27.156  27.333  1.00  0.00    -0.248 NA
ATOM     56  C   UNL A   1      43.840  24.998  26.445  1.00  0.00     0.031 C 
ATOM     57  C   UNL A   1      47.008  30.155  26.914  1.00  0.00     0.029 A 
ATOM     58  C   UNL A   1      46.011  29.199  27.023  1.00  0.00     0.049 A 
ATOM     59  H   UNL A   1      44.115  29.352  27.938  1.00  0.00     0.167 HD
ATOM     60  C   UNL A   1      44.983  26.970  26.690  1.00  0.00     0.074 A 
ATOM     61  C   UNL A   1      44.986  25.611  26.188  1.00  0.00     0.031 C 
ATOM     62  C   UNL A   1      46.008  27.844  26.533  1.00  0.00     0.037 A 
BRANCH  49  63
ATOM     63  C   UNL A   1      44.912  33.413  28.986  1.00  0.00     0.057 A 
ATOM     64  C   UNL A   1      45.639  33.753  30.135  1.00  0.00     0.134 A 
ATOM     65  C   UNL A   1      44.649  34.434  28.063  1.00  0.00     0.134 A 
ATOM     66  F   UNL A   1      45.911  32.827  31.066  1.00  0.00    -0.206 F 
ATOM     67  C   UNL A   1      46.058  35.063  30.373  1.00  0.00     0.040 A 
ATOM     68  C   UNL A   1      45.087  35.743  28.278  1.00  0.00     0.040 A 
ATOM     69  F   UNL A   1      43.962  34.178  26.940  1.00  0.00    -0.206 F 
ATOM     70  C   UNL A   1      45.785  36.062  29.440  1.00  0.00     0.006 A 
ENDBRANCH  49  63
BRANCH  50  71
ATOM     71  C   UNL A   1      41.255  24.251  27.571  1.00  0.00     0.057 A 
ATOM     72  C   UNL A   1      40.232  23.975  26.657  1.00  0.00     0.134 A 
ATOM     73  C   UNL A   1      41.761  23.180  28.317  1.00  0.00     0.134 A 
ATOM     74  F   UNL A   1      39.691  24.965  25.930  1.00  0.00    -0.206 F 
ATOM     75  C   UNL A   1      39.719  22.687  26.501  1.00  0.00     0.040 A 
ATOM     76  C   UNL A   1      41.275  21.883  28.154  1.00  0.00     0.040 A 
ATOM     77  F   UNL A   1      42.742  23.380  29.210  1.00  0.00    -0.206 F 
ATOM     78  C   UNL A   1      40.245  21.635  27.248  1.00  0.00     0.006 A 
ENDBRANCH  50  71
BRANCH  62  79
ATOM     79  C   UNL A   1      47.235  27.344  25.827  1.00  0.00     0.057 A 
ATOM     80  C   UNL A   1      47.420  27.506  24.448  1.00  0.00     0.134 A 
ATOM     81  C   UNL A   1      48.258  26.708  26.544  1.00  0.00     0.134 A 
ATOM     82  F   UNL A   1      46.474  28.095  23.700  1.00  0.00    -0.206 F 
ATOM     83  C   UNL A   1      48.561  27.026  23.803  1.00  0.00     0.040 A 
ATOM     84  C   UNL A   1      49.417  26.249  25.914  1.00  0.00     0.040 A 
ATOM     85  F   UNL A   1      48.152  26.529  27.869  1.00  0.00    -0.206 F 
ATOM     86  C   UNL A   1      49.566  26.399  24.537  1.00  0.00     0.006 A 
ENDBRANCH  62  79
ENDBRANCH  36  37
ENDBRANCH  29  31
ENDBRANCH  28  29
ENDBRANCH  27  28
ENDBRANCH  26  27
ENDBRANCH  25  26
ENDBRANCH   1  25
TORSDOF 18
ENDMDL
MODEL 3
REMARK VINA RESULT:     -10.7      1.043      6.263
REMARK SMILES Nc1nonc1C(=O)N1[C@@H]2CC[C@H]1C[C@H](CC(=O)OCCOCCOC(=O)c1ccc(-c3c4nc(c(-c5c(F)cccc5F)c5ccc([nH]5)c(-c5c(F)cccc5F)c5nc(c(-c6c(F)cccc6F)c6ccc3[nH]6)C=C5)C=C4)cc1)C2
REMARK SMILES IDX 21 1 20 2 19 3 17 4 18 5 16 6 15 7 9 8 10 9 13 10 11 11
REMARK SMILES IDX 82 12 12 13 14 14 7 15 8 16 6 17 2 18 3 19 4 20 5 21 1 22
REMARK SMILES IDX 22 25 23 26 24 27 25 28 26 29 27 30 28 31 29 32 81 33 30 34
REMARK SMILES IDX 80 35 31 36 32 37 33 38 74 39 34 40 79 41 73 42 75 43 35 44
REMARK SMILES IDX 78 45 72 46 71 47 36 49 62 50 45 51 61 52 46 53 49 54 60 55
REMARK SMILES IDX 76 56 47 57 48 58 59 60 77 61 50 62 37 63 38 64 43 65 39 66
REMARK SMILES IDX 40 67 42 68 44 69 41 70 63 71 64 72 69 73 65 74 66 75 68 76
REMARK SMILES IDX 70 77 67 78 51 79 52 80 57 81 53 82 54 83 56 84 58 85 55 86
REMARK H PARENT 1 23 1 24 75 48 49 59
REMARK Flexibility Score: inf
ROOT
ATOM      1  C   UNL A   1      40.500  20.276  26.250  1.00  0.00     0.202 C 
ENDROOT
BRANCH   1   2
ATOM      2  C   UNL A   1      39.495  21.335  25.794  1.00  0.00     0.261 C 
BRANCH   2   3
ATOM      3  O   UNL A   1      38.152  20.919  26.107  1.00  0.00    -0.463 OA
BRANCH   3   4
ATOM      4  C   UNL A   1      37.222  21.114  25.140  1.00  0.00     0.306 C 
ATOM      5  O   UNL A   1      36.491  20.247  24.678  1.00  0.00    -0.252 OA
BRANCH   4   6
ATOM      6  C   UNL A   1      37.224  22.535  24.623  1.00  0.00     0.126 C 
BRANCH   6   7
ATOM      7  C   UNL A   1      35.901  23.342  24.632  1.00  0.00     0.004 C 
ATOM      8  N   UNL A   1      33.328  22.178  24.893  1.00  0.00    -0.331 N 
ATOM      9  C   UNL A   1      33.681  23.106  25.949  1.00  0.00     0.086 C 
ATOM     10  C   UNL A   1      33.506  22.919  23.655  1.00  0.00     0.086 C 
ATOM     11  C   UNL A   1      33.128  24.459  25.487  1.00  0.00     0.027 C 
ATOM     12  C   UNL A   1      35.206  23.084  26.002  1.00  0.00     0.029 C 
ATOM     13  C   UNL A   1      32.886  24.284  23.986  1.00  0.00     0.027 C 
ATOM     14  C   UNL A   1      35.013  23.064  23.379  1.00  0.00     0.029 C 
BRANCH   8  15
ATOM     15  C   UNL A   1      32.281  21.279  25.087  1.00  0.00     0.280 C 
ATOM     16  O   UNL A   1      31.304  21.601  25.765  1.00  0.00    -0.267 OA
BRANCH  15  17
ATOM     17  C   UNL A   1      32.458  19.924  24.556  1.00  0.00     0.216 A 
ATOM     18  C   UNL A   1      32.733  18.685  25.192  1.00  0.00     0.201 A 
ATOM     19  N   UNL A   1      32.762  17.710  24.288  1.00  0.00    -0.032 NA
ATOM     20  O   UNL A   1      32.449  18.319  23.087  1.00  0.00    -0.242 OA
ATOM     21  N   UNL A   1      32.270  19.682  23.248  1.00  0.00    -0.042 NA
BRANCH  18  22
ATOM     22  N   UNL A   1      32.903  18.463  26.504  1.00  0.00    -0.379 N 
ATOM     23  H   UNL A   1      32.977  17.541  26.843  1.00  0.00     0.158 HD
ATOM     24  H   UNL A   1      32.955  19.222  27.130  1.00  0.00     0.158 HD
ENDBRANCH  18  22
ENDBRANCH  15  17
ENDBRANCH   8  15
ENDBRANCH   6   7
ENDBRANCH   4   6
ENDBRANCH   3   4
ENDBRANCH   2   3
ENDBRANCH   1   2
BRANCH   1  25
ATOM     25  O   UNL A   1      41.710  20.779  26.820  1.00  0.00    -0.374 OA
BRANCH  25  26
ATOM     26  C   UNL A   1      42.919  20.491  26.122  1.00  0.00     0.202 C 
BRANCH  26  27
ATOM     27  C   UNL A   1      43.728  21.705  25.656  1.00  0.00     0.261 C 
BRANCH  27  28
ATOM     28  O   UNL A   1      42.873  22.805  25.291  1.00  0.00    -0.460 OA
BRANCH  28  29
ATOM     29  C   UNL A   1      43.483  24.011  25.306  1.00  0.00     0.338 C 
ATOM     30  O   UNL A   1      44.384  24.391  24.566  1.00  0.00    -0.246 OA
BRANCH  29  31
ATOM     31  C   UNL A   1      42.805  24.928  26.242  1.00  0.00     0.060 A 
ATOM     32  C   UNL A   1      43.177  26.276  26.185  1.00  0.00     0.016 A 
ATOM     33  C   UNL A   1      41.888  24.487  27.201  1.00  0.00     0.016 A 
ATOM     34  C   UNL A   1      42.700  27.173  27.136  1.00  0.00     0.010 A 
ATOM     35  C   UNL A   1      41.408  25.393  28.157  1.00  0.00     0.010 A 
ATOM     36  C   UNL A   1      41.852  26.727  28.159  1.00  0.00    -0.014 A 
BRANCH  36  37
ATOM     37  C   UNL A   1      41.597  27.633  29.308  1.00  0.00     0.031 A 
ATOM     38  C   UNL A   1      40.422  28.574  29.250  1.00  0.00     0.074 A 
ATOM     39  C   UNL A   1      42.331  27.549  30.430  1.00  0.00     0.049 A 
ATOM     40  N   UNL A   1      39.949  29.371  30.174  1.00  0.00    -0.248 NA
ATOM     41  C   UNL A   1      39.677  28.615  27.981  1.00  0.00     0.031 C 
ATOM     42  C   UNL A   1      43.466  26.651  30.633  1.00  0.00     0.029 A 
ATOM     43  N   UNL A   1      42.212  28.216  31.624  1.00  0.00    -0.354 N 
ATOM     44  C   UNL A   1      38.850  30.002  29.603  1.00  0.00     0.074 A 
ATOM     45  C   UNL A   1      38.756  29.530  28.237  1.00  0.00     0.031 C 
ATOM     46  C   UNL A   1      43.927  26.807  31.885  1.00  0.00     0.029 A 
ATOM     47  C   UNL A   1      43.135  27.830  32.564  1.00  0.00     0.049 A 
ATOM     48  H   UNL A   1      41.529  28.905  31.789  1.00  0.00     0.167 HD
ATOM     49  C   UNL A   1      37.984  30.878  30.165  1.00  0.00     0.037 A 
ATOM     50  C   UNL A   1      43.314  28.251  33.831  1.00  0.00     0.037 A 
ATOM     51  C   UNL A   1      38.075  31.356  31.520  1.00  0.00     0.049 A 
ATOM     52  C   UNL A   1      42.389  29.288  34.409  1.00  0.00     0.074 A 
ATOM     53  C   UNL A   1      37.242  32.240  32.184  1.00  0.00     0.029 A 
ATOM     54  N   UNL A   1      39.068  30.993  32.418  1.00  0.00    -0.354 N 
ATOM     55  N   UNL A   1      41.336  29.854  33.868  1.00  0.00    -0.248 NA
ATOM     56  C   UNL A   1      42.675  29.738  35.779  1.00  0.00     0.031 C 
ATOM     57  C   UNL A   1      37.758  32.448  33.468  1.00  0.00     0.029 A 
ATOM     58  C   UNL A   1      38.882  31.653  33.622  1.00  0.00     0.049 A 
ATOM     59  H   UNL A   1      39.797  30.358  32.229  1.00  0.00     0.167 HD
ATOM     60  C   UNL A   1      40.815  30.697  34.843  1.00  0.00     0.074 A 
ATOM     61  C   UNL A   1      41.662  30.562  36.010  1.00  0.00     0.031 C 
ATOM     62  C   UNL A   1      39.729  31.507  34.779  1.00  0.00     0.037 A 
BRANCH  49  63
ATOM     63  C   UNL A   1      36.873  31.395  29.296  1.00  0.00     0.057 A 
ATOM     64  C   UNL A   1      35.754  30.614  28.981  1.00  0.00     0.134 A 
ATOM     65  C   UNL A   1      36.924  32.692  28.768  1.00  0.00     0.134 A 
ATOM     66  F   UNL A   1      35.650  29.358  29.441  1.00  0.00    -0.206 F 
ATOM     67  C   UNL A   1      34.741  31.091  28.147  1.00  0.00     0.040 A 
ATOM     68  C   UNL A   1      35.904  33.190  27.956  1.00  0.00     0.040 A 
ATOM     69  F   UNL A   1      37.965  33.495  29.032  1.00  0.00    -0.206 F 
ATOM     70  C   UNL A   1      34.813  32.385  27.635  1.00  0.00     0.006 A 
ENDBRANCH  49  63
BRANCH  50  71
ATOM     71  C   UNL A   1      44.407  27.678  34.657  1.00  0.00     0.057 A 
ATOM     72  C   UNL A   1      45.640  28.329  34.780  1.00  0.00     0.134 A 
ATOM     73  C   UNL A   1      44.252  26.458  35.326  1.00  0.00     0.134 A 
ATOM     74  F   UNL A   1      45.856  29.490  34.142  1.00  0.00    -0.206 F 
ATOM     75  C   UNL A   1      46.685  27.782  35.524  1.00  0.00     0.040 A 
ATOM     76  C   UNL A   1      45.280  25.911  36.094  1.00  0.00     0.040 A 
ATOM     77  F   UNL A   1      43.095  25.784  35.247  1.00  0.00    -0.206 F 
ATOM     78  C   UNL A   1      46.504  26.570  36.189  1.00  0.00     0.006 A 
ENDBRANCH  50  71
BRANCH  62  79
ATOM     79  C   UNL A   1      39.371  32.276  36.019  1.00  0.00     0.057 A 
ATOM     80  C   UNL A   1      38.424  31.807  36.939  1.00  0.00     0.134 A 
ATOM     81  C   UNL A   1      39.999  33.496  36.306  1.00  0.00     0.134 A 
ATOM     82  F   UNL A   1      37.776  30.652  36.718  1.00  0.00    -0.206 F 
ATOM     83  C   UNL A   1      38.092  32.537  38.081  1.00  0.00     0.040 A 
ATOM     84  C   UNL A   1      39.695  34.221  37.460  1.00  0.00     0.040 A 
ATOM     85  F   UNL A   1      40.923  33.999  35.474  1.00  0.00    -0.206 F 
ATOM     86  C   UNL A   1      38.732  33.746  38.347  1.00  0.00     0.006 A 
ENDBRANCH  62  79
ENDBRANCH  36  37
ENDBRANCH  29  31
ENDBRANCH  28  29
ENDBRANCH  27  28
ENDBRANCH  26  27
ENDBRANCH  25  26
ENDBRANCH   1  25
TORSDOF 18
ENDMDL
