MODEL 1
REMARK VINA RESULT:     -11.0      0.000      0.000
REMARK SMILES C=Cc1cccc(-c2ccc([C@@H](C)C(=O)OCCOCCOC(=O)c3ccc(-c4c5nc(c(-c6c(F)cccc6F)c6ccc([nH]6)c(-c6c(F)cccc6F)c6nc(c(-c7c(F)cccc7F)c7ccc4[nH]7)C=C6)C=C5)cc3)cc2)c1
REMARK SMILES IDX 18 1 17 2 16 3 14 4 15 5 12 6 13 7 11 8 8 9 9 10 80 11 10 12
REMARK SMILES IDX 79 13 7 14 3 15 4 16 81 17 5 18 6 19 2 20 1 21 19 22 20 23
REMARK SMILES IDX 21 24 22 25 23 26 24 27 25 28 26 29 78 30 27 31 77 32 28 33
REMARK SMILES IDX 29 34 30 35 71 36 31 37 76 38 70 39 72 40 32 41 75 42 69 43
REMARK SMILES IDX 68 44 33 46 59 47 42 48 58 49 43 50 46 51 57 52 73 53 44 54
REMARK SMILES IDX 45 55 56 57 74 58 47 59 34 60 35 61 40 62 36 63 37 64 39 65
REMARK SMILES IDX 41 66 38 67 60 68 61 69 66 70 62 71 63 72 65 73 67 74 64 75
REMARK SMILES IDX 48 76 49 77 54 78 50 79 51 80 53 81 55 82 52 83
REMARK H PARENT 72 45 46 56
REMARK Flexibility Score: inf
ROOT
ATOM      1  C   UNL A   1      44.610  19.672  24.956  1.00  0.00     0.202 C 
ENDROOT
BRANCH   1   2
ATOM      2  C   UNL A   1      43.277  19.079  25.420  1.00  0.00     0.261 C 
BRANCH   2   3
ATOM      3  O   UNL A   1      42.245  20.082  25.448  1.00  0.00    -0.463 OA
BRANCH   3   4
ATOM      4  C   UNL A   1      41.683  20.323  26.662  1.00  0.00     0.313 C 
ATOM      5  O   UNL A   1      41.433  19.455  27.494  1.00  0.00    -0.252 OA
BRANCH   4   6
ATOM      6  C   UNL A   1      41.327  21.782  26.899  1.00  0.00     0.126 C 
ATOM      7  C   UNL A   1      41.682  22.158  28.335  1.00  0.00     0.025 C 
BRANCH   6   8
ATOM      8  C   UNL A   1      39.924  22.245  26.515  1.00  0.00    -0.034 A 
ATOM      9  C   UNL A   1      37.383  23.108  25.552  1.00  0.00    -0.018 A 
ATOM     10  C   UNL A   1      38.204  23.960  26.308  1.00  0.00     0.009 A 
ATOM     11  C   UNL A   1      37.836  21.800  25.328  1.00  0.00     0.009 A 
ATOM     12  C   UNL A   1      39.454  23.537  26.782  1.00  0.00     0.005 A 
ATOM     13  C   UNL A   1      39.085  21.375  25.800  1.00  0.00     0.005 A 
BRANCH   9  14
ATOM     14  C   UNL A   1      36.122  23.581  24.954  1.00  0.00    -0.018 A 
ATOM     15  C   UNL A   1      34.018  24.833  25.104  1.00  0.00    -0.026 A 
ATOM     16  C   UNL A   1      33.655  24.363  23.837  1.00  0.00     0.008 A 
ATOM     17  C   UNL A   1      35.245  24.429  25.656  1.00  0.00     0.016 A 
ATOM     18  C   UNL A   1      34.513  23.530  23.121  1.00  0.00     0.001 A 
ATOM     19  C   UNL A   1      35.736  23.146  23.675  1.00  0.00     0.009 A 
BRANCH  15  20
ATOM     20  C   UNL A   1      33.068  25.680  25.835  1.00  0.00     0.000 C 
ATOM     21  C   UNL A   1      31.775  25.814  25.509  1.00  0.00     0.009 C 
ENDBRANCH  15  20
ENDBRANCH   9  14
ENDBRANCH   6   8
ENDBRANCH   4   6
ENDBRANCH   3   4
ENDBRANCH   2   3
ENDBRANCH   1   2
BRANCH   1  22
ATOM     22  O   UNL A   1      44.524  20.693  23.963  1.00  0.00    -0.374 OA
BRANCH  22  23
ATOM     23  C   UNL A   1      45.170  21.934  24.251  1.00  0.00     0.202 C 
BRANCH  23  24
ATOM     24  C   UNL A   1      44.615  22.720  25.445  1.00  0.00     0.261 C 
BRANCH  24  25
ATOM     25  O   UNL A   1      43.870  23.879  25.028  1.00  0.00    -0.460 OA
BRANCH  25  26
ATOM     26  C   UNL A   1      44.469  25.067  25.262  1.00  0.00     0.338 C 
ATOM     27  O   UNL A   1      45.382  25.582  24.628  1.00  0.00    -0.246 OA
BRANCH  26  28
ATOM     28  C   UNL A   1      43.741  25.791  26.321  1.00  0.00     0.060 A 
ATOM     29  C   UNL A   1      44.213  27.059  26.683  1.00  0.00     0.016 A 
ATOM     30  C   UNL A   1      42.650  25.223  26.982  1.00  0.00     0.016 A 
ATOM     31  C   UNL A   1      43.608  27.757  27.727  1.00  0.00     0.010 A 
ATOM     32  C   UNL A   1      42.054  25.919  28.038  1.00  0.00     0.010 A 
ATOM     33  C   UNL A   1      42.541  27.180  28.429  1.00  0.00    -0.014 A 
BRANCH  33  34
ATOM     34  C   UNL A   1      41.990  27.863  29.623  1.00  0.00     0.031 A 
ATOM     35  C   UNL A   1      40.764  28.720  29.490  1.00  0.00     0.074 A 
ATOM     36  C   UNL A   1      42.578  27.711  30.824  1.00  0.00     0.049 A 
ATOM     37  N   UNL A   1      40.152  29.439  30.397  1.00  0.00    -0.248 NA
ATOM     38  C   UNL A   1      40.141  28.772  28.158  1.00  0.00     0.031 C 
ATOM     39  C   UNL A   1      43.751  26.880  31.089  1.00  0.00     0.029 A 
ATOM     40  N   UNL A   1      42.272  28.264  32.042  1.00  0.00    -0.354 N 
ATOM     41  C   UNL A   1      39.076  30.030  29.749  1.00  0.00     0.074 A 
ATOM     42  C   UNL A   1      39.130  29.604  28.366  1.00  0.00     0.031 C 
ATOM     43  C   UNL A   1      44.077  26.991  32.389  1.00  0.00     0.029 A 
ATOM     44  C   UNL A   1      43.157  27.925  33.035  1.00  0.00     0.049 A 
ATOM     45  H   UNL A   1      41.493  28.847  32.190  1.00  0.00     0.167 HD
ATOM     46  C   UNL A   1      38.128  30.849  30.261  1.00  0.00     0.037 A 
ATOM     47  C   UNL A   1      43.235  28.345  34.313  1.00  0.00     0.037 A 
ATOM     48  C   UNL A   1      38.074  31.273  31.635  1.00  0.00     0.049 A 
ATOM     49  C   UNL A   1      42.218  29.322  34.837  1.00  0.00     0.074 A 
ATOM     50  C   UNL A   1      37.127  32.070  32.255  1.00  0.00     0.029 A 
ATOM     51  N   UNL A   1      39.015  30.947  32.600  1.00  0.00    -0.354 N 
ATOM     52  N   UNL A   1      41.184  29.847  34.224  1.00  0.00    -0.248 NA
ATOM     53  C   UNL A   1      42.381  29.769  36.228  1.00  0.00     0.031 C 
ATOM     54  C   UNL A   1      37.522  32.267  33.582  1.00  0.00     0.029 A 
ATOM     55  C   UNL A   1      38.691  31.557  33.801  1.00  0.00     0.049 A 
ATOM     56  H   UNL A   1      39.797  30.366  32.453  1.00  0.00     0.167 HD
ATOM     57  C   UNL A   1      40.567  30.671  35.156  1.00  0.00     0.074 A 
ATOM     58  C   UNL A   1      41.331  30.565  36.382  1.00  0.00     0.031 C 
ATOM     59  C   UNL A   1      39.466  31.449  35.010  1.00  0.00     0.037 A 
BRANCH  46  60
ATOM     60  C   UNL A   1      37.076  31.363  29.323  1.00  0.00     0.057 A 
ATOM     61  C   UNL A   1      35.981  30.579  28.940  1.00  0.00     0.134 A 
ATOM     62  C   UNL A   1      37.138  32.675  28.835  1.00  0.00     0.134 A 
ATOM     63  F   UNL A   1      35.870  29.311  29.364  1.00  0.00    -0.206 F 
ATOM     64  C   UNL A   1      34.991  31.077  28.092  1.00  0.00     0.040 A 
ATOM     65  C   UNL A   1      36.143  33.190  28.004  1.00  0.00     0.040 A 
ATOM     66  F   UNL A   1      38.159  33.478  29.169  1.00  0.00    -0.206 F 
ATOM     67  C   UNL A   1      35.067  32.389  27.626  1.00  0.00     0.006 A 
ENDBRANCH  46  60
BRANCH  47  68
ATOM     68  C   UNL A   1      44.339  27.870  35.183  1.00  0.00     0.057 A 
ATOM     69  C   UNL A   1      44.244  26.665  35.885  1.00  0.00     0.134 A 
ATOM     70  C   UNL A   1      45.508  28.624  35.347  1.00  0.00     0.134 A 
ATOM     71  F   UNL A   1      43.139  25.912  35.789  1.00  0.00    -0.206 F 
ATOM     72  C   UNL A   1      45.267  26.231  36.732  1.00  0.00     0.040 A 
ATOM     73  C   UNL A   1      46.547  28.191  36.171  1.00  0.00     0.040 A 
ATOM     74  F   UNL A   1      45.659  29.791  34.702  1.00  0.00    -0.206 F 
ATOM     75  C   UNL A   1      46.425  26.994  36.872  1.00  0.00     0.006 A 
ENDBRANCH  47  68
BRANCH  59  76
ATOM     76  C   UNL A   1      39.018  32.238  36.205  1.00  0.00     0.057 A 
ATOM     77  C   UNL A   1      38.151  31.694  37.161  1.00  0.00     0.134 A 
ATOM     78  C   UNL A   1      39.489  33.539  36.423  1.00  0.00     0.134 A 
ATOM     79  F   UNL A   1      37.655  30.457  37.003  1.00  0.00    -0.206 F 
ATOM     80  C   UNL A   1      37.754  32.423  38.284  1.00  0.00     0.040 A 
ATOM     81  C   UNL A   1      39.117  34.269  37.553  1.00  0.00     0.040 A 
ATOM     82  F   UNL A   1      40.326  34.116  35.549  1.00  0.00    -0.206 F 
ATOM     83  C   UNL A   1      38.243  33.712  38.485  1.00  0.00     0.006 A 
ENDBRANCH  59  76
ENDBRANCH  33  34
ENDBRANCH  26  28
ENDBRANCH  25  26
ENDBRANCH  24  25
ENDBRANCH  23  24
ENDBRANCH  22  23
ENDBRANCH   1  22
TORSDOF 17
ENDMDL
MODEL 2
REMARK VINA RESULT:     -11.0      1.460      6.510
REMARK SMILES C=Cc1cccc(-c2ccc([C@@H](C)C(=O)OCCOCCOC(=O)c3ccc(-c4c5nc(c(-c6c(F)cccc6F)c6ccc([nH]6)c(-c6c(F)cccc6F)c6nc(c(-c7c(F)cccc7F)c7ccc4[nH]7)C=C6)C=C5)cc3)cc2)c1
REMARK SMILES IDX 18 1 17 2 16 3 14 4 15 5 12 6 13 7 11 8 8 9 9 10 80 11 10 12
REMARK SMILES IDX 79 13 7 14 3 15 4 16 81 17 5 18 6 19 2 20 1 21 19 22 20 23
REMARK SMILES IDX 21 24 22 25 23 26 24 27 25 28 26 29 78 30 27 31 77 32 28 33
REMARK SMILES IDX 29 34 30 35 71 36 31 37 76 38 70 39 72 40 32 41 75 42 69 43
REMARK SMILES IDX 68 44 33 46 59 47 42 48 58 49 43 50 46 51 57 52 73 53 44 54
REMARK SMILES IDX 45 55 56 57 74 58 47 59 34 60 35 61 40 62 36 63 37 64 39 65
REMARK SMILES IDX 41 66 38 67 60 68 61 69 66 70 62 71 63 72 65 73 67 74 64 75
REMARK SMILES IDX 48 76 49 77 54 78 50 79 51 80 53 81 55 82 52 83
REMARK H PARENT 72 45 46 56
REMARK Flexibility Score: inf
ROOT
ATOM      1  C   UNL A   1      44.643  19.573  25.237  1.00  0.00     0.202 C 
ENDROOT
BRANCH   1   2
ATOM      2  C   UNL A   1      43.402  18.694  25.410  1.00  0.00     0.261 C 
BRANCH   2   3
ATOM      3  O   UNL A   1      42.197  19.481  25.355  1.00  0.00    -0.463 OA
BRANCH   3   4
ATOM      4  C   UNL A   1      41.730  19.938  26.545  1.00  0.00     0.313 C 
ATOM      5  O   UNL A   1      41.920  19.381  27.624  1.00  0.00    -0.252 OA
BRANCH   4   6
ATOM      6  C   UNL A   1      40.883  21.196  26.435  1.00  0.00     0.126 C 
ATOM      7  C   UNL A   1      40.905  21.934  27.770  1.00  0.00     0.025 C 
BRANCH   6   8
ATOM      8  C   UNL A   1      39.468  21.057  25.880  1.00  0.00    -0.034 A 
ATOM      9  C   UNL A   1      36.740  20.816  25.089  1.00  0.00    -0.018 A 
ATOM     10  C   UNL A   1      37.626  19.732  24.988  1.00  0.00     0.009 A 
ATOM     11  C   UNL A   1      37.255  22.036  25.548  1.00  0.00     0.009 A 
ATOM     12  C   UNL A   1      38.969  19.849  25.377  1.00  0.00     0.005 A 
ATOM     13  C   UNL A   1      38.596  22.155  25.938  1.00  0.00     0.005 A 
BRANCH   9  14
ATOM     14  C   UNL A   1      35.304  20.668  24.790  1.00  0.00    -0.018 A 
ATOM     15  C   UNL A   1      33.351  19.269  24.294  1.00  0.00    -0.026 A 
ATOM     16  C   UNL A   1      32.585  20.422  24.090  1.00  0.00     0.008 A 
ATOM     17  C   UNL A   1      34.708  19.403  24.633  1.00  0.00     0.016 A 
ATOM     18  C   UNL A   1      33.153  21.684  24.251  1.00  0.00     0.001 A 
ATOM     19  C   UNL A   1      34.499  21.805  24.600  1.00  0.00     0.009 A 
BRANCH  15  20
ATOM     20  C   UNL A   1      32.721  17.961  24.080  1.00  0.00     0.000 C 
ATOM     21  C   UNL A   1      33.270  16.970  23.366  1.00  0.00     0.009 C 
ENDBRANCH  15  20
ENDBRANCH   9  14
ENDBRANCH   6   8
ENDBRANCH   4   6
ENDBRANCH   3   4
ENDBRANCH   2   3
ENDBRANCH   1   2
BRANCH   1  22
ATOM     22  O   UNL A   1      44.815  20.159  23.948  1.00  0.00    -0.374 OA
BRANCH  22  23
ATOM     23  C   UNL A   1      44.549  21.558  23.831  1.00  0.00     0.202 C 
BRANCH  23  24
ATOM     24  C   UNL A   1      44.295  22.307  25.144  1.00  0.00     0.261 C 
BRANCH  24  25
ATOM     25  O   UNL A   1      43.602  23.550  24.932  1.00  0.00    -0.460 OA
BRANCH  25  26
ATOM     26  C   UNL A   1      44.318  24.665  25.196  1.00  0.00     0.338 C 
ATOM     27  O   UNL A   1      45.322  25.063  24.618  1.00  0.00    -0.246 OA
BRANCH  26  28
ATOM     28  C   UNL A   1      43.613  25.482  26.200  1.00  0.00     0.060 A 
ATOM     29  C   UNL A   1      43.978  26.829  26.315  1.00  0.00     0.016 A 
ATOM     30  C   UNL A   1      42.649  24.932  27.049  1.00  0.00     0.016 A 
ATOM     31  C   UNL A   1      43.398  27.629  27.297  1.00  0.00     0.010 A 
ATOM     32  C   UNL A   1      42.078  25.734  28.043  1.00  0.00     0.010 A 
ATOM     33  C   UNL A   1      42.462  27.081  28.184  1.00  0.00    -0.014 A 
BRANCH  33  34
ATOM     34  C   UNL A   1      41.949  27.896  29.311  1.00  0.00     0.031 A 
ATOM     35  C   UNL A   1      42.634  27.831  30.646  1.00  0.00     0.074 A 
ATOM     36  C   UNL A   1      40.882  28.696  29.140  1.00  0.00     0.049 A 
ATOM     37  N   UNL A   1      42.318  28.425  31.769  1.00  0.00    -0.248 NA
ATOM     38  C   UNL A   1      43.838  26.989  30.727  1.00  0.00     0.031 C 
ATOM     39  C   UNL A   1      40.153  28.872  27.885  1.00  0.00     0.029 A 
ATOM     40  N   UNL A   1      40.219  29.502  30.031  1.00  0.00    -0.354 N 
ATOM     41  C   UNL A   1      43.278  28.028  32.690  1.00  0.00     0.074 A 
ATOM     42  C   UNL A   1      44.177  27.125  32.001  1.00  0.00     0.031 C 
ATOM     43  C   UNL A   1      39.130  29.720  28.092  1.00  0.00     0.029 A 
ATOM     44  C   UNL A   1      39.116  30.118  29.498  1.00  0.00     0.049 A 
ATOM     45  H   UNL A   1      40.509  29.626  30.965  1.00  0.00     0.167 HD
ATOM     46  C   UNL A   1      43.402  28.387  33.989  1.00  0.00     0.037 A 
ATOM     47  C   UNL A   1      38.181  30.892  30.085  1.00  0.00     0.037 A 
ATOM     48  C   UNL A   1      42.508  29.284  34.675  1.00  0.00     0.049 A 
ATOM     49  C   UNL A   1      38.294  31.209  31.551  1.00  0.00     0.074 A 
ATOM     50  C   UNL A   1      42.577  29.739  35.981  1.00  0.00     0.029 A 
ATOM     51  N   UNL A   1      41.375  29.852  34.114  1.00  0.00    -0.354 N 
ATOM     52  N   UNL A   1      39.226  30.857  32.404  1.00  0.00    -0.248 NA
ATOM     53  C   UNL A   1      37.222  32.026  32.138  1.00  0.00     0.031 C 
ATOM     54  C   UNL A   1      41.458  30.541  36.224  1.00  0.00     0.029 A 
ATOM     55  C   UNL A   1      40.716  30.622  35.057  1.00  0.00     0.049 A 
ATOM     56  H   UNL A   1      41.083  29.726  33.181  1.00  0.00     0.167 HD
ATOM     57  C   UNL A   1      38.862  31.421  33.620  1.00  0.00     0.074 A 
ATOM     58  C   UNL A   1      37.634  32.153  33.393  1.00  0.00     0.031 C 
ATOM     59  C   UNL A   1      39.489  31.338  34.819  1.00  0.00     0.037 A 
BRANCH  46  60
ATOM     60  C   UNL A   1      44.536  27.791  34.768  1.00  0.00     0.057 A 
ATOM     61  C   UNL A   1      45.794  28.403  34.827  1.00  0.00     0.134 A 
ATOM     62  C   UNL A   1      44.351  26.614  35.505  1.00  0.00     0.134 A 
ATOM     63  F   UNL A   1      46.038  29.525  34.135  1.00  0.00    -0.206 F 
ATOM     64  C   UNL A   1      46.834  27.856  35.580  1.00  0.00     0.040 A 
ATOM     65  C   UNL A   1      45.378  26.070  36.278  1.00  0.00     0.040 A 
ATOM     66  F   UNL A   1      43.169  25.982  35.494  1.00  0.00    -0.206 F 
ATOM     67  C   UNL A   1      46.626  26.690  36.315  1.00  0.00     0.006 A 
ENDBRANCH  46  60
BRANCH  47  68
ATOM     68  C   UNL A   1      37.033  31.396  29.292  1.00  0.00     0.057 A 
ATOM     69  C   UNL A   1      37.031  32.687  28.755  1.00  0.00     0.134 A 
ATOM     70  C   UNL A   1      35.899  30.603  29.072  1.00  0.00     0.134 A 
ATOM     71  F   UNL A   1      38.076  33.503  28.954  1.00  0.00    -0.206 F 
ATOM     72  C   UNL A   1      35.937  33.178  28.038  1.00  0.00     0.040 A 
ATOM     73  C   UNL A   1      34.810  31.071  28.338  1.00  0.00     0.040 A 
ATOM     74  F   UNL A   1      35.839  29.356  29.564  1.00  0.00    -0.206 F 
ATOM     75  C   UNL A   1      34.825  32.366  27.824  1.00  0.00     0.006 A 
ENDBRANCH  47  68
BRANCH  59  76
ATOM     76  C   UNL A   1      38.863  32.063  35.974  1.00  0.00     0.057 A 
ATOM     77  C   UNL A   1      38.054  31.400  36.906  1.00  0.00     0.134 A 
ATOM     78  C   UNL A   1      39.103  33.428  36.179  1.00  0.00     0.134 A 
ATOM     79  F   UNL A   1      37.775  30.097  36.757  1.00  0.00    -0.206 F 
ATOM     80  C   UNL A   1      37.492  32.073  37.993  1.00  0.00     0.040 A 
ATOM     81  C   UNL A   1      38.566  34.106  37.274  1.00  0.00     0.040 A 
ATOM     82  F   UNL A   1      39.874  34.120  35.327  1.00  0.00    -0.206 F 
ATOM     83  C   UNL A   1      37.753  33.429  38.182  1.00  0.00     0.006 A 
ENDBRANCH  59  76
ENDBRANCH  33  34
ENDBRANCH  26  28
ENDBRANCH  25  26
ENDBRANCH  24  25
ENDBRANCH  23  24
ENDBRANCH  22  23
ENDBRANCH   1  22
TORSDOF 17
ENDMDL
MODEL 3
REMARK VINA RESULT:     -10.8      1.307      2.153
REMARK SMILES C=Cc1cccc(-c2ccc([C@@H](C)C(=O)OCCOCCOC(=O)c3ccc(-c4c5nc(c(-c6c(F)cccc6F)c6ccc([nH]6)c(-c6c(F)cccc6F)c6nc(c(-c7c(F)cccc7F)c7ccc4[nH]7)C=C6)C=C5)cc3)cc2)c1
REMARK SMILES IDX 18 1 17 2 16 3 14 4 15 5 12 6 13 7 11 8 8 9 9 10 80 11 10 12
REMARK SMILES IDX 79 13 7 14 3 15 4 16 81 17 5 18 6 19 2 20 1 21 19 22 20 23
REMARK SMILES IDX 21 24 22 25 23 26 24 27 25 28 26 29 78 30 27 31 77 32 28 33
REMARK SMILES IDX 29 34 30 35 71 36 31 37 76 38 70 39 72 40 32 41 75 42 69 43
REMARK SMILES IDX 68 44 33 46 59 47 42 48 58 49 43 50 46 51 57 52 73 53 44 54
REMARK SMILES IDX 45 55 56 57 74 58 47 59 34 60 35 61 40 62 36 63 37 64 39 65
REMARK SMILES IDX 41 66 38 67 60 68 61 69 66 70 62 71 63 72 65 73 67 74 64 75
REMARK SMILES IDX 48 76 49 77 54 78 50 79 51 80 53 81 55 82 52 83
REMARK H PARENT 72 45 46 56
REMARK Flexibility Score: inf
ROOT
ATOM      1  C   UNL A   1      44.719  20.049  25.186  1.00  0.00     0.202 C 
ENDROOT
BRANCH   1   2
ATOM      2  C   UNL A   1      43.639  18.974  25.339  1.00  0.00     0.261 C 
BRANCH   2   3
ATOM      3  O   UNL A   1      42.321  19.553  25.299  1.00  0.00    -0.463 OA
BRANCH   3   4
ATOM      4  C   UNL A   1      41.798  19.924  26.497  1.00  0.00     0.313 C 
ATOM      5  O   UNL A   1      41.893  19.264  27.529  1.00  0.00    -0.252 OA
BRANCH   4   6
ATOM      6  C   UNL A   1      41.018  21.228  26.453  1.00  0.00     0.126 C 
ATOM      7  C   UNL A   1      41.062  21.886  27.829  1.00  0.00     0.025 C 
BRANCH   6   8
ATOM      8  C   UNL A   1      39.603  21.193  25.880  1.00  0.00    -0.034 A 
ATOM      9  C   UNL A   1      36.875  21.138  25.055  1.00  0.00    -0.018 A 
ATOM     10  C   UNL A   1      37.706  20.017  24.900  1.00  0.00     0.009 A 
ATOM     11  C   UNL A   1      37.447  22.302  25.587  1.00  0.00     0.009 A 
ATOM     12  C   UNL A   1      39.048  20.043  25.306  1.00  0.00     0.005 A 
ATOM     13  C   UNL A   1      38.787  22.330  25.993  1.00  0.00     0.005 A 
BRANCH   9  14
ATOM     14  C   UNL A   1      35.436  21.082  24.738  1.00  0.00    -0.018 A 
ATOM     15  C   UNL A   1      33.331  19.837  24.551  1.00  0.00    -0.026 A 
ATOM     16  C   UNL A   1      32.719  20.968  23.998  1.00  0.00     0.008 A 
ATOM     17  C   UNL A   1      34.688  19.901  24.907  1.00  0.00     0.016 A 
ATOM     18  C   UNL A   1      33.439  22.149  23.832  1.00  0.00     0.001 A 
ATOM     19  C   UNL A   1      34.784  22.205  24.201  1.00  0.00     0.009 A 
BRANCH  15  20
ATOM     20  C   UNL A   1      32.543  18.605  24.676  1.00  0.00     0.000 C 
ATOM     21  C   UNL A   1      32.961  17.508  25.322  1.00  0.00     0.009 C 
ENDBRANCH  15  20
ENDBRANCH   9  14
ENDBRANCH   6   8
ENDBRANCH   4   6
ENDBRANCH   3   4
ENDBRANCH   2   3
ENDBRANCH   1   2
BRANCH   1  22
ATOM     22  O   UNL A   1      44.831  20.635  23.890  1.00  0.00    -0.374 OA
BRANCH  22  23
ATOM     23  C   UNL A   1      44.496  22.019  23.773  1.00  0.00     0.202 C 
BRANCH  23  24
ATOM     24  C   UNL A   1      44.357  22.792  25.090  1.00  0.00     0.261 C 
BRANCH  24  25
ATOM     25  O   UNL A   1      43.637  24.025  24.919  1.00  0.00    -0.460 OA
BRANCH  25  26
ATOM     26  C   UNL A   1      44.320  25.144  25.247  1.00  0.00     0.338 C 
ATOM     27  O   UNL A   1      45.298  25.617  24.680  1.00  0.00    -0.246 OA
BRANCH  26  28
ATOM     28  C   UNL A   1      43.608  25.864  26.319  1.00  0.00     0.060 A 
ATOM     29  C   UNL A   1      44.038  27.162  26.626  1.00  0.00     0.016 A 
ATOM     30  C   UNL A   1      42.575  25.267  27.044  1.00  0.00     0.016 A 
ATOM     31  C   UNL A   1      43.450  27.861  27.679  1.00  0.00     0.010 A 
ATOM     32  C   UNL A   1      41.996  25.965  28.109  1.00  0.00     0.010 A 
ATOM     33  C   UNL A   1      42.443  27.258  28.444  1.00  0.00    -0.014 A 
BRANCH  33  34
ATOM     34  C   UNL A   1      41.916  27.949  29.645  1.00  0.00     0.031 A 
ATOM     35  C   UNL A   1      40.681  28.795  29.533  1.00  0.00     0.074 A 
ATOM     36  C   UNL A   1      42.534  27.813  30.832  1.00  0.00     0.049 A 
ATOM     37  N   UNL A   1      40.086  29.519  30.447  1.00  0.00    -0.248 NA
ATOM     38  C   UNL A   1      40.026  28.829  28.216  1.00  0.00     0.031 C 
ATOM     39  C   UNL A   1      43.719  26.992  31.077  1.00  0.00     0.029 A 
ATOM     40  N   UNL A   1      42.254  28.375  32.052  1.00  0.00    -0.354 N 
ATOM     41  C   UNL A   1      38.990  30.096  29.820  1.00  0.00     0.074 A 
ATOM     42  C   UNL A   1      39.014  29.656  28.440  1.00  0.00     0.031 C 
ATOM     43  C   UNL A   1      44.076  27.119  32.367  1.00  0.00     0.029 A 
ATOM     44  C   UNL A   1      43.165  28.053  33.027  1.00  0.00     0.049 A 
ATOM     45  H   UNL A   1      41.474  28.954  32.214  1.00  0.00     0.167 HD
ATOM     46  C   UNL A   1      38.049  30.913  30.347  1.00  0.00     0.037 A 
ATOM     47  C   UNL A   1      43.271  28.486  34.298  1.00  0.00     0.037 A 
ATOM     48  C   UNL A   1      38.025  31.350  31.718  1.00  0.00     0.049 A 
ATOM     49  C   UNL A   1      42.259  29.461  34.837  1.00  0.00     0.074 A 
ATOM     50  C   UNL A   1      37.088  32.147  32.353  1.00  0.00     0.029 A 
ATOM     51  N   UNL A   1      38.991  31.040  32.663  1.00  0.00    -0.354 N 
ATOM     52  N   UNL A   1      41.207  29.972  34.245  1.00  0.00    -0.248 NA
ATOM     53  C   UNL A   1      42.453  29.923  36.219  1.00  0.00     0.031 C 
ATOM     54  C   UNL A   1      37.513  32.359  33.668  1.00  0.00     0.029 A 
ATOM     55  C   UNL A   1      38.692  31.660  33.865  1.00  0.00     0.049 A 
ATOM     56  H   UNL A   1      39.774  30.464  32.502  1.00  0.00     0.167 HD
ATOM     57  C   UNL A   1      40.607  30.802  35.183  1.00  0.00     0.074 A 
ATOM     58  C   UNL A   1      41.401  30.713  36.390  1.00  0.00     0.031 C 
ATOM     59  C   UNL A   1      39.497  31.569  35.056  1.00  0.00     0.037 A 
BRANCH  46  60
ATOM     60  C   UNL A   1      36.971  31.409  29.430  1.00  0.00     0.057 A 
ATOM     61  C   UNL A   1      37.010  32.691  28.869  1.00  0.00     0.134 A 
ATOM     62  C   UNL A   1      35.905  30.575  29.069  1.00  0.00     0.134 A 
ATOM     63  F   UNL A   1      37.998  33.542  29.184  1.00  0.00    -0.206 F 
ATOM     64  C   UNL A   1      36.018  33.133  27.992  1.00  0.00     0.040 A 
ATOM     65  C   UNL A   1      34.919  30.998  28.176  1.00  0.00     0.040 A 
ATOM     66  F   UNL A   1      35.812  29.334  29.568  1.00  0.00    -0.206 F 
ATOM     67  C   UNL A   1      34.972  32.283  27.638  1.00  0.00     0.006 A 
ENDBRANCH  46  60
BRANCH  47  68
ATOM     68  C   UNL A   1      44.399  28.028  35.145  1.00  0.00     0.057 A 
ATOM     69  C   UNL A   1      44.281  26.903  35.968  1.00  0.00     0.134 A 
ATOM     70  C   UNL A   1      45.617  28.719  35.167  1.00  0.00     0.134 A 
ATOM     71  F   UNL A   1      43.131  26.216  36.010  1.00  0.00    -0.206 F 
ATOM     72  C   UNL A   1      45.329  26.489  36.793  1.00  0.00     0.040 A 
ATOM     73  C   UNL A   1      46.680  28.302  35.968  1.00  0.00     0.040 A 
ATOM     74  F   UNL A   1      45.793  29.807  34.401  1.00  0.00    -0.206 F 
ATOM     75  C   UNL A   1      46.535  27.187  36.790  1.00  0.00     0.006 A 
ENDBRANCH  47  68
BRANCH  59  76
ATOM     76  C   UNL A   1      39.072  32.367  36.253  1.00  0.00     0.057 A 
ATOM     77  C   UNL A   1      39.510  33.682  36.453  1.00  0.00     0.134 A 
ATOM     78  C   UNL A   1      38.184  31.830  37.195  1.00  0.00     0.134 A 
ATOM     79  F   UNL A   1      40.372  34.249  35.595  1.00  0.00    -0.206 F 
ATOM     80  C   UNL A   1      39.094  34.430  37.557  1.00  0.00     0.040 A 
ATOM     81  C   UNL A   1      37.743  32.575  38.289  1.00  0.00     0.040 A 
ATOM     82  F   UNL A   1      37.722  30.578  37.059  1.00  0.00    -0.206 F 
ATOM     83  C   UNL A   1      38.202  33.878  38.475  1.00  0.00     0.006 A 
ENDBRANCH  59  76
ENDBRANCH  33  34
ENDBRANCH  26  28
ENDBRANCH  25  26
ENDBRANCH  24  25
ENDBRANCH  23  24
ENDBRANCH  22  23
ENDBRANCH   1  22
TORSDOF 17
ENDMDL
