MODEL 1
REMARK VINA RESULT:     -10.9      0.000      0.000
REMARK SMILES COc1cc(OC)cc(-c2ccc(C(=O)OCCOCCOC(=O)c3ccc(-c4c5nc(c(-c6c(F)cccc6F)c6ccc([nH]6)c(-c6c(F)cccc6F)c6nc(c(-c7c(F)cccc7F)c7ccc4[nH]7)C=C6)C=C5)cc3)o2)c1
REMARK SMILES IDX 19 1 18 2 17 3 16 4 14 5 15 6 13 7 10 8 11 9 79 10 12 11
REMARK SMILES IDX 9 12 3 13 4 14 80 15 5 16 8 17 2 18 1 19 6 20 7 21 20 22
REMARK SMILES IDX 21 23 22 24 23 25 24 26 25 27 26 28 78 29 27 30 77 31 28 32
REMARK SMILES IDX 29 33 30 34 71 35 31 36 76 37 70 38 72 39 32 40 75 41 69 42
REMARK SMILES IDX 68 43 33 45 59 46 42 47 58 48 43 49 46 50 57 51 73 52 44 53
REMARK SMILES IDX 45 54 56 56 74 57 47 58 34 59 35 60 40 61 36 62 37 63 39 64
REMARK SMILES IDX 41 65 38 66 60 67 61 68 66 69 62 70 63 71 65 72 67 73 64 74
REMARK SMILES IDX 48 75 49 76 54 77 50 78 51 79 53 80 55 81 52 82
REMARK H PARENT 72 44 46 55
REMARK Flexibility Score: inf
ROOT
ATOM      1  O   UNL A   1      43.671  20.914  25.965  1.00  0.00    -0.374 OA
ENDROOT
BRANCH   1   2
ATOM      2  C   UNL A   1      43.027  19.671  25.682  1.00  0.00     0.202 C 
BRANCH   2   3
ATOM      3  C   UNL A   1      41.572  19.594  26.155  1.00  0.00     0.261 C 
BRANCH   3   4
ATOM      4  O   UNL A   1      40.898  20.830  25.860  1.00  0.00    -0.457 OA
BRANCH   4   5
ATOM      5  C   UNL A   1      40.383  21.501  26.932  1.00  0.00     0.374 C 
ATOM      6  O   UNL A   1      40.855  21.482  28.061  1.00  0.00    -0.242 OA
BRANCH   5   7
ATOM      7  C   UNL A   1      39.272  22.312  26.490  1.00  0.00     0.212 A 
ATOM      8  C   UNL A   1      37.227  22.621  25.735  1.00  0.00     0.135 A 
ATOM      9  C   UNL A   1      37.719  23.874  26.025  1.00  0.00     0.052 A 
ATOM     10  O   UNL A   1      38.164  21.673  26.001  1.00  0.00    -0.449 OA
ATOM     11  C   UNL A   1      39.033  23.677  26.516  1.00  0.00     0.059 A 
BRANCH   8  12
ATOM     12  C   UNL A   1      35.978  22.133  25.189  1.00  0.00     0.025 A 
ATOM     13  C   UNL A   1      33.822  22.615  24.200  1.00  0.00     0.123 A 
ATOM     14  C   UNL A   1      33.533  21.249  24.208  1.00  0.00     0.092 A 
ATOM     15  C   UNL A   1      35.045  23.055  24.698  1.00  0.00     0.058 A 
ATOM     16  C   UNL A   1      34.459  20.317  24.688  1.00  0.00     0.123 A 
ATOM     17  C   UNL A   1      35.691  20.761  25.170  1.00  0.00     0.058 A 
BRANCH  13  18
ATOM     18  O   UNL A   1      32.826  23.418  23.716  1.00  0.00    -0.497 OA
ATOM     19  C   UNL A   1      31.715  22.754  23.126  1.00  0.00     0.278 C 
ENDBRANCH  13  18
BRANCH  16  20
ATOM     20  O   UNL A   1      34.037  19.016  24.627  1.00  0.00    -0.497 OA
ATOM     21  C   UNL A   1      32.659  18.796  24.359  1.00  0.00     0.278 C 
ENDBRANCH  16  20
ENDBRANCH   8  12
ENDBRANCH   5   7
ENDBRANCH   4   5
ENDBRANCH   3   4
ENDBRANCH   2   3
ENDBRANCH   1   2
BRANCH   1  22
ATOM     22  C   UNL A   1      44.714  21.310  25.073  1.00  0.00     0.202 C 
BRANCH  22  23
ATOM     23  C   UNL A   1      44.297  22.331  24.010  1.00  0.00     0.261 C 
BRANCH  23  24
ATOM     24  O   UNL A   1      43.542  23.408  24.598  1.00  0.00    -0.460 OA
BRANCH  24  25
ATOM     25  C   UNL A   1      44.284  24.456  25.028  1.00  0.00     0.338 C 
ATOM     26  O   UNL A   1      45.382  24.800  24.626  1.00  0.00    -0.246 OA
BRANCH  25  27
ATOM     27  C   UNL A   1      43.500  25.267  25.980  1.00  0.00     0.060 A 
ATOM     28  C   UNL A   1      43.785  26.636  26.046  1.00  0.00     0.016 A 
ATOM     29  C   UNL A   1      42.549  24.701  26.833  1.00  0.00     0.016 A 
ATOM     30  C   UNL A   1      43.157  27.437  26.998  1.00  0.00     0.010 A 
ATOM     31  C   UNL A   1      41.924  25.504  27.793  1.00  0.00     0.010 A 
ATOM     32  C   UNL A   1      42.250  26.868  27.901  1.00  0.00    -0.014 A 
BRANCH  32  33
ATOM     33  C   UNL A   1      41.749  27.674  29.040  1.00  0.00     0.031 A 
ATOM     34  C   UNL A   1      42.457  27.591  30.364  1.00  0.00     0.074 A 
ATOM     35  C   UNL A   1      40.692  28.493  28.891  1.00  0.00     0.049 A 
ATOM     36  N   UNL A   1      42.180  28.192  31.493  1.00  0.00    -0.248 NA
ATOM     37  C   UNL A   1      43.637  26.713  30.423  1.00  0.00     0.031 C 
ATOM     38  C   UNL A   1      39.943  28.689  27.653  1.00  0.00     0.029 A 
ATOM     39  N   UNL A   1      40.066  29.311  29.799  1.00  0.00    -0.354 N 
ATOM     40  C   UNL A   1      43.143  27.761  32.397  1.00  0.00     0.074 A 
ATOM     41  C   UNL A   1      43.997  26.828  31.693  1.00  0.00     0.031 C 
ATOM     42  C   UNL A   1      38.950  29.569  27.879  1.00  0.00     0.029 A 
ATOM     43  C   UNL A   1      38.981  29.974  29.283  1.00  0.00     0.049 A 
ATOM     44  H   UNL A   1      40.367  29.413  30.730  1.00  0.00     0.167 HD
ATOM     45  C   UNL A   1      43.306  28.115  33.694  1.00  0.00     0.037 A 
ATOM     46  C   UNL A   1      38.101  30.801  29.882  1.00  0.00     0.037 A 
ATOM     47  C   UNL A   1      42.463  29.050  34.393  1.00  0.00     0.049 A 
ATOM     48  C   UNL A   1      38.267  31.128  31.342  1.00  0.00     0.074 A 
ATOM     49  C   UNL A   1      42.572  29.497  35.698  1.00  0.00     0.029 A 
ATOM     50  N   UNL A   1      41.354  29.672  33.845  1.00  0.00    -0.354 N 
ATOM     51  N   UNL A   1      39.201  30.741  32.177  1.00  0.00    -0.248 NA
ATOM     52  C   UNL A   1      37.254  32.009  31.943  1.00  0.00     0.031 C 
ATOM     53  C   UNL A   1      41.500  30.359  35.954  1.00  0.00     0.029 A 
ATOM     54  C   UNL A   1      40.750  30.480  34.795  1.00  0.00     0.049 A 
ATOM     55  H   UNL A   1      41.041  29.558  32.919  1.00  0.00     0.167 HD
ATOM     56  C   UNL A   1      38.906  31.352  33.390  1.00  0.00     0.074 A 
ATOM     57  C   UNL A   1      37.710  32.143  33.180  1.00  0.00     0.031 C 
ATOM     58  C   UNL A   1      39.567  31.269  34.570  1.00  0.00     0.037 A 
BRANCH  45  59
ATOM     59  C   UNL A   1      44.429  27.471  34.449  1.00  0.00     0.057 A 
ATOM     60  C   UNL A   1      45.676  28.093  34.593  1.00  0.00     0.134 A 
ATOM     61  C   UNL A   1      44.247  26.230  35.073  1.00  0.00     0.134 A 
ATOM     62  F   UNL A   1      45.917  29.276  34.008  1.00  0.00    -0.206 F 
ATOM     63  C   UNL A   1      46.709  27.494  35.316  1.00  0.00     0.040 A 
ATOM     64  C   UNL A   1      45.266  25.632  35.816  1.00  0.00     0.040 A 
ATOM     65  F   UNL A   1      43.076  25.585  34.976  1.00  0.00    -0.206 F 
ATOM     66  C   UNL A   1      46.502  26.262  35.936  1.00  0.00     0.006 A 
ENDBRANCH  45  59
BRANCH  46  67
ATOM     67  C   UNL A   1      36.974  31.376  29.108  1.00  0.00     0.057 A 
ATOM     68  C   UNL A   1      36.989  32.711  28.690  1.00  0.00     0.134 A 
ATOM     69  C   UNL A   1      35.842  30.614  28.795  1.00  0.00     0.134 A 
ATOM     70  F   UNL A   1      38.036  33.497  28.982  1.00  0.00    -0.206 F 
ATOM     71  C   UNL A   1      35.913  33.273  28.001  1.00  0.00     0.040 A 
ATOM     72  C   UNL A   1      34.768  31.156  28.089  1.00  0.00     0.040 A 
ATOM     73  F   UNL A   1      35.766  29.328  29.170  1.00  0.00    -0.206 F 
ATOM     74  C   UNL A   1      34.799  32.493  27.696  1.00  0.00     0.006 A 
ENDBRANCH  46  67
BRANCH  58  75
ATOM     75  C   UNL A   1      39.036  32.079  35.715  1.00  0.00     0.057 A 
ATOM     76  C   UNL A   1      38.188  31.524  36.682  1.00  0.00     0.134 A 
ATOM     77  C   UNL A   1      39.411  33.419  35.875  1.00  0.00     0.134 A 
ATOM     78  F   UNL A   1      37.781  30.250  36.579  1.00  0.00    -0.206 F 
ATOM     79  C   UNL A   1      37.717  32.280  37.757  1.00  0.00     0.040 A 
ATOM     80  C   UNL A   1      38.967  34.178  36.959  1.00  0.00     0.040 A 
ATOM     81  F   UNL A   1      40.229  34.007  34.988  1.00  0.00    -0.206 F 
ATOM     82  C   UNL A   1      38.112  33.609  37.901  1.00  0.00     0.006 A 
ENDBRANCH  58  75
ENDBRANCH  32  33
ENDBRANCH  25  27
ENDBRANCH  24  25
ENDBRANCH  23  24
ENDBRANCH  22  23
ENDBRANCH   1  22
TORSDOF 17
ENDMDL
MODEL 2
REMARK VINA RESULT:     -10.8      5.298     10.666
REMARK SMILES COc1cc(OC)cc(-c2ccc(C(=O)OCCOCCOC(=O)c3ccc(-c4c5nc(c(-c6c(F)cccc6F)c6ccc([nH]6)c(-c6c(F)cccc6F)c6nc(c(-c7c(F)cccc7F)c7ccc4[nH]7)C=C6)C=C5)cc3)o2)c1
REMARK SMILES IDX 19 1 18 2 17 3 16 4 14 5 15 6 13 7 10 8 11 9 79 10 12 11
REMARK SMILES IDX 9 12 3 13 4 14 80 15 5 16 8 17 2 18 1 19 6 20 7 21 20 22
REMARK SMILES IDX 21 23 22 24 23 25 24 26 25 27 26 28 78 29 27 30 77 31 28 32
REMARK SMILES IDX 29 33 30 34 71 35 31 36 76 37 70 38 72 39 32 40 75 41 69 42
REMARK SMILES IDX 68 43 33 45 59 46 42 47 58 48 43 49 46 50 57 51 73 52 44 53
REMARK SMILES IDX 45 54 56 56 74 57 47 58 34 59 35 60 40 61 36 62 37 63 39 64
REMARK SMILES IDX 41 65 38 66 60 67 61 68 66 69 62 70 63 71 65 72 67 73 64 74
REMARK SMILES IDX 48 75 49 76 54 77 50 78 51 79 53 80 55 81 52 82
REMARK H PARENT 72 44 46 55
REMARK Flexibility Score: inf
ROOT
ATOM      1  O   UNL A   1      34.508  34.744  30.857  1.00  0.00    -0.374 OA
ENDROOT
BRANCH   1   2
ATOM      2  C   UNL A   1      33.427  35.139  30.010  1.00  0.00     0.202 C 
BRANCH   2   3
ATOM      3  C   UNL A   1      33.318  34.332  28.713  1.00  0.00     0.261 C 
BRANCH   3   4
ATOM      4  O   UNL A   1      33.893  33.027  28.900  1.00  0.00    -0.457 OA
BRANCH   4   5
ATOM      5  C   UNL A   1      34.873  32.672  28.018  1.00  0.00     0.374 C 
ATOM      6  O   UNL A   1      35.768  33.413  27.633  1.00  0.00    -0.242 OA
BRANCH   5   7
ATOM      7  C   UNL A   1      34.741  31.267  27.708  1.00  0.00     0.212 A 
ATOM      8  C   UNL A   1      33.802  29.544  26.711  1.00  0.00     0.135 A 
ATOM      9  C   UNL A   1      34.934  29.057  27.327  1.00  0.00     0.052 A 
ATOM     10  O   UNL A   1      33.671  30.875  26.947  1.00  0.00    -0.449 OA
ATOM     11  C   UNL A   1      35.542  30.166  27.965  1.00  0.00     0.059 A 
BRANCH   8  12
ATOM     12  C   UNL A   1      32.746  28.938  25.927  1.00  0.00     0.025 A 
ATOM     13  C   UNL A   1      31.652  26.933  25.126  1.00  0.00     0.123 A 
ATOM     14  C   UNL A   1      30.787  27.729  24.371  1.00  0.00     0.092 A 
ATOM     15  C   UNL A   1      32.637  27.542  25.899  1.00  0.00     0.058 A 
ATOM     16  C   UNL A   1      30.881  29.124  24.396  1.00  0.00     0.123 A 
ATOM     17  C   UNL A   1      31.857  29.730  25.187  1.00  0.00     0.058 A 
BRANCH  13  18
ATOM     18  O   UNL A   1      31.460  25.585  25.000  1.00  0.00    -0.497 OA
ATOM     19  C   UNL A   1      30.438  25.017  25.811  1.00  0.00     0.278 C 
ENDBRANCH  13  18
BRANCH  16  20
ATOM     20  O   UNL A   1      29.963  29.768  23.612  1.00  0.00    -0.497 OA
ATOM     21  C   UNL A   1      29.918  29.404  22.238  1.00  0.00     0.278 C 
ENDBRANCH  16  20
ENDBRANCH   8  12
ENDBRANCH   5   7
ENDBRANCH   4   5
ENDBRANCH   3   4
ENDBRANCH   2   3
ENDBRANCH   1   2
BRANCH   1  22
ATOM     22  C   UNL A   1      34.257  34.763  32.263  1.00  0.00     0.202 C 
BRANCH  22  23
ATOM     23  C   UNL A   1      34.077  33.382  32.901  1.00  0.00     0.261 C 
BRANCH  23  24
ATOM     24  O   UNL A   1      34.986  32.426  32.325  1.00  0.00    -0.460 OA
BRANCH  24  25
ATOM     25  C   UNL A   1      36.140  32.251  33.012  1.00  0.00     0.338 C 
ATOM     26  O   UNL A   1      36.349  32.503  34.186  1.00  0.00    -0.246 OA
BRANCH  25  27
ATOM     27  C   UNL A   1      37.121  31.537  32.170  1.00  0.00     0.060 A 
ATOM     28  C   UNL A   1      38.067  30.738  32.822  1.00  0.00     0.016 A 
ATOM     29  C   UNL A   1      37.157  31.686  30.781  1.00  0.00     0.016 A 
ATOM     30  C   UNL A   1      39.085  30.124  32.095  1.00  0.00     0.010 A 
ATOM     31  C   UNL A   1      38.183  31.074  30.052  1.00  0.00     0.010 A 
ATOM     32  C   UNL A   1      39.171  30.319  30.710  1.00  0.00    -0.014 A 
BRANCH  32  33
ATOM     33  C   UNL A   1      40.367  29.842  29.976  1.00  0.00     0.031 A 
ATOM     34  C   UNL A   1      41.513  30.789  29.750  1.00  0.00     0.074 A 
ATOM     35  C   UNL A   1      40.447  28.572  29.540  1.00  0.00     0.049 A 
ATOM     36  N   UNL A   1      42.643  30.590  29.121  1.00  0.00    -0.248 NA
ATOM     37  C   UNL A   1      41.365  32.143  30.309  1.00  0.00     0.031 C 
ATOM     38  C   UNL A   1      39.421  27.549  29.727  1.00  0.00     0.029 A 
ATOM     39  N   UNL A   1      41.441  27.931  28.844  1.00  0.00    -0.354 N 
ATOM     40  C   UNL A   1      43.336  31.791  29.200  1.00  0.00     0.074 A 
ATOM     41  C   UNL A   1      42.491  32.722  29.916  1.00  0.00     0.031 C 
ATOM     42  C   UNL A   1      39.836  26.406  29.152  1.00  0.00     0.029 A 
ATOM     43  C   UNL A   1      41.143  26.627  28.535  1.00  0.00     0.049 A 
ATOM     44  H   UNL A   1      42.287  28.365  28.590  1.00  0.00     0.167 HD
ATOM     45  C   UNL A   1      44.570  32.090  28.727  1.00  0.00     0.037 A 
ATOM     46  C   UNL A   1      41.840  25.721  27.822  1.00  0.00     0.037 A 
ATOM     47  C   UNL A   1      45.416  31.163  28.022  1.00  0.00     0.049 A 
ATOM     48  C   UNL A   1      43.180  26.099  27.250  1.00  0.00     0.074 A 
ATOM     49  C   UNL A   1      46.695  31.365  27.534  1.00  0.00     0.029 A 
ATOM     50  N   UNL A   1      45.063  29.863  27.699  1.00  0.00    -0.354 N 
ATOM     51  N   UNL A   1      43.840  27.227  27.362  1.00  0.00    -0.248 NA
ATOM     52  C   UNL A   1      43.873  25.076  26.453  1.00  0.00     0.031 C 
ATOM     53  C   UNL A   1      47.101  30.198  26.877  1.00  0.00     0.029 A 
ATOM     54  C   UNL A   1      46.090  29.257  26.993  1.00  0.00     0.049 A 
ATOM     55  H   UNL A   1      44.210  29.433  27.936  1.00  0.00     0.167 HD
ATOM     56  C   UNL A   1      45.035  27.039  26.675  1.00  0.00     0.074 A 
ATOM     57  C   UNL A   1      45.012  25.686  26.158  1.00  0.00     0.031 C 
ATOM     58  C   UNL A   1      46.059  27.907  26.494  1.00  0.00     0.037 A 
BRANCH  45  59
ATOM     59  C   UNL A   1      45.070  33.487  28.936  1.00  0.00     0.057 A 
ATOM     60  C   UNL A   1      44.795  34.515  28.026  1.00  0.00     0.134 A 
ATOM     61  C   UNL A   1      45.804  33.815  30.083  1.00  0.00     0.134 A 
ATOM     62  F   UNL A   1      44.109  34.262  26.902  1.00  0.00    -0.206 F 
ATOM     63  C   UNL A   1      45.249  35.818  28.241  1.00  0.00     0.040 A 
ATOM     64  C   UNL A   1      46.244  35.119  30.319  1.00  0.00     0.040 A 
ATOM     65  F   UNL A   1      46.098  32.877  30.995  1.00  0.00    -0.206 F 
ATOM     66  C   UNL A   1      45.970  36.124  29.394  1.00  0.00     0.006 A 
ENDBRANCH  45  59
BRANCH  46  67
ATOM     67  C   UNL A   1      41.284  24.365  27.595  1.00  0.00     0.057 A 
ATOM     68  C   UNL A   1      40.265  24.148  26.660  1.00  0.00     0.134 A 
ATOM     69  C   UNL A   1      41.735  23.261  28.326  1.00  0.00     0.134 A 
ATOM     70  F   UNL A   1      39.774  25.172  25.947  1.00  0.00    -0.206 F 
ATOM     71  C   UNL A   1      39.704  22.884  26.472  1.00  0.00     0.040 A 
ATOM     72  C   UNL A   1      41.199  21.987  28.133  1.00  0.00     0.040 A 
ATOM     73  F   UNL A   1      42.709  23.404  29.238  1.00  0.00    -0.206 F 
ATOM     74  C   UNL A   1      40.174  21.797  27.208  1.00  0.00     0.006 A 
ENDBRANCH  46  67
BRANCH  58  75
ATOM     75  C   UNL A   1      47.254  27.413  25.734  1.00  0.00     0.057 A 
ATOM     76  C   UNL A   1      47.370  27.579  24.349  1.00  0.00     0.134 A 
ATOM     77  C   UNL A   1      48.321  26.801  26.405  1.00  0.00     0.134 A 
ATOM     78  F   UNL A   1      46.378  28.146  23.646  1.00  0.00    -0.206 F 
ATOM     79  C   UNL A   1      48.497  27.136  23.655  1.00  0.00     0.040 A 
ATOM     80  C   UNL A   1      49.463  26.376  25.726  1.00  0.00     0.040 A 
ATOM     81  F   UNL A   1      48.276  26.621  27.735  1.00  0.00    -0.206 F 
ATOM     82  C   UNL A   1      49.551  26.537  24.345  1.00  0.00     0.006 A 
ENDBRANCH  58  75
ENDBRANCH  32  33
ENDBRANCH  25  27
ENDBRANCH  24  25
ENDBRANCH  23  24
ENDBRANCH  22  23
ENDBRANCH   1  22
TORSDOF 17
ENDMDL
MODEL 3
REMARK VINA RESULT:     -10.3      5.144     10.486
REMARK SMILES COc1cc(OC)cc(-c2ccc(C(=O)OCCOCCOC(=O)c3ccc(-c4c5nc(c(-c6c(F)cccc6F)c6ccc([nH]6)c(-c6c(F)cccc6F)c6nc(c(-c7c(F)cccc7F)c7ccc4[nH]7)C=C6)C=C5)cc3)o2)c1
REMARK SMILES IDX 19 1 18 2 17 3 16 4 14 5 15 6 13 7 10 8 11 9 79 10 12 11
REMARK SMILES IDX 9 12 3 13 4 14 80 15 5 16 8 17 2 18 1 19 6 20 7 21 20 22
REMARK SMILES IDX 21 23 22 24 23 25 24 26 25 27 26 28 78 29 27 30 77 31 28 32
REMARK SMILES IDX 29 33 30 34 71 35 31 36 76 37 70 38 72 39 32 40 75 41 69 42
REMARK SMILES IDX 68 43 33 45 59 46 42 47 58 48 43 49 46 50 57 51 73 52 44 53
REMARK SMILES IDX 45 54 56 56 74 57 47 58 34 59 35 60 40 61 36 62 37 63 39 64
REMARK SMILES IDX 41 65 38 66 60 67 61 68 66 69 62 70 63 71 65 72 67 73 64 74
REMARK SMILES IDX 48 75 49 76 54 77 50 78 51 79 53 80 55 81 52 82
REMARK H PARENT 72 44 46 55
REMARK Flexibility Score: inf
ROOT
ATOM      1  O   UNL A   1      33.837  34.818  31.263  1.00  0.00    -0.374 OA
ENDROOT
BRANCH   1   2
ATOM      2  C   UNL A   1      34.541  34.156  30.212  1.00  0.00     0.202 C 
BRANCH   2   3
ATOM      3  C   UNL A   1      34.119  34.586  28.803  1.00  0.00     0.261 C 
BRANCH   3   4
ATOM      4  O   UNL A   1      34.421  33.541  27.863  1.00  0.00    -0.457 OA
BRANCH   4   5
ATOM      5  C   UNL A   1      33.412  32.660  27.600  1.00  0.00     0.374 C 
ATOM      6  O   UNL A   1      32.255  32.976  27.356  1.00  0.00    -0.242 OA
BRANCH   5   7
ATOM      7  C   UNL A   1      33.954  31.322  27.552  1.00  0.00     0.212 A 
ATOM      8  C   UNL A   1      33.992  29.229  26.872  1.00  0.00     0.135 A 
ATOM      9  C   UNL A   1      35.151  29.416  27.591  1.00  0.00     0.052 A 
ATOM     10  O   UNL A   1      33.257  30.371  26.855  1.00  0.00    -0.449 OA
ATOM     11  C   UNL A   1      35.132  30.765  28.025  1.00  0.00     0.059 A 
BRANCH   8  12
ATOM     12  C   UNL A   1      33.405  28.093  26.193  1.00  0.00     0.025 A 
ATOM     13  C   UNL A   1      33.119  26.820  24.154  1.00  0.00     0.123 A 
ATOM     14  C   UNL A   1      32.233  25.976  24.827  1.00  0.00     0.092 A 
ATOM     15  C   UNL A   1      33.699  27.884  24.839  1.00  0.00     0.058 A 
ATOM     16  C   UNL A   1      31.936  26.169  26.180  1.00  0.00     0.123 A 
ATOM     17  C   UNL A   1      32.534  27.226  26.867  1.00  0.00     0.058 A 
BRANCH  13  18
ATOM     18  O   UNL A   1      33.312  26.527  22.832  1.00  0.00    -0.497 OA
ATOM     19  C   UNL A   1      33.048  25.185  22.441  1.00  0.00     0.278 C 
ENDBRANCH  13  18
BRANCH  16  20
ATOM     20  O   UNL A   1      31.057  25.260  26.702  1.00  0.00    -0.497 OA
ATOM     21  C   UNL A   1      31.413  23.887  26.607  1.00  0.00     0.278 C 
ENDBRANCH  16  20
ENDBRANCH   8  12
ENDBRANCH   5   7
ENDBRANCH   4   5
ENDBRANCH   3   4
ENDBRANCH   2   3
ENDBRANCH   1   2
BRANCH   1  22
ATOM     22  C   UNL A   1      34.372  34.672  32.580  1.00  0.00     0.202 C 
BRANCH  22  23
ATOM     23  C   UNL A   1      34.131  33.302  33.222  1.00  0.00     0.261 C 
BRANCH  23  24
ATOM     24  O   UNL A   1      35.027  32.314  32.680  1.00  0.00    -0.460 OA
BRANCH  24  25
ATOM     25  C   UNL A   1      36.243  32.260  33.272  1.00  0.00     0.338 C 
ATOM     26  O   UNL A   1      36.530  32.602  34.407  1.00  0.00    -0.246 OA
BRANCH  25  27
ATOM     27  C   UNL A   1      37.198  31.559  32.392  1.00  0.00     0.060 A 
ATOM     28  C   UNL A   1      38.106  30.682  32.998  1.00  0.00     0.016 A 
ATOM     29  C   UNL A   1      37.251  31.791  31.015  1.00  0.00     0.016 A 
ATOM     30  C   UNL A   1      39.102  30.071  32.239  1.00  0.00     0.010 A 
ATOM     31  C   UNL A   1      38.255  31.182  30.255  1.00  0.00     0.010 A 
ATOM     32  C   UNL A   1      39.205  30.346  30.869  1.00  0.00    -0.014 A 
BRANCH  32  33
ATOM     33  C   UNL A   1      40.386  29.865  30.112  1.00  0.00     0.031 A 
ATOM     34  C   UNL A   1      41.538  30.804  29.877  1.00  0.00     0.074 A 
ATOM     35  C   UNL A   1      40.446  28.599  29.663  1.00  0.00     0.049 A 
ATOM     36  N   UNL A   1      42.655  30.600  29.229  1.00  0.00    -0.248 NA
ATOM     37  C   UNL A   1      41.411  32.153  30.451  1.00  0.00     0.031 C 
ATOM     38  C   UNL A   1      39.413  27.584  29.856  1.00  0.00     0.029 A 
ATOM     39  N   UNL A   1      41.424  27.955  28.946  1.00  0.00    -0.354 N 
ATOM     40  C   UNL A   1      43.362  31.793  29.309  1.00  0.00     0.074 A 
ATOM     41  C   UNL A   1      42.536  32.725  30.047  1.00  0.00     0.031 C 
ATOM     42  C   UNL A   1      39.809  26.442  29.264  1.00  0.00     0.029 A 
ATOM     43  C   UNL A   1      41.109  26.657  28.630  1.00  0.00     0.049 A 
ATOM     44  H   UNL A   1      42.270  28.383  28.684  1.00  0.00     0.167 HD
ATOM     45  C   UNL A   1      44.591  32.084  28.820  1.00  0.00     0.037 A 
ATOM     46  C   UNL A   1      41.785  25.751  27.898  1.00  0.00     0.037 A 
ATOM     47  C   UNL A   1      45.417  31.156  28.094  1.00  0.00     0.049 A 
ATOM     48  C   UNL A   1      43.120  26.121  27.309  1.00  0.00     0.074 A 
ATOM     49  C   UNL A   1      46.690  31.350  27.588  1.00  0.00     0.029 A 
ATOM     50  N   UNL A   1      45.047  29.863  27.764  1.00  0.00    -0.354 N 
ATOM     51  N   UNL A   1      43.793  27.242  27.421  1.00  0.00    -0.248 NA
ATOM     52  C   UNL A   1      43.791  25.099  26.491  1.00  0.00     0.031 C 
ATOM     53  C   UNL A   1      47.075  30.186  26.914  1.00  0.00     0.029 A 
ATOM     54  C   UNL A   1      46.057  29.254  27.037  1.00  0.00     0.049 A 
ATOM     55  H   UNL A   1      44.193  29.438  28.010  1.00  0.00     0.167 HD
ATOM     56  C   UNL A   1      44.975  27.049  26.714  1.00  0.00     0.074 A 
ATOM     57  C   UNL A   1      44.931  25.702  26.185  1.00  0.00     0.031 C 
ATOM     58  C   UNL A   1      46.005  27.909  26.525  1.00  0.00     0.037 A 
BRANCH  45  59
ATOM     59  C   UNL A   1      45.108  33.475  29.035  1.00  0.00     0.057 A 
ATOM     60  C   UNL A   1      45.912  33.803  30.133  1.00  0.00     0.134 A 
ATOM     61  C   UNL A   1      44.828  34.489  28.110  1.00  0.00     0.134 A 
ATOM     62  F   UNL A   1      46.204  32.879  31.061  1.00  0.00    -0.206 F 
ATOM     63  C   UNL A   1      46.405  35.096  30.314  1.00  0.00     0.040 A 
ATOM     64  C   UNL A   1      45.334  35.780  28.269  1.00  0.00     0.040 A 
ATOM     65  F   UNL A   1      44.066  34.239  27.035  1.00  0.00    -0.206 F 
ATOM     66  C   UNL A   1      46.121  36.088  29.376  1.00  0.00     0.006 A 
ENDBRANCH  45  59
BRANCH  46  67
ATOM     67  C   UNL A   1      41.213  24.402  27.666  1.00  0.00     0.057 A 
ATOM     68  C   UNL A   1      41.700  23.282  28.348  1.00  0.00     0.134 A 
ATOM     69  C   UNL A   1      40.186  24.197  26.738  1.00  0.00     0.134 A 
ATOM     70  F   UNL A   1      42.701  23.413  29.232  1.00  0.00    -0.206 F 
ATOM     71  C   UNL A   1      41.199  22.003  28.103  1.00  0.00     0.040 A 
ATOM     72  C   UNL A   1      39.660  22.927  26.498  1.00  0.00     0.040 A 
ATOM     73  F   UNL A   1      39.676  25.231  26.051  1.00  0.00    -0.206 F 
ATOM     74  C   UNL A   1      40.172  21.823  27.178  1.00  0.00     0.006 A 
ENDBRANCH  46  67
BRANCH  58  75
ATOM     75  C   UNL A   1      47.184  27.411  25.743  1.00  0.00     0.057 A 
ATOM     76  C   UNL A   1      48.253  26.750  26.360  1.00  0.00     0.134 A 
ATOM     77  C   UNL A   1      47.228  27.557  24.351  1.00  0.00     0.134 A 
ATOM     78  F   UNL A   1      48.277  26.589  27.691  1.00  0.00    -0.206 F 
ATOM     79  C   UNL A   1      49.335  26.269  25.620  1.00  0.00     0.040 A 
ATOM     80  C   UNL A   1      48.293  27.060  23.598  1.00  0.00     0.040 A 
ATOM     81  F   UNL A   1      46.230  28.173  23.698  1.00  0.00    -0.206 F 
ATOM     82  C   UNL A   1      49.354  26.419  24.234  1.00  0.00     0.006 A 
ENDBRANCH  58  75
ENDBRANCH  32  33
ENDBRANCH  25  27
ENDBRANCH  24  25
ENDBRANCH  23  24
ENDBRANCH  22  23
ENDBRANCH   1  22
TORSDOF 17
ENDMDL
