MODEL 1
REMARK VINA RESULT:     -12.5      0.000      0.000
REMARK SMILES Cc1c(C(=O)OCCOCCOC(=O)c2ccc(-c3c4nc(c(-c5c(F)cccc5F)c5ccc([nH]5)c(-c5c(F)cccc5F)c5nc(c(-c6c(F)cccc6F)c6ccc3[nH]6)C=C5)C=C4)cc2)cccc1-n1c(C)cc(/C=C2/C(=O)NC(=S)N=C2O)c1C
REMARK SMILES IDX 8 1 7 2 6 3 4 4 5 5 3 6 1 7 2 8 72 9 69 10 71 11 70 12 73 13
REMARK SMILES IDX 74 14 88 15 75 16 76 17 77 18 89 19 78 20 79 21 80 22 86 23
REMARK SMILES IDX 81 24 82 25 85 26 83 27 84 29 87 30 9 32 10 33 11 34 12 35
REMARK SMILES IDX 13 36 14 37 15 38 16 39 68 40 17 41 67 42 18 43 19 44 20 45
REMARK SMILES IDX 61 46 21 47 66 48 60 49 62 50 22 51 65 52 59 53 58 54 23 56
REMARK SMILES IDX 49 57 32 58 48 59 33 60 36 61 47 62 63 63 34 64 35 65 46 67
REMARK SMILES IDX 64 68 37 69 24 70 25 71 30 72 26 73 27 74 29 75 31 76 28 77
REMARK SMILES IDX 50 78 51 79 56 80 52 81 53 82 55 83 57 84 54 85 38 86 39 87
REMARK SMILES IDX 44 88 40 89 41 90 43 91 45 92 42 93
REMARK H PARENT 82 28 87 31 62 55 36 66
REMARK Flexibility Score: inf
ROOT
ATOM      1  C   UNL A   1      36.856  20.877  24.235  1.00  0.00     0.202 C 
ENDROOT
BRANCH   1   2
ATOM      2  C   UNL A   1      35.990  20.409  25.355  1.00  0.00     0.261 C 
BRANCH   2   3
ATOM      3  O   UNL A   1      34.628  20.822  25.214  1.00  0.00    -0.460 OA
BRANCH   3   4
ATOM      4  C   UNL A   1      33.912  21.462  26.161  1.00  0.00     0.338 C 
ATOM      5  O   UNL A   1      33.406  21.004  27.151  1.00  0.00    -0.246 OA
BRANCH   4   6
ATOM      6  C   UNL A   1      33.901  22.901  25.747  1.00  0.00     0.065 A 
ATOM      7  C   UNL A   1      31.715  22.692  24.369  1.00  0.00     0.047 C 
ATOM      8  C   UNL A   1      32.870  23.480  24.965  1.00  0.00    -0.012 A 
ATOM      9  C   UNL A   1      33.002  24.837  24.644  1.00  0.00     0.049 A 
ATOM     10  C   UNL A   1      35.039  23.657  26.092  1.00  0.00     0.016 A 
ATOM     11  C   UNL A   1      34.146  25.581  24.950  1.00  0.00     0.027 A 
ATOM     12  C   UNL A   1      35.172  24.982  25.672  1.00  0.00     0.003 A 
BRANCH   9  13
ATOM     13  N   UNL A   1      32.021  25.431  23.831  1.00  0.00    -0.318 N 
ATOM     14  C   UNL A   1      32.077  25.532  22.448  1.00  0.00     0.020 A 
ATOM     15  C   UNL A   1      31.133  26.390  24.307  1.00  0.00     0.027 A 
ATOM     16  C   UNL A   1      33.182  24.970  21.613  1.00  0.00     0.065 C 
ATOM     17  C   UNL A   1      30.966  26.255  22.067  1.00  0.00     0.031 A 
ATOM     18  C   UNL A   1      30.314  26.720  23.243  1.00  0.00    -0.003 A 
ATOM     19  C   UNL A   1      31.246  26.912  25.709  1.00  0.00     0.065 C 
BRANCH  18  20
ATOM     20  C   UNL A   1      29.151  27.543  23.220  1.00  0.00     0.029 C 
ATOM     21  C   UNL A   1      28.967  28.813  22.812  1.00  0.00     0.102 C 
ATOM     22  C   UNL A   1      27.574  29.316  22.887  1.00  0.00     0.262 C 
ATOM     23  C   UNL A   1      29.904  29.779  22.236  1.00  0.00     0.226 C 
ATOM     24  O   UNL A   1      26.681  28.791  23.540  1.00  0.00    -0.269 OA
ATOM     25  N   UNL A   1      27.347  30.429  22.122  1.00  0.00    -0.297 N 
ATOM     26  N   UNL A   1      29.606  30.826  21.561  1.00  0.00    -0.184 NA
ATOM     27  C   UNL A   1      28.281  31.129  21.399  1.00  0.00     0.203 C 
ATOM     28  H   UNL A   1      26.420  30.759  22.086  1.00  0.00     0.172 HD
ATOM     29  S   UNL A   1      27.735  32.366  20.412  1.00  0.00    -0.038 S 
BRANCH  23  30
ATOM     30  O   UNL A   1      31.200  29.594  22.491  1.00  0.00    -0.493 OA
ATOM     31  H   UNL A   1      31.612  28.784  22.262  1.00  0.00     0.295 HD
ENDBRANCH  23  30
ENDBRANCH  18  20
ENDBRANCH   9  13
ENDBRANCH   4   6
ENDBRANCH   3   4
ENDBRANCH   2   3
ENDBRANCH   1   2
BRANCH   1  32
ATOM     32  O   UNL A   1      38.161  20.940  24.775  1.00  0.00    -0.374 OA
BRANCH  32  33
ATOM     33  C   UNL A   1      38.293  21.724  25.938  1.00  0.00     0.202 C 
BRANCH  33  34
ATOM     34  C   UNL A   1      39.750  21.791  26.418  1.00  0.00     0.261 C 
BRANCH  34  35
ATOM     35  O   UNL A   1      40.327  20.464  26.390  1.00  0.00    -0.460 OA
BRANCH  35  36
ATOM     36  C   UNL A   1      41.636  20.363  26.016  1.00  0.00     0.338 C 
ATOM     37  O   UNL A   1      42.128  19.425  25.409  1.00  0.00    -0.246 OA
BRANCH  36  38
ATOM     38  C   UNL A   1      42.453  21.405  26.721  1.00  0.00     0.060 A 
ATOM     39  C   UNL A   1      42.412  21.515  28.129  1.00  0.00     0.016 A 
ATOM     40  C   UNL A   1      42.930  22.471  25.967  1.00  0.00     0.016 A 
ATOM     41  C   UNL A   1      42.694  22.744  28.762  1.00  0.00     0.010 A 
ATOM     42  C   UNL A   1      43.080  23.699  26.580  1.00  0.00     0.010 A 
ATOM     43  C   UNL A   1      42.945  23.866  27.972  1.00  0.00    -0.014 A 
BRANCH  43  44
ATOM     44  C   UNL A   1      42.931  25.275  28.404  1.00  0.00     0.031 A 
ATOM     45  C   UNL A   1      41.709  26.075  28.164  1.00  0.00     0.074 A 
ATOM     46  C   UNL A   1      43.828  25.767  29.299  1.00  0.00     0.049 A 
ATOM     47  N   UNL A   1      41.666  27.359  28.274  1.00  0.00    -0.248 NA
ATOM     48  C   UNL A   1      40.426  25.494  27.774  1.00  0.00     0.031 C 
ATOM     49  C   UNL A   1      43.599  26.817  30.298  1.00  0.00     0.029 A 
ATOM     50  N   UNL A   1      45.151  25.391  29.550  1.00  0.00    -0.354 N 
ATOM     51  C   UNL A   1      40.340  27.709  28.346  1.00  0.00     0.074 A 
ATOM     52  C   UNL A   1      39.609  26.537  27.929  1.00  0.00     0.031 C 
ATOM     53  C   UNL A   1      44.765  27.162  30.869  1.00  0.00     0.029 A 
ATOM     54  C   UNL A   1      45.820  26.471  30.155  1.00  0.00     0.049 A 
ATOM     55  H   UNL A   1      45.549  24.516  29.340  1.00  0.00     0.167 HD
ATOM     56  C   UNL A   1      39.980  28.890  28.920  1.00  0.00     0.037 A 
ATOM     57  C   UNL A   1      46.962  26.980  29.620  1.00  0.00     0.037 A 
ATOM     58  C   UNL A   1      41.138  29.585  29.500  1.00  0.00     0.049 A 
ATOM     59  C   UNL A   1      46.727  28.393  29.164  1.00  0.00     0.074 A 
ATOM     60  C   UNL A   1      41.597  29.777  30.794  1.00  0.00     0.029 A 
ATOM     61  N   UNL A   1      42.208  29.927  28.685  1.00  0.00    -0.354 N 
ATOM     62  N   UNL A   1      45.591  29.002  29.355  1.00  0.00    -0.248 NA
ATOM     63  C   UNL A   1      47.665  29.214  28.411  1.00  0.00     0.031 C 
ATOM     64  C   UNL A   1      42.920  30.308  30.733  1.00  0.00     0.029 A 
ATOM     65  C   UNL A   1      43.268  30.449  29.402  1.00  0.00     0.049 A 
ATOM     66  H   UNL A   1      42.210  29.811  27.708  1.00  0.00     0.167 HD
ATOM     67  C   UNL A   1      45.569  30.191  28.705  1.00  0.00     0.074 A 
ATOM     68  C   UNL A   1      46.901  30.287  28.124  1.00  0.00     0.031 C 
ATOM     69  C   UNL A   1      44.436  30.954  28.683  1.00  0.00     0.037 A 
BRANCH  56  70
ATOM     70  C   UNL A   1      38.537  29.252  29.186  1.00  0.00     0.057 A 
ATOM     71  C   UNL A   1      37.711  29.765  28.173  1.00  0.00     0.134 A 
ATOM     72  C   UNL A   1      37.899  29.111  30.435  1.00  0.00     0.134 A 
ATOM     73  F   UNL A   1      38.120  29.847  26.900  1.00  0.00    -0.206 F 
ATOM     74  C   UNL A   1      36.405  30.216  28.409  1.00  0.00     0.040 A 
ATOM     75  C   UNL A   1      36.618  29.615  30.703  1.00  0.00     0.040 A 
ATOM     76  F   UNL A   1      38.468  28.430  31.440  1.00  0.00    -0.206 F 
ATOM     77  C   UNL A   1      35.867  30.180  29.686  1.00  0.00     0.006 A 
ENDBRANCH  56  70
BRANCH  57  78
ATOM     78  C   UNL A   1      47.779  25.906  28.980  1.00  0.00     0.057 A 
ATOM     79  C   UNL A   1      47.702  25.790  27.577  1.00  0.00     0.134 A 
ATOM     80  C   UNL A   1      48.961  25.459  29.584  1.00  0.00     0.134 A 
ATOM     81  F   UNL A   1      46.603  26.208  26.925  1.00  0.00    -0.206 F 
ATOM     82  C   UNL A   1      48.801  25.402  26.801  1.00  0.00     0.040 A 
ATOM     83  C   UNL A   1      50.072  25.083  28.815  1.00  0.00     0.040 A 
ATOM     84  F   UNL A   1      49.118  25.548  30.912  1.00  0.00    -0.206 F 
ATOM     85  C   UNL A   1      50.009  25.096  27.422  1.00  0.00     0.006 A 
ENDBRANCH  57  78
BRANCH  69  86
ATOM     86  C   UNL A   1      44.336  32.241  27.924  1.00  0.00     0.057 A 
ATOM     87  C   UNL A   1      44.451  32.307  26.532  1.00  0.00     0.134 A 
ATOM     88  C   UNL A   1      44.170  33.480  28.577  1.00  0.00     0.134 A 
ATOM     89  F   UNL A   1      44.782  31.226  25.811  1.00  0.00    -0.206 F 
ATOM     90  C   UNL A   1      44.256  33.497  25.827  1.00  0.00     0.040 A 
ATOM     91  C   UNL A   1      44.033  34.683  27.890  1.00  0.00     0.040 A 
ATOM     92  F   UNL A   1      44.110  33.590  29.911  1.00  0.00    -0.206 F 
ATOM     93  C   UNL A   1      44.033  34.689  26.507  1.00  0.00     0.006 A 
ENDBRANCH  69  86
ENDBRANCH  43  44
ENDBRANCH  36  38
ENDBRANCH  35  36
ENDBRANCH  34  35
ENDBRANCH  33  34
ENDBRANCH  32  33
ENDBRANCH   1  32
TORSDOF 17
ENDMDL
MODEL 2
REMARK VINA RESULT:     -12.3      1.960      3.005
REMARK SMILES Cc1c(C(=O)OCCOCCOC(=O)c2ccc(-c3c4nc(c(-c5c(F)cccc5F)c5ccc([nH]5)c(-c5c(F)cccc5F)c5nc(c(-c6c(F)cccc6F)c6ccc3[nH]6)C=C5)C=C4)cc2)cccc1-n1c(C)cc(/C=C2/C(=O)NC(=S)N=C2O)c1C
REMARK SMILES IDX 8 1 7 2 6 3 4 4 5 5 3 6 1 7 2 8 72 9 69 10 71 11 70 12 73 13
REMARK SMILES IDX 74 14 88 15 75 16 76 17 77 18 89 19 78 20 79 21 80 22 86 23
REMARK SMILES IDX 81 24 82 25 85 26 83 27 84 29 87 30 9 32 10 33 11 34 12 35
REMARK SMILES IDX 13 36 14 37 15 38 16 39 68 40 17 41 67 42 18 43 19 44 20 45
REMARK SMILES IDX 61 46 21 47 66 48 60 49 62 50 22 51 65 52 59 53 58 54 23 56
REMARK SMILES IDX 49 57 32 58 48 59 33 60 36 61 47 62 63 63 34 64 35 65 46 67
REMARK SMILES IDX 64 68 37 69 24 70 25 71 30 72 26 73 27 74 29 75 31 76 28 77
REMARK SMILES IDX 50 78 51 79 56 80 52 81 53 82 55 83 57 84 54 85 38 86 39 87
REMARK SMILES IDX 44 88 40 89 41 90 43 91 45 92 42 93
REMARK H PARENT 82 28 87 31 62 55 36 66
REMARK Flexibility Score: inf
ROOT
ATOM      1  C   UNL A   1      36.639  19.737  24.770  1.00  0.00     0.202 C 
ENDROOT
BRANCH   1   2
ATOM      2  C   UNL A   1      35.201  19.365  24.639  1.00  0.00     0.261 C 
BRANCH   2   3
ATOM      3  O   UNL A   1      34.358  20.076  25.550  1.00  0.00    -0.460 OA
BRANCH   3   4
ATOM      4  C   UNL A   1      33.088  20.453  25.295  1.00  0.00     0.338 C 
ATOM      5  O   UNL A   1      32.151  19.762  24.992  1.00  0.00    -0.246 OA
BRANCH   4   6
ATOM      6  C   UNL A   1      33.063  21.936  25.502  1.00  0.00     0.065 A 
ATOM      7  C   UNL A   1      31.558  22.397  23.442  1.00  0.00     0.047 C 
ATOM      8  C   UNL A   1      32.324  22.826  24.683  1.00  0.00    -0.012 A 
ATOM      9  C   UNL A   1      32.408  24.190  24.991  1.00  0.00     0.049 A 
ATOM     10  C   UNL A   1      33.908  22.436  26.513  1.00  0.00     0.016 A 
ATOM     11  C   UNL A   1      33.274  24.695  25.965  1.00  0.00     0.027 A 
ATOM     12  C   UNL A   1      34.032  23.811  26.724  1.00  0.00     0.003 A 
BRANCH   9  13
ATOM     13  N   UNL A   1      31.724  25.103  24.169  1.00  0.00    -0.318 N 
ATOM     14  C   UNL A   1      32.263  25.754  23.069  1.00  0.00     0.020 A 
ATOM     15  C   UNL A   1      30.619  25.825  24.611  1.00  0.00     0.027 A 
ATOM     16  C   UNL A   1      33.652  25.531  22.563  1.00  0.00     0.065 C 
ATOM     17  C   UNL A   1      31.288  26.617  22.613  1.00  0.00     0.031 A 
ATOM     18  C   UNL A   1      30.206  26.593  23.537  1.00  0.00    -0.003 A 
ATOM     19  C   UNL A   1      30.158  25.729  26.034  1.00  0.00     0.065 C 
BRANCH  18  20
ATOM     20  C   UNL A   1      29.043  27.403  23.401  1.00  0.00     0.029 C 
ATOM     21  C   UNL A   1      28.889  28.679  22.999  1.00  0.00     0.102 C 
ATOM     22  C   UNL A   1      27.490  29.167  22.929  1.00  0.00     0.262 C 
ATOM     23  C   UNL A   1      29.872  29.666  22.548  1.00  0.00     0.226 C 
ATOM     24  O   UNL A   1      26.537  28.620  23.470  1.00  0.00    -0.269 OA
ATOM     25  N   UNL A   1      27.335  30.291  22.164  1.00  0.00    -0.297 N 
ATOM     26  N   UNL A   1      29.637  30.723  21.863  1.00  0.00    -0.184 NA
ATOM     27  C   UNL A   1      28.334  31.015  21.562  1.00  0.00     0.203 C 
ATOM     28  H   UNL A   1      26.413  30.613  22.033  1.00  0.00     0.172 HD
ATOM     29  S   UNL A   1      27.884  32.266  20.544  1.00  0.00    -0.038 S 
BRANCH  23  30
ATOM     30  O   UNL A   1      31.134  29.490  22.940  1.00  0.00    -0.493 OA
ATOM     31  H   UNL A   1      31.320  29.249  23.827  1.00  0.00     0.295 HD
ENDBRANCH  23  30
ENDBRANCH  18  20
ENDBRANCH   9  13
ENDBRANCH   4   6
ENDBRANCH   3   4
ENDBRANCH   2   3
ENDBRANCH   1   2
BRANCH   1  32
ATOM     32  O   UNL A   1      36.666  21.147  24.694  1.00  0.00    -0.374 OA
BRANCH  32  33
ATOM     33  C   UNL A   1      37.456  21.787  25.670  1.00  0.00     0.202 C 
BRANCH  33  34
ATOM     34  C   UNL A   1      38.817  21.100  25.844  1.00  0.00     0.261 C 
BRANCH  34  35
ATOM     35  O   UNL A   1      39.871  22.087  25.744  1.00  0.00    -0.460 OA
BRANCH  35  36
ATOM     36  C   UNL A   1      40.344  22.611  26.912  1.00  0.00     0.338 C 
ATOM     37  O   UNL A   1      40.735  21.963  27.870  1.00  0.00    -0.246 OA
BRANCH  36  38
ATOM     38  C   UNL A   1      40.028  24.075  26.984  1.00  0.00     0.060 A 
ATOM     39  C   UNL A   1      40.837  25.017  26.310  1.00  0.00     0.016 A 
ATOM     40  C   UNL A   1      39.187  24.506  28.004  1.00  0.00     0.016 A 
ATOM     41  C   UNL A   1      40.921  26.349  26.766  1.00  0.00     0.010 A 
ATOM     42  C   UNL A   1      39.370  25.772  28.521  1.00  0.00     0.010 A 
ATOM     43  C   UNL A   1      40.248  26.705  27.935  1.00  0.00    -0.014 A 
BRANCH  43  44
ATOM     44  C   UNL A   1      40.464  27.913  28.749  1.00  0.00     0.031 A 
ATOM     45  C   UNL A   1      39.460  29.000  28.680  1.00  0.00     0.074 A 
ATOM     46  C   UNL A   1      41.333  27.938  29.794  1.00  0.00     0.049 A 
ATOM     47  N   UNL A   1      39.660  30.185  29.149  1.00  0.00    -0.248 NA
ATOM     48  C   UNL A   1      38.140  28.844  28.072  1.00  0.00     0.031 C 
ATOM     49  C   UNL A   1      41.204  28.707  31.037  1.00  0.00     0.029 A 
ATOM     50  N   UNL A   1      42.517  27.224  30.000  1.00  0.00    -0.354 N 
ATOM     51  C   UNL A   1      38.431  30.787  29.245  1.00  0.00     0.074 A 
ATOM     52  C   UNL A   1      37.534  29.962  28.473  1.00  0.00     0.031 C 
ATOM     53  C   UNL A   1      42.342  28.619  31.745  1.00  0.00     0.029 A 
ATOM     54  C   UNL A   1      43.314  27.928  30.923  1.00  0.00     0.049 A 
ATOM     55  H   UNL A   1      42.755  26.371  29.571  1.00  0.00     0.167 HD
ATOM     56  C   UNL A   1      38.249  31.822  30.112  1.00  0.00     0.037 A 
ATOM     57  C   UNL A   1      44.587  28.293  30.617  1.00  0.00     0.037 A 
ATOM     58  C   UNL A   1      39.447  32.062  30.927  1.00  0.00     0.049 A 
ATOM     59  C   UNL A   1      44.690  29.793  30.571  1.00  0.00     0.074 A 
ATOM     60  C   UNL A   1      39.784  31.795  32.246  1.00  0.00     0.029 A 
ATOM     61  N   UNL A   1      40.649  32.363  30.303  1.00  0.00    -0.354 N 
ATOM     62  N   UNL A   1      43.683  30.565  30.865  1.00  0.00    -0.248 NA
ATOM     63  C   UNL A   1      45.852  30.555  30.135  1.00  0.00     0.031 C 
ATOM     64  C   UNL A   1      41.184  32.016  32.411  1.00  0.00     0.029 A 
ATOM     65  C   UNL A   1      41.703  32.426  31.195  1.00  0.00     0.049 A 
ATOM     66  H   UNL A   1      40.741  32.514  29.335  1.00  0.00     0.167 HD
ATOM     67  C   UNL A   1      43.971  31.858  30.580  1.00  0.00     0.074 A 
ATOM     68  C   UNL A   1      45.354  31.807  30.124  1.00  0.00     0.031 C 
ATOM     69  C   UNL A   1      43.022  32.831  30.714  1.00  0.00     0.037 A 
BRANCH  56  70
ATOM     70  C   UNL A   1      36.885  32.412  30.390  1.00  0.00     0.057 A 
ATOM     71  C   UNL A   1      36.437  33.569  29.733  1.00  0.00     0.134 A 
ATOM     72  C   UNL A   1      35.958  31.872  31.305  1.00  0.00     0.134 A 
ATOM     73  F   UNL A   1      37.141  34.138  28.746  1.00  0.00    -0.206 F 
ATOM     74  C   UNL A   1      35.229  34.206  30.047  1.00  0.00     0.040 A 
ATOM     75  C   UNL A   1      34.776  32.529  31.677  1.00  0.00     0.040 A 
ATOM     76  F   UNL A   1      36.128  30.655  31.842  1.00  0.00    -0.206 F 
ATOM     77  C   UNL A   1      34.411  33.710  31.051  1.00  0.00     0.006 A 
ENDBRANCH  56  70
BRANCH  57  78
ATOM     78  C   UNL A   1      45.243  27.275  29.743  1.00  0.00     0.057 A 
ATOM     79  C   UNL A   1      45.347  27.579  28.370  1.00  0.00     0.134 A 
ATOM     80  C   UNL A   1      46.203  26.402  30.269  1.00  0.00     0.134 A 
ATOM     81  F   UNL A   1      44.468  28.418  27.797  1.00  0.00    -0.206 F 
ATOM     82  C   UNL A   1      46.440  27.166  27.599  1.00  0.00     0.040 A 
ATOM     83  C   UNL A   1      47.310  25.996  29.509  1.00  0.00     0.040 A 
ATOM     84  F   UNL A   1      46.181  26.075  31.569  1.00  0.00    -0.206 F 
ATOM     85  C   UNL A   1      47.453  26.412  28.185  1.00  0.00     0.006 A 
ENDBRANCH  57  78
BRANCH  69  86
ATOM     86  C   UNL A   1      43.266  34.263  30.349  1.00  0.00     0.057 A 
ATOM     87  C   UNL A   1      43.449  35.265  31.307  1.00  0.00     0.134 A 
ATOM     88  C   UNL A   1      43.274  34.699  29.008  1.00  0.00     0.134 A 
ATOM     89  F   UNL A   1      43.292  35.012  32.614  1.00  0.00    -0.206 F 
ATOM     90  C   UNL A   1      43.777  36.577  30.955  1.00  0.00     0.040 A 
ATOM     91  C   UNL A   1      43.540  36.016  28.643  1.00  0.00     0.040 A 
ATOM     92  F   UNL A   1      43.047  33.872  27.979  1.00  0.00    -0.206 F 
ATOM     93  C   UNL A   1      43.835  36.953  29.618  1.00  0.00     0.006 A 
ENDBRANCH  69  86
ENDBRANCH  43  44
ENDBRANCH  36  38
ENDBRANCH  35  36
ENDBRANCH  34  35
ENDBRANCH  33  34
ENDBRANCH  32  33
ENDBRANCH   1  32
TORSDOF 17
ENDMDL
MODEL 3
REMARK VINA RESULT:     -12.3      4.314      9.625
REMARK SMILES Cc1c(C(=O)OCCOCCOC(=O)c2ccc(-c3c4nc(c(-c5c(F)cccc5F)c5ccc([nH]5)c(-c5c(F)cccc5F)c5nc(c(-c6c(F)cccc6F)c6ccc3[nH]6)C=C5)C=C4)cc2)cccc1-n1c(C)cc(/C=C2/C(=O)NC(=S)N=C2O)c1C
REMARK SMILES IDX 8 1 7 2 6 3 4 4 5 5 3 6 1 7 2 8 72 9 69 10 71 11 70 12 73 13
REMARK SMILES IDX 74 14 88 15 75 16 76 17 77 18 89 19 78 20 79 21 80 22 86 23
REMARK SMILES IDX 81 24 82 25 85 26 83 27 84 29 87 30 9 32 10 33 11 34 12 35
REMARK SMILES IDX 13 36 14 37 15 38 16 39 68 40 17 41 67 42 18 43 19 44 20 45
REMARK SMILES IDX 61 46 21 47 66 48 60 49 62 50 22 51 65 52 59 53 58 54 23 56
REMARK SMILES IDX 49 57 32 58 48 59 33 60 36 61 47 62 63 63 34 64 35 65 46 67
REMARK SMILES IDX 64 68 37 69 24 70 25 71 30 72 26 73 27 74 29 75 31 76 28 77
REMARK SMILES IDX 50 78 51 79 56 80 52 81 53 82 55 83 57 84 54 85 38 86 39 87
REMARK SMILES IDX 44 88 40 89 41 90 43 91 45 92 42 93
REMARK H PARENT 82 28 87 31 62 55 36 66
REMARK Flexibility Score: inf
ROOT
ATOM      1  C   UNL A   1      31.360  30.430  24.870  1.00  0.00     0.202 C 
ENDROOT
BRANCH   1   2
ATOM      2  C   UNL A   1      31.654  29.217  24.055  1.00  0.00     0.261 C 
BRANCH   2   3
ATOM      3  O   UNL A   1      32.963  29.237  23.480  1.00  0.00    -0.460 OA
BRANCH   3   4
ATOM      4  C   UNL A   1      33.545  28.200  22.844  1.00  0.00     0.338 C 
ATOM      5  O   UNL A   1      33.967  28.156  21.718  1.00  0.00    -0.246 OA
BRANCH   4   6
ATOM      6  C   UNL A   1      33.596  27.093  23.851  1.00  0.00     0.065 A 
ATOM      7  C   UNL A   1      32.199  25.451  22.411  1.00  0.00     0.047 C 
ATOM      8  C   UNL A   1      33.021  25.815  23.637  1.00  0.00    -0.012 A 
ATOM      9  C   UNL A   1      33.137  24.884  24.677  1.00  0.00     0.049 A 
ATOM     10  C   UNL A   1      34.169  27.414  25.098  1.00  0.00     0.016 A 
ATOM     11  C   UNL A   1      33.669  25.208  25.929  1.00  0.00     0.027 A 
ATOM     12  C   UNL A   1      34.181  26.483  26.140  1.00  0.00     0.003 A 
BRANCH   9  13
ATOM     13  N   UNL A   1      32.537  23.623  24.515  1.00  0.00    -0.318 N 
ATOM     14  C   UNL A   1      31.395  23.186  25.171  1.00  0.00     0.020 A 
ATOM     15  C   UNL A   1      33.243  22.509  24.070  1.00  0.00     0.027 A 
ATOM     16  C   UNL A   1      30.601  24.028  26.118  1.00  0.00     0.065 C 
ATOM     17  C   UNL A   1      31.209  21.873  24.791  1.00  0.00     0.031 A 
ATOM     18  C   UNL A   1      32.332  21.471  24.015  1.00  0.00    -0.003 A 
ATOM     19  C   UNL A   1      34.722  22.583  23.830  1.00  0.00     0.065 C 
BRANCH  18  20
ATOM     20  C   UNL A   1      32.492  20.155  23.495  1.00  0.00     0.029 C 
ATOM     21  C   UNL A   1      32.736  18.980  24.106  1.00  0.00     0.102 C 
ATOM     22  C   UNL A   1      32.778  17.791  23.219  1.00  0.00     0.262 C 
ATOM     23  C   UNL A   1      32.903  18.654  25.523  1.00  0.00     0.226 C 
ATOM     24  O   UNL A   1      32.902  17.838  22.002  1.00  0.00    -0.269 OA
ATOM     25  N   UNL A   1      32.633  16.603  23.882  1.00  0.00    -0.297 N 
ATOM     26  N   UNL A   1      32.788  17.497  26.062  1.00  0.00    -0.184 NA
ATOM     27  C   UNL A   1      32.544  16.430  25.242  1.00  0.00     0.203 C 
ATOM     28  H   UNL A   1      32.586  15.790  23.328  1.00  0.00     0.172 HD
ATOM     29  S   UNL A   1      32.210  14.890  25.810  1.00  0.00    -0.038 S 
BRANCH  23  30
ATOM     30  O   UNL A   1      33.279  19.644  26.334  1.00  0.00    -0.493 OA
ATOM     31  H   UNL A   1      32.810  19.801  27.130  1.00  0.00     0.295 HD
ENDBRANCH  23  30
ENDBRANCH  18  20
ENDBRANCH   9  13
ENDBRANCH   4   6
ENDBRANCH   3   4
ENDBRANCH   2   3
ENDBRANCH   1   2
BRANCH   1  32
ATOM     32  O   UNL A   1      31.093  29.949  26.172  1.00  0.00    -0.374 OA
BRANCH  32  33
ATOM     33  C   UNL A   1      32.230  29.694  26.964  1.00  0.00     0.202 C 
BRANCH  33  34
ATOM     34  C   UNL A   1      33.273  30.813  26.841  1.00  0.00     0.261 C 
BRANCH  34  35
ATOM     35  O   UNL A   1      33.804  31.122  28.152  1.00  0.00    -0.460 OA
BRANCH  35  36
ATOM     36  C   UNL A   1      34.021  32.439  28.440  1.00  0.00     0.338 C 
ATOM     37  O   UNL A   1      33.386  33.376  27.983  1.00  0.00    -0.246 OA
BRANCH  36  38
ATOM     38  C   UNL A   1      35.337  32.601  29.141  1.00  0.00     0.060 A 
ATOM     39  C   UNL A   1      36.468  33.076  28.441  1.00  0.00     0.016 A 
ATOM     40  C   UNL A   1      35.513  31.932  30.348  1.00  0.00     0.016 A 
ATOM     41  C   UNL A   1      37.770  32.738  28.867  1.00  0.00     0.010 A 
ATOM     42  C   UNL A   1      36.779  31.501  30.685  1.00  0.00     0.010 A 
ATOM     43  C   UNL A   1      37.921  31.871  29.948  1.00  0.00    -0.014 A 
BRANCH  43  44
ATOM     44  C   UNL A   1      39.142  31.143  30.336  1.00  0.00     0.031 A 
ATOM     45  C   UNL A   1      39.499  29.915  29.591  1.00  0.00     0.074 A 
ATOM     46  C   UNL A   1      40.116  31.714  31.093  1.00  0.00     0.049 A 
ATOM     47  N   UNL A   1      40.393  29.074  29.989  1.00  0.00    -0.248 NA
ATOM     48  C   UNL A   1      38.875  29.525  28.328  1.00  0.00     0.031 C 
ATOM     49  C   UNL A   1      41.561  31.465  31.015  1.00  0.00     0.029 A 
ATOM     50  N   UNL A   1      40.031  32.701  32.080  1.00  0.00    -0.354 N 
ATOM     51  C   UNL A   1      40.713  28.291  28.909  1.00  0.00     0.074 A 
ATOM     52  C   UNL A   1      39.678  28.536  27.934  1.00  0.00     0.031 C 
ATOM     53  C   UNL A   1      42.182  32.070  32.041  1.00  0.00     0.029 A 
ATOM     54  C   UNL A   1      41.157  32.600  32.918  1.00  0.00     0.049 A 
ATOM     55  H   UNL A   1      39.304  33.358  32.173  1.00  0.00     0.167 HD
ATOM     56  C   UNL A   1      41.914  27.649  28.868  1.00  0.00     0.037 A 
ATOM     57  C   UNL A   1      41.022  32.445  34.262  1.00  0.00     0.037 A 
ATOM     58  C   UNL A   1      42.761  28.014  30.012  1.00  0.00     0.049 A 
ATOM     59  C   UNL A   1      41.563  31.105  34.678  1.00  0.00     0.074 A 
ATOM     60  C   UNL A   1      43.873  28.830  30.165  1.00  0.00     0.029 A 
ATOM     61  N   UNL A   1      42.307  27.781  31.301  1.00  0.00    -0.354 N 
ATOM     62  N   UNL A   1      42.132  30.295  33.832  1.00  0.00    -0.248 NA
ATOM     63  C   UNL A   1      41.461  30.519  36.008  1.00  0.00     0.031 C 
ATOM     64  C   UNL A   1      44.114  29.012  31.559  1.00  0.00     0.029 A 
ATOM     65  C   UNL A   1      43.156  28.301  32.260  1.00  0.00     0.049 A 
ATOM     66  H   UNL A   1      41.474  27.299  31.509  1.00  0.00     0.167 HD
ATOM     67  C   UNL A   1      42.374  29.092  34.407  1.00  0.00     0.074 A 
ATOM     68  C   UNL A   1      41.937  29.279  35.784  1.00  0.00     0.031 C 
ATOM     69  C   UNL A   1      42.874  28.054  33.672  1.00  0.00     0.037 A 
BRANCH  56  70
ATOM     70  C   UNL A   1      42.397  26.916  27.637  1.00  0.00     0.057 A 
ATOM     71  C   UNL A   1      42.023  25.587  27.380  1.00  0.00     0.134 A 
ATOM     72  C   UNL A   1      43.238  27.479  26.657  1.00  0.00     0.134 A 
ATOM     73  F   UNL A   1      41.130  24.944  28.144  1.00  0.00    -0.206 F 
ATOM     74  C   UNL A   1      42.540  24.843  26.312  1.00  0.00     0.040 A 
ATOM     75  C   UNL A   1      43.814  26.731  25.620  1.00  0.00     0.040 A 
ATOM     76  F   UNL A   1      43.501  28.794  26.627  1.00  0.00    -0.206 F 
ATOM     77  C   UNL A   1      43.471  25.400  25.449  1.00  0.00     0.006 A 
ENDBRANCH  56  70
BRANCH  57  78
ATOM     78  C   UNL A   1      39.822  33.176  34.768  1.00  0.00     0.057 A 
ATOM     79  C   UNL A   1      38.657  32.416  35.002  1.00  0.00     0.134 A 
ATOM     80  C   UNL A   1      39.971  34.347  35.522  1.00  0.00     0.134 A 
ATOM     81  F   UNL A   1      38.450  31.274  34.324  1.00  0.00    -0.206 F 
ATOM     82  C   UNL A   1      37.770  32.717  36.042  1.00  0.00     0.040 A 
ATOM     83  C   UNL A   1      39.096  34.648  36.576  1.00  0.00     0.040 A 
ATOM     84  F   UNL A   1      41.057  35.117  35.368  1.00  0.00    -0.206 F 
ATOM     85  C   UNL A   1      38.019  33.811  36.866  1.00  0.00     0.006 A 
ENDBRANCH  57  78
BRANCH  69  86
ATOM     86  C   UNL A   1      43.095  26.687  34.241  1.00  0.00     0.057 A 
ATOM     87  C   UNL A   1      44.350  26.070  34.255  1.00  0.00     0.134 A 
ATOM     88  C   UNL A   1      42.034  25.912  34.752  1.00  0.00     0.134 A 
ATOM     89  F   UNL A   1      45.405  26.629  33.644  1.00  0.00    -0.206 F 
ATOM     90  C   UNL A   1      44.564  24.838  34.879  1.00  0.00     0.040 A 
ATOM     91  C   UNL A   1      42.222  24.656  35.323  1.00  0.00     0.040 A 
ATOM     92  F   UNL A   1      40.763  26.335  34.747  1.00  0.00    -0.206 F 
ATOM     93  C   UNL A   1      43.499  24.133  35.426  1.00  0.00     0.006 A 
ENDBRANCH  69  86
ENDBRANCH  43  44
ENDBRANCH  36  38
ENDBRANCH  35  36
ENDBRANCH  34  35
ENDBRANCH  33  34
ENDBRANCH  32  33
ENDBRANCH   1  32
TORSDOF 17
ENDMDL
