MODEL 1
REMARK VINA RESULT:     -11.1      0.000      0.000
REMARK SMILES O=C(OCCOCCOC(=O)c1cc(Cl)ncc1-c1cccc(C(F)(F)F)c1)c1ccc(-c2c3nc(c(-c4c(F)cccc4F)c4ccc([nH]4)c(-c4c(F)cccc4F)c4nc(c(-c5c(F)cccc5F)c5ccc2[nH]5)C=C4)C=C3)cc1
REMARK SMILES IDX 6 1 5 2 4 3 3 4 2 5 1 6 29 7 30 8 82 9 31 10 81 11 32 12
REMARK SMILES IDX 33 13 34 14 75 15 35 16 80 17 74 18 76 19 36 20 79 21 73 22
REMARK SMILES IDX 72 23 37 25 63 26 46 27 62 28 47 29 50 30 61 31 77 32 48 33
REMARK SMILES IDX 49 34 60 36 78 37 51 38 38 39 39 40 44 41 40 42 41 43 43 44
REMARK SMILES IDX 45 45 42 46 64 47 65 48 70 49 66 50 67 51 69 52 71 53 68 54
REMARK SMILES IDX 52 55 53 56 58 57 54 58 55 59 57 60 59 61 56 62 7 63 8 64
REMARK SMILES IDX 9 65 10 66 11 67 12 68 13 69 18 70 14 71 17 72 15 73 16 74
REMARK SMILES IDX 19 75 20 76 28 77 21 78 23 79 22 80 24 81 25 82 26 83 27 84
REMARK H PARENT 76 24 50 35
REMARK Flexibility Score: inf
ROOT
ATOM      1  O   UNL A   1      33.378  27.874  23.647  1.00  0.00    -0.374 OA
ENDROOT
BRANCH   1   2
ATOM      2  C   UNL A   1      32.110  28.395  24.011  1.00  0.00     0.202 C 
BRANCH   2   3
ATOM      3  C   UNL A   1      31.994  29.470  25.111  1.00  0.00     0.261 C 
BRANCH   3   4
ATOM      4  O   UNL A   1      33.228  29.873  25.728  1.00  0.00    -0.460 OA
BRANCH   4   5
ATOM      5  C   UNL A   1      33.244  30.777  26.744  1.00  0.00     0.338 C 
ATOM      6  O   UNL A   1      32.347  31.592  26.905  1.00  0.00    -0.246 OA
BRANCH   5   7
ATOM      7  C   UNL A   1      34.454  30.802  27.598  1.00  0.00     0.060 A 
ATOM      8  C   UNL A   1      34.917  29.620  28.152  1.00  0.00     0.016 A 
ATOM      9  C   UNL A   1      35.207  31.955  27.780  1.00  0.00     0.016 A 
ATOM     10  C   UNL A   1      35.931  29.568  29.067  1.00  0.00     0.010 A 
ATOM     11  C   UNL A   1      36.400  31.868  28.503  1.00  0.00     0.010 A 
ATOM     12  C   UNL A   1      36.760  30.666  29.145  1.00  0.00    -0.014 A 
BRANCH  12  13
ATOM     13  C   UNL A   1      38.033  30.504  29.861  1.00  0.00     0.031 A 
ATOM     14  C   UNL A   1      39.096  29.706  29.205  1.00  0.00     0.074 A 
ATOM     15  C   UNL A   1      38.199  31.083  31.067  1.00  0.00     0.049 A 
ATOM     16  N   UNL A   1      40.154  29.160  29.727  1.00  0.00    -0.248 NA
ATOM     17  C   UNL A   1      38.924  29.464  27.762  1.00  0.00     0.031 C 
ATOM     18  C   UNL A   1      37.250  31.996  31.720  1.00  0.00     0.029 A 
ATOM     19  N   UNL A   1      39.222  30.985  31.969  1.00  0.00    -0.354 N 
ATOM     20  C   UNL A   1      40.730  28.434  28.698  1.00  0.00     0.074 A 
ATOM     21  C   UNL A   1      39.910  28.617  27.522  1.00  0.00     0.031 C 
ATOM     22  C   UNL A   1      37.738  32.375  32.908  1.00  0.00     0.029 A 
ATOM     23  C   UNL A   1      38.963  31.634  33.153  1.00  0.00     0.049 A 
ATOM     24  H   UNL A   1      40.060  30.499  31.789  1.00  0.00     0.167 HD
ATOM     25  C   UNL A   1      41.836  27.662  28.768  1.00  0.00     0.037 A 
ATOM     26  C   UNL A   1      39.599  31.560  34.334  1.00  0.00     0.037 A 
ATOM     27  C   UNL A   1      42.606  27.531  29.974  1.00  0.00     0.049 A 
ATOM     28  C   UNL A   1      40.783  30.642  34.414  1.00  0.00     0.074 A 
ATOM     29  C   UNL A   1      43.729  26.767  30.210  1.00  0.00     0.029 A 
ATOM     30  N   UNL A   1      42.310  28.197  31.163  1.00  0.00    -0.354 N 
ATOM     31  N   UNL A   1      41.299  29.885  33.472  1.00  0.00    -0.248 NA
ATOM     32  C   UNL A   1      41.463  30.545  35.709  1.00  0.00     0.031 C 
ATOM     33  C   UNL A   1      44.081  26.927  31.555  1.00  0.00     0.029 A 
ATOM     34  C   UNL A   1      43.219  27.845  32.142  1.00  0.00     0.049 A 
ATOM     35  H   UNL A   1      41.563  28.826  31.286  1.00  0.00     0.167 HD
ATOM     36  C   UNL A   1      42.379  29.239  34.048  1.00  0.00     0.074 A 
ATOM     37  C   UNL A   1      42.443  29.698  35.425  1.00  0.00     0.031 C 
ATOM     38  C   UNL A   1      43.243  28.352  33.495  1.00  0.00     0.037 A 
BRANCH  25  39
ATOM     39  C   UNL A   1      42.164  26.851  27.551  1.00  0.00     0.057 A 
ATOM     40  C   UNL A   1      41.849  25.488  27.443  1.00  0.00     0.134 A 
ATOM     41  C   UNL A   1      42.910  27.421  26.512  1.00  0.00     0.134 A 
ATOM     42  F   UNL A   1      41.166  24.869  28.418  1.00  0.00    -0.206 F 
ATOM     43  C   UNL A   1      42.314  24.713  26.378  1.00  0.00     0.040 A 
ATOM     44  C   UNL A   1      43.350  26.664  25.424  1.00  0.00     0.040 A 
ATOM     45  F   UNL A   1      43.256  28.717  26.551  1.00  0.00    -0.206 F 
ATOM     46  C   UNL A   1      43.068  25.301  25.366  1.00  0.00     0.006 A 
ENDBRANCH  25  39
BRANCH  26  47
ATOM     47  C   UNL A   1      39.078  32.306  35.510  1.00  0.00     0.057 A 
ATOM     48  C   UNL A   1      38.209  31.704  36.425  1.00  0.00     0.134 A 
ATOM     49  C   UNL A   1      39.479  33.622  35.780  1.00  0.00     0.134 A 
ATOM     50  F   UNL A   1      37.780  30.450  36.223  1.00  0.00    -0.206 F 
ATOM     51  C   UNL A   1      37.753  32.383  37.558  1.00  0.00     0.040 A 
ATOM     52  C   UNL A   1      39.053  34.303  36.922  1.00  0.00     0.040 A 
ATOM     53  F   UNL A   1      40.323  34.257  34.953  1.00  0.00    -0.206 F 
ATOM     54  C   UNL A   1      38.183  33.684  37.814  1.00  0.00     0.006 A 
ENDBRANCH  26  47
BRANCH  38  55
ATOM     55  C   UNL A   1      44.364  27.871  34.361  1.00  0.00     0.057 A 
ATOM     56  C   UNL A   1      45.554  28.592  34.502  1.00  0.00     0.134 A 
ATOM     57  C   UNL A   1      44.194  26.725  35.148  1.00  0.00     0.134 A 
ATOM     58  F   UNL A   1      45.778  29.689  33.762  1.00  0.00    -0.206 F 
ATOM     59  C   UNL A   1      46.540  28.190  35.401  1.00  0.00     0.040 A 
ATOM     60  C   UNL A   1      45.158  26.330  36.070  1.00  0.00     0.040 A 
ATOM     61  F   UNL A   1      43.068  25.999  35.059  1.00  0.00    -0.206 F 
ATOM     62  C   UNL A   1      46.335  27.064  36.200  1.00  0.00     0.006 A 
ENDBRANCH  38  55
ENDBRANCH  12  13
ENDBRANCH   5   7
ENDBRANCH   4   5
ENDBRANCH   3   4
ENDBRANCH   2   3
ENDBRANCH   1   2
BRANCH   1  63
ATOM     63  C   UNL A   1      33.679  27.805  22.262  1.00  0.00     0.202 C 
BRANCH  63  64
ATOM     64  C   UNL A   1      33.270  26.445  21.727  1.00  0.00     0.261 C 
BRANCH  64  65
ATOM     65  O   UNL A   1      34.028  25.433  22.414  1.00  0.00    -0.460 OA
BRANCH  65  66
ATOM     66  C   UNL A   1      33.459  24.212  22.610  1.00  0.00     0.339 C 
ATOM     67  O   UNL A   1      33.371  23.288  21.822  1.00  0.00    -0.246 OA
BRANCH  66  68
ATOM     68  C   UNL A   1      32.992  24.195  24.015  1.00  0.00     0.072 A 
ATOM     69  C   UNL A   1      31.727  24.777  24.204  1.00  0.00     0.057 A 
ATOM     70  C   UNL A   1      33.726  23.688  25.111  1.00  0.00     0.015 A 
ATOM     71  C   UNL A   1      31.229  24.845  25.480  1.00  0.00     0.129 A 
ATOM     72  C   UNL A   1      33.083  23.806  26.346  1.00  0.00     0.122 A 
ATOM     73  Cl  UNL A   1      29.714  25.579  25.789  1.00  0.00    -0.062 Cl
ATOM     74  N   UNL A   1      31.869  24.370  26.559  1.00  0.00    -0.244 NA
BRANCH  70  75
ATOM     75  C   UNL A   1      35.084  23.096  25.115  1.00  0.00    -0.015 A 
ATOM     76  C   UNL A   1      35.337  21.855  24.514  1.00  0.00     0.009 A 
ATOM     77  C   UNL A   1      36.144  23.689  25.842  1.00  0.00     0.021 A 
ATOM     78  C   UNL A   1      36.590  21.237  24.626  1.00  0.00     0.001 A 
ATOM     79  C   UNL A   1      37.433  23.114  25.898  1.00  0.00     0.056 A 
ATOM     80  C   UNL A   1      37.635  21.866  25.301  1.00  0.00     0.013 A 
BRANCH  79  81
ATOM     81  C   UNL A   1      38.610  23.836  26.515  1.00  0.00     0.416 C 
ATOM     82  F   UNL A   1      39.130  24.808  25.719  1.00  0.00    -0.166 F 
ATOM     83  F   UNL A   1      38.270  24.452  27.685  1.00  0.00    -0.166 F 
ATOM     84  F   UNL A   1      39.644  23.008  26.833  1.00  0.00    -0.166 F 
ENDBRANCH  79  81
ENDBRANCH  70  75
ENDBRANCH  66  68
ENDBRANCH  65  66
ENDBRANCH  64  65
ENDBRANCH  63  64
ENDBRANCH   1  63
TORSDOF 16
ENDMDL
MODEL 2
REMARK VINA RESULT:     -11.0      4.375      8.342
REMARK SMILES O=C(OCCOCCOC(=O)c1cc(Cl)ncc1-c1cccc(C(F)(F)F)c1)c1ccc(-c2c3nc(c(-c4c(F)cccc4F)c4ccc([nH]4)c(-c4c(F)cccc4F)c4nc(c(-c5c(F)cccc5F)c5ccc2[nH]5)C=C4)C=C3)cc1
REMARK SMILES IDX 6 1 5 2 4 3 3 4 2 5 1 6 29 7 30 8 82 9 31 10 81 11 32 12
REMARK SMILES IDX 33 13 34 14 75 15 35 16 80 17 74 18 76 19 36 20 79 21 73 22
REMARK SMILES IDX 72 23 37 25 63 26 46 27 62 28 47 29 50 30 61 31 77 32 48 33
REMARK SMILES IDX 49 34 60 36 78 37 51 38 38 39 39 40 44 41 40 42 41 43 43 44
REMARK SMILES IDX 45 45 42 46 64 47 65 48 70 49 66 50 67 51 69 52 71 53 68 54
REMARK SMILES IDX 52 55 53 56 58 57 54 58 55 59 57 60 59 61 56 62 7 63 8 64
REMARK SMILES IDX 9 65 10 66 11 67 12 68 13 69 18 70 14 71 17 72 15 73 16 74
REMARK SMILES IDX 19 75 20 76 28 77 21 78 23 79 22 80 24 81 25 82 26 83 27 84
REMARK H PARENT 76 24 50 35
REMARK Flexibility Score: inf
ROOT
ATOM      1  O   UNL A   1      34.501  31.623  27.247  1.00  0.00    -0.374 OA
ENDROOT
BRANCH   1   2
ATOM      2  C   UNL A   1      33.541  32.214  28.108  1.00  0.00     0.202 C 
BRANCH   2   3
ATOM      3  C   UNL A   1      33.895  33.471  28.927  1.00  0.00     0.261 C 
BRANCH   3   4
ATOM      4  O   UNL A   1      35.138  33.421  29.647  1.00  0.00    -0.460 OA
BRANCH   4   5
ATOM      5  C   UNL A   1      35.390  32.434  30.549  1.00  0.00     0.338 C 
ATOM      6  O   UNL A   1      34.692  32.264  31.539  1.00  0.00    -0.246 OA
BRANCH   5   7
ATOM      7  C   UNL A   1      36.615  31.630  30.336  1.00  0.00     0.060 A 
ATOM      8  C   UNL A   1      37.239  31.661  29.100  1.00  0.00     0.016 A 
ATOM      9  C   UNL A   1      37.223  30.922  31.364  1.00  0.00     0.016 A 
ATOM     10  C   UNL A   1      38.281  30.842  28.765  1.00  0.00     0.010 A 
ATOM     11  C   UNL A   1      38.441  30.285  31.109  1.00  0.00     0.010 A 
ATOM     12  C   UNL A   1      38.968  30.250  29.802  1.00  0.00    -0.014 A 
BRANCH  12  13
ATOM     13  C   UNL A   1      40.274  29.651  29.494  1.00  0.00     0.031 A 
ATOM     14  C   UNL A   1      41.461  30.540  29.509  1.00  0.00     0.074 A 
ATOM     15  C   UNL A   1      40.357  28.334  29.221  1.00  0.00     0.049 A 
ATOM     16  N   UNL A   1      42.635  30.350  28.985  1.00  0.00    -0.248 NA
ATOM     17  C   UNL A   1      41.286  31.838  30.182  1.00  0.00     0.031 C 
ATOM     18  C   UNL A   1      39.255  27.365  29.320  1.00  0.00     0.029 A 
ATOM     19  N   UNL A   1      41.414  27.577  28.796  1.00  0.00    -0.354 N 
ATOM     20  C   UNL A   1      43.316  31.539  29.185  1.00  0.00     0.074 A 
ATOM     21  C   UNL A   1      42.427  32.438  29.886  1.00  0.00     0.031 C 
ATOM     22  C   UNL A   1      39.697  26.149  28.972  1.00  0.00     0.029 A 
ATOM     23  C   UNL A   1      41.066  26.278  28.505  1.00  0.00     0.049 A 
ATOM     24  H   UNL A   1      42.330  27.925  28.708  1.00  0.00     0.167 HD
ATOM     25  C   UNL A   1      44.569  31.838  28.780  1.00  0.00     0.037 A 
ATOM     26  C   UNL A   1      41.751  25.329  27.847  1.00  0.00     0.037 A 
ATOM     27  C   UNL A   1      45.399  30.889  28.090  1.00  0.00     0.049 A 
ATOM     28  C   UNL A   1      43.113  25.699  27.340  1.00  0.00     0.074 A 
ATOM     29  C   UNL A   1      46.674  31.051  27.591  1.00  0.00     0.029 A 
ATOM     30  N   UNL A   1      45.012  29.581  27.801  1.00  0.00    -0.354 N 
ATOM     31  N   UNL A   1      43.746  26.846  27.451  1.00  0.00    -0.248 NA
ATOM     32  C   UNL A   1      43.852  24.670  26.604  1.00  0.00     0.031 C 
ATOM     33  C   UNL A   1      47.038  29.860  26.952  1.00  0.00     0.029 A 
ATOM     34  C   UNL A   1      46.017  28.931  27.113  1.00  0.00     0.049 A 
ATOM     35  H   UNL A   1      44.148  29.180  28.052  1.00  0.00     0.167 HD
ATOM     36  C   UNL A   1      44.967  26.674  26.823  1.00  0.00     0.074 A 
ATOM     37  C   UNL A   1      44.985  25.306  26.333  1.00  0.00     0.031 C 
ATOM     38  C   UNL A   1      45.984  27.556  26.666  1.00  0.00     0.037 A 
BRANCH  25  39
ATOM     39  C   UNL A   1      45.019  33.253  28.982  1.00  0.00     0.057 A 
ATOM     40  C   UNL A   1      44.743  34.274  28.060  1.00  0.00     0.134 A 
ATOM     41  C   UNL A   1      45.842  33.576  30.069  1.00  0.00     0.134 A 
ATOM     42  F   UNL A   1      43.990  34.027  26.978  1.00  0.00    -0.206 F 
ATOM     43  C   UNL A   1      45.315  35.543  28.181  1.00  0.00     0.040 A 
ATOM     44  C   UNL A   1      46.391  34.851  30.220  1.00  0.00     0.040 A 
ATOM     45  F   UNL A   1      46.155  32.649  30.986  1.00  0.00    -0.206 F 
ATOM     46  C   UNL A   1      46.143  35.833  29.263  1.00  0.00     0.006 A 
ENDBRANCH  25  39
BRANCH  26  47
ATOM     47  C   UNL A   1      41.127  24.006  27.581  1.00  0.00     0.057 A 
ATOM     48  C   UNL A   1      40.136  23.853  26.607  1.00  0.00     0.134 A 
ATOM     49  C   UNL A   1      41.543  22.850  28.257  1.00  0.00     0.134 A 
ATOM     50  F   UNL A   1      39.686  24.920  25.929  1.00  0.00    -0.206 F 
ATOM     51  C   UNL A   1      39.578  22.605  26.318  1.00  0.00     0.040 A 
ATOM     52  C   UNL A   1      41.013  21.592  27.960  1.00  0.00     0.040 A 
ATOM     53  F   UNL A   1      42.500  22.919  29.194  1.00  0.00    -0.206 F 
ATOM     54  C   UNL A   1      40.024  21.468  26.990  1.00  0.00     0.006 A 
ENDBRANCH  26  47
BRANCH  38  55
ATOM     55  C   UNL A   1      47.220  27.051  25.992  1.00  0.00     0.057 A 
ATOM     56  C   UNL A   1      47.447  27.235  24.624  1.00  0.00     0.134 A 
ATOM     57  C   UNL A   1      48.242  26.472  26.754  1.00  0.00     0.134 A 
ATOM     58  F   UNL A   1      46.497  27.771  23.842  1.00  0.00    -0.206 F 
ATOM     59  C   UNL A   1      48.654  26.863  24.036  1.00  0.00     0.040 A 
ATOM     60  C   UNL A   1      49.462  26.122  26.184  1.00  0.00     0.040 A 
ATOM     61  F   UNL A   1      48.081  26.278  28.073  1.00  0.00    -0.206 F 
ATOM     62  C   UNL A   1      49.672  26.320  24.821  1.00  0.00     0.006 A 
ENDBRANCH  38  55
ENDBRANCH  12  13
ENDBRANCH   5   7
ENDBRANCH   4   5
ENDBRANCH   3   4
ENDBRANCH   2   3
ENDBRANCH   1   2
BRANCH   1  63
ATOM     63  C   UNL A   1      34.598  30.207  27.256  1.00  0.00     0.202 C 
BRANCH  63  64
ATOM     64  C   UNL A   1      33.228  29.609  26.995  1.00  0.00     0.261 C 
BRANCH  64  65
ATOM     65  O   UNL A   1      33.316  28.179  27.130  1.00  0.00    -0.460 OA
BRANCH  65  66
ATOM     66  C   UNL A   1      32.216  27.428  26.853  1.00  0.00     0.339 C 
ATOM     67  O   UNL A   1      31.106  27.508  27.347  1.00  0.00    -0.246 OA
BRANCH  66  68
ATOM     68  C   UNL A   1      32.614  26.496  25.774  1.00  0.00     0.072 A 
ATOM     69  C   UNL A   1      33.866  25.891  25.973  1.00  0.00     0.057 A 
ATOM     70  C   UNL A   1      31.860  26.230  24.608  1.00  0.00     0.015 A 
ATOM     71  C   UNL A   1      34.339  25.044  25.004  1.00  0.00     0.129 A 
ATOM     72  C   UNL A   1      32.458  25.329  23.721  1.00  0.00     0.122 A 
ATOM     73  Cl  UNL A   1      35.875  24.306  25.162  1.00  0.00    -0.062 Cl
ATOM     74  N   UNL A   1      33.667  24.740  23.884  1.00  0.00    -0.244 NA
BRANCH  70  75
ATOM     75  C   UNL A   1      30.558  26.809  24.201  1.00  0.00    -0.015 A 
ATOM     76  C   UNL A   1      29.353  26.148  24.470  1.00  0.00     0.009 A 
ATOM     77  C   UNL A   1      30.490  27.978  23.405  1.00  0.00     0.021 A 
ATOM     78  C   UNL A   1      28.134  26.632  23.976  1.00  0.00     0.001 A 
ATOM     79  C   UNL A   1      29.261  28.519  22.966  1.00  0.00     0.056 A 
ATOM     80  C   UNL A   1      28.084  27.815  23.242  1.00  0.00     0.013 A 
BRANCH  79  81
ATOM     81  C   UNL A   1      29.173  29.863  22.277  1.00  0.00     0.416 C 
ATOM     82  F   UNL A   1      30.318  30.222  21.637  1.00  0.00    -0.166 F 
ATOM     83  F   UNL A   1      28.192  29.882  21.328  1.00  0.00    -0.166 F 
ATOM     84  F   UNL A   1      28.872  30.885  23.126  1.00  0.00    -0.166 F 
ENDBRANCH  79  81
ENDBRANCH  70  75
ENDBRANCH  66  68
ENDBRANCH  65  66
ENDBRANCH  64  65
ENDBRANCH  63  64
ENDBRANCH   1  63
TORSDOF 16
ENDMDL
MODEL 3
REMARK VINA RESULT:     -11.0      3.206      4.794
REMARK SMILES O=C(OCCOCCOC(=O)c1cc(Cl)ncc1-c1cccc(C(F)(F)F)c1)c1ccc(-c2c3nc(c(-c4c(F)cccc4F)c4ccc([nH]4)c(-c4c(F)cccc4F)c4nc(c(-c5c(F)cccc5F)c5ccc2[nH]5)C=C4)C=C3)cc1
REMARK SMILES IDX 6 1 5 2 4 3 3 4 2 5 1 6 29 7 30 8 82 9 31 10 81 11 32 12
REMARK SMILES IDX 33 13 34 14 75 15 35 16 80 17 74 18 76 19 36 20 79 21 73 22
REMARK SMILES IDX 72 23 37 25 63 26 46 27 62 28 47 29 50 30 61 31 77 32 48 33
REMARK SMILES IDX 49 34 60 36 78 37 51 38 38 39 39 40 44 41 40 42 41 43 43 44
REMARK SMILES IDX 45 45 42 46 64 47 65 48 70 49 66 50 67 51 69 52 71 53 68 54
REMARK SMILES IDX 52 55 53 56 58 57 54 58 55 59 57 60 59 61 56 62 7 63 8 64
REMARK SMILES IDX 9 65 10 66 11 67 12 68 13 69 18 70 14 71 17 72 15 73 16 74
REMARK SMILES IDX 19 75 20 76 28 77 21 78 23 79 22 80 24 81 25 82 26 83 27 84
REMARK H PARENT 76 24 50 35
REMARK Flexibility Score: inf
ROOT
ATOM      1  O   UNL A   1      33.758  30.230  27.554  1.00  0.00    -0.374 OA
ENDROOT
BRANCH   1   2
ATOM      2  C   UNL A   1      32.555  30.680  26.952  1.00  0.00     0.202 C 
BRANCH   2   3
ATOM      3  C   UNL A   1      32.017  32.095  27.244  1.00  0.00     0.261 C 
BRANCH   3   4
ATOM      4  O   UNL A   1      32.997  33.147  27.265  1.00  0.00    -0.460 OA
BRANCH   4   5
ATOM      5  C   UNL A   1      33.221  33.878  28.391  1.00  0.00     0.338 C 
ATOM      6  O   UNL A   1      32.451  34.752  28.763  1.00  0.00    -0.246 OA
BRANCH   5   7
ATOM      7  C   UNL A   1      34.499  33.639  29.099  1.00  0.00     0.060 A 
ATOM      8  C   UNL A   1      34.572  32.629  30.045  1.00  0.00     0.016 A 
ATOM      9  C   UNL A   1      35.663  34.325  28.777  1.00  0.00     0.016 A 
ATOM     10  C   UNL A   1      35.658  32.433  30.851  1.00  0.00     0.010 A 
ATOM     11  C   UNL A   1      36.853  33.957  29.410  1.00  0.00     0.010 A 
ATOM     12  C   UNL A   1      36.845  33.005  30.450  1.00  0.00    -0.014 A 
BRANCH  12  13
ATOM     13  C   UNL A   1      38.076  32.538  31.101  1.00  0.00     0.031 A 
ATOM     14  C   UNL A   1      38.804  31.411  30.471  1.00  0.00     0.074 A 
ATOM     15  C   UNL A   1      38.506  33.141  32.227  1.00  0.00     0.049 A 
ATOM     16  N   UNL A   1      39.703  30.624  30.984  1.00  0.00    -0.248 NA
ATOM     17  C   UNL A   1      38.444  31.110  29.075  1.00  0.00     0.031 C 
ATOM     18  C   UNL A   1      37.919  34.344  32.835  1.00  0.00     0.029 A 
ATOM     19  N   UNL A   1      39.534  32.823  33.072  1.00  0.00    -0.354 N 
ATOM     20  C   UNL A   1      39.955  29.677  30.005  1.00  0.00     0.074 A 
ATOM     21  C   UNL A   1      39.122  29.994  28.868  1.00  0.00     0.031 C 
ATOM     22  C   UNL A   1      38.598  34.661  33.945  1.00  0.00     0.029 A 
ATOM     23  C   UNL A   1      39.576  33.616  34.194  1.00  0.00     0.049 A 
ATOM     24  H   UNL A   1      40.178  32.100  32.895  1.00  0.00     0.167 HD
ATOM     25  C   UNL A   1      40.795  28.623  30.090  1.00  0.00     0.037 A 
ATOM     26  C   UNL A   1      40.266  33.458  35.336  1.00  0.00     0.037 A 
ATOM     27  C   UNL A   1      41.598  28.374  31.255  1.00  0.00     0.049 A 
ATOM     28  C   UNL A   1      41.140  32.244  35.442  1.00  0.00     0.074 A 
ATOM     29  C   UNL A   1      42.472  27.336  31.503  1.00  0.00     0.029 A 
ATOM     30  N   UNL A   1      41.612  29.194  32.382  1.00  0.00    -0.354 N 
ATOM     31  N   UNL A   1      41.332  31.293  34.557  1.00  0.00    -0.248 NA
ATOM     32  C   UNL A   1      41.874  32.061  36.697  1.00  0.00     0.031 C 
ATOM     33  C   UNL A   1      42.972  27.498  32.800  1.00  0.00     0.029 A 
ATOM     34  C   UNL A   1      42.463  28.675  33.337  1.00  0.00     0.049 A 
ATOM     35  H   UNL A   1      41.089  30.023  32.483  1.00  0.00     0.167 HD
ATOM     36  C   UNL A   1      42.229  30.408  35.132  1.00  0.00     0.074 A 
ATOM     37  C   UNL A   1      42.542  30.942  36.446  1.00  0.00     0.031 C 
ATOM     38  C   UNL A   1      42.751  29.264  34.626  1.00  0.00     0.037 A 
BRANCH  25  39
ATOM     39  C   UNL A   1      40.769  27.653  28.949  1.00  0.00     0.057 A 
ATOM     40  C   UNL A   1      39.874  26.574  28.893  1.00  0.00     0.134 A 
ATOM     41  C   UNL A   1      41.736  27.737  27.938  1.00  0.00     0.134 A 
ATOM     42  F   UNL A   1      38.944  26.413  29.847  1.00  0.00    -0.206 F 
ATOM     43  C   UNL A   1      39.980  25.586  27.911  1.00  0.00     0.040 A 
ATOM     44  C   UNL A   1      41.829  26.774  26.930  1.00  0.00     0.040 A 
ATOM     45  F   UNL A   1      42.630  28.737  27.931  1.00  0.00    -0.206 F 
ATOM     46  C   UNL A   1      40.960  25.685  26.927  1.00  0.00     0.006 A 
ENDBRANCH  25  39
BRANCH  26  47
ATOM     47  C   UNL A   1      40.086  34.420  36.456  1.00  0.00     0.057 A 
ATOM     48  C   UNL A   1      40.807  35.616  36.509  1.00  0.00     0.134 A 
ATOM     49  C   UNL A   1      39.148  34.192  37.474  1.00  0.00     0.134 A 
ATOM     50  F   UNL A   1      41.725  35.892  35.571  1.00  0.00    -0.206 F 
ATOM     51  C   UNL A   1      40.608  36.547  37.532  1.00  0.00     0.040 A 
ATOM     52  C   UNL A   1      38.920  35.126  38.488  1.00  0.00     0.040 A 
ATOM     53  F   UNL A   1      38.410  33.072  37.480  1.00  0.00    -0.206 F 
ATOM     54  C   UNL A   1      39.656  36.306  38.521  1.00  0.00     0.006 A 
ENDBRANCH  26  47
BRANCH  38  55
ATOM     55  C   UNL A   1      43.759  28.550  35.469  1.00  0.00     0.057 A 
ATOM     56  C   UNL A   1      45.127  28.828  35.385  1.00  0.00     0.134 A 
ATOM     57  C   UNL A   1      43.331  27.652  36.455  1.00  0.00     0.134 A 
ATOM     58  F   UNL A   1      45.595  29.668  34.449  1.00  0.00    -0.206 F 
ATOM     59  C   UNL A   1      46.038  28.238  36.258  1.00  0.00     0.040 A 
ATOM     60  C   UNL A   1      44.228  27.079  37.352  1.00  0.00     0.040 A 
ATOM     61  F   UNL A   1      42.029  27.354  36.585  1.00  0.00    -0.206 F 
ATOM     62  C   UNL A   1      45.587  27.373  37.256  1.00  0.00     0.006 A 
ENDBRANCH  38  55
ENDBRANCH  12  13
ENDBRANCH   5   7
ENDBRANCH   4   5
ENDBRANCH   3   4
ENDBRANCH   2   3
ENDBRANCH   1   2
BRANCH   1  63
ATOM     63  C   UNL A   1      34.232  28.946  27.178  1.00  0.00     0.202 C 
BRANCH  63  64
ATOM     64  C   UNL A   1      33.452  28.457  25.972  1.00  0.00     0.261 C 
BRANCH  64  65
ATOM     65  O   UNL A   1      33.072  27.088  26.194  1.00  0.00    -0.460 OA
BRANCH  65  66
ATOM     66  C   UNL A   1      31.765  26.807  26.449  1.00  0.00     0.339 C 
ATOM     67  O   UNL A   1      31.020  27.346  27.246  1.00  0.00    -0.246 OA
BRANCH  66  68
ATOM     68  C   UNL A   1      31.388  25.720  25.517  1.00  0.00     0.072 A 
ATOM     69  C   UNL A   1      31.645  24.429  26.009  1.00  0.00     0.057 A 
ATOM     70  C   UNL A   1      30.851  25.906  24.222  1.00  0.00     0.015 A 
ATOM     71  C   UNL A   1      31.368  23.358  25.199  1.00  0.00     0.129 A 
ATOM     72  C   UNL A   1      30.598  24.723  23.522  1.00  0.00     0.122 A 
ATOM     73  Cl  UNL A   1      31.695  21.761  25.718  1.00  0.00    -0.062 Cl
ATOM     74  N   UNL A   1      30.845  23.468  23.968  1.00  0.00    -0.244 NA
BRANCH  70  75
ATOM     75  C   UNL A   1      30.567  27.178  23.518  1.00  0.00    -0.015 A 
ATOM     76  C   UNL A   1      31.582  27.888  22.863  1.00  0.00     0.009 A 
ATOM     77  C   UNL A   1      29.295  27.795  23.597  1.00  0.00     0.021 A 
ATOM     78  C   UNL A   1      31.340  29.151  22.305  1.00  0.00     0.001 A 
ATOM     79  C   UNL A   1      29.018  29.032  22.973  1.00  0.00     0.056 A 
ATOM     80  C   UNL A   1      30.067  29.714  22.347  1.00  0.00     0.013 A 
BRANCH  79  81
ATOM     81  C   UNL A   1      27.619  29.600  22.898  1.00  0.00     0.416 C 
ATOM     82  F   UNL A   1      26.644  28.675  23.106  1.00  0.00    -0.166 F 
ATOM     83  F   UNL A   1      27.417  30.574  23.833  1.00  0.00    -0.166 F 
ATOM     84  F   UNL A   1      27.339  30.187  21.702  1.00  0.00    -0.166 F 
ENDBRANCH  79  81
ENDBRANCH  70  75
ENDBRANCH  66  68
ENDBRANCH  65  66
ENDBRANCH  64  65
ENDBRANCH  63  64
ENDBRANCH   1  63
TORSDOF 16
ENDMDL
