MODEL 1
REMARK VINA RESULT:     -11.5      0.000      0.000
REMARK SMILES Cc1ccc(/C=C(\NC(=O)c2cccc(C)c2)C(=O)OCCOCCOC(=O)c2ccc(-c3c4nc(c(-c5c(F)cccc5F)c5ccc([nH]5)c(-c5c(F)cccc5F)c5nc(c(-c6c(F)cccc6F)c6ccc3[nH]6)C=C5)C=C4)cc2)cc1
REMARK SMILES IDX 23 1 22 2 21 3 20 4 18 5 19 6 7 7 6 8 5 9 1 10 2 11 3 12
REMARK SMILES IDX 84 13 4 14 83 15 8 16 9 17 10 19 11 20 12 21 17 22 13 23
REMARK SMILES IDX 15 24 14 25 16 26 24 27 25 28 26 29 27 30 28 31 29 32 30 33
REMARK SMILES IDX 82 34 31 35 81 36 32 37 33 38 34 39 75 40 35 41 80 42 74 43
REMARK SMILES IDX 76 44 36 45 79 46 73 47 72 48 37 50 63 51 46 52 62 53 47 54
REMARK SMILES IDX 50 55 61 56 77 57 48 58 49 59 60 61 78 62 51 63 38 64 39 65
REMARK SMILES IDX 44 66 40 67 41 68 43 69 45 70 42 71 64 72 65 73 70 74 66 75
REMARK SMILES IDX 67 76 69 77 71 78 68 79 52 80 53 81 58 82 54 83 55 84 57 85
REMARK SMILES IDX 59 86 56 87
REMARK H PARENT 8 18 76 49 50 60
REMARK Flexibility Score: inf
ROOT
ATOM      1  O   UNL A   1      32.898  30.221  27.300  1.00  0.00    -0.374 OA
ENDROOT
BRANCH   1   2
ATOM      2  C   UNL A   1      33.766  29.487  26.461  1.00  0.00     0.202 C 
BRANCH   2   3
ATOM      3  C   UNL A   1      33.068  29.509  25.182  1.00  0.00     0.261 C 
BRANCH   3   4
ATOM      4  O   UNL A   1      33.338  28.282  24.556  1.00  0.00    -0.459 OA
BRANCH   4   5
ATOM      5  C   UNL A   1      32.183  27.794  24.049  1.00  0.00     0.354 C 
ATOM      6  O   UNL A   1      31.512  28.221  23.128  1.00  0.00    -0.244 OA
BRANCH   5   7
ATOM      7  C   UNL A   1      32.249  26.407  24.517  1.00  0.00     0.128 C 
ATOM      8  C   UNL A   1      33.318  25.895  23.873  1.00  0.00     0.042 C 
BRANCH   8   9
ATOM      9  C   UNL A   1      34.342  24.878  24.071  1.00  0.00    -0.023 A 
ATOM     10  C   UNL A   1      37.164  21.789  25.043  1.00  0.00     0.044 C 
ATOM     11  C   UNL A   1      36.141  22.840  24.754  1.00  0.00    -0.051 A 
ATOM     12  C   UNL A   1      35.463  22.828  23.526  1.00  0.00     0.004 A 
ATOM     13  C   UNL A   1      35.875  23.849  25.675  1.00  0.00     0.004 A 
ATOM     14  C   UNL A   1      34.565  23.839  23.186  1.00  0.00     0.008 A 
ATOM     15  C   UNL A   1      34.984  24.861  25.333  1.00  0.00     0.008 A 
ENDBRANCH   8   9
BRANCH   7  16
ATOM     16  N   UNL A   1      31.499  26.046  25.635  1.00  0.00    -0.316 N 
ATOM     17  C   UNL A   1      30.874  24.845  26.117  1.00  0.00     0.255 C 
ATOM     18  H   UNL A   1      31.362  26.805  26.249  1.00  0.00     0.170 HD
ATOM     19  O   UNL A   1      29.848  25.114  26.769  1.00  0.00    -0.269 OA
BRANCH  17  20
ATOM     20  C   UNL A   1      31.192  23.239  26.072  1.00  0.00     0.040 A 
ATOM     21  C   UNL A   1      32.328  22.831  27.335  1.00  0.00     0.014 A 
ATOM     22  C   UNL A   1      31.261  22.066  24.735  1.00  0.00     0.017 A 
ATOM     23  C   UNL A   1      33.680  21.354  27.091  1.00  0.00     0.001 A 
ATOM     24  C   UNL A   1      32.488  20.776  24.416  1.00  0.00    -0.050 A 
ATOM     25  C   UNL A   1      33.702  20.408  25.588  1.00  0.00     0.003 A 
ATOM     26  C   UNL A   1      32.441  20.052  23.098  1.00  0.00     0.044 C 
ENDBRANCH  17  20
ENDBRANCH   7  16
ENDBRANCH   5   7
ENDBRANCH   4   5
ENDBRANCH   3   4
ENDBRANCH   2   3
ENDBRANCH   1   2
BRANCH   1  27
ATOM     27  C   UNL A   1      33.265  31.558  27.521  1.00  0.00     0.202 C 
BRANCH  27  28
ATOM     28  C   UNL A   1      34.735  31.521  27.914  1.00  0.00     0.261 C 
BRANCH  28  29
ATOM     29  O   UNL A   1      35.115  32.846  28.432  1.00  0.00    -0.460 OA
BRANCH  29  30
ATOM     30  C   UNL A   1      35.103  33.052  29.795  1.00  0.00     0.338 C 
ATOM     31  O   UNL A   1      34.097  33.353  30.426  1.00  0.00    -0.246 OA
BRANCH  30  32
ATOM     32  C   UNL A   1      36.521  33.170  30.370  1.00  0.00     0.060 A 
ATOM     33  C   UNL A   1      37.568  33.775  29.659  1.00  0.00     0.016 A 
ATOM     34  C   UNL A   1      36.891  32.285  31.376  1.00  0.00     0.016 A 
ATOM     35  C   UNL A   1      38.905  33.306  29.827  1.00  0.00     0.010 A 
ATOM     36  C   UNL A   1      38.164  31.678  31.343  1.00  0.00     0.010 A 
ATOM     37  C   UNL A   1      39.203  32.097  30.501  1.00  0.00    -0.014 A 
BRANCH  37  38
ATOM     38  C   UNL A   1      40.625  31.424  30.669  1.00  0.00     0.031 A 
ATOM     39  C   UNL A   1      40.471  30.047  30.122  1.00  0.00     0.074 A 
ATOM     40  C   UNL A   1      41.827  31.769  31.339  1.00  0.00     0.049 A 
ATOM     41  N   UNL A   1      40.870  28.957  30.689  1.00  0.00    -0.248 NA
ATOM     42  C   UNL A   1      39.572  29.759  28.972  1.00  0.00     0.031 C 
ATOM     43  C   UNL A   1      43.135  31.105  31.485  1.00  0.00     0.029 A 
ATOM     44  N   UNL A   1      42.123  32.803  32.299  1.00  0.00    -0.354 N 
ATOM     45  C   UNL A   1      40.759  28.033  29.669  1.00  0.00     0.074 A 
ATOM     46  C   UNL A   1      39.616  28.432  28.929  1.00  0.00     0.031 C 
ATOM     47  C   UNL A   1      43.716  31.437  32.680  1.00  0.00     0.029 A 
ATOM     48  C   UNL A   1      42.759  32.248  33.461  1.00  0.00     0.049 A 
ATOM     49  H   UNL A   1      41.918  33.758  32.176  1.00  0.00     0.167 HD
ATOM     50  C   UNL A   1      41.908  27.434  29.246  1.00  0.00     0.037 A 
ATOM     51  C   UNL A   1      42.288  32.115  34.797  1.00  0.00     0.037 A 
ATOM     52  C   UNL A   1      42.932  27.549  30.290  1.00  0.00     0.049 A 
ATOM     53  C   UNL A   1      42.676  30.646  35.188  1.00  0.00     0.074 A 
ATOM     54  C   UNL A   1      44.161  28.177  30.364  1.00  0.00     0.029 A 
ATOM     55  N   UNL A   1      42.584  27.237  31.604  1.00  0.00    -0.354 N 
ATOM     56  N   UNL A   1      42.874  29.739  34.257  1.00  0.00    -0.248 NA
ATOM     57  C   UNL A   1      42.836  30.046  36.511  1.00  0.00     0.031 C 
ATOM     58  C   UNL A   1      44.523  28.275  31.746  1.00  0.00     0.029 A 
ATOM     59  C   UNL A   1      43.511  27.715  32.509  1.00  0.00     0.049 A 
ATOM     60  H   UNL A   1      41.775  26.736  31.855  1.00  0.00     0.167 HD
ATOM     61  C   UNL A   1      43.158  28.511  34.768  1.00  0.00     0.074 A 
ATOM     62  C   UNL A   1      43.141  28.763  36.202  1.00  0.00     0.031 C 
ATOM     63  C   UNL A   1      43.324  27.430  33.937  1.00  0.00     0.037 A 
BRANCH  50  64
ATOM     64  C   UNL A   1      42.184  27.045  27.793  1.00  0.00     0.057 A 
ATOM     65  C   UNL A   1      42.492  28.062  26.872  1.00  0.00     0.134 A 
ATOM     66  C   UNL A   1      42.092  25.759  27.196  1.00  0.00     0.134 A 
ATOM     67  F   UNL A   1      42.611  29.339  27.262  1.00  0.00    -0.206 F 
ATOM     68  C   UNL A   1      42.689  27.829  25.501  1.00  0.00     0.040 A 
ATOM     69  C   UNL A   1      42.325  25.510  25.835  1.00  0.00     0.040 A 
ATOM     70  F   UNL A   1      41.734  24.654  27.852  1.00  0.00    -0.206 F 
ATOM     71  C   UNL A   1      42.621  26.549  24.977  1.00  0.00     0.006 A 
ENDBRANCH  50  64
BRANCH  51  72
ATOM     72  C   UNL A   1      40.883  32.960  35.582  1.00  0.00     0.057 A 
ATOM     73  C   UNL A   1      39.287  32.204  35.121  1.00  0.00     0.134 A 
ATOM     74  C   UNL A   1      40.730  34.337  37.079  1.00  0.00     0.134 A 
ATOM     75  F   UNL A   1      39.221  31.161  34.287  1.00  0.00    -0.206 F 
ATOM     76  C   UNL A   1      37.792  32.704  35.995  1.00  0.00     0.040 A 
ATOM     77  C   UNL A   1      39.190  34.732  37.858  1.00  0.00     0.040 A 
ATOM     78  F   UNL A   1      41.653  35.169  37.664  1.00  0.00    -0.206 F 
ATOM     79  C   UNL A   1      37.772  33.916  37.313  1.00  0.00     0.006 A 
ENDBRANCH  51  72
BRANCH  63  80
ATOM     80  C   UNL A   1      43.355  25.962  34.330  1.00  0.00     0.057 A 
ATOM     81  C   UNL A   1      42.308  25.286  34.958  1.00  0.00     0.134 A 
ATOM     82  C   UNL A   1      44.444  25.130  33.946  1.00  0.00     0.134 A 
ATOM     83  F   UNL A   1      41.139  25.884  35.219  1.00  0.00    -0.206 F 
ATOM     84  C   UNL A   1      42.384  23.927  35.292  1.00  0.00     0.040 A 
ATOM     85  C   UNL A   1      44.493  23.758  34.197  1.00  0.00     0.040 A 
ATOM     86  F   UNL A   1      45.513  25.595  33.284  1.00  0.00    -0.206 F 
ATOM     87  C   UNL A   1      43.477  23.158  34.912  1.00  0.00     0.006 A 
ENDBRANCH  63  80
ENDBRANCH  37  38
ENDBRANCH  30  32
ENDBRANCH  29  30
ENDBRANCH  28  29
ENDBRANCH  27  28
ENDBRANCH   1  27
TORSDOF 17
ENDMDL
MODEL 2
REMARK VINA RESULT:     -11.4      4.471      8.720
REMARK SMILES Cc1ccc(/C=C(\NC(=O)c2cccc(C)c2)C(=O)OCCOCCOC(=O)c2ccc(-c3c4nc(c(-c5c(F)cccc5F)c5ccc([nH]5)c(-c5c(F)cccc5F)c5nc(c(-c6c(F)cccc6F)c6ccc3[nH]6)C=C5)C=C4)cc2)cc1
REMARK SMILES IDX 23 1 22 2 21 3 20 4 18 5 19 6 7 7 6 8 5 9 1 10 2 11 3 12
REMARK SMILES IDX 84 13 4 14 83 15 8 16 9 17 10 19 11 20 12 21 17 22 13 23
REMARK SMILES IDX 15 24 14 25 16 26 24 27 25 28 26 29 27 30 28 31 29 32 30 33
REMARK SMILES IDX 82 34 31 35 81 36 32 37 33 38 34 39 75 40 35 41 80 42 74 43
REMARK SMILES IDX 76 44 36 45 79 46 73 47 72 48 37 50 63 51 46 52 62 53 47 54
REMARK SMILES IDX 50 55 61 56 77 57 48 58 49 59 60 61 78 62 51 63 38 64 39 65
REMARK SMILES IDX 44 66 40 67 41 68 43 69 45 70 42 71 64 72 65 73 70 74 66 75
REMARK SMILES IDX 67 76 69 77 71 78 68 79 52 80 53 81 58 82 54 83 55 84 57 85
REMARK SMILES IDX 59 86 56 87
REMARK H PARENT 8 18 76 49 50 60
REMARK Flexibility Score: inf
ROOT
ATOM      1  O   UNL A   1      32.979  29.650  27.574  1.00  0.00    -0.374 OA
ENDROOT
BRANCH   1   2
ATOM      2  C   UNL A   1      31.924  29.155  26.775  1.00  0.00     0.202 C 
BRANCH   2   3
ATOM      3  C   UNL A   1      32.197  27.724  26.737  1.00  0.00     0.261 C 
BRANCH   3   4
ATOM      4  O   UNL A   1      32.276  27.366  25.382  1.00  0.00    -0.459 OA
BRANCH   4   5
ATOM      5  C   UNL A   1      31.377  26.385  25.143  1.00  0.00     0.354 C 
ATOM      6  O   UNL A   1      30.733  25.727  25.941  1.00  0.00    -0.244 OA
BRANCH   5   7
ATOM      7  C   UNL A   1      31.010  26.686  23.757  1.00  0.00     0.128 C 
ATOM      8  C   UNL A   1      30.018  27.592  23.871  1.00  0.00     0.042 C 
BRANCH   8   9
ATOM      9  C   UNL A   1      29.459  28.714  23.130  1.00  0.00    -0.023 A 
ATOM     10  C   UNL A   1      28.026  31.868  20.589  1.00  0.00     0.044 C 
ATOM     11  C   UNL A   1      28.542  30.735  21.418  1.00  0.00    -0.051 A 
ATOM     12  C   UNL A   1      27.648  29.968  22.178  1.00  0.00     0.004 A 
ATOM     13  C   UNL A   1      29.905  30.454  21.469  1.00  0.00     0.004 A 
ATOM     14  C   UNL A   1      28.101  28.960  23.027  1.00  0.00     0.008 A 
ATOM     15  C   UNL A   1      30.357  29.452  22.322  1.00  0.00     0.008 A 
ENDBRANCH   8   9
BRANCH   7  16
ATOM     16  N   UNL A   1      31.873  26.283  22.739  1.00  0.00    -0.316 N 
ATOM     17  C   UNL A   1      33.048  25.460  22.646  1.00  0.00     0.255 C 
ATOM     18  H   UNL A   1      31.613  26.656  21.865  1.00  0.00     0.170 HD
ATOM     19  O   UNL A   1      33.803  25.873  21.745  1.00  0.00    -0.269 OA
BRANCH  17  20
ATOM     20  C   UNL A   1      33.614  24.108  23.375  1.00  0.00     0.040 A 
ATOM     21  C   UNL A   1      32.904  22.698  22.626  1.00  0.00     0.014 A 
ATOM     22  C   UNL A   1      34.119  23.767  25.047  1.00  0.00     0.017 A 
ATOM     23  C   UNL A   1      32.513  21.030  23.691  1.00  0.00     0.001 A 
ATOM     24  C   UNL A   1      33.735  22.334  26.082  1.00  0.00    -0.050 A 
ATOM     25  C   UNL A   1      32.935  20.957  25.416  1.00  0.00     0.003 A 
ATOM     26  C   UNL A   1      34.106  22.384  27.539  1.00  0.00     0.044 C 
ENDBRANCH  17  20
ENDBRANCH   7  16
ENDBRANCH   5   7
ENDBRANCH   4   5
ENDBRANCH   3   4
ENDBRANCH   2   3
ENDBRANCH   1   2
BRANCH   1  27
ATOM     27  C   UNL A   1      34.156  29.976  26.882  1.00  0.00     0.202 C 
BRANCH  27  28
ATOM     28  C   UNL A   1      35.190  30.291  27.954  1.00  0.00     0.261 C 
BRANCH  28  29
ATOM     29  O   UNL A   1      36.463  29.652  27.579  1.00  0.00    -0.460 OA
BRANCH  29  30
ATOM     30  C   UNL A   1      37.356  29.322  28.576  1.00  0.00     0.338 C 
ATOM     31  O   UNL A   1      37.019  29.000  29.708  1.00  0.00    -0.246 OA
BRANCH  30  32
ATOM     32  C   UNL A   1      38.795  29.703  28.204  1.00  0.00     0.060 A 
ATOM     33  C   UNL A   1      39.411  29.245  27.030  1.00  0.00     0.016 A 
ATOM     34  C   UNL A   1      39.646  30.110  29.226  1.00  0.00     0.016 A 
ATOM     35  C   UNL A   1      40.817  29.002  27.012  1.00  0.00     0.010 A 
ATOM     36  C   UNL A   1      40.974  29.634  29.264  1.00  0.00     0.010 A 
ATOM     37  C   UNL A   1      41.594  28.973  28.195  1.00  0.00    -0.014 A 
BRANCH  37  38
ATOM     38  C   UNL A   1      43.132  28.623  28.318  1.00  0.00     0.031 A 
ATOM     39  C   UNL A   1      43.840  29.731  27.617  1.00  0.00     0.074 A 
ATOM     40  C   UNL A   1      43.874  27.493  28.747  1.00  0.00     0.049 A 
ATOM     41  N   UNL A   1      44.785  29.595  26.748  1.00  0.00    -0.248 NA
ATOM     42  C   UNL A   1      43.325  31.126  27.640  1.00  0.00     0.031 C 
ATOM     43  C   UNL A   1      45.316  27.198  28.833  1.00  0.00     0.029 A 
ATOM     44  N   UNL A   1      43.469  26.143  29.051  1.00  0.00    -0.354 N 
ATOM     45  C   UNL A   1      45.277  30.881  26.639  1.00  0.00     0.074 A 
ATOM     46  C   UNL A   1      44.145  31.724  26.783  1.00  0.00     0.031 C 
ATOM     47  C   UNL A   1      45.547  25.858  28.664  1.00  0.00     0.029 A 
ATOM     48  C   UNL A   1      44.270  25.198  28.324  1.00  0.00     0.049 A 
ATOM     49  H   UNL A   1      42.744  25.901  29.671  1.00  0.00     0.167 HD
ATOM     50  C   UNL A   1      46.571  31.085  27.014  1.00  0.00     0.037 A 
ATOM     51  C   UNL A   1      43.923  24.318  27.262  1.00  0.00     0.037 A 
ATOM     52  C   UNL A   1      47.293  29.808  26.993  1.00  0.00     0.049 A 
ATOM     53  C   UNL A   1      45.090  24.497  26.229  1.00  0.00     0.074 A 
ATOM     54  C   UNL A   1      47.911  29.037  27.960  1.00  0.00     0.029 A 
ATOM     55  N   UNL A   1      47.153  28.981  25.879  1.00  0.00    -0.354 N 
ATOM     56  N   UNL A   1      45.817  25.592  26.228  1.00  0.00    -0.248 NA
ATOM     57  C   UNL A   1      45.529  23.607  25.155  1.00  0.00     0.031 C 
ATOM     58  C   UNL A   1      48.098  27.724  27.423  1.00  0.00     0.029 A 
ATOM     59  C   UNL A   1      47.586  27.695  26.135  1.00  0.00     0.049 A 
ATOM     60  H   UNL A   1      46.788  29.278  25.015  1.00  0.00     0.167 HD
ATOM     61  C   UNL A   1      46.755  25.603  25.243  1.00  0.00     0.074 A 
ATOM     62  C   UNL A   1      46.543  24.314  24.602  1.00  0.00     0.031 C 
ATOM     63  C   UNL A   1      47.556  26.704  25.053  1.00  0.00     0.037 A 
BRANCH  50  64
ATOM     64  C   UNL A   1      47.073  32.359  27.696  1.00  0.00     0.057 A 
ATOM     65  C   UNL A   1      46.852  32.515  29.075  1.00  0.00     0.134 A 
ATOM     66  C   UNL A   1      47.687  33.491  27.097  1.00  0.00     0.134 A 
ATOM     67  F   UNL A   1      46.275  31.546  29.800  1.00  0.00    -0.206 F 
ATOM     68  C   UNL A   1      47.201  33.673  29.788  1.00  0.00     0.040 A 
ATOM     69  C   UNL A   1      48.076  34.638  27.806  1.00  0.00     0.040 A 
ATOM     70  F   UNL A   1      47.924  33.609  25.788  1.00  0.00    -0.206 F 
ATOM     71  C   UNL A   1      47.829  34.736  29.159  1.00  0.00     0.006 A 
ENDBRANCH  50  64
BRANCH  51  72
ATOM     72  C   UNL A   1      42.265  23.798  26.730  1.00  0.00     0.057 A 
ATOM     73  C   UNL A   1      42.207  22.021  26.317  1.00  0.00     0.134 A 
ATOM     74  C   UNL A   1      40.427  24.679  26.796  1.00  0.00     0.134 A 
ATOM     75  F   UNL A   1      43.292  21.245  26.401  1.00  0.00    -0.206 F 
ATOM     76  C   UNL A   1      40.609  21.236  26.032  1.00  0.00     0.040 A 
ATOM     77  C   UNL A   1      38.928  23.785  26.498  1.00  0.00     0.040 A 
ATOM     78  F   UNL A   1      40.035  25.981  26.995  1.00  0.00    -0.206 F 
ATOM     79  C   UNL A   1      39.046  22.103  26.133  1.00  0.00     0.006 A 
ENDBRANCH  51  72
BRANCH  63  80
ATOM     80  C   UNL A   1      48.434  27.007  23.851  1.00  0.00     0.057 A 
ATOM     81  C   UNL A   1      48.011  27.694  22.712  1.00  0.00     0.134 A 
ATOM     82  C   UNL A   1      49.827  26.713  23.875  1.00  0.00     0.134 A 
ATOM     83  F   UNL A   1      46.777  28.203  22.613  1.00  0.00    -0.206 F 
ATOM     84  C   UNL A   1      48.867  27.956  21.632  1.00  0.00     0.040 A 
ATOM     85  C   UNL A   1      50.705  27.045  22.843  1.00  0.00     0.040 A 
ATOM     86  F   UNL A   1      50.421  26.106  24.914  1.00  0.00    -0.206 F 
ATOM     87  C   UNL A   1      50.216  27.632  21.694  1.00  0.00     0.006 A 
ENDBRANCH  63  80
ENDBRANCH  37  38
ENDBRANCH  30  32
ENDBRANCH  29  30
ENDBRANCH  28  29
ENDBRANCH  27  28
ENDBRANCH   1  27
TORSDOF 17
ENDMDL
MODEL 3
REMARK VINA RESULT:     -11.2      4.196      9.180
REMARK SMILES Cc1ccc(/C=C(\NC(=O)c2cccc(C)c2)C(=O)OCCOCCOC(=O)c2ccc(-c3c4nc(c(-c5c(F)cccc5F)c5ccc([nH]5)c(-c5c(F)cccc5F)c5nc(c(-c6c(F)cccc6F)c6ccc3[nH]6)C=C5)C=C4)cc2)cc1
REMARK SMILES IDX 23 1 22 2 21 3 20 4 18 5 19 6 7 7 6 8 5 9 1 10 2 11 3 12
REMARK SMILES IDX 84 13 4 14 83 15 8 16 9 17 10 19 11 20 12 21 17 22 13 23
REMARK SMILES IDX 15 24 14 25 16 26 24 27 25 28 26 29 27 30 28 31 29 32 30 33
REMARK SMILES IDX 82 34 31 35 81 36 32 37 33 38 34 39 75 40 35 41 80 42 74 43
REMARK SMILES IDX 76 44 36 45 79 46 73 47 72 48 37 50 63 51 46 52 62 53 47 54
REMARK SMILES IDX 50 55 61 56 77 57 48 58 49 59 60 61 78 62 51 63 38 64 39 65
REMARK SMILES IDX 44 66 40 67 41 68 43 69 45 70 42 71 64 72 65 73 70 74 66 75
REMARK SMILES IDX 67 76 69 77 71 78 68 79 52 80 53 81 58 82 54 83 55 84 57 85
REMARK SMILES IDX 59 86 56 87
REMARK H PARENT 8 18 76 49 50 60
REMARK Flexibility Score: inf
ROOT
ATOM      1  O   UNL A   1      38.156  21.756  26.095  1.00  0.00    -0.374 OA
ENDROOT
BRANCH   1   2
ATOM      2  C   UNL A   1      37.222  21.620  25.044  1.00  0.00     0.202 C 
BRANCH   2   3
ATOM      3  C   UNL A   1      35.946  21.617  25.749  1.00  0.00     0.261 C 
BRANCH   3   4
ATOM      4  O   UNL A   1      34.945  21.713  24.768  1.00  0.00    -0.459 OA
BRANCH   4   5
ATOM      5  C   UNL A   1      33.758  21.914  25.384  1.00  0.00     0.354 C 
ATOM      6  O   UNL A   1      33.366  21.476  26.449  1.00  0.00    -0.244 OA
BRANCH   5   7
ATOM      7  C   UNL A   1      33.321  23.150  24.730  1.00  0.00     0.128 C 
ATOM      8  C   UNL A   1      32.811  23.890  25.736  1.00  0.00     0.042 C 
BRANCH   8   9
ATOM      9  C   UNL A   1      32.638  25.290  26.098  1.00  0.00    -0.023 A 
ATOM     10  C   UNL A   1      32.306  29.520  26.771  1.00  0.00     0.044 C 
ATOM     11  C   UNL A   1      32.431  28.060  26.470  1.00  0.00    -0.051 A 
ATOM     12  C   UNL A   1      31.316  27.223  26.621  1.00  0.00     0.004 A 
ATOM     13  C   UNL A   1      33.651  27.516  26.074  1.00  0.00     0.004 A 
ATOM     14  C   UNL A   1      31.416  25.846  26.433  1.00  0.00     0.008 A 
ATOM     15  C   UNL A   1      33.751  26.141  25.893  1.00  0.00     0.008 A 
ENDBRANCH   8   9
BRANCH   7  16
ATOM     16  N   UNL A   1      33.768  23.412  23.436  1.00  0.00    -0.316 N 
ATOM     17  C   UNL A   1      33.270  24.133  22.297  1.00  0.00     0.255 C 
ATOM     18  H   UNL A   1      34.644  22.998  23.256  1.00  0.00     0.170 HD
ATOM     19  O   UNL A   1      33.651  23.600  21.238  1.00  0.00    -0.269 OA
BRANCH  17  20
ATOM     20  C   UNL A   1      32.385  25.487  22.040  1.00  0.00     0.040 A 
ATOM     21  C   UNL A   1      33.432  26.886  22.074  1.00  0.00     0.014 A 
ATOM     22  C   UNL A   1      30.709  25.923  22.453  1.00  0.00     0.017 A 
ATOM     23  C   UNL A   1      32.780  28.666  22.762  1.00  0.00     0.001 A 
ATOM     24  C   UNL A   1      30.074  27.467  23.148  1.00  0.00    -0.050 A 
ATOM     25  C   UNL A   1      31.098  28.848  23.305  1.00  0.00     0.003 A 
ATOM     26  C   UNL A   1      28.642  27.510  23.607  1.00  0.00     0.044 C 
ENDBRANCH  17  20
ENDBRANCH   7  16
ENDBRANCH   5   7
ENDBRANCH   4   5
ENDBRANCH   3   4
ENDBRANCH   2   3
ENDBRANCH   1   2
BRANCH   1  27
ATOM     27  C   UNL A   1      39.420  21.197  25.851  1.00  0.00     0.202 C 
BRANCH  27  28
ATOM     28  C   UNL A   1      40.423  22.169  26.456  1.00  0.00     0.261 C 
BRANCH  28  29
ATOM     29  O   UNL A   1      41.752  21.535  26.452  1.00  0.00    -0.460 OA
BRANCH  29  30
ATOM     30  C   UNL A   1      42.806  22.210  25.874  1.00  0.00     0.338 C 
ATOM     31  O   UNL A   1      43.246  21.953  24.761  1.00  0.00    -0.246 OA
BRANCH  30  32
ATOM     32  C   UNL A   1      43.549  23.088  26.890  1.00  0.00     0.060 A 
ATOM     33  C   UNL A   1      43.322  22.991  28.271  1.00  0.00     0.016 A 
ATOM     34  C   UNL A   1      44.096  24.284  26.439  1.00  0.00     0.016 A 
ATOM     35  C   UNL A   1      43.434  24.151  29.093  1.00  0.00     0.010 A 
ATOM     36  C   UNL A   1      43.960  25.454  27.216  1.00  0.00     0.010 A 
ATOM     37  C   UNL A   1      43.533  25.455  28.551  1.00  0.00    -0.014 A 
BRANCH  37  38
ATOM     38  C   UNL A   1      43.566  26.821  29.350  1.00  0.00     0.031 A 
ATOM     39  C   UNL A   1      42.314  27.528  28.963  1.00  0.00     0.074 A 
ATOM     40  C   UNL A   1      44.535  27.509  30.124  1.00  0.00     0.049 A 
ATOM     41  N   UNL A   1      42.223  28.764  28.601  1.00  0.00    -0.248 NA
ATOM     42  C   UNL A   1      41.054  26.789  28.679  1.00  0.00     0.031 C 
ATOM     43  C   UNL A   1      44.533  28.794  30.845  1.00  0.00     0.029 A 
ATOM     44  N   UNL A   1      45.950  27.289  30.299  1.00  0.00    -0.354 N 
ATOM     45  C   UNL A   1      40.860  28.988  28.642  1.00  0.00     0.074 A 
ATOM     46  C   UNL A   1      40.271  27.764  28.230  1.00  0.00     0.031 C 
ATOM     47  C   UNL A   1      45.790  29.337  30.872  1.00  0.00     0.029 A 
ATOM     48  C   UNL A   1      46.685  28.497  30.050  1.00  0.00     0.049 A 
ATOM     49  H   UNL A   1      46.356  26.430  30.556  1.00  0.00     0.167 HD
ATOM     50  C   UNL A   1      40.410  29.918  29.529  1.00  0.00     0.037 A 
ATOM     51  C   UNL A   1      47.579  28.832  28.995  1.00  0.00     0.037 A 
ATOM     52  C   UNL A   1      41.511  30.814  29.899  1.00  0.00     0.049 A 
ATOM     53  C   UNL A   1      47.129  30.272  28.564  1.00  0.00     0.074 A 
ATOM     54  C   UNL A   1      42.173  31.087  31.081  1.00  0.00     0.029 A 
ATOM     55  N   UNL A   1      42.310  31.342  28.885  1.00  0.00    -0.354 N 
ATOM     56  N   UNL A   1      45.910  30.692  28.815  1.00  0.00    -0.248 NA
ATOM     57  C   UNL A   1      47.873  31.302  27.841  1.00  0.00     0.031 C 
ATOM     58  C   UNL A   1      43.401  31.746  30.756  1.00  0.00     0.029 A 
ATOM     59  C   UNL A   1      43.489  31.867  29.378  1.00  0.00     0.049 A 
ATOM     60  H   UNL A   1      42.063  31.341  27.932  1.00  0.00     0.167 HD
ATOM     61  C   UNL A   1      45.673  31.943  28.336  1.00  0.00     0.074 A 
ATOM     62  C   UNL A   1      46.955  32.293  27.743  1.00  0.00     0.031 C 
ATOM     63  C   UNL A   1      44.426  32.509  28.450  1.00  0.00     0.037 A 
BRANCH  50  64
ATOM     64  C   UNL A   1      39.085  29.807  30.286  1.00  0.00     0.057 A 
ATOM     65  C   UNL A   1      39.014  28.946  31.395  1.00  0.00     0.134 A 
ATOM     66  C   UNL A   1      37.841  30.415  29.970  1.00  0.00     0.134 A 
ATOM     67  F   UNL A   1      40.096  28.283  31.829  1.00  0.00    -0.206 F 
ATOM     68  C   UNL A   1      37.833  28.710  32.115  1.00  0.00     0.040 A 
ATOM     69  C   UNL A   1      36.663  30.216  30.706  1.00  0.00     0.040 A 
ATOM     70  F   UNL A   1      37.642  31.207  28.914  1.00  0.00    -0.206 F 
ATOM     71  C   UNL A   1      36.653  29.355  31.784  1.00  0.00     0.006 A 
ENDBRANCH  50  64
BRANCH  51  72
ATOM     72  C   UNL A   1      48.408  27.713  27.827  1.00  0.00     0.057 A 
ATOM     73  C   UNL A   1      47.351  27.320  26.391  1.00  0.00     0.134 A 
ATOM     74  C   UNL A   1      50.333  27.071  27.621  1.00  0.00     0.134 A 
ATOM     75  F   UNL A   1      46.115  27.816  26.275  1.00  0.00    -0.206 F 
ATOM     76  C   UNL A   1      48.068  26.456  24.982  1.00  0.00     0.040 A 
ATOM     77  C   UNL A   1      50.909  26.232  26.172  1.00  0.00     0.040 A 
ATOM     78  F   UNL A   1      51.410  27.097  28.473  1.00  0.00    -0.206 F 
ATOM     79  C   UNL A   1      49.783  25.950  24.896  1.00  0.00     0.006 A 
ENDBRANCH  51  72
BRANCH  63  80
ATOM     80  C   UNL A   1      43.908  33.745  27.733  1.00  0.00     0.057 A 
ATOM     81  C   UNL A   1      43.731  33.847  26.353  1.00  0.00     0.134 A 
ATOM     82  C   UNL A   1      43.429  34.865  28.470  1.00  0.00     0.134 A 
ATOM     83  F   UNL A   1      43.959  32.812  25.534  1.00  0.00    -0.206 F 
ATOM     84  C   UNL A   1      43.240  35.009  25.742  1.00  0.00     0.040 A 
ATOM     85  C   UNL A   1      42.859  35.993  27.878  1.00  0.00     0.040 A 
ATOM     86  F   UNL A   1      43.466  34.921  29.810  1.00  0.00    -0.206 F 
ATOM     87  C   UNL A   1      42.803  36.086  26.502  1.00  0.00     0.006 A 
ENDBRANCH  63  80
ENDBRANCH  37  38
ENDBRANCH  30  32
ENDBRANCH  29  30
ENDBRANCH  28  29
ENDBRANCH  27  28
ENDBRANCH   1  27
TORSDOF 17
ENDMDL
