MODEL 1
REMARK VINA RESULT:     -11.7      0.000      0.000
REMARK SMILES NS(=O)(=O)c1ccc(N2N=C(C(=O)OCCOCCOC(=O)c3ccc(-c4c5nc(c(-c6c(F)cccc6F)c6ccc([nH]6)c(-c6c(F)cccc6F)c6nc(c(-c7c(F)cccc7F)c7ccc4[nH]7)C=C6)C=C5)cc3)C[C@H]2c2cccs2)cc1
REMARK SMILES IDX 16 1 15 2 14 3 12 4 13 5 11 6 9 7 10 8 78 9 77 10 8 11 5 12
REMARK SMILES IDX 6 13 85 14 7 15 84 16 2 17 3 18 4 19 1 20 79 23 80 24 83 25
REMARK SMILES IDX 81 26 82 27 17 28 18 29 19 30 20 31 21 32 22 33 23 34 24 35
REMARK SMILES IDX 76 36 25 37 75 38 26 39 27 40 28 41 69 42 29 43 74 44 68 45
REMARK SMILES IDX 70 46 30 47 73 48 67 49 66 50 31 52 57 53 40 54 56 55 41 56
REMARK SMILES IDX 44 57 55 58 71 59 42 60 43 61 54 63 72 64 45 65 32 66 33 67
REMARK SMILES IDX 38 68 34 69 35 70 37 71 39 72 36 73 58 74 59 75 64 76 60 77
REMARK SMILES IDX 61 78 63 79 65 80 62 81 46 82 47 83 52 84 48 85 49 86 51 87
REMARK SMILES IDX 53 88 50 89
REMARK H PARENT 1 21 1 22 70 51 44 62
REMARK Flexibility Score: inf
ROOT
ATOM      1  C   UNL A   1      34.387  21.483  26.777  1.00  0.00     0.202 C 
ENDROOT
BRANCH   1   2
ATOM      2  C   UNL A   1      33.578  22.699  27.234  1.00  0.00     0.261 C 
BRANCH   2   3
ATOM      3  O   UNL A   1      32.746  23.195  26.178  1.00  0.00    -0.459 OA
BRANCH   3   4
ATOM      4  C   UNL A   1      31.895  24.175  26.551  1.00  0.00     0.354 C 
ATOM      5  O   UNL A   1      30.905  24.080  27.250  1.00  0.00    -0.245 OA
BRANCH   4   6
ATOM      6  C   UNL A   1      32.423  25.501  26.068  1.00  0.00     0.148 C 
ATOM      7  N   UNL A   1      32.954  27.541  26.037  1.00  0.00    -0.256 N 
ATOM      8  N   UNL A   1      32.532  26.534  26.848  1.00  0.00    -0.169 NA
ATOM      9  C   UNL A   1      32.845  27.208  24.605  1.00  0.00     0.154 C 
ATOM     10  C   UNL A   1      32.960  25.676  24.681  1.00  0.00     0.099 C 
BRANCH   7  11
ATOM     11  C   UNL A   1      33.201  28.791  26.573  1.00  0.00     0.060 A 
ATOM     12  C   UNL A   1      33.756  31.344  27.616  1.00  0.00     0.082 A 
ATOM     13  C   UNL A   1      34.694  30.320  27.760  1.00  0.00     0.024 A 
ATOM     14  C   UNL A   1      32.530  31.096  26.998  1.00  0.00     0.024 A 
ATOM     15  C   UNL A   1      34.408  29.050  27.243  1.00  0.00     0.029 A 
ATOM     16  C   UNL A   1      32.258  29.822  26.497  1.00  0.00     0.029 A 
BRANCH  12  17
ATOM     17  S   UNL A   1      34.118  32.969  28.205  1.00  0.00     0.238 S 
ATOM     18  O   UNL A   1      35.264  33.490  27.492  1.00  0.00    -0.207 OA
ATOM     19  O   UNL A   1      34.038  32.962  29.644  1.00  0.00    -0.207 OA
BRANCH  17  20
ATOM     20  N   UNL A   1      32.816  33.880  27.662  1.00  0.00    -0.225 NA
ATOM     21  H   UNL A   1      32.877  33.992  26.650  1.00  0.00     0.137 HD
ATOM     22  H   UNL A   1      32.835  34.798  28.107  1.00  0.00     0.137 HD
ENDBRANCH  17  20
ENDBRANCH  12  17
ENDBRANCH   7  11
BRANCH   9  23
ATOM     23  C   UNL A   1      31.592  27.705  23.883  1.00  0.00     0.030 A 
ATOM     24  C   UNL A   1      30.310  27.190  23.994  1.00  0.00     0.017 A 
ATOM     25  S   UNL A   1      31.602  29.035  22.791  1.00  0.00    -0.147 S 
ATOM     26  C   UNL A   1      29.363  27.860  23.166  1.00  0.00     0.012 A 
ATOM     27  C   UNL A   1      29.930  28.913  22.489  1.00  0.00     0.065 A 
ENDBRANCH   9  23
ENDBRANCH   4   6
ENDBRANCH   3   4
ENDBRANCH   2   3
ENDBRANCH   1   2
BRANCH   1  28
ATOM     28  O   UNL A   1      35.477  21.706  25.886  1.00  0.00    -0.374 OA
BRANCH  28  29
ATOM     29  C   UNL A   1      35.893  20.647  25.026  1.00  0.00     0.202 C 
BRANCH  29  30
ATOM     30  C   UNL A   1      37.380  20.268  24.995  1.00  0.00     0.261 C 
BRANCH  30  31
ATOM     31  O   UNL A   1      38.265  21.386  25.181  1.00  0.00    -0.460 OA
BRANCH  31  32
ATOM     32  C   UNL A   1      39.307  21.126  26.011  1.00  0.00     0.338 C 
ATOM     33  O   UNL A   1      39.953  20.093  26.085  1.00  0.00    -0.246 OA
BRANCH  32  34
ATOM     34  C   UNL A   1      39.709  22.342  26.740  1.00  0.00     0.060 A 
ATOM     35  C   UNL A   1      39.039  23.529  26.420  1.00  0.00     0.016 A 
ATOM     36  C   UNL A   1      40.796  22.352  27.615  1.00  0.00     0.016 A 
ATOM     37  C   UNL A   1      39.506  24.745  26.909  1.00  0.00     0.010 A 
ATOM     38  C   UNL A   1      41.264  23.576  28.107  1.00  0.00     0.010 A 
ATOM     39  C   UNL A   1      40.655  24.782  27.711  1.00  0.00    -0.014 A 
BRANCH  39  40
ATOM     40  C   UNL A   1      41.299  26.094  27.973  1.00  0.00     0.031 A 
ATOM     41  C   UNL A   1      42.681  26.355  27.431  1.00  0.00     0.074 A 
ATOM     42  C   UNL A   1      40.633  27.070  28.617  1.00  0.00     0.049 A 
ATOM     43  N   UNL A   1      43.412  27.438  27.507  1.00  0.00    -0.248 NA
ATOM     44  C   UNL A   1      43.326  25.247  26.707  1.00  0.00     0.031 C 
ATOM     45  C   UNL A   1      39.283  26.952  29.165  1.00  0.00     0.029 A 
ATOM     46  N   UNL A   1      41.006  28.356  28.915  1.00  0.00    -0.354 N 
ATOM     47  C   UNL A   1      44.602  27.139  26.854  1.00  0.00     0.074 A 
ATOM     48  C   UNL A   1      44.512  25.764  26.419  1.00  0.00     0.031 C 
ATOM     49  C   UNL A   1      38.940  28.120  29.735  1.00  0.00     0.029 A 
ATOM     50  C   UNL A   1      40.055  29.057  29.615  1.00  0.00     0.049 A 
ATOM     51  H   UNL A   1      41.873  28.741  28.651  1.00  0.00     0.167 HD
ATOM     52  C   UNL A   1      45.669  27.942  26.625  1.00  0.00     0.037 A 
ATOM     53  C   UNL A   1      40.087  30.307  30.115  1.00  0.00     0.037 A 
ATOM     54  C   UNL A   1      45.753  29.318  27.045  1.00  0.00     0.049 A 
ATOM     55  C   UNL A   1      41.302  31.165  29.877  1.00  0.00     0.074 A 
ATOM     56  C   UNL A   1      46.778  30.222  26.828  1.00  0.00     0.029 A 
ATOM     57  N   UNL A   1      44.777  29.984  27.768  1.00  0.00    -0.354 N 
ATOM     58  N   UNL A   1      42.403  30.884  29.223  1.00  0.00    -0.248 NA
ATOM     59  C   UNL A   1      41.271  32.524  30.438  1.00  0.00     0.031 C 
ATOM     60  C   UNL A   1      46.450  31.417  27.475  1.00  0.00     0.029 A 
ATOM     61  C   UNL A   1      45.188  31.281  28.032  1.00  0.00     0.049 A 
ATOM     62  H   UNL A   1      43.919  29.596  28.053  1.00  0.00     0.167 HD
ATOM     63  C   UNL A   1      43.178  32.039  29.263  1.00  0.00     0.074 A 
ATOM     64  C   UNL A   1      42.409  33.030  29.985  1.00  0.00     0.031 C 
ATOM     65  C   UNL A   1      44.413  32.261  28.748  1.00  0.00     0.037 A 
BRANCH  52  66
ATOM     66  C   UNL A   1      46.850  27.351  25.910  1.00  0.00     0.057 A 
ATOM     67  C   UNL A   1      47.047  27.515  24.533  1.00  0.00     0.134 A 
ATOM     68  C   UNL A   1      47.837  26.657  26.624  1.00  0.00     0.134 A 
ATOM     69  F   UNL A   1      46.135  28.157  23.787  1.00  0.00    -0.206 F 
ATOM     70  C   UNL A   1      48.174  26.997  23.890  1.00  0.00     0.040 A 
ATOM     71  C   UNL A   1      48.981  26.160  25.998  1.00  0.00     0.040 A 
ATOM     72  F   UNL A   1      47.713  26.465  27.946  1.00  0.00    -0.206 F 
ATOM     73  C   UNL A   1      49.149  26.326  24.625  1.00  0.00     0.006 A 
ENDBRANCH  52  66
BRANCH  53  74
ATOM     74  C   UNL A   1      38.942  30.828  30.906  1.00  0.00     0.057 A 
ATOM     75  C   UNL A   1      37.930  31.596  30.314  1.00  0.00     0.134 A 
ATOM     76  C   UNL A   1      38.860  30.616  32.288  1.00  0.00     0.134 A 
ATOM     77  F   UNL A   1      37.962  31.854  28.998  1.00  0.00    -0.206 F 
ATOM     78  C   UNL A   1      36.903  32.162  31.071  1.00  0.00     0.040 A 
ATOM     79  C   UNL A   1      37.821  31.147  33.052  1.00  0.00     0.040 A 
ATOM     80  F   UNL A   1      39.793  29.885  32.917  1.00  0.00    -0.206 F 
ATOM     81  C   UNL A   1      36.845  31.935  32.445  1.00  0.00     0.006 A 
ENDBRANCH  53  74
BRANCH  65  82
ATOM     82  C   UNL A   1      44.984  33.643  28.907  1.00  0.00     0.057 A 
ATOM     83  C   UNL A   1      44.702  34.677  28.004  1.00  0.00     0.134 A 
ATOM     84  C   UNL A   1      45.828  33.944  29.985  1.00  0.00     0.134 A 
ATOM     85  F   UNL A   1      43.907  34.458  26.945  1.00  0.00    -0.206 F 
ATOM     86  C   UNL A   1      45.277  35.943  28.139  1.00  0.00     0.040 A 
ATOM     87  C   UNL A   1      46.380  35.215  30.151  1.00  0.00     0.040 A 
ATOM     88  F   UNL A   1      46.128  33.008  30.897  1.00  0.00    -0.206 F 
ATOM     89  C   UNL A   1      46.116  36.215  29.218  1.00  0.00     0.006 A 
ENDBRANCH  65  82
ENDBRANCH  39  40
ENDBRANCH  32  34
ENDBRANCH  31  32
ENDBRANCH  30  31
ENDBRANCH  29  30
ENDBRANCH  28  29
ENDBRANCH   1  28
TORSDOF 18
ENDMDL
MODEL 2
REMARK VINA RESULT:     -11.3      4.206      8.154
REMARK SMILES NS(=O)(=O)c1ccc(N2N=C(C(=O)OCCOCCOC(=O)c3ccc(-c4c5nc(c(-c6c(F)cccc6F)c6ccc([nH]6)c(-c6c(F)cccc6F)c6nc(c(-c7c(F)cccc7F)c7ccc4[nH]7)C=C6)C=C5)cc3)C[C@H]2c2cccs2)cc1
REMARK SMILES IDX 16 1 15 2 14 3 12 4 13 5 11 6 9 7 10 8 78 9 77 10 8 11 5 12
REMARK SMILES IDX 6 13 85 14 7 15 84 16 2 17 3 18 4 19 1 20 79 23 80 24 83 25
REMARK SMILES IDX 81 26 82 27 17 28 18 29 19 30 20 31 21 32 22 33 23 34 24 35
REMARK SMILES IDX 76 36 25 37 75 38 26 39 27 40 28 41 69 42 29 43 74 44 68 45
REMARK SMILES IDX 70 46 30 47 73 48 67 49 66 50 31 52 57 53 40 54 56 55 41 56
REMARK SMILES IDX 44 57 55 58 71 59 42 60 43 61 54 63 72 64 45 65 32 66 33 67
REMARK SMILES IDX 38 68 34 69 35 70 37 71 39 72 36 73 58 74 59 75 64 76 60 77
REMARK SMILES IDX 61 78 63 79 65 80 62 81 46 82 47 83 52 84 48 85 49 86 51 87
REMARK SMILES IDX 53 88 50 89
REMARK H PARENT 1 21 1 22 70 51 44 62
REMARK Flexibility Score: inf
ROOT
ATOM      1  C   UNL A   1      31.621  29.037  24.937  1.00  0.00     0.202 C 
ENDROOT
BRANCH   1   2
ATOM      2  C   UNL A   1      32.716  28.499  24.013  1.00  0.00     0.261 C 
BRANCH   2   3
ATOM      3  O   UNL A   1      33.414  27.404  24.619  1.00  0.00    -0.459 OA
BRANCH   3   4
ATOM      4  C   UNL A   1      33.418  26.270  23.887  1.00  0.00     0.354 C 
ATOM      5  O   UNL A   1      33.133  26.136  22.713  1.00  0.00    -0.245 OA
BRANCH   4   6
ATOM      6  C   UNL A   1      33.971  25.143  24.721  1.00  0.00     0.148 C 
ATOM      7  N   UNL A   1      35.297  23.687  25.471  1.00  0.00    -0.256 N 
ATOM      8  N   UNL A   1      35.212  24.765  24.647  1.00  0.00    -0.169 NA
ATOM      9  C   UNL A   1      33.979  23.173  25.883  1.00  0.00     0.154 C 
ATOM     10  C   UNL A   1      33.147  24.462  25.769  1.00  0.00     0.099 C 
BRANCH   7  11
ATOM     11  C   UNL A   1      36.516  23.056  25.645  1.00  0.00     0.060 A 
ATOM     12  C   UNL A   1      38.983  21.774  26.069  1.00  0.00     0.082 A 
ATOM     13  C   UNL A   1      38.811  23.096  26.483  1.00  0.00     0.024 A 
ATOM     14  C   UNL A   1      37.955  21.102  25.408  1.00  0.00     0.024 A 
ATOM     15  C   UNL A   1      37.582  23.730  26.264  1.00  0.00     0.029 A 
ATOM     16  C   UNL A   1      36.738  21.752  25.189  1.00  0.00     0.029 A 
BRANCH  12  17
ATOM     17  S   UNL A   1      40.503  20.934  26.390  1.00  0.00     0.238 S 
ATOM     18  O   UNL A   1      40.694  20.822  27.820  1.00  0.00    -0.207 OA
ATOM     19  O   UNL A   1      41.514  21.467  25.512  1.00  0.00    -0.207 OA
BRANCH  17  20
ATOM     20  N   UNL A   1      40.200  19.367  25.868  1.00  0.00    -0.225 NA
ATOM     21  H   UNL A   1      40.169  19.348  24.848  1.00  0.00     0.137 HD
ATOM     22  H   UNL A   1      39.306  19.051  26.241  1.00  0.00     0.137 HD
ENDBRANCH  17  20
ENDBRANCH  12  17
ENDBRANCH   7  11
BRANCH   9  23
ATOM     23  C   UNL A   1      33.423  21.998  25.079  1.00  0.00     0.030 A 
ATOM     24  C   UNL A   1      32.996  22.021  23.760  1.00  0.00     0.017 A 
ATOM     25  S   UNL A   1      33.250  20.413  25.727  1.00  0.00    -0.147 S 
ATOM     26  C   UNL A   1      32.504  20.763  23.307  1.00  0.00     0.012 A 
ATOM     27  C   UNL A   1      32.626  19.790  24.270  1.00  0.00     0.065 A 
ENDBRANCH   9  23
ENDBRANCH   4   6
ENDBRANCH   3   4
ENDBRANCH   2   3
ENDBRANCH   1   2
BRANCH   1  28
ATOM     28  O   UNL A   1      31.614  30.435  25.215  1.00  0.00    -0.374 OA
BRANCH  28  29
ATOM     29  C   UNL A   1      31.726  30.870  26.569  1.00  0.00     0.202 C 
BRANCH  29  30
ATOM     30  C   UNL A   1      31.515  32.358  26.882  1.00  0.00     0.261 C 
BRANCH  30  31
ATOM     31  O   UNL A   1      32.688  33.164  26.678  1.00  0.00    -0.460 OA
BRANCH  31  32
ATOM     32  C   UNL A   1      33.220  33.654  27.825  1.00  0.00     0.338 C 
ATOM     33  O   UNL A   1      32.706  34.446  28.599  1.00  0.00    -0.246 OA
BRANCH  32  34
ATOM     34  C   UNL A   1      34.485  32.970  28.149  1.00  0.00     0.060 A 
ATOM     35  C   UNL A   1      34.401  31.636  28.566  1.00  0.00     0.016 A 
ATOM     36  C   UNL A   1      35.705  33.647  28.173  1.00  0.00     0.016 A 
ATOM     37  C   UNL A   1      35.522  30.998  29.088  1.00  0.00     0.010 A 
ATOM     38  C   UNL A   1      36.832  33.004  28.697  1.00  0.00     0.010 A 
ATOM     39  C   UNL A   1      36.732  31.696  29.208  1.00  0.00    -0.014 A 
BRANCH  39  40
ATOM     40  C   UNL A   1      37.818  31.102  30.028  1.00  0.00     0.031 A 
ATOM     41  C   UNL A   1      38.777  30.133  29.385  1.00  0.00     0.074 A 
ATOM     42  C   UNL A   1      37.999  31.480  31.306  1.00  0.00     0.049 A 
ATOM     43  N   UNL A   1      39.816  29.527  29.901  1.00  0.00    -0.248 NA
ATOM     44  C   UNL A   1      38.530  29.799  27.973  1.00  0.00     0.031 C 
ATOM     45  C   UNL A   1      37.158  32.429  32.033  1.00  0.00     0.029 A 
ATOM     46  N   UNL A   1      38.955  31.109  32.218  1.00  0.00    -0.354 N 
ATOM     47  C   UNL A   1      40.338  28.737  28.884  1.00  0.00     0.074 A 
ATOM     48  C   UNL A   1      39.483  28.910  27.732  1.00  0.00     0.031 C 
ATOM     49  C   UNL A   1      37.636  32.567  33.283  1.00  0.00     0.029 A 
ATOM     50  C   UNL A   1      38.798  31.696  33.450  1.00  0.00     0.049 A 
ATOM     51  H   UNL A   1      39.686  30.484  32.008  1.00  0.00     0.167 HD
ATOM     52  C   UNL A   1      41.439  27.948  28.903  1.00  0.00     0.037 A 
ATOM     53  C   UNL A   1      39.502  31.537  34.586  1.00  0.00     0.037 A 
ATOM     54  C   UNL A   1      42.302  27.788  30.046  1.00  0.00     0.049 A 
ATOM     55  C   UNL A   1      40.701  30.623  34.589  1.00  0.00     0.074 A 
ATOM     56  C   UNL A   1      43.460  27.038  30.151  1.00  0.00     0.029 A 
ATOM     57  N   UNL A   1      42.097  28.383  31.280  1.00  0.00    -0.354 N 
ATOM     58  N   UNL A   1      41.207  29.914  33.609  1.00  0.00    -0.248 NA
ATOM     59  C   UNL A   1      41.435  30.501  35.857  1.00  0.00     0.031 C 
ATOM     60  C   UNL A   1      43.922  27.129  31.468  1.00  0.00     0.029 A 
ATOM     61  C   UNL A   1      43.093  27.994  32.163  1.00  0.00     0.049 A 
ATOM     62  H   UNL A   1      41.355  28.991  31.499  1.00  0.00     0.167 HD
ATOM     63  C   UNL A   1      42.337  29.291  34.132  1.00  0.00     0.074 A 
ATOM     64  C   UNL A   1      42.452  29.727  35.507  1.00  0.00     0.031 C 
ATOM     65  C   UNL A   1      43.201  28.438  33.529  1.00  0.00     0.037 A 
BRANCH  52  66
ATOM     66  C   UNL A   1      41.767  27.171  27.660  1.00  0.00     0.057 A 
ATOM     67  C   UNL A   1      41.333  25.853  27.468  1.00  0.00     0.134 A 
ATOM     68  C   UNL A   1      42.478  27.774  26.613  1.00  0.00     0.134 A 
ATOM     69  F   UNL A   1      40.660  25.210  28.435  1.00  0.00    -0.206 F 
ATOM     70  C   UNL A   1      41.608  25.158  26.288  1.00  0.00     0.040 A 
ATOM     71  C   UNL A   1      42.733  27.100  25.418  1.00  0.00     0.040 A 
ATOM     72  F   UNL A   1      42.921  29.035  26.729  1.00  0.00    -0.206 F 
ATOM     73  C   UNL A   1      42.301  25.786  25.255  1.00  0.00     0.006 A 
ENDBRANCH  52  66
BRANCH  53  74
ATOM     74  C   UNL A   1      39.092  32.242  35.829  1.00  0.00     0.057 A 
ATOM     75  C   UNL A   1      38.227  31.648  36.757  1.00  0.00     0.134 A 
ATOM     76  C   UNL A   1      39.514  33.551  36.091  1.00  0.00     0.134 A 
ATOM     77  F   UNL A   1      37.769  30.404  36.552  1.00  0.00    -0.206 F 
ATOM     78  C   UNL A   1      37.769  32.342  37.878  1.00  0.00     0.040 A 
ATOM     79  C   UNL A   1      39.090  34.244  37.225  1.00  0.00     0.040 A 
ATOM     80  F   UNL A   1      40.347  34.177  35.246  1.00  0.00    -0.206 F 
ATOM     81  C   UNL A   1      38.204  33.644  38.116  1.00  0.00     0.006 A 
ENDBRANCH  53  74
BRANCH  65  82
ATOM     82  C   UNL A   1      44.373  27.961  34.341  1.00  0.00     0.057 A 
ATOM     83  C   UNL A   1      44.335  26.773  35.084  1.00  0.00     0.134 A 
ATOM     84  C   UNL A   1      45.561  28.704  34.377  1.00  0.00     0.134 A 
ATOM     85  F   UNL A   1      43.227  26.016  35.101  1.00  0.00    -0.206 F 
ATOM     86  C   UNL A   1      45.416  26.368  35.870  1.00  0.00     0.040 A 
ATOM     87  C   UNL A   1      46.661  28.290  35.131  1.00  0.00     0.040 A 
ATOM     88  F   UNL A   1      45.675  29.843  33.678  1.00  0.00    -0.206 F 
ATOM     89  C   UNL A   1      46.585  27.126  35.892  1.00  0.00     0.006 A 
ENDBRANCH  65  82
ENDBRANCH  39  40
ENDBRANCH  32  34
ENDBRANCH  31  32
ENDBRANCH  30  31
ENDBRANCH  29  30
ENDBRANCH  28  29
ENDBRANCH   1  28
TORSDOF 18
ENDMDL
MODEL 3
REMARK VINA RESULT:     -11.3      4.641     10.499
REMARK SMILES NS(=O)(=O)c1ccc(N2N=C(C(=O)OCCOCCOC(=O)c3ccc(-c4c5nc(c(-c6c(F)cccc6F)c6ccc([nH]6)c(-c6c(F)cccc6F)c6nc(c(-c7c(F)cccc7F)c7ccc4[nH]7)C=C6)C=C5)cc3)C[C@H]2c2cccs2)cc1
REMARK SMILES IDX 16 1 15 2 14 3 12 4 13 5 11 6 9 7 10 8 78 9 77 10 8 11 5 12
REMARK SMILES IDX 6 13 85 14 7 15 84 16 2 17 3 18 4 19 1 20 79 23 80 24 83 25
REMARK SMILES IDX 81 26 82 27 17 28 18 29 19 30 20 31 21 32 22 33 23 34 24 35
REMARK SMILES IDX 76 36 25 37 75 38 26 39 27 40 28 41 69 42 29 43 74 44 68 45
REMARK SMILES IDX 70 46 30 47 73 48 67 49 66 50 31 52 57 53 40 54 56 55 41 56
REMARK SMILES IDX 44 57 55 58 71 59 42 60 43 61 54 63 72 64 45 65 32 66 33 67
REMARK SMILES IDX 38 68 34 69 35 70 37 71 39 72 36 73 58 74 59 75 64 76 60 77
REMARK SMILES IDX 61 78 63 79 65 80 62 81 46 82 47 83 52 84 48 85 49 86 51 87
REMARK SMILES IDX 53 88 50 89
REMARK H PARENT 1 21 1 22 70 51 44 62
REMARK Flexibility Score: inf
ROOT
ATOM      1  C   UNL A   1      34.618  33.131  27.998  1.00  0.00     0.202 C 
ENDROOT
BRANCH   1   2
ATOM      2  C   UNL A   1      34.317  31.741  28.561  1.00  0.00     0.261 C 
BRANCH   2   3
ATOM      3  O   UNL A   1      33.642  30.925  27.596  1.00  0.00    -0.459 OA
BRANCH   3   4
ATOM      4  C   UNL A   1      34.338  29.838  27.199  1.00  0.00     0.354 C 
ATOM      5  O   UNL A   1      35.544  29.704  27.132  1.00  0.00    -0.245 OA
BRANCH   4   6
ATOM      6  C   UNL A   1      33.381  28.700  26.951  1.00  0.00     0.148 C 
ATOM      7  N   UNL A   1      32.648  26.788  26.451  1.00  0.00    -0.256 N 
ATOM      8  N   UNL A   1      33.785  27.492  26.698  1.00  0.00    -0.169 NA
ATOM      9  C   UNL A   1      31.468  27.651  26.263  1.00  0.00     0.154 C 
ATOM     10  C   UNL A   1      31.900  28.872  27.094  1.00  0.00     0.099 C 
BRANCH   7  11
ATOM     11  C   UNL A   1      32.729  25.436  26.172  1.00  0.00     0.060 A 
ATOM     12  C   UNL A   1      32.951  22.681  25.650  1.00  0.00     0.082 A 
ATOM     13  C   UNL A   1      33.942  23.553  25.193  1.00  0.00     0.024 A 
ATOM     14  C   UNL A   1      31.834  23.174  26.323  1.00  0.00     0.024 A 
ATOM     15  C   UNL A   1      33.821  24.925  25.452  1.00  0.00     0.029 A 
ATOM     16  C   UNL A   1      31.725  24.545  26.565  1.00  0.00     0.029 A 
BRANCH  12  17
ATOM     17  S   UNL A   1      33.111  20.942  25.389  1.00  0.00     0.238 S 
ATOM     18  O   UNL A   1      34.286  20.686  24.584  1.00  0.00    -0.207 OA
ATOM     19  O   UNL A   1      31.814  20.409  25.057  1.00  0.00    -0.207 OA
BRANCH  17  20
ATOM     20  N   UNL A   1      33.491  20.352  26.914  1.00  0.00    -0.225 NA
ATOM     21  H   UNL A   1      33.897  19.420  26.827  1.00  0.00     0.137 HD
ATOM     22  H   UNL A   1      32.644  20.302  27.479  1.00  0.00     0.137 HD
ENDBRANCH  17  20
ENDBRANCH  12  17
ENDBRANCH   7  11
BRANCH   9  23
ATOM     23  C   UNL A   1      31.087  27.982  24.820  1.00  0.00     0.030 A 
ATOM     24  C   UNL A   1      30.865  27.079  23.791  1.00  0.00     0.017 A 
ATOM     25  S   UNL A   1      30.864  29.591  24.252  1.00  0.00    -0.147 S 
ATOM     26  C   UNL A   1      30.552  27.707  22.551  1.00  0.00     0.012 A 
ATOM     27  C   UNL A   1      30.479  29.073  22.675  1.00  0.00     0.065 A 
ENDBRANCH   9  23
ENDBRANCH   4   6
ENDBRANCH   3   4
ENDBRANCH   2   3
ENDBRANCH   1   2
BRANCH   1  28
ATOM     28  O   UNL A   1      33.573  34.099  28.023  1.00  0.00    -0.374 OA
BRANCH  28  29
ATOM     29  C   UNL A   1      33.864  35.417  28.485  1.00  0.00     0.202 C 
BRANCH  29  30
ATOM     30  C   UNL A   1      32.962  36.032  29.565  1.00  0.00     0.261 C 
BRANCH  30  31
ATOM     31  O   UNL A   1      32.599  35.111  30.608  1.00  0.00    -0.460 OA
BRANCH  31  32
ATOM     32  C   UNL A   1      32.725  35.624  31.857  1.00  0.00     0.338 C 
ATOM     33  O   UNL A   1      31.958  36.385  32.424  1.00  0.00    -0.246 OA
BRANCH  32  34
ATOM     34  C   UNL A   1      33.861  35.005  32.564  1.00  0.00     0.060 A 
ATOM     35  C   UNL A   1      35.091  35.672  32.503  1.00  0.00     0.016 A 
ATOM     36  C   UNL A   1      33.764  33.745  33.155  1.00  0.00     0.016 A 
ATOM     37  C   UNL A   1      36.245  35.046  32.961  1.00  0.00     0.010 A 
ATOM     38  C   UNL A   1      34.927  33.117  33.616  1.00  0.00     0.010 A 
ATOM     39  C   UNL A   1      36.179  33.742  33.470  1.00  0.00    -0.014 A 
BRANCH  39  40
ATOM     40  C   UNL A   1      37.445  32.992  33.674  1.00  0.00     0.031 A 
ATOM     41  C   UNL A   1      38.257  33.246  34.918  1.00  0.00     0.074 A 
ATOM     42  C   UNL A   1      37.827  32.040  32.803  1.00  0.00     0.049 A 
ATOM     43  N   UNL A   1      39.368  32.679  35.315  1.00  0.00    -0.248 NA
ATOM     44  C   UNL A   1      37.751  34.280  35.837  1.00  0.00     0.031 C 
ATOM     45  C   UNL A   1      37.115  31.680  31.579  1.00  0.00     0.029 A 
ATOM     46  N   UNL A   1      38.911  31.199  32.823  1.00  0.00    -0.354 N 
ATOM     47  C   UNL A   1      39.697  33.292  36.518  1.00  0.00     0.074 A 
ATOM     48  C   UNL A   1      38.691  34.299  36.771  1.00  0.00     0.031 C 
ATOM     49  C   UNL A   1      37.782  30.690  30.961  1.00  0.00     0.029 A 
ATOM     50  C   UNL A   1      38.981  30.366  31.732  1.00  0.00     0.049 A 
ATOM     51  H   UNL A   1      39.575  31.192  33.549  1.00  0.00     0.167 HD
ATOM     52  C   UNL A   1      40.737  33.031  37.346  1.00  0.00     0.037 A 
ATOM     53  C   UNL A   1      39.914  29.458  31.390  1.00  0.00     0.037 A 
ATOM     54  C   UNL A   1      41.731  32.017  37.104  1.00  0.00     0.049 A 
ATOM     55  C   UNL A   1      41.080  29.214  32.312  1.00  0.00     0.074 A 
ATOM     56  C   UNL A   1      42.802  31.654  37.902  1.00  0.00     0.029 A 
ATOM     57  N   UNL A   1      41.778  31.209  35.979  1.00  0.00    -0.354 N 
ATOM     58  N   UNL A   1      41.357  29.772  33.466  1.00  0.00    -0.248 NA
ATOM     59  C   UNL A   1      42.058  28.201  31.887  1.00  0.00     0.031 C 
ATOM     60  C   UNL A   1      43.534  30.669  37.230  1.00  0.00     0.029 A 
ATOM     61  C   UNL A   1      42.877  30.367  36.048  1.00  0.00     0.049 A 
ATOM     62  H   UNL A   1      41.128  31.228  35.241  1.00  0.00     0.167 HD
ATOM     63  C   UNL A   1      42.518  29.153  33.920  1.00  0.00     0.074 A 
ATOM     64  C   UNL A   1      42.877  28.163  32.927  1.00  0.00     0.031 C 
ATOM     65  C   UNL A   1      43.223  29.382  35.056  1.00  0.00     0.037 A 
BRANCH  52  66
ATOM     66  C   UNL A   1      40.876  33.871  38.584  1.00  0.00     0.057 A 
ATOM     67  C   UNL A   1      40.242  33.535  39.787  1.00  0.00     0.134 A 
ATOM     68  C   UNL A   1      41.705  35.001  38.586  1.00  0.00     0.134 A 
ATOM     69  F   UNL A   1      39.423  32.474  39.853  1.00  0.00    -0.206 F 
ATOM     70  C   UNL A   1      40.415  34.301  40.943  1.00  0.00     0.040 A 
ATOM     71  C   UNL A   1      41.909  35.757  39.741  1.00  0.00     0.040 A 
ATOM     72  F   UNL A   1      42.344  35.377  37.469  1.00  0.00    -0.206 F 
ATOM     73  C   UNL A   1      41.259  35.410  40.923  1.00  0.00     0.006 A 
ENDBRANCH  52  66
BRANCH  53  74
ATOM     74  C   UNL A   1      39.802  28.715  30.107  1.00  0.00     0.057 A 
ATOM     75  C   UNL A   1      39.190  27.456  30.040  1.00  0.00     0.134 A 
ATOM     76  C   UNL A   1      40.353  29.225  28.925  1.00  0.00     0.134 A 
ATOM     77  F   UNL A   1      38.662  26.903  31.141  1.00  0.00    -0.206 F 
ATOM     78  C   UNL A   1      39.164  26.718  28.855  1.00  0.00     0.040 A 
ATOM     79  C   UNL A   1      40.305  28.512  27.727  1.00  0.00     0.040 A 
ATOM     80  F   UNL A   1      40.949  30.427  28.918  1.00  0.00    -0.206 F 
ATOM     81  C   UNL A   1      39.721  27.248  27.693  1.00  0.00     0.006 A 
ENDBRANCH  53  74
BRANCH  65  82
ATOM     82  C   UNL A   1      44.423  28.511  35.306  1.00  0.00     0.057 A 
ATOM     83  C   UNL A   1      44.325  27.265  35.940  1.00  0.00     0.134 A 
ATOM     84  C   UNL A   1      45.699  28.927  34.901  1.00  0.00     0.134 A 
ATOM     85  F   UNL A   1      43.135  26.807  36.360  1.00  0.00    -0.206 F 
ATOM     86  C   UNL A   1      45.455  26.489  36.206  1.00  0.00     0.040 A 
ATOM     87  C   UNL A   1      46.832  28.143  35.129  1.00  0.00     0.040 A 
ATOM     88  F   UNL A   1      45.867  30.101  34.274  1.00  0.00    -0.206 F 
ATOM     89  C   UNL A   1      46.713  26.927  35.797  1.00  0.00     0.006 A 
ENDBRANCH  65  82
ENDBRANCH  39  40
ENDBRANCH  32  34
ENDBRANCH  31  32
ENDBRANCH  30  31
ENDBRANCH  29  30
ENDBRANCH  28  29
ENDBRANCH   1  28
TORSDOF 18
ENDMDL
