MODEL 1
REMARK VINA RESULT:     -12.2      0.000      0.000
REMARK SMILES O=C(OCCOCCOC(=O)c1ccc(-c2c3nc(c(-c4c(F)cccc4F)c4ccc([nH]4)c(-c4c(F)cccc4F)c4nc(c(-c5c(F)cccc5F)c5ccc2[nH]5)C=C4)C=C3)cc1)C1=Cc2c(ccc(Cl)c2Oc2ccccc2)O[C@H]1C(F)(F)F
REMARK SMILES IDX 6 1 5 2 4 3 3 4 2 5 1 6 66 7 67 8 83 9 68 10 82 11 69 12
REMARK SMILES IDX 74 13 70 14 72 15 71 16 73 17 84 18 85 19 86 20 87 21 75 22
REMARK SMILES IDX 76 23 77 24 81 25 78 26 80 27 79 28 7 29 8 30 9 31 10 32
REMARK SMILES IDX 11 33 12 34 13 35 65 36 14 37 64 38 15 39 16 40 17 41 58 42
REMARK SMILES IDX 18 43 63 44 57 45 59 46 19 47 62 48 56 49 55 50 20 52 46 53
REMARK SMILES IDX 29 54 45 55 30 56 33 57 44 58 60 59 31 60 32 61 43 63 61 64
REMARK SMILES IDX 34 65 21 66 22 67 27 68 23 69 24 70 26 71 28 72 25 73 47 74
REMARK SMILES IDX 48 75 53 76 49 77 50 78 52 79 54 80 51 81 35 82 36 83 41 84
REMARK SMILES IDX 37 85 38 86 40 87 42 88 39 89
REMARK H PARENT 59 51 33 62
REMARK Flexibility Score: inf
ROOT
ATOM      1  O   UNL A   1      31.187  28.489  23.030  1.00  0.00    -0.374 OA
ENDROOT
BRANCH   1   2
ATOM      2  C   UNL A   1      32.542  28.396  22.681  1.00  0.00     0.202 C 
BRANCH   2   3
ATOM      3  C   UNL A   1      33.194  27.115  22.054  1.00  0.00     0.261 C 
BRANCH   3   4
ATOM      4  O   UNL A   1      32.329  25.977  22.169  1.00  0.00    -0.460 OA
BRANCH   4   5
ATOM      5  C   UNL A   1      32.778  24.731  22.402  1.00  0.00     0.338 C 
ATOM      6  O   UNL A   1      33.346  24.097  21.520  1.00  0.00    -0.246 OA
BRANCH   5   7
ATOM      7  C   UNL A   1      32.543  24.099  23.710  1.00  0.00     0.088 C 
ATOM      8  C   UNL A   1      33.410  23.910  24.713  1.00  0.00     0.031 C 
ATOM      9  C   UNL A   1      31.143  23.952  24.162  1.00  0.00     0.316 C 
ATOM     10  C   UNL A   1      33.574  22.507  24.974  1.00  0.00     0.062 A 
ATOM     11  O   UNL A   1      31.073  22.739  25.024  1.00  0.00    -0.475 OA
ATOM     12  C   UNL A   1      32.238  21.946  25.103  1.00  0.00     0.131 A 
ATOM     13  C   UNL A   1      34.795  21.785  24.967  1.00  0.00     0.156 A 
ATOM     14  C   UNL A   1      32.072  20.592  25.242  1.00  0.00     0.049 A 
ATOM     15  C   UNL A   1      34.522  20.393  24.983  1.00  0.00     0.084 A 
ATOM     16  C   UNL A   1      33.222  19.814  25.159  1.00  0.00     0.028 A 
ATOM     17  Cl  UNL A   1      35.730  19.254  24.544  1.00  0.00    -0.080 Cl
BRANCH   9  18
ATOM     18  C   UNL A   1      30.783  25.302  24.856  1.00  0.00     0.430 C 
ATOM     19  F   UNL A   1      30.200  25.107  26.076  1.00  0.00    -0.167 F 
ATOM     20  F   UNL A   1      31.859  26.085  25.072  1.00  0.00    -0.167 F 
ATOM     21  F   UNL A   1      29.883  26.011  24.134  1.00  0.00    -0.167 F 
ENDBRANCH   9  18
BRANCH  13  22
ATOM     22  O   UNL A   1      36.146  22.128  24.676  1.00  0.00    -0.455 OA
BRANCH  22  23
ATOM     23  C   UNL A   1      37.328  22.494  25.398  1.00  0.00     0.127 A 
ATOM     24  C   UNL A   1      38.535  21.145  25.606  1.00  0.00     0.047 A 
ATOM     25  C   UNL A   1      37.618  24.023  26.270  1.00  0.00     0.047 A 
ATOM     26  C   UNL A   1      40.078  21.390  26.555  1.00  0.00     0.004 A 
ATOM     27  C   UNL A   1      39.163  24.320  27.206  1.00  0.00     0.004 A 
ATOM     28  C   UNL A   1      40.383  22.990  27.404  1.00  0.00     0.000 A 
ENDBRANCH  22  23
ENDBRANCH  13  22
ENDBRANCH   5   7
ENDBRANCH   4   5
ENDBRANCH   3   4
ENDBRANCH   2   3
ENDBRANCH   1   2
BRANCH   1  29
ATOM     29  C   UNL A   1      30.962  29.274  24.263  1.00  0.00     0.202 C 
BRANCH  29  30
ATOM     30  C   UNL A   1      31.789  29.195  26.280  1.00  0.00     0.261 C 
BRANCH  30  31
ATOM     31  O   UNL A   1      33.158  29.594  26.752  1.00  0.00    -0.460 OA
BRANCH  31  32
ATOM     32  C   UNL A   1      33.355  30.846  27.198  1.00  0.00     0.338 C 
ATOM     33  O   UNL A   1      32.584  31.780  27.280  1.00  0.00    -0.246 OA
BRANCH  32  34
ATOM     34  C   UNL A   1      34.702  30.786  27.744  1.00  0.00     0.060 A 
ATOM     35  C   UNL A   1      35.224  29.528  28.022  1.00  0.00     0.016 A 
ATOM     36  C   UNL A   1      35.452  31.962  27.879  1.00  0.00     0.016 A 
ATOM     37  C   UNL A   1      36.528  29.438  28.479  1.00  0.00     0.010 A 
ATOM     38  C   UNL A   1      36.757  31.870  28.323  1.00  0.00     0.010 A 
ATOM     39  C   UNL A   1      37.285  30.610  28.646  1.00  0.00    -0.014 A 
BRANCH  39  40
ATOM     40  C   UNL A   1      38.500  30.583  29.472  1.00  0.00     0.031 A 
ATOM     41  C   UNL A   1      39.639  29.783  28.926  1.00  0.00     0.074 A 
ATOM     42  C   UNL A   1      38.554  31.138  30.690  1.00  0.00     0.049 A 
ATOM     43  N   UNL A   1      40.739  29.405  29.514  1.00  0.00    -0.248 NA
ATOM     44  C   UNL A   1      39.493  29.310  27.537  1.00  0.00     0.031 C 
ATOM     45  C   UNL A   1      37.504  31.936  31.310  1.00  0.00     0.029 A 
ATOM     46  N   UNL A   1      39.539  31.073  31.642  1.00  0.00    -0.354 N 
ATOM     47  C   UNL A   1      41.402  28.630  28.576  1.00  0.00     0.074 A 
ATOM     48  C   UNL A   1      40.581  28.578  27.390  1.00  0.00     0.031 C 
ATOM     49  C   UNL A   1      37.896  32.291  32.545  1.00  0.00     0.029 A 
ATOM     50  C   UNL A   1      39.189  31.672  32.825  1.00  0.00     0.049 A 
ATOM     51  H   UNL A   1      40.410  30.641  31.489  1.00  0.00     0.167 HD
ATOM     52  C   UNL A   1      42.588  27.998  28.703  1.00  0.00     0.037 A 
ATOM     53  C   UNL A   1      39.817  31.664  34.017  1.00  0.00     0.037 A 
ATOM     54  C   UNL A   1      43.369  28.011  29.906  1.00  0.00     0.049 A 
ATOM     55  C   UNL A   1      41.105  30.899  34.161  1.00  0.00     0.074 A 
ATOM     56  C   UNL A   1      44.589  27.410  30.143  1.00  0.00     0.029 A 
ATOM     57  N   UNL A   1      42.987  28.638  31.084  1.00  0.00    -0.354 N 
ATOM     58  N   UNL A   1      41.752  30.190  33.266  1.00  0.00    -0.248 NA
ATOM     59  C   UNL A   1      41.744  30.917  35.484  1.00  0.00     0.031 C 
ATOM     60  C   UNL A   1      44.917  27.617  31.485  1.00  0.00     0.029 A 
ATOM     61  C   UNL A   1      43.937  28.412  32.063  1.00  0.00     0.049 A 
ATOM     62  H   UNL A   1      42.165  29.164  31.205  1.00  0.00     0.167 HD
ATOM     63  C   UNL A   1      42.885  29.704  33.906  1.00  0.00     0.074 A 
ATOM     64  C   UNL A   1      42.837  30.199  35.266  1.00  0.00     0.031 C 
ATOM     65  C   UNL A   1      43.877  28.924  33.410  1.00  0.00     0.037 A 
BRANCH  52  66
ATOM     66  C   UNL A   1      43.039  27.188  27.529  1.00  0.00     0.057 A 
ATOM     67  C   UNL A   1      42.871  25.796  27.475  1.00  0.00     0.134 A 
ATOM     68  C   UNL A   1      43.710  27.802  26.465  1.00  0.00     0.134 A 
ATOM     69  F   UNL A   1      42.268  25.144  28.481  1.00  0.00    -0.206 F 
ATOM     70  C   UNL A   1      43.393  25.041  26.424  1.00  0.00     0.040 A 
ATOM     71  C   UNL A   1      44.205  27.062  25.393  1.00  0.00     0.040 A 
ATOM     72  F   UNL A   1      43.914  29.128  26.462  1.00  0.00    -0.206 F 
ATOM     73  C   UNL A   1      44.059  25.676  25.378  1.00  0.00     0.006 A 
ENDBRANCH  52  66
BRANCH  53  74
ATOM     74  C   UNL A   1      39.209  32.368  35.173  1.00  0.00     0.057 A 
ATOM     75  C   UNL A   1      38.376  31.695  36.074  1.00  0.00     0.134 A 
ATOM     76  C   UNL A   1      39.454  33.727  35.413  1.00  0.00     0.134 A 
ATOM     77  F   UNL A   1      38.084  30.400  35.883  1.00  0.00    -0.206 F 
ATOM     78  C   UNL A   1      37.805  32.347  37.168  1.00  0.00     0.040 A 
ATOM     79  C   UNL A   1      38.913  34.384  36.519  1.00  0.00     0.040 A 
ATOM     80  F   UNL A   1      40.246  34.429  34.589  1.00  0.00    -0.206 F 
ATOM     81  C   UNL A   1      38.081  33.693  37.398  1.00  0.00     0.006 A 
ENDBRANCH  53  74
BRANCH  65  82
ATOM     82  C   UNL A   1      45.029  28.599  34.316  1.00  0.00     0.057 A 
ATOM     83  C   UNL A   1      46.137  29.445  34.450  1.00  0.00     0.134 A 
ATOM     84  C   UNL A   1      44.980  27.463  35.135  1.00  0.00     0.134 A 
ATOM     85  F   UNL A   1      46.252  30.543  33.687  1.00  0.00    -0.206 F 
ATOM     86  C   UNL A   1      47.159  29.166  35.359  1.00  0.00     0.040 A 
ATOM     87  C   UNL A   1      45.980  27.189  36.068  1.00  0.00     0.040 A 
ATOM     88  F   UNL A   1      43.939  26.617  35.065  1.00  0.00    -0.206 F 
ATOM     89  C   UNL A   1      47.076  28.041  36.180  1.00  0.00     0.006 A 
ENDBRANCH  65  82
ENDBRANCH  39  40
ENDBRANCH  32  34
ENDBRANCH  31  32
ENDBRANCH  30  31
ENDBRANCH  29  30
ENDBRANCH   1  29
TORSDOF 17
ENDMDL
MODEL 2
REMARK VINA RESULT:     -11.8      5.162     10.171
REMARK SMILES O=C(OCCOCCOC(=O)c1ccc(-c2c3nc(c(-c4c(F)cccc4F)c4ccc([nH]4)c(-c4c(F)cccc4F)c4nc(c(-c5c(F)cccc5F)c5ccc2[nH]5)C=C4)C=C3)cc1)C1=Cc2c(ccc(Cl)c2Oc2ccccc2)O[C@H]1C(F)(F)F
REMARK SMILES IDX 6 1 5 2 4 3 3 4 2 5 1 6 66 7 67 8 83 9 68 10 82 11 69 12
REMARK SMILES IDX 74 13 70 14 72 15 71 16 73 17 84 18 85 19 86 20 87 21 75 22
REMARK SMILES IDX 76 23 77 24 81 25 78 26 80 27 79 28 7 29 8 30 9 31 10 32
REMARK SMILES IDX 11 33 12 34 13 35 65 36 14 37 64 38 15 39 16 40 17 41 58 42
REMARK SMILES IDX 18 43 63 44 57 45 59 46 19 47 62 48 56 49 55 50 20 52 46 53
REMARK SMILES IDX 29 54 45 55 30 56 33 57 44 58 60 59 31 60 32 61 43 63 61 64
REMARK SMILES IDX 34 65 21 66 22 67 27 68 23 69 24 70 26 71 28 72 25 73 47 74
REMARK SMILES IDX 48 75 53 76 49 77 50 78 52 79 54 80 51 81 35 82 36 83 41 84
REMARK SMILES IDX 37 85 38 86 40 87 42 88 39 89
REMARK H PARENT 59 51 33 62
REMARK Flexibility Score: inf
ROOT
ATOM      1  O   UNL A   1      33.446  34.446  30.564  1.00  0.00    -0.374 OA
ENDROOT
BRANCH   1   2
ATOM      2  C   UNL A   1      34.436  34.376  31.555  1.00  0.00     0.202 C 
BRANCH   2   3
ATOM      3  C   UNL A   1      34.411  33.349  32.740  1.00  0.00     0.261 C 
BRANCH   3   4
ATOM      4  O   UNL A   1      35.718  33.169  33.305  1.00  0.00    -0.460 OA
BRANCH   4   5
ATOM      5  C   UNL A   1      36.596  32.255  32.855  1.00  0.00     0.338 C 
ATOM      6  O   UNL A   1      36.321  31.061  32.879  1.00  0.00    -0.246 OA
BRANCH   5   7
ATOM      7  C   UNL A   1      37.919  32.683  32.374  1.00  0.00     0.088 C 
ATOM      8  C   UNL A   1      39.048  31.967  32.288  1.00  0.00     0.031 C 
ATOM      9  C   UNL A   1      37.989  33.916  31.559  1.00  0.00     0.316 C 
ATOM     10  C   UNL A   1      40.066  32.538  33.124  1.00  0.00     0.062 A 
ATOM     11  O   UNL A   1      39.320  34.540  31.803  1.00  0.00    -0.475 OA
ATOM     12  C   UNL A   1      40.124  33.957  32.805  1.00  0.00     0.131 A 
ATOM     13  C   UNL A   1      40.778  31.876  34.157  1.00  0.00     0.156 A 
ATOM     14  C   UNL A   1      40.932  34.792  33.533  1.00  0.00     0.049 A 
ATOM     15  C   UNL A   1      41.480  32.832  34.935  1.00  0.00     0.084 A 
ATOM     16  C   UNL A   1      41.594  34.225  34.616  1.00  0.00     0.028 A 
ATOM     17  Cl  UNL A   1      42.074  32.431  36.497  1.00  0.00    -0.080 Cl
BRANCH   9  18
ATOM     18  C   UNL A   1      37.707  33.465  30.093  1.00  0.00     0.430 C 
ATOM     19  F   UNL A   1      38.837  33.014  29.473  1.00  0.00    -0.167 F 
ATOM     20  F   UNL A   1      36.808  32.465  30.015  1.00  0.00    -0.167 F 
ATOM     21  F   UNL A   1      37.262  34.493  29.331  1.00  0.00    -0.167 F 
ENDBRANCH   9  18
BRANCH  13  22
ATOM     22  O   UNL A   1      40.715  30.571  34.723  1.00  0.00    -0.455 OA
BRANCH  22  23
ATOM     23  C   UNL A   1      41.407  29.324  34.596  1.00  0.00     0.127 A 
ATOM     24  C   UNL A   1      41.618  28.412  36.159  1.00  0.00     0.047 A 
ATOM     25  C   UNL A   1      42.244  28.708  33.145  1.00  0.00     0.047 A 
ATOM     26  C   UNL A   1      42.533  26.831  36.220  1.00  0.00     0.004 A 
ATOM     27  C   UNL A   1      43.145  27.116  33.155  1.00  0.00     0.004 A 
ATOM     28  C   UNL A   1      43.345  26.188  34.704  1.00  0.00     0.000 A 
ENDBRANCH  22  23
ENDBRANCH  13  22
ENDBRANCH   5   7
ENDBRANCH   4   5
ENDBRANCH   3   4
ENDBRANCH   2   3
ENDBRANCH   1   2
BRANCH   1  29
ATOM     29  C   UNL A   1      33.923  33.989  29.241  1.00  0.00     0.202 C 
BRANCH  29  30
ATOM     30  C   UNL A   1      34.006  32.048  28.248  1.00  0.00     0.261 C 
BRANCH  30  31
ATOM     31  O   UNL A   1      35.209  31.287  27.769  1.00  0.00    -0.460 OA
BRANCH  31  32
ATOM     32  C   UNL A   1      35.226  29.950  27.893  1.00  0.00     0.338 C 
ATOM     33  O   UNL A   1      34.366  29.127  27.651  1.00  0.00    -0.246 OA
BRANCH  32  34
ATOM     34  C   UNL A   1      36.614  29.674  28.230  1.00  0.00     0.060 A 
ATOM     35  C   UNL A   1      37.563  29.853  27.229  1.00  0.00     0.016 A 
ATOM     36  C   UNL A   1      36.959  29.337  29.546  1.00  0.00     0.016 A 
ATOM     37  C   UNL A   1      38.898  29.662  27.541  1.00  0.00     0.010 A 
ATOM     38  C   UNL A   1      38.292  29.160  29.858  1.00  0.00     0.010 A 
ATOM     39  C   UNL A   1      39.258  29.298  28.849  1.00  0.00    -0.014 A 
BRANCH  39  40
ATOM     40  C   UNL A   1      40.587  28.727  29.108  1.00  0.00     0.031 A 
ATOM     41  C   UNL A   1      41.612  29.678  29.636  1.00  0.00     0.074 A 
ATOM     42  C   UNL A   1      40.903  27.466  28.785  1.00  0.00     0.049 A 
ATOM     43  N   UNL A   1      42.900  29.522  29.756  1.00  0.00    -0.248 NA
ATOM     44  C   UNL A   1      41.115  31.005  30.045  1.00  0.00     0.031 C 
ATOM     45  C   UNL A   1      39.981  26.462  28.268  1.00  0.00     0.029 A 
ATOM     46  N   UNL A   1      42.117  26.829  28.814  1.00  0.00    -0.354 N 
ATOM     47  C   UNL A   1      43.369  30.736  30.229  1.00  0.00     0.074 A 
ATOM     48  C   UNL A   1      42.238  31.623  30.362  1.00  0.00     0.031 C 
ATOM     49  C   UNL A   1      40.659  25.329  28.024  1.00  0.00     0.029 A 
ATOM     50  C   UNL A   1      42.077  25.561  28.292  1.00  0.00     0.049 A 
ATOM     51  H   UNL A   1      42.934  27.242  29.174  1.00  0.00     0.167 HD
ATOM     52  C   UNL A   1      44.642  31.088  30.510  1.00  0.00     0.037 A 
ATOM     53  C   UNL A   1      43.082  24.712  28.006  1.00  0.00     0.037 A 
ATOM     54  C   UNL A   1      45.765  30.216  30.322  1.00  0.00     0.049 A 
ATOM     55  C   UNL A   1      44.501  25.144  28.262  1.00  0.00     0.074 A 
ATOM     56  C   UNL A   1      47.098  30.467  30.580  1.00  0.00     0.029 A 
ATOM     57  N   UNL A   1      45.686  28.933  29.799  1.00  0.00    -0.354 N 
ATOM     58  N   UNL A   1      44.947  26.282  28.740  1.00  0.00    -0.248 NA
ATOM     59  C   UNL A   1      45.559  24.182  27.924  1.00  0.00     0.031 C 
ATOM     60  C   UNL A   1      47.835  29.359  30.154  1.00  0.00     0.029 A 
ATOM     61  C   UNL A   1      46.953  28.388  29.700  1.00  0.00     0.049 A 
ATOM     62  H   UNL A   1      44.853  28.478  29.540  1.00  0.00     0.167 HD
ATOM     63  C   UNL A   1      46.330  26.163  28.788  1.00  0.00     0.074 A 
ATOM     64  C   UNL A   1      46.650  24.841  28.291  1.00  0.00     0.031 C 
ATOM     65  C   UNL A   1      47.250  27.064  29.212  1.00  0.00     0.037 A 
BRANCH  52  66
ATOM     66  C   UNL A   1      44.858  32.497  30.966  1.00  0.00     0.057 A 
ATOM     67  C   UNL A   1      44.662  32.886  32.299  1.00  0.00     0.134 A 
ATOM     68  C   UNL A   1      45.206  33.490  30.044  1.00  0.00     0.134 A 
ATOM     69  F   UNL A   1      44.292  31.986  33.224  1.00  0.00    -0.206 F 
ATOM     70  C   UNL A   1      44.762  34.222  32.688  1.00  0.00     0.040 A 
ATOM     71  C   UNL A   1      45.343  34.823  30.429  1.00  0.00     0.040 A 
ATOM     72  F   UNL A   1      45.396  33.185  28.752  1.00  0.00    -0.206 F 
ATOM     73  C   UNL A   1      45.107  35.193  31.752  1.00  0.00     0.006 A 
ENDBRANCH  52  66
BRANCH  53  74
ATOM     74  C   UNL A   1      42.778  23.390  27.404  1.00  0.00     0.057 A 
ATOM     75  C   UNL A   1      42.850  23.191  26.021  1.00  0.00     0.134 A 
ATOM     76  C   UNL A   1      42.422  22.291  28.196  1.00  0.00     0.134 A 
ATOM     77  F   UNL A   1      43.162  24.211  25.208  1.00  0.00    -0.206 F 
ATOM     78  C   UNL A   1      42.574  21.949  25.446  1.00  0.00     0.040 A 
ATOM     79  C   UNL A   1      42.171  21.037  27.638  1.00  0.00     0.040 A 
ATOM     80  F   UNL A   1      42.338  22.414  29.530  1.00  0.00    -0.206 F 
ATOM     81  C   UNL A   1      42.242  20.865  26.257  1.00  0.00     0.006 A 
ENDBRANCH  53  74
BRANCH  65  82
ATOM     82  C   UNL A   1      48.691  26.642  29.218  1.00  0.00     0.057 A 
ATOM     83  C   UNL A   1      49.562  26.942  28.163  1.00  0.00     0.134 A 
ATOM     84  C   UNL A   1      49.231  26.005  30.342  1.00  0.00     0.134 A 
ATOM     85  F   UNL A   1      49.107  27.541  27.052  1.00  0.00    -0.206 F 
ATOM     86  C   UNL A   1      50.918  26.612  28.225  1.00  0.00     0.040 A 
ATOM     87  C   UNL A   1      50.589  25.698  30.428  1.00  0.00     0.040 A 
ATOM     88  F   UNL A   1      48.452  25.701  31.393  1.00  0.00    -0.206 F 
ATOM     89  C   UNL A   1      51.437  26.000  29.365  1.00  0.00     0.006 A 
ENDBRANCH  65  82
ENDBRANCH  39  40
ENDBRANCH  32  34
ENDBRANCH  31  32
ENDBRANCH  30  31
ENDBRANCH  29  30
ENDBRANCH   1  29
TORSDOF 17
ENDMDL
MODEL 3
REMARK VINA RESULT:     -11.7      1.990      3.666
REMARK SMILES O=C(OCCOCCOC(=O)c1ccc(-c2c3nc(c(-c4c(F)cccc4F)c4ccc([nH]4)c(-c4c(F)cccc4F)c4nc(c(-c5c(F)cccc5F)c5ccc2[nH]5)C=C4)C=C3)cc1)C1=Cc2c(ccc(Cl)c2Oc2ccccc2)O[C@H]1C(F)(F)F
REMARK SMILES IDX 6 1 5 2 4 3 3 4 2 5 1 6 66 7 67 8 83 9 68 10 82 11 69 12
REMARK SMILES IDX 74 13 70 14 72 15 71 16 73 17 84 18 85 19 86 20 87 21 75 22
REMARK SMILES IDX 76 23 77 24 81 25 78 26 80 27 79 28 7 29 8 30 9 31 10 32
REMARK SMILES IDX 11 33 12 34 13 35 65 36 14 37 64 38 15 39 16 40 17 41 58 42
REMARK SMILES IDX 18 43 63 44 57 45 59 46 19 47 62 48 56 49 55 50 20 52 46 53
REMARK SMILES IDX 29 54 45 55 30 56 33 57 44 58 60 59 31 60 32 61 43 63 61 64
REMARK SMILES IDX 34 65 21 66 22 67 27 68 23 69 24 70 26 71 28 72 25 73 47 74
REMARK SMILES IDX 48 75 53 76 49 77 50 78 52 79 54 80 51 81 35 82 36 83 41 84
REMARK SMILES IDX 37 85 38 86 40 87 42 88 39 89
REMARK H PARENT 59 51 33 62
REMARK Flexibility Score: inf
ROOT
ATOM      1  O   UNL A   1      33.107  29.810  27.377  1.00  0.00    -0.374 OA
ENDROOT
BRANCH   1   2
ATOM      2  C   UNL A   1      31.914  29.078  27.285  1.00  0.00     0.202 C 
BRANCH   2   3
ATOM      3  C   UNL A   1      31.850  27.510  27.305  1.00  0.00     0.261 C 
BRANCH   3   4
ATOM      4  O   UNL A   1      30.550  27.034  26.930  1.00  0.00    -0.460 OA
BRANCH   4   5
ATOM      5  C   UNL A   1      30.355  25.924  26.197  1.00  0.00     0.338 C 
ATOM      6  O   UNL A   1      29.751  24.966  26.666  1.00  0.00    -0.246 OA
BRANCH   5   7
ATOM      7  C   UNL A   1      30.912  25.833  24.839  1.00  0.00     0.088 C 
ATOM      8  C   UNL A   1      30.873  24.799  23.988  1.00  0.00     0.031 C 
ATOM      9  C   UNL A   1      31.255  27.096  24.149  1.00  0.00     0.316 C 
ATOM     10  C   UNL A   1      32.204  24.349  23.688  1.00  0.00     0.062 A 
ATOM     11  O   UNL A   1      32.391  26.812  23.229  1.00  0.00    -0.475 OA
ATOM     12  C   UNL A   1      32.969  25.526  23.307  1.00  0.00     0.131 A 
ATOM     13  C   UNL A   1      32.709  23.035  23.864  1.00  0.00     0.156 A 
ATOM     14  C   UNL A   1      34.317  25.424  23.074  1.00  0.00     0.049 A 
ATOM     15  C   UNL A   1      34.122  23.050  23.733  1.00  0.00     0.084 A 
ATOM     16  C   UNL A   1      34.894  24.181  23.311  1.00  0.00     0.028 A 
ATOM     17  Cl  UNL A   1      35.073  21.742  24.312  1.00  0.00    -0.080 Cl
BRANCH   9  18
ATOM     18  C   UNL A   1      29.935  27.576  23.474  1.00  0.00     0.430 C 
ATOM     19  F   UNL A   1      30.010  27.519  22.111  1.00  0.00    -0.167 F 
ATOM     20  F   UNL A   1      28.865  26.836  23.825  1.00  0.00    -0.167 F 
ATOM     21  F   UNL A   1      29.666  28.871  23.766  1.00  0.00    -0.167 F 
ENDBRANCH   9  18
BRANCH  13  22
ATOM     22  O   UNL A   1      32.168  21.830  24.396  1.00  0.00    -0.455 OA
BRANCH  22  23
ATOM     23  C   UNL A   1      32.461  20.428  24.362  1.00  0.00     0.127 A 
ATOM     24  C   UNL A   1      32.251  19.650  22.729  1.00  0.00     0.047 A 
ATOM     25  C   UNL A   1      32.784  19.370  25.763  1.00  0.00     0.047 A 
ATOM     26  C   UNL A   1      32.511  17.856  22.492  1.00  0.00     0.004 A 
ATOM     27  C   UNL A   1      33.079  17.575  25.566  1.00  0.00     0.004 A 
ATOM     28  C   UNL A   1      32.892  16.790  23.938  1.00  0.00     0.000 A 
ENDBRANCH  22  23
ENDBRANCH  13  22
ENDBRANCH   5   7
ENDBRANCH   4   5
ENDBRANCH   3   4
ENDBRANCH   2   3
ENDBRANCH   1   2
BRANCH   1  29
ATOM     29  C   UNL A   1      33.035  31.117  26.690  1.00  0.00     0.202 C 
BRANCH  29  30
ATOM     30  C   UNL A   1      32.230  33.071  27.231  1.00  0.00     0.261 C 
BRANCH  30  31
ATOM     31  O   UNL A   1      32.214  33.743  28.575  1.00  0.00    -0.460 OA
BRANCH  31  32
ATOM     32  C   UNL A   1      33.015  34.800  28.785  1.00  0.00     0.338 C 
ATOM     33  O   UNL A   1      32.761  35.988  28.798  1.00  0.00    -0.246 OA
BRANCH  32  34
ATOM     34  C   UNL A   1      34.271  34.181  29.180  1.00  0.00     0.060 A 
ATOM     35  C   UNL A   1      34.217  33.192  30.156  1.00  0.00     0.016 A 
ATOM     36  C   UNL A   1      35.456  34.521  28.515  1.00  0.00     0.016 A 
ATOM     37  C   UNL A   1      35.388  32.539  30.503  1.00  0.00     0.010 A 
ATOM     38  C   UNL A   1      36.621  33.860  28.853  1.00  0.00     0.010 A 
ATOM     39  C   UNL A   1      36.589  32.888  29.864  1.00  0.00    -0.014 A 
BRANCH  39  40
ATOM     40  C   UNL A   1      37.874  32.501  30.464  1.00  0.00     0.031 A 
ATOM     41  C   UNL A   1      38.542  31.310  29.858  1.00  0.00     0.074 A 
ATOM     42  C   UNL A   1      38.364  33.098  31.559  1.00  0.00     0.049 A 
ATOM     43  N   UNL A   1      39.554  30.617  30.298  1.00  0.00    -0.248 NA
ATOM     44  C   UNL A   1      37.957  30.808  28.600  1.00  0.00     0.031 C 
ATOM     45  C   UNL A   1      37.792  34.261  32.224  1.00  0.00     0.029 A 
ATOM     46  N   UNL A   1      39.451  32.767  32.327  1.00  0.00    -0.354 N 
ATOM     47  C   UNL A   1      39.711  29.586  29.387  1.00  0.00     0.074 A 
ATOM     48  C   UNL A   1      38.687  29.731  28.379  1.00  0.00     0.031 C 
ATOM     49  C   UNL A   1      38.532  34.554  33.306  1.00  0.00     0.029 A 
ATOM     50  C   UNL A   1      39.577  33.544  33.450  1.00  0.00     0.049 A 
ATOM     51  H   UNL A   1      40.078  32.045  32.094  1.00  0.00     0.167 HD
ATOM     52  C   UNL A   1      40.620  28.588  29.402  1.00  0.00     0.037 A 
ATOM     53  C   UNL A   1      40.405  33.412  34.504  1.00  0.00     0.037 A 
ATOM     54  C   UNL A   1      41.599  28.423  30.437  1.00  0.00     0.049 A 
ATOM     55  C   UNL A   1      41.369  32.256  34.538  1.00  0.00     0.074 A 
ATOM     56  C   UNL A   1      42.573  27.452  30.549  1.00  0.00     0.029 A 
ATOM     57  N   UNL A   1      41.703  29.237  31.557  1.00  0.00    -0.354 N 
ATOM     58  N   UNL A   1      41.541  31.296  33.661  1.00  0.00    -0.248 NA
ATOM     59  C   UNL A   1      42.243  32.155  35.715  1.00  0.00     0.031 C 
ATOM     60  C   UNL A   1      43.228  27.638  31.769  1.00  0.00     0.029 A 
ATOM     61  C   UNL A   1      42.711  28.770  32.381  1.00  0.00     0.049 A 
ATOM     62  H   UNL A   1      41.145  30.027  31.737  1.00  0.00     0.167 HD
ATOM     63  C   UNL A   1      42.558  30.494  34.163  1.00  0.00     0.074 A 
ATOM     64  C   UNL A   1      42.966  31.082  35.423  1.00  0.00     0.031 C 
ATOM     65  C   UNL A   1      43.110  29.377  33.627  1.00  0.00     0.037 A 
BRANCH  52  66
ATOM     66  C   UNL A   1      40.520  27.579  28.301  1.00  0.00     0.057 A 
ATOM     67  C   UNL A   1      39.772  26.401  28.437  1.00  0.00     0.134 A 
ATOM     68  C   UNL A   1      41.235  27.760  27.112  1.00  0.00     0.134 A 
ATOM     69  F   UNL A   1      39.093  26.152  29.568  1.00  0.00    -0.206 F 
ATOM     70  C   UNL A   1      39.775  25.419  27.446  1.00  0.00     0.040 A 
ATOM     71  C   UNL A   1      41.217  26.802  26.100  1.00  0.00     0.040 A 
ATOM     72  F   UNL A   1      41.979  28.860  26.924  1.00  0.00    -0.206 F 
ATOM     73  C   UNL A   1      40.497  25.622  26.271  1.00  0.00     0.006 A 
ENDBRANCH  52  66
BRANCH  53  74
ATOM     74  C   UNL A   1      40.322  34.376  35.629  1.00  0.00     0.057 A 
ATOM     75  C   UNL A   1      39.509  34.124  36.740  1.00  0.00     0.134 A 
ATOM     76  C   UNL A   1      41.063  35.566  35.629  1.00  0.00     0.134 A 
ATOM     77  F   UNL A   1      38.758  33.014  36.788  1.00  0.00    -0.206 F 
ATOM     78  C   UNL A   1      39.431  35.021  37.806  1.00  0.00     0.040 A 
ATOM     79  C   UNL A   1      41.016  36.458  36.701  1.00  0.00     0.040 A 
ATOM     80  F   UNL A   1      41.864  35.865  34.595  1.00  0.00    -0.206 F 
ATOM     81  C   UNL A   1      40.193  36.188  37.792  1.00  0.00     0.006 A 
ENDBRANCH  53  74
BRANCH  65  82
ATOM     82  C   UNL A   1      44.255  28.742  34.360  1.00  0.00     0.057 A 
ATOM     83  C   UNL A   1      45.580  29.157  34.182  1.00  0.00     0.134 A 
ATOM     84  C   UNL A   1      44.010  27.759  35.328  1.00  0.00     0.134 A 
ATOM     85  F   UNL A   1      45.885  30.087  33.264  1.00  0.00    -0.206 F 
ATOM     86  C   UNL A   1      46.621  28.610  34.934  1.00  0.00     0.040 A 
ATOM     87  C   UNL A   1      45.037  27.226  36.107  1.00  0.00     0.040 A 
ATOM     88  F   UNL A   1      42.760  27.325  35.557  1.00  0.00    -0.206 F 
ATOM     89  C   UNL A   1      46.349  27.650  35.909  1.00  0.00     0.006 A 
ENDBRANCH  65  82
ENDBRANCH  39  40
ENDBRANCH  32  34
ENDBRANCH  31  32
ENDBRANCH  30  31
ENDBRANCH  29  30
ENDBRANCH   1  29
TORSDOF 17
ENDMDL
