MODEL 1
REMARK VINA RESULT:     -11.3      0.000      0.000
REMARK SMILES Cc1cc(Cl)cc2c1O[C@H](C(F)(F)F)C(C(=O)OCCOCCOC(=O)c1ccc(-c3c4nc(c(-c5c(F)cccc5F)c5ccc([nH]5)c(-c5c(F)cccc5F)c5nc(c(-c6c(F)cccc6F)c6ccc3[nH]6)C=C5)C=C4)cc1)=C2
REMARK SMILES IDX 22 1 21 2 20 3 19 4 18 5 16 6 17 7 15 8 1 9 2 10 3 11 8 12
REMARK SMILES IDX 4 13 7 14 9 15 5 16 6 17 81 18 10 19 11 20 12 21 13 22 14 23
REMARK SMILES IDX 23 24 24 25 25 26 26 27 27 28 28 29 80 30 29 31 79 32 30 33
REMARK SMILES IDX 31 34 32 35 73 36 33 37 78 38 72 39 74 40 34 41 77 42 71 43
REMARK SMILES IDX 70 44 35 46 61 47 44 48 60 49 45 50 48 51 59 52 75 53 46 54
REMARK SMILES IDX 47 55 58 57 76 58 49 59 36 60 37 61 42 62 38 63 39 64 41 65
REMARK SMILES IDX 43 66 40 67 62 68 63 69 68 70 64 71 65 72 67 73 69 74 66 75
REMARK SMILES IDX 50 76 51 77 56 78 52 79 53 80 55 81 57 82 54 83
REMARK H PARENT 74 45 48 56
REMARK Flexibility Score: inf
ROOT
ATOM      1  C   UNL A   1      31.350  32.004  26.722  1.00  0.00     0.202 C 
ENDROOT
BRANCH   1   2
ATOM      2  O   UNL A   1      31.845  30.706  26.390  1.00  0.00    -0.374 OA
BRANCH   2   3
ATOM      3  C   UNL A   1      33.200  30.412  26.725  1.00  0.00     0.202 C 
BRANCH   3   4
ATOM      4  C   UNL A   1      33.525  28.933  26.948  1.00  0.00     0.261 C 
BRANCH   4   5
ATOM      5  O   UNL A   1      32.816  28.106  26.009  1.00  0.00    -0.460 OA
BRANCH   5   6
ATOM      6  C   UNL A   1      31.994  27.188  26.568  1.00  0.00     0.338 C 
ATOM      7  O   UNL A   1      31.053  27.407  27.315  1.00  0.00    -0.246 OA
BRANCH   6   8
ATOM      8  C   UNL A   1      32.318  25.846  26.050  1.00  0.00     0.087 C 
ATOM      9  C   UNL A   1      32.424  21.345  23.596  1.00  0.00     0.048 C 
ATOM     10  C   UNL A   1      33.432  22.230  24.272  1.00  0.00    -0.007 A 
ATOM     11  C   UNL A   1      34.791  21.878  24.249  1.00  0.00     0.027 A 
ATOM     12  C   UNL A   1      33.039  23.403  24.941  1.00  0.00     0.131 A 
ATOM     13  C   UNL A   1      35.737  22.689  24.871  1.00  0.00     0.042 A 
ATOM     14  C   UNL A   1      34.001  24.228  25.534  1.00  0.00     0.019 A 
ATOM     15  O   UNL A   1      31.700  23.674  24.989  1.00  0.00    -0.475 OA
ATOM     16  Cl  UNL A   1      37.400  22.249  24.831  1.00  0.00    -0.084 Cl
ATOM     17  C   UNL A   1      35.351  23.863  25.510  1.00  0.00     0.032 A 
ATOM     18  C   UNL A   1      33.607  25.492  26.126  1.00  0.00     0.027 C 
ATOM     19  C   UNL A   1      31.246  24.972  25.463  1.00  0.00     0.316 C 
BRANCH  19  20
ATOM     20  C   UNL A   1      30.481  25.659  24.322  1.00  0.00     0.430 C 
ATOM     21  F   UNL A   1      29.909  24.748  23.497  1.00  0.00    -0.167 F 
ATOM     22  F   UNL A   1      29.477  26.440  24.787  1.00  0.00    -0.167 F 
ATOM     23  F   UNL A   1      31.286  26.440  23.568  1.00  0.00    -0.167 F 
ENDBRANCH  19  20
ENDBRANCH   6   8
ENDBRANCH   5   6
ENDBRANCH   4   5
ENDBRANCH   3   4
ENDBRANCH   2   3
ENDBRANCH   1   2
BRANCH   1  24
ATOM     24  C   UNL A   1      32.398  33.113  26.876  1.00  0.00     0.261 C 
BRANCH  24  25
ATOM     25  O   UNL A   1      32.214  33.865  28.089  1.00  0.00    -0.460 OA
BRANCH  25  26
ATOM     26  C   UNL A   1      33.299  34.575  28.483  1.00  0.00     0.338 C 
ATOM     27  O   UNL A   1      33.355  35.771  28.727  1.00  0.00    -0.246 OA
BRANCH  26  28
ATOM     28  C   UNL A   1      34.427  33.666  28.752  1.00  0.00     0.060 A 
ATOM     29  C   UNL A   1      34.158  32.502  29.486  1.00  0.00     0.016 A 
ATOM     30  C   UNL A   1      35.734  33.986  28.380  1.00  0.00     0.016 A 
ATOM     31  C   UNL A   1      35.204  31.680  29.896  1.00  0.00     0.010 A 
ATOM     32  C   UNL A   1      36.784  33.166  28.805  1.00  0.00     0.010 A 
ATOM     33  C   UNL A   1      36.525  32.032  29.595  1.00  0.00    -0.014 A 
BRANCH  33  34
ATOM     34  C   UNL A   1      37.643  31.303  30.239  1.00  0.00     0.031 A 
ATOM     35  C   UNL A   1      37.962  31.590  31.681  1.00  0.00     0.074 A 
ATOM     36  C   UNL A   1      38.343  30.377  29.562  1.00  0.00     0.049 A 
ATOM     37  N   UNL A   1      38.930  31.122  32.425  1.00  0.00    -0.248 NA
ATOM     38  C   UNL A   1      37.065  32.528  32.376  1.00  0.00     0.031 C 
ATOM     39  C   UNL A   1      38.087  29.966  28.185  1.00  0.00     0.029 A 
ATOM     40  N   UNL A   1      39.418  29.618  29.949  1.00  0.00    -0.354 N 
ATOM     41  C   UNL A   1      38.759  31.705  33.675  1.00  0.00     0.074 A 
ATOM     42  C   UNL A   1      37.611  32.580  33.583  1.00  0.00     0.031 C 
ATOM     43  C   UNL A   1      38.987  29.031  27.836  1.00  0.00     0.029 A 
ATOM     44  C   UNL A   1      39.902  28.805  28.954  1.00  0.00     0.049 A 
ATOM     45  H   UNL A   1      39.805  29.652  30.854  1.00  0.00     0.167 HD
ATOM     46  C   UNL A   1      39.489  31.518  34.800  1.00  0.00     0.037 A 
ATOM     47  C   UNL A   1      40.975  27.992  28.943  1.00  0.00     0.037 A 
ATOM     48  C   UNL A   1      40.636  30.654  34.887  1.00  0.00     0.049 A 
ATOM     49  C   UNL A   1      41.829  27.875  30.177  1.00  0.00     0.074 A 
ATOM     50  C   UNL A   1      41.454  30.415  35.976  1.00  0.00     0.029 A 
ATOM     51  N   UNL A   1      41.127  29.888  33.841  1.00  0.00    -0.354 N 
ATOM     52  N   UNL A   1      41.674  28.447  31.346  1.00  0.00    -0.248 NA
ATOM     53  C   UNL A   1      43.009  27.003  30.086  1.00  0.00     0.031 C 
ATOM     54  C   UNL A   1      42.464  29.533  35.579  1.00  0.00     0.029 A 
ATOM     55  C   UNL A   1      42.247  29.187  34.255  1.00  0.00     0.049 A 
ATOM     56  H   UNL A   1      40.737  29.849  32.938  1.00  0.00     0.167 HD
ATOM     57  C   UNL A   1      42.719  27.987  32.137  1.00  0.00     0.074 A 
ATOM     58  C   UNL A   1      43.498  27.082  31.317  1.00  0.00     0.031 C 
ATOM     59  C   UNL A   1      43.008  28.287  33.428  1.00  0.00     0.037 A 
BRANCH  46  60
ATOM     60  C   UNL A   1      39.079  32.279  36.024  1.00  0.00     0.057 A 
ATOM     61  C   UNL A   1      39.499  33.597  36.245  1.00  0.00     0.134 A 
ATOM     62  C   UNL A   1      38.217  31.707  36.968  1.00  0.00     0.134 A 
ATOM     63  F   UNL A   1      40.338  34.197  35.385  1.00  0.00    -0.206 F 
ATOM     64  C   UNL A   1      39.085  34.315  37.367  1.00  0.00     0.040 A 
ATOM     65  C   UNL A   1      37.779  32.422  38.083  1.00  0.00     0.040 A 
ATOM     66  F   UNL A   1      37.778  30.449  36.814  1.00  0.00    -0.206 F 
ATOM     67  C   UNL A   1      38.214  33.731  38.286  1.00  0.00     0.006 A 
ENDBRANCH  46  60
BRANCH  47  68
ATOM     68  C   UNL A   1      41.307  27.227  27.716  1.00  0.00     0.057 A 
ATOM     69  C   UNL A   1      40.847  25.919  27.533  1.00  0.00     0.134 A 
ATOM     70  C   UNL A   1      42.090  27.785  26.697  1.00  0.00     0.134 A 
ATOM     71  F   UNL A   1      40.114  25.323  28.485  1.00  0.00    -0.206 F 
ATOM     72  C   UNL A   1      41.156  25.190  26.384  1.00  0.00     0.040 A 
ATOM     73  C   UNL A   1      42.388  27.076  25.533  1.00  0.00     0.040 A 
ATOM     74  F   UNL A   1      42.563  29.035  26.814  1.00  0.00    -0.206 F 
ATOM     75  C   UNL A   1      41.923  25.772  25.376  1.00  0.00     0.006 A 
ENDBRANCH  47  68
BRANCH  59  76
ATOM     76  C   UNL A   1      44.196  27.611  34.046  1.00  0.00     0.057 A 
ATOM     77  C   UNL A   1      44.096  26.353  34.651  1.00  0.00     0.134 A 
ATOM     78  C   UNL A   1      45.465  28.201  33.983  1.00  0.00     0.134 A 
ATOM     79  F   UNL A   1      42.908  25.739  34.751  1.00  0.00    -0.206 F 
ATOM     80  C   UNL A   1      45.214  25.712  35.187  1.00  0.00     0.040 A 
ATOM     81  C   UNL A   1      46.593  27.561  34.494  1.00  0.00     0.040 A 
ATOM     82  F   UNL A   1      45.630  29.402  33.407  1.00  0.00    -0.206 F 
ATOM     83  C   UNL A   1      46.469  26.313  35.102  1.00  0.00     0.006 A 
ENDBRANCH  59  76
ENDBRANCH  33  34
ENDBRANCH  26  28
ENDBRANCH  25  26
ENDBRANCH  24  25
ENDBRANCH   1  24
TORSDOF 15
ENDMDL
MODEL 2
REMARK VINA RESULT:     -11.2      4.119      7.660
REMARK SMILES Cc1cc(Cl)cc2c1O[C@H](C(F)(F)F)C(C(=O)OCCOCCOC(=O)c1ccc(-c3c4nc(c(-c5c(F)cccc5F)c5ccc([nH]5)c(-c5c(F)cccc5F)c5nc(c(-c6c(F)cccc6F)c6ccc3[nH]6)C=C5)C=C4)cc1)=C2
REMARK SMILES IDX 22 1 21 2 20 3 19 4 18 5 16 6 17 7 15 8 1 9 2 10 3 11 8 12
REMARK SMILES IDX 4 13 7 14 9 15 5 16 6 17 81 18 10 19 11 20 12 21 13 22 14 23
REMARK SMILES IDX 23 24 24 25 25 26 26 27 27 28 28 29 80 30 29 31 79 32 30 33
REMARK SMILES IDX 31 34 32 35 73 36 33 37 78 38 72 39 74 40 34 41 77 42 71 43
REMARK SMILES IDX 70 44 35 46 61 47 44 48 60 49 45 50 48 51 59 52 75 53 46 54
REMARK SMILES IDX 47 55 58 57 76 58 49 59 36 60 37 61 42 62 38 63 39 64 41 65
REMARK SMILES IDX 43 66 40 67 62 68 63 69 68 70 64 71 65 72 67 73 69 74 66 75
REMARK SMILES IDX 50 76 51 77 56 78 52 79 53 80 55 81 57 82 54 83
REMARK H PARENT 74 45 48 56
REMARK Flexibility Score: inf
ROOT
ATOM      1  C   UNL A   1      35.729  21.070  25.545  1.00  0.00     0.202 C 
ENDROOT
BRANCH   1   2
ATOM      2  O   UNL A   1      34.475  20.588  25.057  1.00  0.00    -0.374 OA
BRANCH   2   3
ATOM      3  C   UNL A   1      33.323  20.811  25.869  1.00  0.00     0.202 C 
BRANCH   3   4
ATOM      4  C   UNL A   1      32.385  21.926  25.399  1.00  0.00     0.261 C 
BRANCH   4   5
ATOM      5  O   UNL A   1      33.041  23.205  25.456  1.00  0.00    -0.460 OA
BRANCH   5   6
ATOM      6  C   UNL A   1      33.245  23.791  24.254  1.00  0.00     0.338 C 
ATOM      7  O   UNL A   1      33.571  23.238  23.215  1.00  0.00    -0.246 OA
BRANCH   6   8
ATOM      8  C   UNL A   1      32.897  25.223  24.331  1.00  0.00     0.087 C 
ATOM      9  C   UNL A   1      30.588  29.800  24.250  1.00  0.00     0.048 C 
ATOM     10  C   UNL A   1      31.786  29.207  24.935  1.00  0.00    -0.007 A 
ATOM     11  C   UNL A   1      32.513  29.980  25.854  1.00  0.00     0.027 A 
ATOM     12  C   UNL A   1      32.204  27.892  24.663  1.00  0.00     0.131 A 
ATOM     13  C   UNL A   1      33.626  29.444  26.497  1.00  0.00     0.042 A 
ATOM     14  C   UNL A   1      33.304  27.352  25.340  1.00  0.00     0.019 A 
ATOM     15  O   UNL A   1      31.502  27.198  23.717  1.00  0.00    -0.475 OA
ATOM     16  Cl  UNL A   1      34.505  30.400  27.626  1.00  0.00    -0.084 Cl
ATOM     17  C   UNL A   1      34.024  28.134  26.248  1.00  0.00     0.032 A 
ATOM     18  C   UNL A   1      33.665  25.961  25.141  1.00  0.00     0.027 C 
ATOM     19  C   UNL A   1      31.736  25.772  23.551  1.00  0.00     0.316 C 
BRANCH  19  20
ATOM     20  C   UNL A   1      30.423  25.033  23.846  1.00  0.00     0.430 C 
ATOM     21  F   UNL A   1      29.349  25.798  23.531  1.00  0.00    -0.167 F 
ATOM     22  F   UNL A   1      30.311  23.896  23.119  1.00  0.00    -0.167 F 
ATOM     23  F   UNL A   1      30.311  24.694  25.149  1.00  0.00    -0.167 F 
ENDBRANCH  19  20
ENDBRANCH   6   8
ENDBRANCH   5   6
ENDBRANCH   4   5
ENDBRANCH   3   4
ENDBRANCH   2   3
ENDBRANCH   1   2
BRANCH   1  24
ATOM     24  C   UNL A   1      36.983  20.374  25.002  1.00  0.00     0.261 C 
BRANCH  24  25
ATOM     25  O   UNL A   1      38.122  21.255  24.979  1.00  0.00    -0.460 OA
BRANCH  25  26
ATOM     26  C   UNL A   1      39.082  20.960  25.888  1.00  0.00     0.338 C 
ATOM     27  O   UNL A   1      39.594  19.871  26.100  1.00  0.00    -0.246 OA
BRANCH  26  28
ATOM     28  C   UNL A   1      39.580  22.196  26.517  1.00  0.00     0.060 A 
ATOM     29  C   UNL A   1      39.027  23.409  26.083  1.00  0.00     0.016 A 
ATOM     30  C   UNL A   1      40.627  22.181  27.441  1.00  0.00     0.016 A 
ATOM     31  C   UNL A   1      39.557  24.616  26.532  1.00  0.00     0.010 A 
ATOM     32  C   UNL A   1      41.166  23.395  27.879  1.00  0.00     0.010 A 
ATOM     33  C   UNL A   1      40.658  24.614  27.398  1.00  0.00    -0.014 A 
BRANCH  33  34
ATOM     34  C   UNL A   1      41.375  25.881  27.675  1.00  0.00     0.031 A 
ATOM     35  C   UNL A   1      40.664  26.966  28.435  1.00  0.00     0.074 A 
ATOM     36  C   UNL A   1      42.649  26.051  27.284  1.00  0.00     0.049 A 
ATOM     37  N   UNL A   1      41.071  28.173  28.732  1.00  0.00    -0.248 NA
ATOM     38  C   UNL A   1      39.315  26.645  28.930  1.00  0.00     0.031 C 
ATOM     39  C   UNL A   1      43.463  25.049  26.599  1.00  0.00     0.029 A 
ATOM     40  N   UNL A   1      43.479  27.135  27.407  1.00  0.00    -0.354 N 
ATOM     41  C   UNL A   1      40.032  28.754  29.449  1.00  0.00     0.074 A 
ATOM     42  C   UNL A   1      38.966  27.779  29.520  1.00  0.00     0.031 C 
ATOM     43  C   UNL A   1      44.677  25.570  26.355  1.00  0.00     0.029 A 
ATOM     44  C   UNL A   1      44.713  26.951  26.835  1.00  0.00     0.049 A 
ATOM     45  H   UNL A   1      43.215  27.968  27.863  1.00  0.00     0.167 HD
ATOM     46  C   UNL A   1      39.977  29.988  30.004  1.00  0.00     0.037 A 
ATOM     47  C   UNL A   1      45.742  27.808  26.695  1.00  0.00     0.037 A 
ATOM     48  C   UNL A   1      41.034  30.960  29.924  1.00  0.00     0.049 A 
ATOM     49  C   UNL A   1      45.620  29.206  27.236  1.00  0.00     0.074 A 
ATOM     50  C   UNL A   1      41.065  32.245  30.436  1.00  0.00     0.029 A 
ATOM     51  N   UNL A   1      42.249  30.754  29.289  1.00  0.00    -0.354 N 
ATOM     52  N   UNL A   1      44.626  29.755  27.891  1.00  0.00    -0.248 NA
ATOM     53  C   UNL A   1      46.762  30.106  27.013  1.00  0.00     0.031 C 
ATOM     54  C   UNL A   1      42.283  32.830  30.078  1.00  0.00     0.029 A 
ATOM     55  C   UNL A   1      43.030  31.892  29.382  1.00  0.00     0.049 A 
ATOM     56  H   UNL A   1      42.516  29.920  28.837  1.00  0.00     0.167 HD
ATOM     57  C   UNL A   1      45.030  31.053  28.181  1.00  0.00     0.074 A 
ATOM     58  C   UNL A   1      46.364  31.207  27.638  1.00  0.00     0.031 C 
ATOM     59  C   UNL A   1      44.357  32.029  28.839  1.00  0.00     0.037 A 
BRANCH  46  60
ATOM     60  C   UNL A   1      38.722  30.363  30.733  1.00  0.00     0.057 A 
ATOM     61  C   UNL A   1      37.630  30.937  30.069  1.00  0.00     0.134 A 
ATOM     62  C   UNL A   1      38.584  30.103  32.102  1.00  0.00     0.134 A 
ATOM     63  F   UNL A   1      37.705  31.225  28.760  1.00  0.00    -0.206 F 
ATOM     64  C   UNL A   1      36.450  31.250  30.744  1.00  0.00     0.040 A 
ATOM     65  C   UNL A   1      37.401  30.391  32.783  1.00  0.00     0.040 A 
ATOM     66  F   UNL A   1      39.592  29.554  32.795  1.00  0.00    -0.206 F 
ATOM     67  C   UNL A   1      36.329  30.968  32.104  1.00  0.00     0.006 A 
ENDBRANCH  46  60
BRANCH  47  68
ATOM     68  C   UNL A   1      46.979  27.367  26.003  1.00  0.00     0.057 A 
ATOM     69  C   UNL A   1      48.058  26.842  26.720  1.00  0.00     0.134 A 
ATOM     70  C   UNL A   1      47.109  27.460  24.612  1.00  0.00     0.134 A 
ATOM     71  F   UNL A   1      48.001  26.752  28.057  1.00  0.00    -0.206 F 
ATOM     72  C   UNL A   1      49.227  26.427  26.080  1.00  0.00     0.040 A 
ATOM     73  C   UNL A   1      48.264  27.029  23.957  1.00  0.00     0.040 A 
ATOM     74  F   UNL A   1      46.110  27.957  23.869  1.00  0.00    -0.206 F 
ATOM     75  C   UNL A   1      49.329  26.513  24.692  1.00  0.00     0.006 A 
ENDBRANCH  47  68
BRANCH  59  76
ATOM     76  C   UNL A   1      45.058  33.340  29.037  1.00  0.00     0.057 A 
ATOM     77  C   UNL A   1      45.933  33.554  30.107  1.00  0.00     0.134 A 
ATOM     78  C   UNL A   1      44.899  34.380  28.112  1.00  0.00     0.134 A 
ATOM     79  F   UNL A   1      46.122  32.601  31.033  1.00  0.00    -0.206 F 
ATOM     80  C   UNL A   1      46.614  34.762  30.262  1.00  0.00     0.040 A 
ATOM     81  C   UNL A   1      45.591  35.584  28.242  1.00  0.00     0.040 A 
ATOM     82  F   UNL A   1      44.082  34.235  27.057  1.00  0.00    -0.206 F 
ATOM     83  C   UNL A   1      46.450  35.779  29.322  1.00  0.00     0.006 A 
ENDBRANCH  59  76
ENDBRANCH  33  34
ENDBRANCH  26  28
ENDBRANCH  25  26
ENDBRANCH  24  25
ENDBRANCH   1  24
TORSDOF 15
ENDMDL
MODEL 3
REMARK VINA RESULT:     -11.2      2.325      3.569
REMARK SMILES Cc1cc(Cl)cc2c1O[C@H](C(F)(F)F)C(C(=O)OCCOCCOC(=O)c1ccc(-c3c4nc(c(-c5c(F)cccc5F)c5ccc([nH]5)c(-c5c(F)cccc5F)c5nc(c(-c6c(F)cccc6F)c6ccc3[nH]6)C=C5)C=C4)cc1)=C2
REMARK SMILES IDX 22 1 21 2 20 3 19 4 18 5 16 6 17 7 15 8 1 9 2 10 3 11 8 12
REMARK SMILES IDX 4 13 7 14 9 15 5 16 6 17 81 18 10 19 11 20 12 21 13 22 14 23
REMARK SMILES IDX 23 24 24 25 25 26 26 27 27 28 28 29 80 30 29 31 79 32 30 33
REMARK SMILES IDX 31 34 32 35 73 36 33 37 78 38 72 39 74 40 34 41 77 42 71 43
REMARK SMILES IDX 70 44 35 46 61 47 44 48 60 49 45 50 48 51 59 52 75 53 46 54
REMARK SMILES IDX 47 55 58 57 76 58 49 59 36 60 37 61 42 62 38 63 39 64 41 65
REMARK SMILES IDX 43 66 40 67 62 68 63 69 68 70 64 71 65 72 67 73 69 74 66 75
REMARK SMILES IDX 50 76 51 77 56 78 52 79 53 80 55 81 57 82 54 83
REMARK H PARENT 74 45 48 56
REMARK Flexibility Score: inf
ROOT
ATOM      1  C   UNL A   1      31.704  31.742  26.612  1.00  0.00     0.202 C 
ENDROOT
BRANCH   1   2
ATOM      2  O   UNL A   1      32.174  30.438  26.959  1.00  0.00    -0.374 OA
BRANCH   2   3
ATOM      3  C   UNL A   1      33.485  30.075  26.528  1.00  0.00     0.202 C 
BRANCH   3   4
ATOM      4  C   UNL A   1      33.651  28.631  26.049  1.00  0.00     0.261 C 
BRANCH   4   5
ATOM      5  O   UNL A   1      33.670  28.568  24.612  1.00  0.00    -0.460 OA
BRANCH   5   6
ATOM      6  C   UNL A   1      33.119  27.450  24.085  1.00  0.00     0.338 C 
ATOM      7  O   UNL A   1      33.651  26.357  23.970  1.00  0.00    -0.246 OA
BRANCH   6   8
ATOM      8  C   UNL A   1      31.701  27.696  23.763  1.00  0.00     0.087 C 
ATOM      9  C   UNL A   1      26.578  27.821  23.601  1.00  0.00     0.048 C 
ATOM     10  C   UNL A   1      27.695  28.703  23.122  1.00  0.00    -0.007 A 
ATOM     11  C   UNL A   1      27.396  29.928  22.506  1.00  0.00     0.027 A 
ATOM     12  C   UNL A   1      29.040  28.318  23.265  1.00  0.00     0.131 A 
ATOM     13  C   UNL A   1      28.421  30.758  22.057  1.00  0.00     0.042 A 
ATOM     14  C   UNL A   1      30.063  29.174  22.840  1.00  0.00     0.019 A 
ATOM     15  O   UNL A   1      29.281  27.090  23.815  1.00  0.00    -0.475 OA
ATOM     16  Cl  UNL A   1      28.041  32.260  21.309  1.00  0.00    -0.084 Cl
ATOM     17  C   UNL A   1      29.752  30.389  22.223  1.00  0.00     0.032 A 
ATOM     18  C   UNL A   1      31.449  28.826  23.091  1.00  0.00     0.027 C 
ATOM     19  C   UNL A   1      30.638  26.728  24.198  1.00  0.00     0.316 C 
BRANCH  19  20
ATOM     20  C   UNL A   1      30.657  26.469  25.711  1.00  0.00     0.430 C 
ATOM     21  F   UNL A   1      29.496  25.902  26.125  1.00  0.00    -0.167 F 
ATOM     22  F   UNL A   1      31.648  25.617  26.064  1.00  0.00    -0.167 F 
ATOM     23  F   UNL A   1      30.827  27.606  26.420  1.00  0.00    -0.167 F 
ENDBRANCH  19  20
ENDBRANCH   6   8
ENDBRANCH   5   6
ENDBRANCH   4   5
ENDBRANCH   3   4
ENDBRANCH   2   3
ENDBRANCH   1   2
BRANCH   1  24
ATOM     24  C   UNL A   1      32.667  32.905  26.875  1.00  0.00     0.261 C 
BRANCH  24  25
ATOM     25  O   UNL A   1      32.164  33.806  27.880  1.00  0.00    -0.460 OA
BRANCH  25  26
ATOM     26  C   UNL A   1      33.117  34.523  28.522  1.00  0.00     0.338 C 
ATOM     27  O   UNL A   1      33.018  35.654  28.972  1.00  0.00    -0.246 OA
BRANCH  26  28
ATOM     28  C   UNL A   1      34.300  33.680  28.772  1.00  0.00     0.060 A 
ATOM     29  C   UNL A   1      34.081  32.395  29.287  1.00  0.00     0.016 A 
ATOM     30  C   UNL A   1      35.598  34.165  28.597  1.00  0.00     0.016 A 
ATOM     31  C   UNL A   1      35.162  31.608  29.679  1.00  0.00     0.010 A 
ATOM     32  C   UNL A   1      36.680  33.379  29.005  1.00  0.00     0.010 A 
ATOM     33  C   UNL A   1      36.463  32.115  29.581  1.00  0.00    -0.014 A 
BRANCH  33  34
ATOM     34  C   UNL A   1      37.583  31.388  30.225  1.00  0.00     0.031 A 
ATOM     35  C   UNL A   1      37.901  31.676  31.666  1.00  0.00     0.074 A 
ATOM     36  C   UNL A   1      38.284  30.463  29.548  1.00  0.00     0.049 A 
ATOM     37  N   UNL A   1      38.871  31.210  32.410  1.00  0.00    -0.248 NA
ATOM     38  C   UNL A   1      37.003  32.613  32.361  1.00  0.00     0.031 C 
ATOM     39  C   UNL A   1      38.028  30.051  28.171  1.00  0.00     0.029 A 
ATOM     40  N   UNL A   1      39.360  29.706  29.935  1.00  0.00    -0.354 N 
ATOM     41  C   UNL A   1      38.699  31.793  33.660  1.00  0.00     0.074 A 
ATOM     42  C   UNL A   1      37.550  32.667  33.568  1.00  0.00     0.031 C 
ATOM     43  C   UNL A   1      38.930  29.117  27.822  1.00  0.00     0.029 A 
ATOM     44  C   UNL A   1      39.846  28.894  28.940  1.00  0.00     0.049 A 
ATOM     45  H   UNL A   1      39.748  29.741  30.839  1.00  0.00     0.167 HD
ATOM     46  C   UNL A   1      39.431  31.609  34.784  1.00  0.00     0.037 A 
ATOM     47  C   UNL A   1      40.921  28.082  28.929  1.00  0.00     0.037 A 
ATOM     48  C   UNL A   1      40.579  30.747  34.871  1.00  0.00     0.049 A 
ATOM     49  C   UNL A   1      41.775  27.968  30.162  1.00  0.00     0.074 A 
ATOM     50  C   UNL A   1      41.399  30.510  35.961  1.00  0.00     0.029 A 
ATOM     51  N   UNL A   1      41.071  29.981  33.826  1.00  0.00    -0.354 N 
ATOM     52  N   UNL A   1      41.620  28.540  31.331  1.00  0.00    -0.248 NA
ATOM     53  C   UNL A   1      42.957  27.098  30.071  1.00  0.00     0.031 C 
ATOM     54  C   UNL A   1      42.409  29.630  35.564  1.00  0.00     0.029 A 
ATOM     55  C   UNL A   1      42.192  29.283  34.240  1.00  0.00     0.049 A 
ATOM     56  H   UNL A   1      40.681  29.941  32.923  1.00  0.00     0.167 HD
ATOM     57  C   UNL A   1      42.666  28.083  32.122  1.00  0.00     0.074 A 
ATOM     58  C   UNL A   1      43.446  27.178  31.302  1.00  0.00     0.031 C 
ATOM     59  C   UNL A   1      42.955  28.384  33.412  1.00  0.00     0.037 A 
BRANCH  46  60
ATOM     60  C   UNL A   1      39.020  32.370  36.008  1.00  0.00     0.057 A 
ATOM     61  C   UNL A   1      39.410  33.700  36.212  1.00  0.00     0.134 A 
ATOM     62  C   UNL A   1      38.187  31.784  36.970  1.00  0.00     0.134 A 
ATOM     63  F   UNL A   1      40.221  34.312  35.335  1.00  0.00    -0.206 F 
ATOM     64  C   UNL A   1      38.994  34.417  37.335  1.00  0.00     0.040 A 
ATOM     65  C   UNL A   1      37.747  32.498  38.085  1.00  0.00     0.040 A 
ATOM     66  F   UNL A   1      37.777  30.515  36.833  1.00  0.00    -0.206 F 
ATOM     67  C   UNL A   1      38.153  33.818  38.271  1.00  0.00     0.006 A 
ENDBRANCH  46  60
BRANCH  47  68
ATOM     68  C   UNL A   1      41.253  27.318  27.701  1.00  0.00     0.057 A 
ATOM     69  C   UNL A   1      42.030  27.884  26.686  1.00  0.00     0.134 A 
ATOM     70  C   UNL A   1      40.803  26.005  27.515  1.00  0.00     0.134 A 
ATOM     71  F   UNL A   1      42.469  29.146  26.797  1.00  0.00    -0.206 F 
ATOM     72  C   UNL A   1      42.345  27.175  25.526  1.00  0.00     0.040 A 
ATOM     73  C   UNL A   1      41.129  25.276  26.370  1.00  0.00     0.040 A 
ATOM     74  F   UNL A   1      40.051  25.407  28.452  1.00  0.00    -0.206 F 
ATOM     75  C   UNL A   1      41.900  25.863  25.369  1.00  0.00     0.006 A 
ENDBRANCH  47  68
BRANCH  59  76
ATOM     76  C   UNL A   1      44.145  27.710  34.030  1.00  0.00     0.057 A 
ATOM     77  C   UNL A   1      45.408  28.312  34.045  1.00  0.00     0.134 A 
ATOM     78  C   UNL A   1      44.010  26.470  34.667  1.00  0.00     0.134 A 
ATOM     79  F   UNL A   1      45.605  29.495  33.444  1.00  0.00    -0.206 F 
ATOM     80  C   UNL A   1      46.501  27.698  34.658  1.00  0.00     0.040 A 
ATOM     81  C   UNL A   1      45.088  25.856  35.304  1.00  0.00     0.040 A 
ATOM     82  F   UNL A   1      42.823  25.844  34.697  1.00  0.00    -0.206 F 
ATOM     83  C   UNL A   1      46.340  26.469  35.298  1.00  0.00     0.006 A 
ENDBRANCH  59  76
ENDBRANCH  33  34
ENDBRANCH  26  28
ENDBRANCH  25  26
ENDBRANCH  24  25
ENDBRANCH   1  24
TORSDOF 15
ENDMDL
