MODEL 1
REMARK VINA RESULT:      -9.2      0.000      0.000
REMARK SMILES C[C@@H](CC(=O)OCCOCCOC(=O)c1ccc(-c2c3nc(c(-c4c(F)cccc4F)c4ccc([nH]4)c(-c4c(F)cccc4F)c4nc(c(-c5c(F)cccc5F)c5ccc2[nH]5)C=C4)C=C3)cc1)NC(=O)CCn1cccn1
REMARK SMILES IDX 7 1 6 2 4 3 5 4 3 5 2 6 1 7 69 8 70 9 71 11 72 12 73 13
REMARK SMILES IDX 74 14 75 15 78 16 76 17 77 18 8 19 9 20 10 21 11 22 12 23
REMARK SMILES IDX 13 24 14 25 15 26 16 27 68 28 17 29 67 30 18 31 19 32 20 33
REMARK SMILES IDX 61 34 21 35 66 36 60 37 62 38 22 39 65 40 59 41 58 42 23 44
REMARK SMILES IDX 49 45 32 46 48 47 33 48 36 49 47 50 63 51 34 52 35 53 46 55
REMARK SMILES IDX 64 56 37 57 24 58 25 59 30 60 26 61 27 62 29 63 31 64 28 65
REMARK SMILES IDX 50 66 51 67 56 68 52 69 53 70 55 71 57 72 54 73 38 74 39 75
REMARK SMILES IDX 44 76 40 77 41 78 43 79 45 80 42 81
REMARK H PARENT 69 10 62 43 36 54
REMARK Flexibility Score: inf
ROOT
ATOM      1  C   UNL A   1      33.826  34.978  29.260  1.00  0.00     0.261 C 
ENDROOT
BRANCH   1   2
ATOM      2  O   UNL A   1      33.743  33.557  29.449  1.00  0.00    -0.463 OA
BRANCH   2   3
ATOM      3  C   UNL A   1      33.788  32.790  28.341  1.00  0.00     0.307 C 
ATOM      4  O   UNL A   1      32.927  32.766  27.471  1.00  0.00    -0.252 OA
BRANCH   3   5
ATOM      5  C   UNL A   1      35.022  31.922  28.265  1.00  0.00     0.147 C 
BRANCH   5   6
ATOM      6  C   UNL A   1      34.989  30.509  27.662  1.00  0.00     0.090 C 
ATOM      7  C   UNL A   1      36.302  29.758  27.478  1.00  0.00     0.031 C 
BRANCH   6   8
ATOM      8  N   UNL A   1      34.171  30.358  26.461  1.00  0.00    -0.353 N 
ATOM      9  C   UNL A   1      33.583  29.240  25.946  1.00  0.00     0.222 C 
ATOM     10  H   UNL A   1      34.023  31.185  25.947  1.00  0.00     0.163 HD
ATOM     11  O   UNL A   1      33.106  29.302  24.811  1.00  0.00    -0.275 OA
BRANCH   9  12
ATOM     12  C   UNL A   1      33.477  27.965  26.757  1.00  0.00     0.123 C 
BRANCH  12  13
ATOM     13  C   UNL A   1      32.661  26.871  26.068  1.00  0.00     0.154 C 
BRANCH  13  14
ATOM     14  N   UNL A   1      33.462  25.805  25.486  1.00  0.00    -0.272 N 
ATOM     15  C   UNL A   1      33.888  25.707  24.187  1.00  0.00     0.108 A 
ATOM     16  N   UNL A   1      33.748  24.709  26.214  1.00  0.00    -0.182 NA
ATOM     17  C   UNL A   1      34.395  24.435  24.046  1.00  0.00     0.042 A 
ATOM     18  C   UNL A   1      34.313  23.877  25.335  1.00  0.00     0.135 A 
ENDBRANCH  13  14
ENDBRANCH  12  13
ENDBRANCH   9  12
ENDBRANCH   6   8
ENDBRANCH   5   6
ENDBRANCH   3   5
ENDBRANCH   2   3
ENDBRANCH   1   2
BRANCH   1  19
ATOM     19  C   UNL A   1      33.608  35.682  30.599  1.00  0.00     0.202 C 
BRANCH  19  20
ATOM     20  O   UNL A   1      32.929  34.911  31.589  1.00  0.00    -0.374 OA
BRANCH  20  21
ATOM     21  C   UNL A   1      33.621  34.640  32.809  1.00  0.00     0.202 C 
BRANCH  21  22
ATOM     22  C   UNL A   1      34.245  33.244  32.922  1.00  0.00     0.261 C 
BRANCH  22  23
ATOM     23  O   UNL A   1      35.589  33.239  32.388  1.00  0.00    -0.460 OA
BRANCH  23  24
ATOM     24  C   UNL A   1      36.483  32.538  33.125  1.00  0.00     0.338 C 
ATOM     25  O   UNL A   1      36.487  32.402  34.344  1.00  0.00    -0.246 OA
BRANCH  24  26
ATOM     26  C   UNL A   1      37.372  31.739  32.263  1.00  0.00     0.060 A 
ATOM     27  C   UNL A   1      38.348  30.963  32.903  1.00  0.00     0.016 A 
ATOM     28  C   UNL A   1      37.352  31.837  30.871  1.00  0.00     0.016 A 
ATOM     29  C   UNL A   1      39.338  30.325  32.159  1.00  0.00     0.010 A 
ATOM     30  C   UNL A   1      38.356  31.201  30.125  1.00  0.00     0.010 A 
ATOM     31  C   UNL A   1      39.378  30.474  30.767  1.00  0.00    -0.014 A 
BRANCH  31  32
ATOM     32  C   UNL A   1      40.567  29.983  30.020  1.00  0.00     0.031 A 
ATOM     33  C   UNL A   1      41.733  30.909  29.789  1.00  0.00     0.074 A 
ATOM     34  C   UNL A   1      40.647  28.705  29.606  1.00  0.00     0.049 A 
ATOM     35  N   UNL A   1      42.857  30.687  29.154  1.00  0.00    -0.248 NA
ATOM     36  C   UNL A   1      41.619  32.262  30.357  1.00  0.00     0.031 C 
ATOM     37  C   UNL A   1      39.622  27.684  29.816  1.00  0.00     0.029 A 
ATOM     38  N   UNL A   1      41.640  28.050  28.919  1.00  0.00    -0.354 N 
ATOM     39  C   UNL A   1      43.579  31.872  29.238  1.00  0.00     0.074 A 
ATOM     40  C   UNL A   1      42.758  32.817  29.965  1.00  0.00     0.031 C 
ATOM     41  C   UNL A   1      40.036  26.532  29.259  1.00  0.00     0.029 A 
ATOM     42  C   UNL A   1      41.335  26.744  28.621  1.00  0.00     0.049 A 
ATOM     43  H   UNL A   1      42.491  28.476  28.664  1.00  0.00     0.167 HD
ATOM     44  C   UNL A   1      44.817  32.147  28.761  1.00  0.00     0.037 A 
ATOM     45  C   UNL A   1      42.008  25.831  27.893  1.00  0.00     0.037 A 
ATOM     46  C   UNL A   1      45.644  31.210  28.044  1.00  0.00     0.049 A 
ATOM     47  C   UNL A   1      43.340  26.192  27.288  1.00  0.00     0.074 A 
ATOM     48  C   UNL A   1      46.923  31.396  27.546  1.00  0.00     0.029 A 
ATOM     49  N   UNL A   1      45.272  29.918  27.712  1.00  0.00    -0.354 N 
ATOM     50  N   UNL A   1      44.023  27.306  27.394  1.00  0.00    -0.248 NA
ATOM     51  C   UNL A   1      43.995  25.168  26.460  1.00  0.00     0.031 C 
ATOM     52  C   UNL A   1      47.301  30.238  26.861  1.00  0.00     0.029 A 
ATOM     53  C   UNL A   1      46.280  29.308  26.982  1.00  0.00     0.049 A 
ATOM     54  H   UNL A   1      44.417  29.495  27.957  1.00  0.00     0.167 HD
ATOM     55  C   UNL A   1      45.193  27.108  26.669  1.00  0.00     0.074 A 
ATOM     56  C   UNL A   1      45.136  25.762  26.141  1.00  0.00     0.031 C 
ATOM     57  C   UNL A   1      46.222  27.966  26.463  1.00  0.00     0.037 A 
BRANCH  44  58
ATOM     58  C   UNL A   1      45.351  33.535  28.970  1.00  0.00     0.057 A 
ATOM     59  C   UNL A   1      46.130  33.873  30.084  1.00  0.00     0.134 A 
ATOM     60  C   UNL A   1      45.126  34.533  28.012  1.00  0.00     0.134 A 
ATOM     61  F   UNL A   1      46.376  32.966  31.041  1.00  0.00    -0.206 F 
ATOM     62  C   UNL A   1      46.648  35.159  30.248  1.00  0.00     0.040 A 
ATOM     63  C   UNL A   1      45.661  35.814  28.152  1.00  0.00     0.040 A 
ATOM     64  F   UNL A   1      44.396  34.274  26.916  1.00  0.00    -0.206 F 
ATOM     65  C   UNL A   1      46.420  36.131  29.276  1.00  0.00     0.006 A 
ENDBRANCH  44  58
BRANCH  45  66
ATOM     66  C   UNL A   1      41.419  24.488  27.656  1.00  0.00     0.057 A 
ATOM     67  C   UNL A   1      40.403  24.292  26.714  1.00  0.00     0.134 A 
ATOM     68  C   UNL A   1      41.836  23.373  28.395  1.00  0.00     0.134 A 
ATOM     69  F   UNL A   1      39.941  25.325  25.994  1.00  0.00    -0.206 F 
ATOM     70  C   UNL A   1      39.811  23.041  26.526  1.00  0.00     0.040 A 
ATOM     71  C   UNL A   1      41.274  22.112  28.198  1.00  0.00     0.040 A 
ATOM     72  F   UNL A   1      42.804  23.494  29.316  1.00  0.00    -0.206 F 
ATOM     73  C   UNL A   1      40.251  21.946  27.267  1.00  0.00     0.006 A 
ENDBRANCH  45  66
BRANCH  57  74
ATOM     74  C   UNL A   1      47.388  27.474  25.653  1.00  0.00     0.057 A 
ATOM     75  C   UNL A   1      48.483  26.833  26.247  1.00  0.00     0.134 A 
ATOM     76  C   UNL A   1      47.389  27.592  24.257  1.00  0.00     0.134 A 
ATOM     77  F   UNL A   1      48.552  26.698  27.579  1.00  0.00    -0.206 F 
ATOM     78  C   UNL A   1      49.545  26.343  25.482  1.00  0.00     0.040 A 
ATOM     79  C   UNL A   1      48.431  27.082  23.480  1.00  0.00     0.040 A 
ATOM     80  F   UNL A   1      46.367  28.186  23.623  1.00  0.00    -0.206 F 
ATOM     81  C   UNL A   1      49.516  26.459  24.093  1.00  0.00     0.006 A 
ENDBRANCH  57  74
ENDBRANCH  31  32
ENDBRANCH  24  26
ENDBRANCH  23  24
ENDBRANCH  22  23
ENDBRANCH  21  22
ENDBRANCH  20  21
ENDBRANCH  19  20
ENDBRANCH   1  19
TORSDOF 19
ENDMDL
MODEL 2
REMARK VINA RESULT:      -9.0      3.955      6.751
REMARK SMILES C[C@@H](CC(=O)OCCOCCOC(=O)c1ccc(-c2c3nc(c(-c4c(F)cccc4F)c4ccc([nH]4)c(-c4c(F)cccc4F)c4nc(c(-c5c(F)cccc5F)c5ccc2[nH]5)C=C4)C=C3)cc1)NC(=O)CCn1cccn1
REMARK SMILES IDX 7 1 6 2 4 3 5 4 3 5 2 6 1 7 69 8 70 9 71 11 72 12 73 13
REMARK SMILES IDX 74 14 75 15 78 16 76 17 77 18 8 19 9 20 10 21 11 22 12 23
REMARK SMILES IDX 13 24 14 25 15 26 16 27 68 28 17 29 67 30 18 31 19 32 20 33
REMARK SMILES IDX 61 34 21 35 66 36 60 37 62 38 22 39 65 40 59 41 58 42 23 44
REMARK SMILES IDX 49 45 32 46 48 47 33 48 36 49 47 50 63 51 34 52 35 53 46 55
REMARK SMILES IDX 64 56 37 57 24 58 25 59 30 60 26 61 27 62 29 63 31 64 28 65
REMARK SMILES IDX 50 66 51 67 56 68 52 69 53 70 55 71 57 72 54 73 38 74 39 75
REMARK SMILES IDX 44 76 40 77 41 78 43 79 45 80 42 81
REMARK H PARENT 69 10 62 43 36 54
REMARK Flexibility Score: inf
ROOT
ATOM      1  C   UNL A   1      31.898  36.022  31.924  1.00  0.00     0.261 C 
ENDROOT
BRANCH   1   2
ATOM      2  O   UNL A   1      32.347  37.091  32.772  1.00  0.00    -0.463 OA
BRANCH   2   3
ATOM      3  C   UNL A   1      33.658  37.112  33.087  1.00  0.00     0.307 C 
ATOM      4  O   UNL A   1      34.475  37.903  32.631  1.00  0.00    -0.252 OA
BRANCH   3   5
ATOM      5  C   UNL A   1      34.053  36.037  34.071  1.00  0.00     0.147 C 
BRANCH   5   6
ATOM      6  C   UNL A   1      34.840  34.789  33.640  1.00  0.00     0.090 C 
ATOM      7  C   UNL A   1      34.068  33.538  33.234  1.00  0.00     0.031 C 
BRANCH   6   8
ATOM      8  N   UNL A   1      35.948  34.412  34.515  1.00  0.00    -0.353 N 
ATOM      9  C   UNL A   1      37.244  34.125  34.200  1.00  0.00     0.222 C 
ATOM     10  H   UNL A   1      35.726  34.356  35.473  1.00  0.00     0.163 HD
ATOM     11  O   UNL A   1      37.960  33.632  35.073  1.00  0.00    -0.275 OA
BRANCH   9  12
ATOM     12  C   UNL A   1      37.805  34.438  32.828  1.00  0.00     0.123 C 
BRANCH  12  13
ATOM     13  C   UNL A   1      39.332  34.515  32.799  1.00  0.00     0.154 C 
BRANCH  13  14
ATOM     14  N   UNL A   1      39.909  34.434  31.466  1.00  0.00    -0.272 N 
ATOM     15  C   UNL A   1      41.209  34.137  31.147  1.00  0.00     0.108 A 
ATOM     16  N   UNL A   1      39.176  34.791  30.395  1.00  0.00    -0.182 NA
ATOM     17  C   UNL A   1      41.343  34.411  29.804  1.00  0.00     0.042 A 
ATOM     18  C   UNL A   1      40.051  34.779  29.386  1.00  0.00     0.135 A 
ENDBRANCH  13  14
ENDBRANCH  12  13
ENDBRANCH   9  12
ENDBRANCH   6   8
ENDBRANCH   5   6
ENDBRANCH   3   5
ENDBRANCH   2   3
ENDBRANCH   1   2
BRANCH   1  19
ATOM     19  C   UNL A   1      32.654  36.078  30.596  1.00  0.00     0.202 C 
BRANCH  19  20
ATOM     20  O   UNL A   1      33.056  34.814  30.070  1.00  0.00    -0.374 OA
BRANCH  20  21
ATOM     21  C   UNL A   1      33.301  34.726  28.665  1.00  0.00     0.202 C 
BRANCH  21  22
ATOM     22  C   UNL A   1      34.452  33.802  28.249  1.00  0.00     0.261 C 
BRANCH  22  23
ATOM     23  O   UNL A   1      34.461  32.600  29.054  1.00  0.00    -0.460 OA
BRANCH  23  24
ATOM     24  C   UNL A   1      34.406  31.449  28.345  1.00  0.00     0.338 C 
ATOM     25  O   UNL A   1      33.547  31.125  27.531  1.00  0.00    -0.246 OA
BRANCH  24  26
ATOM     26  C   UNL A   1      35.652  30.675  28.492  1.00  0.00     0.060 A 
ATOM     27  C   UNL A   1      35.687  29.717  29.514  1.00  0.00     0.016 A 
ATOM     28  C   UNL A   1      36.801  30.957  27.751  1.00  0.00     0.016 A 
ATOM     29  C   UNL A   1      36.881  29.074  29.835  1.00  0.00     0.010 A 
ATOM     30  C   UNL A   1      38.004  30.315  28.083  1.00  0.00     0.010 A 
ATOM     31  C   UNL A   1      38.060  29.400  29.153  1.00  0.00    -0.014 A 
BRANCH  31  32
ATOM     32  C   UNL A   1      39.358  28.880  29.662  1.00  0.00     0.031 A 
ATOM     33  C   UNL A   1      39.977  29.502  30.887  1.00  0.00     0.074 A 
ATOM     34  C   UNL A   1      39.955  27.820  29.086  1.00  0.00     0.049 A 
ATOM     35  N   UNL A   1      41.104  29.212  31.486  1.00  0.00    -0.248 NA
ATOM     36  C   UNL A   1      39.220  30.591  31.524  1.00  0.00     0.031 C 
ATOM     37  C   UNL A   1      39.437  27.082  27.936  1.00  0.00     0.029 A 
ATOM     38  N   UNL A   1      41.132  27.182  29.394  1.00  0.00    -0.354 N 
ATOM     39  C   UNL A   1      41.196  30.085  32.564  1.00  0.00     0.074 A 
ATOM     40  C   UNL A   1      40.023  30.931  32.522  1.00  0.00     0.031 C 
ATOM     41  C   UNL A   1      40.299  26.097  27.628  1.00  0.00     0.029 A 
ATOM     42  C   UNL A   1      41.446  26.159  28.534  1.00  0.00     0.049 A 
ATOM     43  H   UNL A   1      41.697  27.435  30.160  1.00  0.00     0.167 HD
ATOM     44  C   UNL A   1      42.165  30.170  33.508  1.00  0.00     0.037 A 
ATOM     45  C   UNL A   1      42.543  25.379  28.463  1.00  0.00     0.037 A 
ATOM     46  C   UNL A   1      43.332  29.326  33.561  1.00  0.00     0.049 A 
ATOM     47  C   UNL A   1      43.653  25.559  29.466  1.00  0.00     0.074 A 
ATOM     48  C   UNL A   1      44.352  29.325  34.497  1.00  0.00     0.029 A 
ATOM     49  N   UNL A   1      43.640  28.342  32.635  1.00  0.00    -0.354 N 
ATOM     50  N   UNL A   1      43.718  26.371  30.492  1.00  0.00    -0.248 NA
ATOM     51  C   UNL A   1      44.846  24.713  29.297  1.00  0.00     0.031 C 
ATOM     52  C   UNL A   1      45.307  28.383  34.105  1.00  0.00     0.029 A 
ATOM     53  C   UNL A   1      44.854  27.755  32.955  1.00  0.00     0.049 A 
ATOM     54  H   UNL A   1      43.081  28.097  31.863  1.00  0.00     0.167 HD
ATOM     55  C   UNL A   1      44.942  26.118  31.104  1.00  0.00     0.074 A 
ATOM     56  C   UNL A   1      45.580  25.066  30.342  1.00  0.00     0.031 C 
ATOM     57  C   UNL A   1      45.484  26.705  32.198  1.00  0.00     0.037 A 
BRANCH  44  58
ATOM     58  C   UNL A   1      42.026  31.237  34.554  1.00  0.00     0.057 A 
ATOM     59  C   UNL A   1      42.572  32.516  34.390  1.00  0.00     0.134 A 
ATOM     60  C   UNL A   1      41.286  30.995  35.720  1.00  0.00     0.134 A 
ATOM     61  F   UNL A   1      43.297  32.811  33.301  1.00  0.00    -0.206 F 
ATOM     62  C   UNL A   1      42.405  33.510  35.357  1.00  0.00     0.040 A 
ATOM     63  C   UNL A   1      41.091  31.987  36.680  1.00  0.00     0.040 A 
ATOM     64  F   UNL A   1      40.728  29.794  35.935  1.00  0.00    -0.206 F 
ATOM     65  C   UNL A   1      41.655  33.248  36.503  1.00  0.00     0.006 A 
ENDBRANCH  44  58
BRANCH  45  66
ATOM     66  C   UNL A   1      42.672  24.375  27.376  1.00  0.00     0.057 A 
ATOM     67  C   UNL A   1      42.304  23.039  27.570  1.00  0.00     0.134 A 
ATOM     68  C   UNL A   1      43.201  24.723  26.126  1.00  0.00     0.134 A 
ATOM     69  F   UNL A   1      41.817  22.637  28.753  1.00  0.00    -0.206 F 
ATOM     70  C   UNL A   1      42.472  22.081  26.566  1.00  0.00     0.040 A 
ATOM     71  C   UNL A   1      43.349  23.783  25.106  1.00  0.00     0.040 A 
ATOM     72  F   UNL A   1      43.576  25.986  25.877  1.00  0.00    -0.206 F 
ATOM     73  C   UNL A   1      42.991  22.455  25.329  1.00  0.00     0.006 A 
ENDBRANCH  45  66
BRANCH  57  74
ATOM     74  C   UNL A   1      46.824  26.210  32.663  1.00  0.00     0.057 A 
ATOM     75  C   UNL A   1      48.020  26.810  32.248  1.00  0.00     0.134 A 
ATOM     76  C   UNL A   1      46.917  25.155  33.582  1.00  0.00     0.134 A 
ATOM     77  F   UNL A   1      48.004  27.816  31.360  1.00  0.00    -0.206 F 
ATOM     78  C   UNL A   1      49.260  26.368  32.716  1.00  0.00     0.040 A 
ATOM     79  C   UNL A   1      48.149  24.723  34.078  1.00  0.00     0.040 A 
ATOM     80  F   UNL A   1      45.811  24.542  34.028  1.00  0.00    -0.206 F 
ATOM     81  C   UNL A   1      49.325  25.328  33.642  1.00  0.00     0.006 A 
ENDBRANCH  57  74
ENDBRANCH  31  32
ENDBRANCH  24  26
ENDBRANCH  23  24
ENDBRANCH  22  23
ENDBRANCH  21  22
ENDBRANCH  20  21
ENDBRANCH  19  20
ENDBRANCH   1  19
TORSDOF 19
ENDMDL
MODEL 3
REMARK VINA RESULT:      -8.9      4.208      7.435
REMARK SMILES C[C@@H](CC(=O)OCCOCCOC(=O)c1ccc(-c2c3nc(c(-c4c(F)cccc4F)c4ccc([nH]4)c(-c4c(F)cccc4F)c4nc(c(-c5c(F)cccc5F)c5ccc2[nH]5)C=C4)C=C3)cc1)NC(=O)CCn1cccn1
REMARK SMILES IDX 7 1 6 2 4 3 5 4 3 5 2 6 1 7 69 8 70 9 71 11 72 12 73 13
REMARK SMILES IDX 74 14 75 15 78 16 76 17 77 18 8 19 9 20 10 21 11 22 12 23
REMARK SMILES IDX 13 24 14 25 15 26 16 27 68 28 17 29 67 30 18 31 19 32 20 33
REMARK SMILES IDX 61 34 21 35 66 36 60 37 62 38 22 39 65 40 59 41 58 42 23 44
REMARK SMILES IDX 49 45 32 46 48 47 33 48 36 49 47 50 63 51 34 52 35 53 46 55
REMARK SMILES IDX 64 56 37 57 24 58 25 59 30 60 26 61 27 62 29 63 31 64 28 65
REMARK SMILES IDX 50 66 51 67 56 68 52 69 53 70 55 71 57 72 54 73 38 74 39 75
REMARK SMILES IDX 44 76 40 77 41 78 43 79 45 80 42 81
REMARK H PARENT 69 10 62 43 36 54
REMARK Flexibility Score: inf
ROOT
ATOM      1  C   UNL A   1      33.413  26.792  25.264  1.00  0.00     0.261 C 
ENDROOT
BRANCH   1   2
ATOM      2  O   UNL A   1      33.044  26.699  23.879  1.00  0.00    -0.463 OA
BRANCH   2   3
ATOM      3  C   UNL A   1      33.574  25.680  23.173  1.00  0.00     0.307 C 
ATOM      4  O   UNL A   1      33.657  25.644  21.951  1.00  0.00    -0.252 OA
BRANCH   3   5
ATOM      5  C   UNL A   1      34.063  24.543  24.038  1.00  0.00     0.147 C 
BRANCH   5   6
ATOM      6  C   UNL A   1      33.156  23.364  24.424  1.00  0.00     0.090 C 
ATOM      7  C   UNL A   1      31.650  23.502  24.226  1.00  0.00     0.031 C 
BRANCH   6   8
ATOM      8  N   UNL A   1      33.421  22.768  25.730  1.00  0.00    -0.353 N 
ATOM      9  C   UNL A   1      33.755  21.484  26.047  1.00  0.00     0.222 C 
ATOM     10  H   UNL A   1      33.348  23.384  26.495  1.00  0.00     0.163 HD
ATOM     11  O   UNL A   1      33.734  21.152  27.234  1.00  0.00    -0.275 OA
BRANCH   9  12
ATOM     12  C   UNL A   1      34.180  20.498  24.978  1.00  0.00     0.123 C 
BRANCH  12  13
ATOM     13  C   UNL A   1      33.046  19.589  24.503  1.00  0.00     0.154 C 
BRANCH  13  14
ATOM     14  N   UNL A   1      33.324  18.168  24.634  1.00  0.00    -0.272 N 
ATOM     15  C   UNL A   1      32.530  17.223  25.232  1.00  0.00     0.108 A 
ATOM     16  N   UNL A   1      34.522  17.681  24.258  1.00  0.00    -0.182 NA
ATOM     17  C   UNL A   1      33.299  16.085  25.330  1.00  0.00     0.042 A 
ATOM     18  C   UNL A   1      34.505  16.416  24.685  1.00  0.00     0.135 A 
ENDBRANCH  13  14
ENDBRANCH  12  13
ENDBRANCH   9  12
ENDBRANCH   6   8
ENDBRANCH   5   6
ENDBRANCH   3   5
ENDBRANCH   2   3
ENDBRANCH   1   2
BRANCH   1  19
ATOM     19  C   UNL A   1      33.685  28.254  25.620  1.00  0.00     0.202 C 
BRANCH  19  20
ATOM     20  O   UNL A   1      32.956  29.213  24.855  1.00  0.00    -0.374 OA
BRANCH  20  21
ATOM     21  C   UNL A   1      31.709  29.671  25.381  1.00  0.00     0.202 C 
BRANCH  21  22
ATOM     22  C   UNL A   1      31.754  31.016  26.116  1.00  0.00     0.261 C 
BRANCH  22  23
ATOM     23  O   UNL A   1      32.560  30.919  27.313  1.00  0.00    -0.460 OA
BRANCH  23  24
ATOM     24  C   UNL A   1      33.397  31.964  27.512  1.00  0.00     0.338 C 
ATOM     25  O   UNL A   1      33.094  33.151  27.566  1.00  0.00    -0.246 OA
BRANCH  24  26
ATOM     26  C   UNL A   1      34.745  31.500  27.889  1.00  0.00     0.060 A 
ATOM     27  C   UNL A   1      34.881  30.143  28.211  1.00  0.00     0.016 A 
ATOM     28  C   UNL A   1      35.819  32.376  28.057  1.00  0.00     0.016 A 
ATOM     29  C   UNL A   1      36.074  29.665  28.750  1.00  0.00     0.010 A 
ATOM     30  C   UNL A   1      37.016  31.893  28.609  1.00  0.00     0.010 A 
ATOM     31  C   UNL A   1      37.137  30.543  28.995  1.00  0.00    -0.014 A 
BRANCH  31  32
ATOM     32  C   UNL A   1      38.306  30.064  29.781  1.00  0.00     0.031 A 
ATOM     33  C   UNL A   1      38.496  30.544  31.197  1.00  0.00     0.074 A 
ATOM     34  C   UNL A   1      39.159  29.157  29.272  1.00  0.00     0.049 A 
ATOM     35  N   UNL A   1      39.450  30.262  32.048  1.00  0.00    -0.248 NA
ATOM     36  C   UNL A   1      37.470  31.458  31.723  1.00  0.00     0.031 C 
ATOM     37  C   UNL A   1      39.060  28.559  27.941  1.00  0.00     0.029 A 
ATOM     38  N   UNL A   1      40.280  28.581  29.817  1.00  0.00    -0.354 N 
ATOM     39  C   UNL A   1      39.145  30.968  33.207  1.00  0.00     0.074 A 
ATOM     40  C   UNL A   1      37.930  31.709  32.941  1.00  0.00     0.031 C 
ATOM     41  C   UNL A   1      40.086  27.707  27.770  1.00  0.00     0.029 A 
ATOM     42  C   UNL A   1      40.935  27.728  28.961  1.00  0.00     0.049 A 
ATOM     43  H   UNL A   1      40.587  28.761  30.736  1.00  0.00     0.167 HD
ATOM     44  C   UNL A   1      39.810  30.991  34.387  1.00  0.00     0.037 A 
ATOM     45  C   UNL A   1      42.098  27.063  29.107  1.00  0.00     0.037 A 
ATOM     46  C   UNL A   1      41.014  30.249  34.662  1.00  0.00     0.049 A 
ATOM     47  C   UNL A   1      42.871  27.182  30.395  1.00  0.00     0.074 A 
ATOM     48  C   UNL A   1      41.741  30.192  35.840  1.00  0.00     0.029 A 
ATOM     49  N   UNL A   1      41.675  29.446  33.748  1.00  0.00    -0.354 N 
ATOM     50  N   UNL A   1      42.561  27.833  31.489  1.00  0.00    -0.248 NA
ATOM     51  C   UNL A   1      44.159  26.474  30.466  1.00  0.00     0.031 C 
ATOM     52  C   UNL A   1      42.873  29.404  35.619  1.00  0.00     0.029 A 
ATOM     53  C   UNL A   1      42.822  28.920  34.322  1.00  0.00     0.049 A 
ATOM     54  H   UNL A   1      41.376  29.273  32.825  1.00  0.00     0.167 HD
ATOM     55  C   UNL A   1      43.599  27.594  32.384  1.00  0.00     0.074 A 
ATOM     56  C   UNL A   1      44.540  26.726  31.710  1.00  0.00     0.031 C 
ATOM     57  C   UNL A   1      43.754  28.053  33.649  1.00  0.00     0.037 A 
BRANCH  44  58
ATOM     58  C   UNL A   1      39.268  31.873  35.474  1.00  0.00     0.057 A 
ATOM     59  C   UNL A   1      39.604  33.229  35.569  1.00  0.00     0.134 A 
ATOM     60  C   UNL A   1      38.353  31.367  36.408  1.00  0.00     0.134 A 
ATOM     61  F   UNL A   1      40.480  33.773  34.712  1.00  0.00    -0.206 F 
ATOM     62  C   UNL A   1      39.065  34.046  36.565  1.00  0.00     0.040 A 
ATOM     63  C   UNL A   1      37.788  32.179  37.391  1.00  0.00     0.040 A 
ATOM     64  F   UNL A   1      37.981  30.078  36.368  1.00  0.00    -0.206 F 
ATOM     65  C   UNL A   1      38.148  33.522  37.475  1.00  0.00     0.006 A 
ENDBRANCH  44  58
BRANCH  45  66
ATOM     66  C   UNL A   1      42.633  26.248  27.986  1.00  0.00     0.057 A 
ATOM     67  C   UNL A   1      42.336  24.885  27.868  1.00  0.00     0.134 A 
ATOM     68  C   UNL A   1      43.484  26.808  27.024  1.00  0.00     0.134 A 
ATOM     69  F   UNL A   1      41.550  24.285  28.773  1.00  0.00    -0.206 F 
ATOM     70  C   UNL A   1      42.880  24.105  26.845  1.00  0.00     0.040 A 
ATOM     71  C   UNL A   1      44.011  26.047  25.981  1.00  0.00     0.040 A 
ATOM     72  F   UNL A   1      43.810  28.108  27.083  1.00  0.00    -0.206 F 
ATOM     73  C   UNL A   1      43.716  24.689  25.895  1.00  0.00     0.006 A 
ENDBRANCH  45  66
BRANCH  57  74
ATOM     74  C   UNL A   1      44.973  27.607  34.408  1.00  0.00     0.057 A 
ATOM     75  C   UNL A   1      44.990  26.421  35.152  1.00  0.00     0.134 A 
ATOM     76  C   UNL A   1      46.163  28.346  34.344  1.00  0.00     0.134 A 
ATOM     77  F   UNL A   1      43.882  25.673  35.264  1.00  0.00    -0.206 F 
ATOM     78  C   UNL A   1      46.139  25.995  35.821  1.00  0.00     0.040 A 
ATOM     79  C   UNL A   1      47.326  27.916  34.986  1.00  0.00     0.040 A 
ATOM     80  F   UNL A   1      46.220  29.486  33.641  1.00  0.00    -0.206 F 
ATOM     81  C   UNL A   1      47.315  26.739  35.731  1.00  0.00     0.006 A 
ENDBRANCH  57  74
ENDBRANCH  31  32
ENDBRANCH  24  26
ENDBRANCH  23  24
ENDBRANCH  22  23
ENDBRANCH  21  22
ENDBRANCH  20  21
ENDBRANCH  19  20
ENDBRANCH   1  19
TORSDOF 19
ENDMDL
