MODEL 1
REMARK VINA RESULT:     -11.6      0.000      0.000
REMARK SMILES CNC(=O)c1ccc(Cl)cc1NC(=O)[C@H]1[C@@H](C(=O)OCCOCCOC(=O)c2ccc(-c3c4nc(c(-c5c(F)cccc5F)c5ccc([nH]5)c(-c5c(F)cccc5F)c5nc(c(-c6c(F)cccc6F)c6ccc3[nH]6)C=C5)C=C4)cc2)[C@H]2C=C[C@@H]1C2
REMARK SMILES IDX 21 1 20 2 19 3 17 4 18 5 16 6 15 7 85 8 82 9 84 10 86 11
REMARK SMILES IDX 83 12 13 13 12 14 14 16 11 17 5 18 6 19 7 20 10 21 8 22 9 23
REMARK SMILES IDX 3 24 1 25 2 26 4 28 22 29 23 30 24 31 25 32 26 33 27 34
REMARK SMILES IDX 28 35 29 36 81 37 30 38 80 39 31 40 32 41 33 42 74 43 34 44
REMARK SMILES IDX 79 45 73 46 75 47 35 48 78 49 72 50 71 51 36 53 62 54 45 55
REMARK SMILES IDX 61 56 46 57 49 58 60 59 76 60 47 61 48 62 59 64 77 65 50 66
REMARK SMILES IDX 37 67 38 68 43 69 39 70 40 71 42 72 44 73 41 74 63 75 64 76
REMARK SMILES IDX 69 77 65 78 66 79 68 80 70 81 67 82 51 83 52 84 57 85 53 86
REMARK SMILES IDX 54 87 56 88 58 89 55 90
REMARK H PARENT 12 15 2 27 75 52 49 63
REMARK Flexibility Score: inf
ROOT
ATOM      1  C   UNL A   1      33.158  30.166  27.248  1.00  0.00     0.202 C 
ENDROOT
BRANCH   1   2
ATOM      2  C   UNL A   1      34.176  29.325  26.467  1.00  0.00     0.261 C 
BRANCH   2   3
ATOM      3  O   UNL A   1      33.894  27.914  26.579  1.00  0.00    -0.463 OA
BRANCH   3   4
ATOM      4  C   UNL A   1      33.533  27.291  25.439  1.00  0.00     0.310 C 
ATOM      5  O   UNL A   1      34.024  27.534  24.340  1.00  0.00    -0.252 OA
BRANCH   4   6
ATOM      6  C   UNL A   1      32.450  26.233  25.601  1.00  0.00     0.119 C 
ATOM      7  C   UNL A   1      31.922  25.291  24.463  1.00  0.00     0.100 C 
ATOM      8  C   UNL A   1      30.426  25.708  24.353  1.00  0.00     0.025 C 
ATOM      9  C   UNL A   1      31.143  26.928  26.084  1.00  0.00     0.027 C 
ATOM     10  C   UNL A   1      30.279  27.162  23.974  1.00  0.00    -0.027 C 
ATOM     11  C   UNL A   1      30.096  25.835  25.849  1.00  0.00     0.017 C 
ATOM     12  C   UNL A   1      30.692  27.895  25.015  1.00  0.00    -0.027 C 
BRANCH   7  13
ATOM     13  C   UNL A   1      32.639  25.132  23.132  1.00  0.00     0.228 C 
ATOM     14  N   UNL A   1      33.803  24.410  23.036  1.00  0.00    -0.325 N 
ATOM     15  H   UNL A   1      34.222  24.424  22.145  1.00  0.00     0.169 HD
ATOM     16  O   UNL A   1      32.174  25.620  22.098  1.00  0.00    -0.274 OA
BRANCH  14  17
ATOM     17  C   UNL A   1      34.498  23.649  24.003  1.00  0.00     0.055 A 
ATOM     18  C   UNL A   1      34.104  22.332  24.283  1.00  0.00     0.063 A 
ATOM     19  C   UNL A   1      34.917  21.468  25.028  1.00  0.00     0.017 A 
ATOM     20  C   UNL A   1      36.084  21.953  25.604  1.00  0.00     0.021 A 
ATOM     21  C   UNL A   1      35.592  24.148  24.705  1.00  0.00     0.047 A 
ATOM     22  C   UNL A   1      36.390  23.303  25.481  1.00  0.00     0.043 A 
ATOM     23  Cl  UNL A   1      37.777  23.943  26.271  1.00  0.00    -0.084 Cl
BRANCH  18  24
ATOM     24  C   UNL A   1      32.824  21.804  23.804  1.00  0.00     0.253 C 
ATOM     25  C   UNL A   1      31.729  22.116  26.071  1.00  0.00     0.143 C 
ATOM     26  N   UNL A   1      31.787  21.715  24.684  1.00  0.00    -0.355 N 
ATOM     27  H   UNL A   1      30.960  21.323  24.322  1.00  0.00     0.163 HD
ATOM     28  O   UNL A   1      32.681  21.485  22.632  1.00  0.00    -0.269 OA
ENDBRANCH  18  24
ENDBRANCH  14  17
ENDBRANCH   7  13
ENDBRANCH   4   6
ENDBRANCH   3   4
ENDBRANCH   2   3
ENDBRANCH   1   2
BRANCH   1  29
ATOM     29  O   UNL A   1      32.111  30.703  26.435  1.00  0.00    -0.374 OA
BRANCH  29  30
ATOM     30  C   UNL A   1      31.606  31.968  26.871  1.00  0.00     0.202 C 
BRANCH  30  31
ATOM     31  C   UNL A   1      32.666  33.051  27.093  1.00  0.00     0.261 C 
BRANCH  31  32
ATOM     32  O   UNL A   1      32.230  34.090  27.998  1.00  0.00    -0.460 OA
BRANCH  32  33
ATOM     33  C   UNL A   1      33.226  34.756  28.631  1.00  0.00     0.338 C 
ATOM     34  O   UNL A   1      33.201  35.914  29.011  1.00  0.00    -0.246 OA
BRANCH  33  35
ATOM     35  C   UNL A   1      34.408  33.891  28.879  1.00  0.00     0.060 A 
ATOM     36  C   UNL A   1      34.219  32.779  29.711  1.00  0.00     0.016 A 
ATOM     37  C   UNL A   1      35.690  34.193  28.409  1.00  0.00     0.016 A 
ATOM     38  C   UNL A   1      35.302  31.989  30.107  1.00  0.00     0.010 A 
ATOM     39  C   UNL A   1      36.780  33.399  28.809  1.00  0.00     0.010 A 
ATOM     40  C   UNL A   1      36.596  32.306  29.682  1.00  0.00    -0.014 A 
BRANCH  40  41
ATOM     41  C   UNL A   1      37.760  31.583  30.265  1.00  0.00     0.031 A 
ATOM     42  C   UNL A   1      38.224  31.957  31.645  1.00  0.00     0.074 A 
ATOM     43  C   UNL A   1      38.383  30.578  29.619  1.00  0.00     0.049 A 
ATOM     44  N   UNL A   1      39.136  31.382  32.388  1.00  0.00    -0.248 NA
ATOM     45  C   UNL A   1      37.545  33.091  32.292  1.00  0.00     0.031 C 
ATOM     46  C   UNL A   1      37.993  30.010  28.333  1.00  0.00     0.029 A 
ATOM     47  N   UNL A   1      39.512  29.871  29.956  1.00  0.00    -0.354 N 
ATOM     48  C   UNL A   1      39.077  32.024  33.616  1.00  0.00     0.074 A 
ATOM     49  C   UNL A   1      38.118  33.101  33.487  1.00  0.00     0.031 C 
ATOM     50  C   UNL A   1      38.938  29.146  27.924  1.00  0.00     0.029 A 
ATOM     51  C   UNL A   1      39.962  29.041  28.957  1.00  0.00     0.049 A 
ATOM     52  H   UNL A   1      39.958  29.951  30.830  1.00  0.00     0.167 HD
ATOM     53  C   UNL A   1      39.717  31.708  34.765  1.00  0.00     0.037 A 
ATOM     54  C   UNL A   1      41.061  28.267  28.886  1.00  0.00     0.037 A 
ATOM     55  C   UNL A   1      40.697  30.664  34.892  1.00  0.00     0.049 A 
ATOM     56  C   UNL A   1      41.910  28.083  30.112  1.00  0.00     0.074 A 
ATOM     57  C   UNL A   1      41.364  30.237  36.026  1.00  0.00     0.029 A 
ATOM     58  N   UNL A   1      41.178  29.905  33.837  1.00  0.00    -0.354 N 
ATOM     59  N   UNL A   1      41.753  28.600  31.305  1.00  0.00    -0.248 NA
ATOM     60  C   UNL A   1      43.045  27.155  30.004  1.00  0.00     0.031 C 
ATOM     61  C   UNL A   1      42.293  29.261  35.647  1.00  0.00     0.029 A 
ATOM     62  C   UNL A   1      42.170  29.048  34.283  1.00  0.00     0.049 A 
ATOM     63  H   UNL A   1      40.860  29.965  32.907  1.00  0.00     0.167 HD
ATOM     64  C   UNL A   1      42.710  27.995  32.110  1.00  0.00     0.074 A 
ATOM     65  C   UNL A   1      43.466  27.099  31.260  1.00  0.00     0.031 C 
ATOM     66  C   UNL A   1      42.912  28.145  33.442  1.00  0.00     0.037 A 
BRANCH  53  67
ATOM     67  C   UNL A   1      39.352  32.498  35.984  1.00  0.00     0.057 A 
ATOM     68  C   UNL A   1      39.933  33.749  36.240  1.00  0.00     0.134 A 
ATOM     69  C   UNL A   1      38.404  32.023  36.895  1.00  0.00     0.134 A 
ATOM     70  F   UNL A   1      40.856  34.253  35.407  1.00  0.00    -0.206 F 
ATOM     71  C   UNL A   1      39.597  34.489  37.374  1.00  0.00     0.040 A 
ATOM     72  C   UNL A   1      38.047  32.763  38.022  1.00  0.00     0.040 A 
ATOM     73  F   UNL A   1      37.813  30.834  36.704  1.00  0.00    -0.206 F 
ATOM     74  C   UNL A   1      38.647  33.996  38.267  1.00  0.00     0.006 A 
ENDBRANCH  53  67
BRANCH  54  75
ATOM     75  C   UNL A   1      41.399  27.560  27.627  1.00  0.00     0.057 A 
ATOM     76  C   UNL A   1      42.142  28.179  26.616  1.00  0.00     0.134 A 
ATOM     77  C   UNL A   1      40.938  26.259  27.387  1.00  0.00     0.134 A 
ATOM     78  F   UNL A   1      42.594  29.430  26.783  1.00  0.00    -0.206 F 
ATOM     79  C   UNL A   1      42.394  27.541  25.401  1.00  0.00     0.040 A 
ATOM     80  C   UNL A   1      41.194  25.604  26.182  1.00  0.00     0.040 A 
ATOM     81  F   UNL A   1      40.225  25.612  28.320  1.00  0.00    -0.206 F 
ATOM     82  C   UNL A   1      41.918  26.250  25.181  1.00  0.00     0.006 A 
ENDBRANCH  54  75
BRANCH  66  83
ATOM     83  C   UNL A   1      43.951  27.275  34.084  1.00  0.00     0.057 A 
ATOM     84  C   UNL A   1      43.638  26.033  34.649  1.00  0.00     0.134 A 
ATOM     85  C   UNL A   1      45.294  27.675  34.106  1.00  0.00     0.134 A 
ATOM     86  F   UNL A   1      42.369  25.599  34.677  1.00  0.00    -0.206 F 
ATOM     87  C   UNL A   1      44.620  25.228  35.229  1.00  0.00     0.040 A 
ATOM     88  C   UNL A   1      46.288  26.868  34.658  1.00  0.00     0.040 A 
ATOM     89  F   UNL A   1      45.663  28.853  33.578  1.00  0.00    -0.206 F 
ATOM     90  C   UNL A   1      45.951  25.642  35.227  1.00  0.00     0.006 A 
ENDBRANCH  66  83
ENDBRANCH  40  41
ENDBRANCH  33  35
ENDBRANCH  32  33
ENDBRANCH  31  32
ENDBRANCH  30  31
ENDBRANCH  29  30
ENDBRANCH   1  29
TORSDOF 17
ENDMDL
MODEL 2
REMARK VINA RESULT:     -11.2      0.504      6.101
REMARK SMILES CNC(=O)c1ccc(Cl)cc1NC(=O)[C@H]1[C@@H](C(=O)OCCOCCOC(=O)c2ccc(-c3c4nc(c(-c5c(F)cccc5F)c5ccc([nH]5)c(-c5c(F)cccc5F)c5nc(c(-c6c(F)cccc6F)c6ccc3[nH]6)C=C5)C=C4)cc2)[C@H]2C=C[C@@H]1C2
REMARK SMILES IDX 21 1 20 2 19 3 17 4 18 5 16 6 15 7 85 8 82 9 84 10 86 11
REMARK SMILES IDX 83 12 13 13 12 14 14 16 11 17 5 18 6 19 7 20 10 21 8 22 9 23
REMARK SMILES IDX 3 24 1 25 2 26 4 28 22 29 23 30 24 31 25 32 26 33 27 34
REMARK SMILES IDX 28 35 29 36 81 37 30 38 80 39 31 40 32 41 33 42 74 43 34 44
REMARK SMILES IDX 79 45 73 46 75 47 35 48 78 49 72 50 71 51 36 53 62 54 45 55
REMARK SMILES IDX 61 56 46 57 49 58 60 59 76 60 47 61 48 62 59 64 77 65 50 66
REMARK SMILES IDX 37 67 38 68 43 69 39 70 40 71 42 72 44 73 41 74 63 75 64 76
REMARK SMILES IDX 69 77 65 78 66 79 68 80 70 81 67 82 51 83 52 84 57 85 53 86
REMARK SMILES IDX 54 87 56 88 58 89 55 90
REMARK H PARENT 12 15 2 27 75 52 49 63
REMARK Flexibility Score: inf
ROOT
ATOM      1  C   UNL A   1      33.195  30.006  27.284  1.00  0.00     0.202 C 
ENDROOT
BRANCH   1   2
ATOM      2  C   UNL A   1      34.454  29.339  26.714  1.00  0.00     0.261 C 
BRANCH   2   3
ATOM      3  O   UNL A   1      34.252  27.927  26.498  1.00  0.00    -0.463 OA
BRANCH   3   4
ATOM      4  C   UNL A   1      33.584  27.590  25.376  1.00  0.00     0.310 C 
ATOM      5  O   UNL A   1      33.775  28.113  24.281  1.00  0.00    -0.252 OA
BRANCH   4   6
ATOM      6  C   UNL A   1      32.550  26.488  25.551  1.00  0.00     0.119 C 
ATOM      7  C   UNL A   1      32.045  25.525  24.419  1.00  0.00     0.100 C 
ATOM      8  C   UNL A   1      30.531  25.879  24.332  1.00  0.00     0.025 C 
ATOM      9  C   UNL A   1      31.221  27.127  26.054  1.00  0.00     0.027 C 
ATOM     10  C   UNL A   1      30.318  27.326  23.956  1.00  0.00    -0.027 C 
ATOM     11  C   UNL A   1      30.217  25.991  25.832  1.00  0.00     0.017 C 
ATOM     12  C   UNL A   1      30.714  28.074  24.993  1.00  0.00    -0.027 C 
BRANCH   7  13
ATOM     13  C   UNL A   1      32.749  25.398  23.078  1.00  0.00     0.228 C 
ATOM     14  N   UNL A   1      33.847  24.587  22.928  1.00  0.00    -0.325 N 
ATOM     15  H   UNL A   1      34.268  24.627  22.038  1.00  0.00     0.169 HD
ATOM     16  O   UNL A   1      32.330  25.994  22.082  1.00  0.00    -0.274 OA
BRANCH  14  17
ATOM     17  C   UNL A   1      34.472  23.704  23.838  1.00  0.00     0.055 A 
ATOM     18  C   UNL A   1      33.980  22.401  24.009  1.00  0.00     0.063 A 
ATOM     19  C   UNL A   1      34.720  21.425  24.690  1.00  0.00     0.017 A 
ATOM     20  C   UNL A   1      35.910  21.777  25.314  1.00  0.00     0.021 A 
ATOM     21  C   UNL A   1      35.589  24.067  24.587  1.00  0.00     0.047 A 
ATOM     22  C   UNL A   1      36.313  23.107  25.301  1.00  0.00     0.043 A 
ATOM     23  Cl  UNL A   1      37.730  23.582  26.150  1.00  0.00    -0.084 Cl
BRANCH  18  24
ATOM     24  C   UNL A   1      32.674  22.007  23.479  1.00  0.00     0.253 C 
ATOM     25  C   UNL A   1      31.568  22.234  25.751  1.00  0.00     0.143 C 
ATOM     26  N   UNL A   1      31.619  21.932  24.338  1.00  0.00    -0.355 N 
ATOM     27  H   UNL A   1      30.771  21.629  23.940  1.00  0.00     0.163 HD
ATOM     28  O   UNL A   1      32.527  21.785  22.285  1.00  0.00    -0.269 OA
ENDBRANCH  18  24
ENDBRANCH  14  17
ENDBRANCH   7  13
ENDBRANCH   4   6
ENDBRANCH   3   4
ENDBRANCH   2   3
ENDBRANCH   1   2
BRANCH   1  29
ATOM     29  O   UNL A   1      32.490  30.810  26.335  1.00  0.00    -0.374 OA
BRANCH  29  30
ATOM     30  C   UNL A   1      31.642  31.807  26.910  1.00  0.00     0.202 C 
BRANCH  30  31
ATOM     31  C   UNL A   1      32.188  33.237  26.856  1.00  0.00     0.261 C 
BRANCH  31  32
ATOM     32  O   UNL A   1      32.174  33.897  28.142  1.00  0.00    -0.460 OA
BRANCH  32  33
ATOM     33  C   UNL A   1      33.267  34.651  28.413  1.00  0.00     0.338 C 
ATOM     34  O   UNL A   1      33.341  35.867  28.374  1.00  0.00    -0.246 OA
BRANCH  33  35
ATOM     35  C   UNL A   1      34.426  33.823  28.834  1.00  0.00     0.060 A 
ATOM     36  C   UNL A   1      34.153  32.703  29.630  1.00  0.00     0.016 A 
ATOM     37  C   UNL A   1      35.753  34.168  28.557  1.00  0.00     0.016 A 
ATOM     38  C   UNL A   1      35.191  31.947  30.182  1.00  0.00     0.010 A 
ATOM     39  C   UNL A   1      36.797  33.409  29.114  1.00  0.00     0.010 A 
ATOM     40  C   UNL A   1      36.523  32.307  29.952  1.00  0.00    -0.014 A 
BRANCH  40  41
ATOM     41  C   UNL A   1      37.611  31.620  30.701  1.00  0.00     0.031 A 
ATOM     42  C   UNL A   1      38.331  30.477  30.042  1.00  0.00     0.074 A 
ATOM     43  C   UNL A   1      38.001  32.013  31.929  1.00  0.00     0.049 A 
ATOM     44  N   UNL A   1      39.382  29.818  30.461  1.00  0.00    -0.248 NA
ATOM     45  C   UNL A   1      37.840  30.053  28.721  1.00  0.00     0.031 C 
ATOM     46  C   UNL A   1      37.496  33.168  32.664  1.00  0.00     0.029 A 
ATOM     47  N   UNL A   1      38.908  31.450  32.796  1.00  0.00    -0.354 N 
ATOM     48  C   UNL A   1      39.728  28.966  29.422  1.00  0.00     0.074 A 
ATOM     49  C   UNL A   1      38.716  29.113  28.397  1.00  0.00     0.031 C 
ATOM     50  C   UNL A   1      37.990  33.151  33.914  1.00  0.00     0.029 A 
ATOM     51  C   UNL A   1      38.908  32.026  34.043  1.00  0.00     0.049 A 
ATOM     52  H   UNL A   1      39.500  30.705  32.547  1.00  0.00     0.167 HD
ATOM     53  C   UNL A   1      40.821  28.179  29.306  1.00  0.00     0.037 A 
ATOM     54  C   UNL A   1      39.586  31.701  35.161  1.00  0.00     0.037 A 
ATOM     55  C   UNL A   1      41.810  28.000  30.334  1.00  0.00     0.049 A 
ATOM     56  C   UNL A   1      40.666  30.659  35.088  1.00  0.00     0.074 A 
ATOM     57  C   UNL A   1      42.979  27.260  30.290  1.00  0.00     0.029 A 
ATOM     58  N   UNL A   1      41.727  28.540  31.608  1.00  0.00    -0.354 N 
ATOM     59  N   UNL A   1      41.066  29.962  34.053  1.00  0.00    -0.248 NA
ATOM     60  C   UNL A   1      41.436  30.410  36.315  1.00  0.00     0.031 C 
ATOM     61  C   UNL A   1      43.572  27.303  31.557  1.00  0.00     0.029 A 
ATOM     62  C   UNL A   1      42.795  28.108  32.376  1.00  0.00     0.049 A 
ATOM     63  H   UNL A   1      41.014  29.142  31.920  1.00  0.00     0.167 HD
ATOM     64  C   UNL A   1      42.186  29.259  34.480  1.00  0.00     0.074 A 
ATOM     65  C   UNL A   1      42.379  29.587  35.877  1.00  0.00     0.031 C 
ATOM     66  C   UNL A   1      42.999  28.447  33.761  1.00  0.00     0.037 A 
BRANCH  53  67
ATOM     67  C   UNL A   1      41.009  27.468  28.001  1.00  0.00     0.057 A 
ATOM     68  C   UNL A   1      40.460  26.196  27.781  1.00  0.00     0.134 A 
ATOM     69  C   UNL A   1      41.720  28.060  26.953  1.00  0.00     0.134 A 
ATOM     70  F   UNL A   1      39.777  25.573  28.754  1.00  0.00    -0.206 F 
ATOM     71  C   UNL A   1      40.633  25.529  26.569  1.00  0.00     0.040 A 
ATOM     72  C   UNL A   1      41.882  27.410  25.729  1.00  0.00     0.040 A 
ATOM     73  F   UNL A   1      42.267  29.275  27.102  1.00  0.00    -0.206 F 
ATOM     74  C   UNL A   1      41.343  26.139  25.537  1.00  0.00     0.006 A 
ENDBRANCH  53  67
BRANCH  54  75
ATOM     75  C   UNL A   1      39.306  32.404  36.437  1.00  0.00     0.057 A 
ATOM     76  C   UNL A   1      38.308  31.963  37.312  1.00  0.00     0.134 A 
ATOM     77  C   UNL A   1      40.003  33.568  36.783  1.00  0.00     0.134 A 
ATOM     78  F   UNL A   1      37.597  30.864  37.024  1.00  0.00    -0.206 F 
ATOM     79  C   UNL A   1      37.995  32.668  38.475  1.00  0.00     0.040 A 
ATOM     80  C   UNL A   1      39.709  34.276  37.950  1.00  0.00     0.040 A 
ATOM     81  F   UNL A   1      40.975  34.037  35.987  1.00  0.00    -0.206 F 
ATOM     82  C   UNL A   1      38.695  33.830  38.795  1.00  0.00     0.006 A 
ENDBRANCH  54  75
BRANCH  66  83
ATOM     83  C   UNL A   1      44.214  27.903  34.449  1.00  0.00     0.057 A 
ATOM     84  C   UNL A   1      45.396  28.644  34.571  1.00  0.00     0.134 A 
ATOM     85  C   UNL A   1      44.188  26.628  35.030  1.00  0.00     0.134 A 
ATOM     86  F   UNL A   1      45.493  29.864  34.023  1.00  0.00    -0.206 F 
ATOM     87  C   UNL A   1      46.514  28.129  35.230  1.00  0.00     0.040 A 
ATOM     88  C   UNL A   1      45.289  26.112  35.713  1.00  0.00     0.040 A 
ATOM     89  F   UNL A   1      43.085  25.867  34.953  1.00  0.00    -0.206 F 
ATOM     90  C   UNL A   1      46.459  26.863  35.810  1.00  0.00     0.006 A 
ENDBRANCH  66  83
ENDBRANCH  40  41
ENDBRANCH  33  35
ENDBRANCH  32  33
ENDBRANCH  31  32
ENDBRANCH  30  31
ENDBRANCH  29  30
ENDBRANCH   1  29
TORSDOF 17
ENDMDL
MODEL 3
REMARK VINA RESULT:     -11.1      1.179      2.096
REMARK SMILES CNC(=O)c1ccc(Cl)cc1NC(=O)[C@H]1[C@@H](C(=O)OCCOCCOC(=O)c2ccc(-c3c4nc(c(-c5c(F)cccc5F)c5ccc([nH]5)c(-c5c(F)cccc5F)c5nc(c(-c6c(F)cccc6F)c6ccc3[nH]6)C=C5)C=C4)cc2)[C@H]2C=C[C@@H]1C2
REMARK SMILES IDX 21 1 20 2 19 3 17 4 18 5 16 6 15 7 85 8 82 9 84 10 86 11
REMARK SMILES IDX 83 12 13 13 12 14 14 16 11 17 5 18 6 19 7 20 10 21 8 22 9 23
REMARK SMILES IDX 3 24 1 25 2 26 4 28 22 29 23 30 24 31 25 32 26 33 27 34
REMARK SMILES IDX 28 35 29 36 81 37 30 38 80 39 31 40 32 41 33 42 74 43 34 44
REMARK SMILES IDX 79 45 73 46 75 47 35 48 78 49 72 50 71 51 36 53 62 54 45 55
REMARK SMILES IDX 61 56 46 57 49 58 60 59 76 60 47 61 48 62 59 64 77 65 50 66
REMARK SMILES IDX 37 67 38 68 43 69 39 70 40 71 42 72 44 73 41 74 63 75 64 76
REMARK SMILES IDX 69 77 65 78 66 79 68 80 70 81 67 82 51 83 52 84 57 85 53 86
REMARK SMILES IDX 54 87 56 88 58 89 55 90
REMARK H PARENT 12 15 2 27 75 52 49 63
REMARK Flexibility Score: inf
ROOT
ATOM      1  C   UNL A   1      32.270  30.008  25.961  1.00  0.00     0.202 C 
ENDROOT
BRANCH   1   2
ATOM      2  C   UNL A   1      33.615  29.327  26.246  1.00  0.00     0.261 C 
BRANCH   2   3
ATOM      3  O   UNL A   1      33.507  27.891  26.171  1.00  0.00    -0.463 OA
BRANCH   3   4
ATOM      4  C   UNL A   1      33.395  27.369  24.933  1.00  0.00     0.310 C 
ATOM      5  O   UNL A   1      34.055  27.747  23.968  1.00  0.00    -0.252 OA
BRANCH   4   6
ATOM      6  C   UNL A   1      32.374  26.250  24.797  1.00  0.00     0.119 C 
ATOM      7  C   UNL A   1      32.405  25.116  23.711  1.00  0.00     0.100 C 
ATOM      8  C   UNL A   1      31.089  25.376  22.921  1.00  0.00     0.025 C 
ATOM      9  C   UNL A   1      30.969  26.881  24.570  1.00  0.00     0.027 C 
ATOM     10  C   UNL A   1      31.083  26.745  22.285  1.00  0.00    -0.027 C 
ATOM     11  C   UNL A   1      30.149  25.675  24.100  1.00  0.00     0.017 C 
ATOM     12  C   UNL A   1      30.993  27.647  23.269  1.00  0.00    -0.027 C 
BRANCH   7  13
ATOM     13  C   UNL A   1      33.626  24.844  22.847  1.00  0.00     0.228 C 
ATOM     14  N   UNL A   1      34.427  23.752  23.076  1.00  0.00    -0.325 N 
ATOM     15  H   UNL A   1      35.227  23.704  22.503  1.00  0.00     0.169 HD
ATOM     16  O   UNL A   1      33.907  25.579  21.896  1.00  0.00    -0.274 OA
BRANCH  14  17
ATOM     17  C   UNL A   1      34.293  22.687  23.995  1.00  0.00     0.055 A 
ATOM     18  C   UNL A   1      34.904  22.760  25.255  1.00  0.00     0.063 A 
ATOM     19  C   UNL A   1      34.580  21.860  26.278  1.00  0.00     0.017 A 
ATOM     20  C   UNL A   1      33.725  20.797  26.011  1.00  0.00     0.021 A 
ATOM     21  C   UNL A   1      33.556  21.540  23.711  1.00  0.00     0.047 A 
ATOM     22  C   UNL A   1      33.258  20.615  24.715  1.00  0.00     0.043 A 
ATOM     23  Cl  UNL A   1      32.280  19.251  24.341  1.00  0.00    -0.084 Cl
BRANCH  18  24
ATOM     24  C   UNL A   1      35.906  23.786  25.556  1.00  0.00     0.253 C 
ATOM     25  C   UNL A   1      37.818  22.136  25.317  1.00  0.00     0.143 C 
ATOM     26  N   UNL A   1      37.219  23.423  25.586  1.00  0.00    -0.355 N 
ATOM     27  H   UNL A   1      37.849  24.141  25.826  1.00  0.00     0.163 HD
ATOM     28  O   UNL A   1      35.571  24.948  25.738  1.00  0.00    -0.269 OA
ENDBRANCH  18  24
ENDBRANCH  14  17
ENDBRANCH   7  13
ENDBRANCH   4   6
ENDBRANCH   3   4
ENDBRANCH   2   3
ENDBRANCH   1   2
BRANCH   1  29
ATOM     29  O   UNL A   1      31.766  30.770  27.061  1.00  0.00    -0.374 OA
BRANCH  29  30
ATOM     30  C   UNL A   1      31.604  32.166  26.796  1.00  0.00     0.202 C 
BRANCH  30  31
ATOM     31  C   UNL A   1      32.752  33.058  27.278  1.00  0.00     0.261 C 
BRANCH  31  32
ATOM     32  O   UNL A   1      32.295  34.257  27.944  1.00  0.00    -0.460 OA
BRANCH  32  33
ATOM     33  C   UNL A   1      33.193  34.825  28.785  1.00  0.00     0.338 C 
ATOM     34  O   UNL A   1      33.079  35.896  29.356  1.00  0.00    -0.246 OA
BRANCH  33  35
ATOM     35  C   UNL A   1      34.380  33.960  29.002  1.00  0.00     0.060 A 
ATOM     36  C   UNL A   1      34.208  32.834  29.817  1.00  0.00     0.016 A 
ATOM     37  C   UNL A   1      35.655  34.275  28.518  1.00  0.00     0.016 A 
ATOM     38  C   UNL A   1      35.299  32.042  30.185  1.00  0.00     0.010 A 
ATOM     39  C   UNL A   1      36.753  33.479  28.890  1.00  0.00     0.010 A 
ATOM     40  C   UNL A   1      36.586  32.371  29.747  1.00  0.00    -0.014 A 
BRANCH  40  41
ATOM     41  C   UNL A   1      37.760  31.643  30.301  1.00  0.00     0.031 A 
ATOM     42  C   UNL A   1      38.240  31.993  31.682  1.00  0.00     0.074 A 
ATOM     43  C   UNL A   1      38.380  30.653  29.628  1.00  0.00     0.049 A 
ATOM     44  N   UNL A   1      39.165  31.408  32.403  1.00  0.00    -0.248 NA
ATOM     45  C   UNL A   1      37.564  33.111  32.359  1.00  0.00     0.031 C 
ATOM     46  C   UNL A   1      37.976  30.107  28.337  1.00  0.00     0.029 A 
ATOM     47  N   UNL A   1      39.517  29.945  29.938  1.00  0.00    -0.354 N 
ATOM     48  C   UNL A   1      39.118  32.027  33.643  1.00  0.00     0.074 A 
ATOM     49  C   UNL A   1      38.153  33.102  33.546  1.00  0.00     0.031 C 
ATOM     50  C   UNL A   1      38.920  29.255  27.899  1.00  0.00     0.029 A 
ATOM     51  C   UNL A   1      39.957  29.137  28.917  1.00  0.00     0.049 A 
ATOM     52  H   UNL A   1      39.973  30.011  30.807  1.00  0.00     0.167 HD
ATOM     53  C   UNL A   1      39.775  31.693  34.777  1.00  0.00     0.037 A 
ATOM     54  C   UNL A   1      41.059  28.369  28.818  1.00  0.00     0.037 A 
ATOM     55  C   UNL A   1      40.761  30.651  34.871  1.00  0.00     0.049 A 
ATOM     56  C   UNL A   1      41.925  28.167  30.029  1.00  0.00     0.074 A 
ATOM     57  C   UNL A   1      41.445  30.206  35.989  1.00  0.00     0.029 A 
ATOM     58  N   UNL A   1      41.232  29.914  33.796  1.00  0.00    -0.354 N 
ATOM     59  N   UNL A   1      41.780  28.660  31.234  1.00  0.00    -0.248 NA
ATOM     60  C   UNL A   1      43.063  27.246  29.889  1.00  0.00     0.031 C 
ATOM     61  C   UNL A   1      42.373  29.242  35.580  1.00  0.00     0.029 A 
ATOM     62  C   UNL A   1      42.234  29.054  34.214  1.00  0.00     0.049 A 
ATOM     63  H   UNL A   1      40.902  29.990  32.872  1.00  0.00     0.167 HD
ATOM     64  C   UNL A   1      42.750  28.045  32.014  1.00  0.00     0.074 A 
ATOM     65  C   UNL A   1      43.500  27.169  31.138  1.00  0.00     0.031 C 
ATOM     66  C   UNL A   1      42.969  28.170  33.346  1.00  0.00     0.037 A 
BRANCH  53  67
ATOM     67  C   UNL A   1      39.422  32.458  36.015  1.00  0.00     0.057 A 
ATOM     68  C   UNL A   1      40.077  33.655  36.341  1.00  0.00     0.134 A 
ATOM     69  C   UNL A   1      38.412  32.014  36.875  1.00  0.00     0.134 A 
ATOM     70  F   UNL A   1      41.061  34.125  35.560  1.00  0.00    -0.206 F 
ATOM     71  C   UNL A   1      39.753  34.371  37.493  1.00  0.00     0.040 A 
ATOM     72  C   UNL A   1      38.067  32.733  38.020  1.00  0.00     0.040 A 
ATOM     73  F   UNL A   1      37.749  30.878  36.616  1.00  0.00    -0.206 F 
ATOM     74  C   UNL A   1      38.741  33.911  38.334  1.00  0.00     0.006 A 
ENDBRANCH  53  67
BRANCH  54  75
ATOM     75  C   UNL A   1      41.383  27.688  27.541  1.00  0.00     0.057 A 
ATOM     76  C   UNL A   1      40.999  26.365  27.298  1.00  0.00     0.134 A 
ATOM     77  C   UNL A   1      42.133  28.336  26.551  1.00  0.00     0.134 A 
ATOM     78  F   UNL A   1      40.295  25.689  28.217  1.00  0.00    -0.206 F 
ATOM     79  C   UNL A   1      41.369  25.701  26.128  1.00  0.00     0.040 A 
ATOM     80  C   UNL A   1      42.499  27.688  25.371  1.00  0.00     0.040 A 
ATOM     81  F   UNL A   1      42.526  29.607  26.723  1.00  0.00    -0.206 F 
ATOM     82  C   UNL A   1      42.124  26.363  25.161  1.00  0.00     0.006 A 
ENDBRANCH  54  75
BRANCH  66  83
ATOM     83  C   UNL A   1      44.020  27.294  33.959  1.00  0.00     0.057 A 
ATOM     84  C   UNL A   1      45.370  27.666  33.998  1.00  0.00     0.134 A 
ATOM     85  C   UNL A   1      43.669  26.073  34.549  1.00  0.00     0.134 A 
ATOM     86  F   UNL A   1      45.775  28.814  33.435  1.00  0.00    -0.206 F 
ATOM     87  C   UNL A   1      46.334  26.845  34.587  1.00  0.00     0.040 A 
ATOM     88  C   UNL A   1      44.618  25.257  35.164  1.00  0.00     0.040 A 
ATOM     89  F   UNL A   1      42.392  25.659  34.549  1.00  0.00    -0.206 F 
ATOM     90  C   UNL A   1      45.957  25.642  35.179  1.00  0.00     0.006 A 
ENDBRANCH  66  83
ENDBRANCH  40  41
ENDBRANCH  33  35
ENDBRANCH  32  33
ENDBRANCH  31  32
ENDBRANCH  30  31
ENDBRANCH  29  30
ENDBRANCH   1  29
TORSDOF 17
ENDMDL
