MODEL 1
REMARK VINA RESULT:      -9.6      0.000      0.000
REMARK SMILES CC(C)[NH2+][C@]1(C(=O)OCCOCCOC(=O)c2ccc(-c3c4nc(c(-c5c(F)cccc5F)c5ccc([nH]5)c(-c5c(F)cccc5F)c5nc(c(-c6c(F)cccc6F)c6ccc3[nH]6)C=C5)C=C4)cc2)CC[C@@H]([N@@H+](C)[C@@H](C)C(C)C)C1
REMARK SMILES IDX 10 1 9 2 8 3 6 4 7 5 5 6 71 7 81 8 72 9 73 10 4 11 2 14 1 15
REMARK SMILES IDX 3 16 74 17 75 18 76 20 77 21 78 22 79 23 80 24 11 25 12 26
REMARK SMILES IDX 13 27 14 28 15 29 16 30 17 31 18 32 70 33 19 34 69 35 20 36
REMARK SMILES IDX 21 37 22 38 63 39 23 40 68 41 62 42 64 43 24 44 67 45 61 46
REMARK SMILES IDX 60 47 25 49 51 50 34 51 50 52 35 53 38 54 49 55 65 56 36 57
REMARK SMILES IDX 37 58 48 60 66 61 39 62 26 63 27 64 32 65 28 66 29 67 31 68
REMARK SMILES IDX 33 69 30 70 52 71 53 72 58 73 54 74 55 75 57 76 59 77 56 78
REMARK SMILES IDX 40 79 41 80 46 81 42 82 43 83 45 84 47 85 44 86
REMARK H PARENT 4 12 4 13 74 19 64 48 38 59
REMARK Flexibility Score: inf
ROOT
ATOM      1  C   UNL A   1      34.579  29.911  27.339  1.00  0.00     0.202 C 
ENDROOT
BRANCH   1   2
ATOM      2  C   UNL A   1      33.812  28.585  27.238  1.00  0.00     0.261 C 
BRANCH   2   3
ATOM      3  O   UNL A   1      33.620  28.076  25.908  1.00  0.00    -0.459 OA
BRANCH   3   4
ATOM      4  C   UNL A   1      32.655  27.117  25.814  1.00  0.00     0.368 C 
ATOM      5  O   UNL A   1      31.698  27.026  26.580  1.00  0.00    -0.245 OA
BRANCH   4   6
ATOM      6  C   UNL A   1      32.966  26.010  24.764  1.00  0.00     0.200 C 
ATOM      7  C   UNL A   1      34.364  25.475  25.116  1.00  0.00     0.087 C 
ATOM      8  C   UNL A   1      32.135  24.708  24.926  1.00  0.00     0.146 C 
ATOM      9  C   UNL A   1      34.481  24.123  24.436  1.00  0.00     0.072 C 
ATOM     10  C   UNL A   1      33.060  23.545  24.464  1.00  0.00     0.191 C 
BRANCH   6  11
ATOM     11  N   UNL A   1      32.756  26.679  23.453  1.00  0.00    -0.330 N 
ATOM     12  H   UNL A   1      32.765  27.680  23.645  1.00  0.00     0.347 HD
ATOM     13  H   UNL A   1      33.496  26.259  22.891  1.00  0.00     0.347 HD
BRANCH  11  14
ATOM     14  C   UNL A   1      31.585  26.442  22.614  1.00  0.00     0.176 C 
ATOM     15  C   UNL A   1      30.873  27.798  22.488  1.00  0.00     0.075 C 
ATOM     16  C   UNL A   1      31.922  25.968  21.195  1.00  0.00     0.075 C 
ENDBRANCH  11  14
ENDBRANCH   6  11
BRANCH  10  17
ATOM     17  N   UNL A   1      32.862  22.186  25.023  1.00  0.00    -0.332 N 
ATOM     18  C   UNL A   1      32.015  22.264  26.227  1.00  0.00     0.333 C 
ATOM     19  H   UNL A   1      33.836  21.930  25.187  1.00  0.00     0.348 HD
BRANCH  17  20
ATOM     20  C   UNL A   1      32.446  21.025  24.186  1.00  0.00     0.183 C 
ATOM     21  C   UNL A   1      32.131  21.311  22.709  1.00  0.00     0.075 C 
BRANCH  20  22
ATOM     22  C   UNL A   1      33.344  19.766  24.358  1.00  0.00     0.041 C 
ATOM     23  C   UNL A   1      34.722  20.150  24.910  1.00  0.00     0.013 C 
ATOM     24  C   UNL A   1      32.716  18.708  25.281  1.00  0.00     0.013 C 
ENDBRANCH  20  22
ENDBRANCH  17  20
ENDBRANCH  10  17
ENDBRANCH   4   6
ENDBRANCH   3   4
ENDBRANCH   2   3
ENDBRANCH   1   2
BRANCH   1  25
ATOM     25  O   UNL A   1      33.884  31.039  27.859  1.00  0.00    -0.374 OA
BRANCH  25  26
ATOM     26  C   UNL A   1      32.627  31.372  27.270  1.00  0.00     0.202 C 
BRANCH  26  27
ATOM     27  C   UNL A   1      32.228  32.846  27.313  1.00  0.00     0.261 C 
BRANCH  27  28
ATOM     28  O   UNL A   1      33.368  33.713  27.399  1.00  0.00    -0.460 OA
BRANCH  28  29
ATOM     29  C   UNL A   1      33.353  34.495  28.500  1.00  0.00     0.338 C 
ATOM     30  O   UNL A   1      32.488  35.294  28.835  1.00  0.00    -0.246 OA
BRANCH  29  31
ATOM     31  C   UNL A   1      34.477  34.158  29.378  1.00  0.00     0.060 A 
ATOM     32  C   UNL A   1      35.754  34.561  28.971  1.00  0.00     0.016 A 
ATOM     33  C   UNL A   1      34.301  33.318  30.480  1.00  0.00     0.016 A 
ATOM     34  C   UNL A   1      36.873  34.054  29.623  1.00  0.00     0.010 A 
ATOM     35  C   UNL A   1      35.427  32.811  31.134  1.00  0.00     0.010 A 
ATOM     36  C   UNL A   1      36.714  33.135  30.671  1.00  0.00    -0.014 A 
BRANCH  36  37
ATOM     37  C   UNL A   1      37.908  32.401  31.151  1.00  0.00     0.031 A 
ATOM     38  C   UNL A   1      38.428  32.683  32.534  1.00  0.00     0.074 A 
ATOM     39  C   UNL A   1      38.459  31.440  30.393  1.00  0.00     0.049 A 
ATOM     40  N   UNL A   1      39.384  32.084  33.198  1.00  0.00    -0.248 NA
ATOM     41  C   UNL A   1      37.783  33.784  33.269  1.00  0.00     0.031 C 
ATOM     42  C   UNL A   1      38.024  31.076  29.045  1.00  0.00     0.029 A 
ATOM     43  N   UNL A   1      39.495  30.582  30.657  1.00  0.00    -0.354 N 
ATOM     44  C   UNL A   1      39.448  32.728  34.428  1.00  0.00     0.074 A 
ATOM     45  C   UNL A   1      38.464  33.788  34.406  1.00  0.00     0.031 C 
ATOM     46  C   UNL A   1      38.782  30.058  28.604  1.00  0.00     0.029 A 
ATOM     47  C   UNL A   1      39.758  29.709  29.633  1.00  0.00     0.049 A 
ATOM     48  H   UNL A   1      40.002  30.593  31.502  1.00  0.00     0.167 HD
ATOM     49  C   UNL A   1      40.247  32.450  35.486  1.00  0.00     0.037 A 
ATOM     50  C   UNL A   1      40.681  28.732  29.543  1.00  0.00     0.037 A 
ATOM     51  C   UNL A   1      41.226  31.396  35.500  1.00  0.00     0.049 A 
ATOM     52  C   UNL A   1      41.574  28.459  30.722  1.00  0.00     0.074 A 
ATOM     53  C   UNL A   1      42.079  31.022  36.522  1.00  0.00     0.029 A 
ATOM     54  N   UNL A   1      41.481  30.549  34.432  1.00  0.00    -0.354 N 
ATOM     55  N   UNL A   1      41.598  29.049  31.894  1.00  0.00    -0.248 NA
ATOM     56  C   UNL A   1      42.556  27.378  30.571  1.00  0.00     0.031 C 
ATOM     57  C   UNL A   1      42.877  29.968  36.059  1.00  0.00     0.029 A 
ATOM     58  C   UNL A   1      42.493  29.664  34.762  1.00  0.00     0.049 A 
ATOM     59  H   UNL A   1      41.013  30.575  33.567  1.00  0.00     0.167 HD
ATOM     60  C   UNL A   1      42.583  28.399  32.626  1.00  0.00     0.074 A 
ATOM     61  C   UNL A   1      43.120  27.359  31.771  1.00  0.00     0.031 C 
ATOM     62  C   UNL A   1      43.008  28.639  33.891  1.00  0.00     0.037 A 
BRANCH  49  63
ATOM     63  C   UNL A   1      40.099  33.313  36.704  1.00  0.00     0.057 A 
ATOM     64  C   UNL A   1      39.150  33.031  37.697  1.00  0.00     0.134 A 
ATOM     65  C   UNL A   1      40.922  34.430  36.896  1.00  0.00     0.134 A 
ATOM     66  F   UNL A   1      38.320  31.985  37.567  1.00  0.00    -0.206 F 
ATOM     67  C   UNL A   1      39.011  33.843  38.825  1.00  0.00     0.040 A 
ATOM     68  C   UNL A   1      40.805  35.236  38.029  1.00  0.00     0.040 A 
ATOM     69  F   UNL A   1      41.851  34.755  35.985  1.00  0.00    -0.206 F 
ATOM     70  C   UNL A   1      39.844  34.947  38.995  1.00  0.00     0.006 A 
ENDBRANCH  49  63
BRANCH  50  71
ATOM     71  C   UNL A   1      40.788  27.930  28.299  1.00  0.00     0.057 A 
ATOM     72  C   UNL A   1      40.107  26.716  28.157  1.00  0.00     0.134 A 
ATOM     73  C   UNL A   1      41.568  28.365  27.221  1.00  0.00     0.134 A 
ATOM     74  F   UNL A   1      39.358  26.239  29.162  1.00  0.00    -0.206 F 
ATOM     75  C   UNL A   1      40.209  25.956  26.990  1.00  0.00     0.040 A 
ATOM     76  C   UNL A   1      41.662  27.626  26.042  1.00  0.00     0.040 A 
ATOM     77  F   UNL A   1      42.240  29.522  27.296  1.00  0.00    -0.206 F 
ATOM     78  C   UNL A   1      40.984  26.413  25.926  1.00  0.00     0.006 A 
ENDBRANCH  50  71
BRANCH  62  79
ATOM     79  C   UNL A   1      44.092  27.751  34.423  1.00  0.00     0.057 A 
ATOM     80  C   UNL A   1      45.442  28.118  34.355  1.00  0.00     0.134 A 
ATOM     81  C   UNL A   1      43.780  26.531  35.033  1.00  0.00     0.134 A 
ATOM     82  F   UNL A   1      45.805  29.270  33.769  1.00  0.00    -0.206 F 
ATOM     83  C   UNL A   1      46.446  27.289  34.855  1.00  0.00     0.040 A 
ATOM     84  C   UNL A   1      44.774  25.705  35.558  1.00  0.00     0.040 A 
ATOM     85  F   UNL A   1      42.505  26.127  35.137  1.00  0.00    -0.206 F 
ATOM     86  C   UNL A   1      46.113  26.081  35.464  1.00  0.00     0.006 A 
ENDBRANCH  62  79
ENDBRANCH  36  37
ENDBRANCH  29  31
ENDBRANCH  28  29
ENDBRANCH  27  28
ENDBRANCH  26  27
ENDBRANCH  25  26
ENDBRANCH   1  25
TORSDOF 19
ENDMDL
MODEL 2
REMARK VINA RESULT:      -9.5      4.433      9.663
REMARK SMILES CC(C)[NH2+][C@]1(C(=O)OCCOCCOC(=O)c2ccc(-c3c4nc(c(-c5c(F)cccc5F)c5ccc([nH]5)c(-c5c(F)cccc5F)c5nc(c(-c6c(F)cccc6F)c6ccc3[nH]6)C=C5)C=C4)cc2)CC[C@@H]([N@@H+](C)[C@@H](C)C(C)C)C1
REMARK SMILES IDX 10 1 9 2 8 3 6 4 7 5 5 6 71 7 81 8 72 9 73 10 4 11 2 14 1 15
REMARK SMILES IDX 3 16 74 17 75 18 76 20 77 21 78 22 79 23 80 24 11 25 12 26
REMARK SMILES IDX 13 27 14 28 15 29 16 30 17 31 18 32 70 33 19 34 69 35 20 36
REMARK SMILES IDX 21 37 22 38 63 39 23 40 68 41 62 42 64 43 24 44 67 45 61 46
REMARK SMILES IDX 60 47 25 49 51 50 34 51 50 52 35 53 38 54 49 55 65 56 36 57
REMARK SMILES IDX 37 58 48 60 66 61 39 62 26 63 27 64 32 65 28 66 29 67 31 68
REMARK SMILES IDX 33 69 30 70 52 71 53 72 58 73 54 74 55 75 57 76 59 77 56 78
REMARK SMILES IDX 40 79 41 80 46 81 42 82 43 83 45 84 47 85 44 86
REMARK H PARENT 4 12 4 13 74 19 64 48 38 59
REMARK Flexibility Score: inf
ROOT
ATOM      1  C   UNL A   1      34.798  22.444  26.340  1.00  0.00     0.202 C 
ENDROOT
BRANCH   1   2
ATOM      2  C   UNL A   1      33.801  23.596  26.522  1.00  0.00     0.261 C 
BRANCH   2   3
ATOM      3  O   UNL A   1      33.143  24.047  25.327  1.00  0.00    -0.459 OA
BRANCH   3   4
ATOM      4  C   UNL A   1      32.564  25.277  25.441  1.00  0.00     0.368 C 
ATOM      5  O   UNL A   1      32.740  26.034  26.393  1.00  0.00    -0.245 OA
BRANCH   4   6
ATOM      6  C   UNL A   1      31.493  25.573  24.350  1.00  0.00     0.200 C 
ATOM      7  C   UNL A   1      30.131  25.482  25.060  1.00  0.00     0.087 C 
ATOM      8  C   UNL A   1      31.444  27.049  23.871  1.00  0.00     0.146 C 
ATOM      9  C   UNL A   1      29.143  26.212  24.169  1.00  0.00     0.072 C 
ATOM     10  C   UNL A   1      29.956  27.341  23.522  1.00  0.00     0.191 C 
BRANCH   6  11
ATOM     11  N   UNL A   1      31.805  24.612  23.259  1.00  0.00    -0.330 N 
ATOM     12  H   UNL A   1      31.908  23.703  23.708  1.00  0.00     0.347 HD
ATOM     13  H   UNL A   1      31.033  24.780  22.615  1.00  0.00     0.347 HD
BRANCH  11  14
ATOM     14  C   UNL A   1      32.958  24.757  22.375  1.00  0.00     0.176 C 
ATOM     15  C   UNL A   1      33.341  23.332  21.943  1.00  0.00     0.075 C 
ATOM     16  C   UNL A   1      32.668  25.559  21.101  1.00  0.00     0.075 C 
ENDBRANCH  11  14
ENDBRANCH   6  11
BRANCH  10  17
ATOM     17  N   UNL A   1      29.440  28.727  23.621  1.00  0.00    -0.332 N 
ATOM     18  C   UNL A   1      30.568  29.676  23.637  1.00  0.00     0.333 C 
ATOM     19  H   UNL A   1      28.920  28.650  24.496  1.00  0.00     0.348 HD
BRANCH  17  20
ATOM     20  C   UNL A   1      28.354  29.246  22.741  1.00  0.00     0.183 C 
ATOM     21  C   UNL A   1      26.914  28.867  23.119  1.00  0.00     0.075 C 
BRANCH  20  22
ATOM     22  C   UNL A   1      28.488  30.757  22.393  1.00  0.00     0.041 C 
ATOM     23  C   UNL A   1      28.091  31.017  20.934  1.00  0.00     0.013 C 
ATOM     24  C   UNL A   1      27.638  31.656  23.306  1.00  0.00     0.013 C 
ENDBRANCH  20  22
ENDBRANCH  17  20
ENDBRANCH  10  17
ENDBRANCH   4   6
ENDBRANCH   3   4
ENDBRANCH   2   3
ENDBRANCH   1   2
BRANCH   1  25
ATOM     25  O   UNL A   1      34.816  21.778  25.082  1.00  0.00    -0.374 OA
BRANCH  25  26
ATOM     26  C   UNL A   1      36.073  21.298  24.604  1.00  0.00     0.202 C 
BRANCH  26  27
ATOM     27  C   UNL A   1      37.165  21.095  25.654  1.00  0.00     0.261 C 
BRANCH  27  28
ATOM     28  O   UNL A   1      38.452  21.523  25.185  1.00  0.00    -0.460 OA
BRANCH  28  29
ATOM     29  C   UNL A   1      39.449  21.237  26.050  1.00  0.00     0.338 C 
ATOM     30  O   UNL A   1      40.087  20.196  26.134  1.00  0.00    -0.246 OA
BRANCH  29  31
ATOM     31  C   UNL A   1      39.807  22.429  26.825  1.00  0.00     0.060 A 
ATOM     32  C   UNL A   1      39.202  23.638  26.461  1.00  0.00     0.016 A 
ATOM     33  C   UNL A   1      40.839  22.392  27.765  1.00  0.00     0.016 A 
ATOM     34  C   UNL A   1      39.688  24.831  26.982  1.00  0.00     0.010 A 
ATOM     35  C   UNL A   1      41.324  23.594  28.288  1.00  0.00     0.010 A 
ATOM     36  C   UNL A   1      40.785  24.818  27.855  1.00  0.00    -0.014 A 
BRANCH  36  37
ATOM     37  C   UNL A   1      41.455  26.102  28.166  1.00  0.00     0.031 A 
ATOM     38  C   UNL A   1      42.837  26.352  27.629  1.00  0.00     0.074 A 
ATOM     39  C   UNL A   1      40.798  27.057  28.844  1.00  0.00     0.049 A 
ATOM     40  N   UNL A   1      43.563  27.439  27.682  1.00  0.00    -0.248 NA
ATOM     41  C   UNL A   1      43.487  25.227  26.935  1.00  0.00     0.031 C 
ATOM     42  C   UNL A   1      39.451  26.925  29.396  1.00  0.00     0.029 A 
ATOM     43  N   UNL A   1      41.173  28.335  29.168  1.00  0.00    -0.354 N 
ATOM     44  C   UNL A   1      44.748  27.133  27.024  1.00  0.00     0.074 A 
ATOM     45  C   UNL A   1      44.662  25.749  26.614  1.00  0.00     0.031 C 
ATOM     46  C   UNL A   1      39.106  28.083  29.982  1.00  0.00     0.029 A 
ATOM     47  C   UNL A   1      40.210  29.031  29.855  1.00  0.00     0.049 A 
ATOM     48  H   UNL A   1      42.050  28.717  28.932  1.00  0.00     0.167 HD
ATOM     49  C   UNL A   1      45.806  27.940  26.771  1.00  0.00     0.037 A 
ATOM     50  C   UNL A   1      40.221  30.294  30.320  1.00  0.00     0.037 A 
ATOM     51  C   UNL A   1      45.886  29.316  27.185  1.00  0.00     0.049 A 
ATOM     52  C   UNL A   1      41.418  31.163  30.049  1.00  0.00     0.074 A 
ATOM     53  C   UNL A   1      46.905  30.226  26.972  1.00  0.00     0.029 A 
ATOM     54  N   UNL A   1      44.899  29.977  27.902  1.00  0.00    -0.354 N 
ATOM     55  N   UNL A   1      42.516  30.875  29.391  1.00  0.00    -0.248 NA
ATOM     56  C   UNL A   1      41.372  32.534  30.572  1.00  0.00     0.031 C 
ATOM     57  C   UNL A   1      46.551  31.430  27.593  1.00  0.00     0.029 A 
ATOM     58  C   UNL A   1      45.295  31.279  28.158  1.00  0.00     0.049 A 
ATOM     59  H   UNL A   1      44.046  29.579  28.187  1.00  0.00     0.167 HD
ATOM     60  C   UNL A   1      43.283  32.032  29.405  1.00  0.00     0.074 A 
ATOM     61  C   UNL A   1      42.516  33.032  30.122  1.00  0.00     0.031 C 
ATOM     62  C   UNL A   1      44.511  32.252  28.875  1.00  0.00     0.037 A 
BRANCH  49  63
ATOM     63  C   UNL A   1      46.964  27.343  26.027  1.00  0.00     0.057 A 
ATOM     64  C   UNL A   1      47.076  27.445  24.634  1.00  0.00     0.134 A 
ATOM     65  C   UNL A   1      47.985  26.672  26.710  1.00  0.00     0.134 A 
ATOM     66  F   UNL A   1      46.124  28.062  23.918  1.00  0.00    -0.206 F 
ATOM     67  C   UNL A   1      48.151  26.879  23.945  1.00  0.00     0.040 A 
ATOM     68  C   UNL A   1      49.075  26.121  26.034  1.00  0.00     0.040 A 
ATOM     69  F   UNL A   1      47.939  26.540  28.044  1.00  0.00    -0.206 F 
ATOM     70  C   UNL A   1      49.158  26.219  24.647  1.00  0.00     0.006 A 
ENDBRANCH  49  63
BRANCH  50  71
ATOM     71  C   UNL A   1      39.050  30.815  31.068  1.00  0.00     0.057 A 
ATOM     72  C   UNL A   1      38.941  30.653  32.453  1.00  0.00     0.134 A 
ATOM     73  C   UNL A   1      38.015  31.493  30.412  1.00  0.00     0.134 A 
ATOM     74  F   UNL A   1      39.892  29.996  33.133  1.00  0.00    -0.206 F 
ATOM     75  C   UNL A   1      37.839  31.138  33.159  1.00  0.00     0.040 A 
ATOM     76  C   UNL A   1      36.918  32.001  31.109  1.00  0.00     0.040 A 
ATOM     77  F   UNL A   1      38.064  31.684  29.086  1.00  0.00    -0.206 F 
ATOM     78  C   UNL A   1      36.826  31.819  32.488  1.00  0.00     0.006 A 
ENDBRANCH  50  71
BRANCH  62  79
ATOM     79  C   UNL A   1      45.086  33.626  29.040  1.00  0.00     0.057 A 
ATOM     80  C   UNL A   1      45.910  33.953  30.124  1.00  0.00     0.134 A 
ATOM     81  C   UNL A   1      44.834  34.624  28.091  1.00  0.00     0.134 A 
ATOM     82  F   UNL A   1      46.178  33.043  31.073  1.00  0.00    -0.206 F 
ATOM     83  C   UNL A   1      46.445  35.233  30.270  1.00  0.00     0.040 A 
ATOM     84  C   UNL A   1      45.382  35.901  28.215  1.00  0.00     0.040 A 
ATOM     85  F   UNL A   1      44.058  34.372  27.026  1.00  0.00    -0.206 F 
ATOM     86  C   UNL A   1      46.186  36.209  29.311  1.00  0.00     0.006 A 
ENDBRANCH  62  79
ENDBRANCH  36  37
ENDBRANCH  29  31
ENDBRANCH  28  29
ENDBRANCH  27  28
ENDBRANCH  26  27
ENDBRANCH  25  26
ENDBRANCH   1  25
TORSDOF 19
ENDMDL
MODEL 3
REMARK VINA RESULT:      -9.4      3.081      8.010
REMARK SMILES CC(C)[NH2+][C@]1(C(=O)OCCOCCOC(=O)c2ccc(-c3c4nc(c(-c5c(F)cccc5F)c5ccc([nH]5)c(-c5c(F)cccc5F)c5nc(c(-c6c(F)cccc6F)c6ccc3[nH]6)C=C5)C=C4)cc2)CC[C@@H]([N@@H+](C)[C@@H](C)C(C)C)C1
REMARK SMILES IDX 10 1 9 2 8 3 6 4 7 5 5 6 71 7 81 8 72 9 73 10 4 11 2 14 1 15
REMARK SMILES IDX 3 16 74 17 75 18 76 20 77 21 78 22 79 23 80 24 11 25 12 26
REMARK SMILES IDX 13 27 14 28 15 29 16 30 17 31 18 32 70 33 19 34 69 35 20 36
REMARK SMILES IDX 21 37 22 38 63 39 23 40 68 41 62 42 64 43 24 44 67 45 61 46
REMARK SMILES IDX 60 47 25 49 51 50 34 51 50 52 35 53 38 54 49 55 65 56 36 57
REMARK SMILES IDX 37 58 48 60 66 61 39 62 26 63 27 64 32 65 28 66 29 67 31 68
REMARK SMILES IDX 33 69 30 70 52 71 53 72 58 73 54 74 55 75 57 76 59 77 56 78
REMARK SMILES IDX 40 79 41 80 46 81 42 82 43 83 45 84 47 85 44 86
REMARK H PARENT 4 12 4 13 74 19 64 48 38 59
REMARK Flexibility Score: inf
ROOT
ATOM      1  C   UNL A   1      39.678  21.580  26.280  1.00  0.00     0.202 C 
ENDROOT
BRANCH   1   2
ATOM      2  C   UNL A   1      38.690  22.659  25.817  1.00  0.00     0.261 C 
BRANCH   2   3
ATOM      3  O   UNL A   1      37.318  22.450  26.189  1.00  0.00    -0.459 OA
BRANCH   3   4
ATOM      4  C   UNL A   1      36.544  21.933  25.192  1.00  0.00     0.368 C 
ATOM      5  O   UNL A   1      36.987  21.513  24.125  1.00  0.00    -0.245 OA
BRANCH   4   6
ATOM      6  C   UNL A   1      35.014  22.099  25.431  1.00  0.00     0.200 C 
ATOM      7  C   UNL A   1      34.874  23.068  26.618  1.00  0.00     0.087 C 
ATOM      8  C   UNL A   1      34.269  22.911  24.336  1.00  0.00     0.146 C 
ATOM      9  C   UNL A   1      33.454  23.601  26.561  1.00  0.00     0.072 C 
ATOM     10  C   UNL A   1      33.117  23.661  25.065  1.00  0.00     0.191 C 
BRANCH   6  11
ATOM     11  N   UNL A   1      34.512  20.706  25.572  1.00  0.00    -0.330 N 
ATOM     12  H   UNL A   1      35.337  20.125  25.721  1.00  0.00     0.347 HD
ATOM     13  H   UNL A   1      33.822  20.814  26.315  1.00  0.00     0.347 HD
BRANCH  11  14
ATOM     14  C   UNL A   1      33.728  20.033  24.541  1.00  0.00     0.176 C 
ATOM     15  C   UNL A   1      34.262  18.593  24.475  1.00  0.00     0.075 C 
ATOM     16  C   UNL A   1      32.229  19.951  24.855  1.00  0.00     0.075 C 
ENDBRANCH  11  14
ENDBRANCH   6  11
BRANCH  10  17
ATOM     17  N   UNL A   1      32.609  24.938  24.508  1.00  0.00    -0.332 N 
ATOM     18  C   UNL A   1      33.667  25.589  23.715  1.00  0.00     0.333 C 
ATOM     19  H   UNL A   1      32.358  25.411  25.377  1.00  0.00     0.348 HD
BRANCH  17  20
ATOM     20  C   UNL A   1      31.305  25.040  23.793  1.00  0.00     0.183 C 
ATOM     21  C   UNL A   1      30.637  23.721  23.374  1.00  0.00     0.075 C 
BRANCH  20  22
ATOM     22  C   UNL A   1      30.294  26.022  24.454  1.00  0.00     0.041 C 
ATOM     23  C   UNL A   1      30.601  26.196  25.947  1.00  0.00     0.013 C 
ATOM     24  C   UNL A   1      30.284  27.406  23.785  1.00  0.00     0.013 C 
ENDBRANCH  20  22
ENDBRANCH  17  20
ENDBRANCH  10  17
ENDBRANCH   4   6
ENDBRANCH   3   4
ENDBRANCH   2   3
ENDBRANCH   1   2
BRANCH   1  25
ATOM     25  O   UNL A   1      41.027  21.685  25.840  1.00  0.00    -0.374 OA
BRANCH  25  26
ATOM     26  C   UNL A   1      42.054  21.637  26.830  1.00  0.00     0.202 C 
BRANCH  26  27
ATOM     27  C   UNL A   1      43.378  22.306  26.467  1.00  0.00     0.261 C 
BRANCH  27  28
ATOM     28  O   UNL A   1      43.487  23.626  27.020  1.00  0.00    -0.460 OA
BRANCH  28  29
ATOM     29  C   UNL A   1      43.017  24.584  26.192  1.00  0.00     0.338 C 
ATOM     30  O   UNL A   1      43.044  24.590  24.968  1.00  0.00    -0.246 OA
BRANCH  29  31
ATOM     31  C   UNL A   1      42.296  25.607  26.956  1.00  0.00     0.060 A 
ATOM     32  C   UNL A   1      42.829  26.901  26.960  1.00  0.00     0.016 A 
ATOM     33  C   UNL A   1      41.227  25.263  27.785  1.00  0.00     0.016 A 
ATOM     34  C   UNL A   1      42.341  27.840  27.861  1.00  0.00     0.010 A 
ATOM     35  C   UNL A   1      40.737  26.210  28.688  1.00  0.00     0.010 A 
ATOM     36  C   UNL A   1      41.331  27.482  28.765  1.00  0.00    -0.014 A 
BRANCH  36  37
ATOM     37  C   UNL A   1      41.033  28.399  29.889  1.00  0.00     0.031 A 
ATOM     38  C   UNL A   1      41.931  28.390  31.095  1.00  0.00     0.074 A 
ATOM     39  C   UNL A   1      40.027  29.283  29.789  1.00  0.00     0.049 A 
ATOM     40  N   UNL A   1      41.925  29.179  32.139  1.00  0.00    -0.248 NA
ATOM     41  C   UNL A   1      42.978  27.356  31.128  1.00  0.00     0.031 C 
ATOM     42  C   UNL A   1      39.106  29.387  28.658  1.00  0.00     0.029 A 
ATOM     43  N   UNL A   1      39.623  30.273  30.647  1.00  0.00    -0.354 N 
ATOM     44  C   UNL A   1      42.969  28.743  32.946  1.00  0.00     0.074 A 
ATOM     45  C   UNL A   1      43.562  27.598  32.293  1.00  0.00     0.031 C 
ATOM     46  C   UNL A   1      38.249  30.397  28.887  1.00  0.00     0.029 A 
ATOM     47  C   UNL A   1      38.556  31.000  30.181  1.00  0.00     0.049 A 
ATOM     48  H   UNL A   1      40.057  30.446  31.514  1.00  0.00     0.167 HD
ATOM     49  C   UNL A   1      43.402  29.262  34.120  1.00  0.00     0.037 A 
ATOM     50  C   UNL A   1      37.908  32.040  30.739  1.00  0.00     0.037 A 
ATOM     51  C   UNL A   1      42.805  30.401  34.766  1.00  0.00     0.049 A 
ATOM     52  C   UNL A   1      38.393  32.583  32.055  1.00  0.00     0.074 A 
ATOM     53  C   UNL A   1      43.171  31.015  35.950  1.00  0.00     0.029 A 
ATOM     54  N   UNL A   1      41.708  31.094  34.275  1.00  0.00    -0.354 N 
ATOM     55  N   UNL A   1      39.405  32.187  32.789  1.00  0.00    -0.248 NA
ATOM     56  C   UNL A   1      37.653  33.723  32.612  1.00  0.00     0.031 C 
ATOM     57  C   UNL A   1      42.271  32.060  36.194  1.00  0.00     0.029 A 
ATOM     58  C   UNL A   1      41.371  32.119  35.143  1.00  0.00     0.049 A 
ATOM     59  H   UNL A   1      41.239  30.886  33.436  1.00  0.00     0.167 HD
ATOM     60  C   UNL A   1      39.437  33.040  33.885  1.00  0.00     0.074 A 
ATOM     61  C   UNL A   1      38.352  33.985  33.709  1.00  0.00     0.031 C 
ATOM     62  C   UNL A   1      40.285  33.043  34.942  1.00  0.00     0.037 A 
BRANCH  49  63
ATOM     63  C   UNL A   1      44.568  28.588  34.782  1.00  0.00     0.057 A 
ATOM     64  C   UNL A   1      45.888  28.987  34.532  1.00  0.00     0.134 A 
ATOM     65  C   UNL A   1      44.369  27.539  35.688  1.00  0.00     0.134 A 
ATOM     66  F   UNL A   1      46.148  29.975  33.663  1.00  0.00    -0.206 F 
ATOM     67  C   UNL A   1      46.971  28.349  35.144  1.00  0.00     0.040 A 
ATOM     68  C   UNL A   1      45.442  26.909  36.320  1.00  0.00     0.040 A 
ATOM     69  F   UNL A   1      43.130  27.110  35.972  1.00  0.00    -0.206 F 
ATOM     70  C   UNL A   1      46.747  27.310  36.045  1.00  0.00     0.006 A 
ENDBRANCH  49  63
BRANCH  50  71
ATOM     71  C   UNL A   1      36.748  32.646  30.040  1.00  0.00     0.057 A 
ATOM     72  C   UNL A   1      36.925  33.560  28.996  1.00  0.00     0.134 A 
ATOM     73  C   UNL A   1      35.435  32.319  30.398  1.00  0.00     0.134 A 
ATOM     74  F   UNL A   1      38.160  33.926  28.620  1.00  0.00    -0.206 F 
ATOM     75  C   UNL A   1      35.836  34.137  28.339  1.00  0.00     0.040 A 
ATOM     76  C   UNL A   1      34.338  32.871  29.736  1.00  0.00     0.040 A 
ATOM     77  F   UNL A   1      35.201  31.446  31.388  1.00  0.00    -0.206 F 
ATOM     78  C   UNL A   1      34.538  33.789  28.705  1.00  0.00     0.006 A 
ENDBRANCH  50  71
BRANCH  62  79
ATOM     79  C   UNL A   1      40.077  34.110  35.976  1.00  0.00     0.057 A 
ATOM     80  C   UNL A   1      39.328  33.873  37.136  1.00  0.00     0.134 A 
ATOM     81  C   UNL A   1      40.653  35.376  35.821  1.00  0.00     0.134 A 
ATOM     82  F   UNL A   1      38.741  32.683  37.335  1.00  0.00    -0.206 F 
ATOM     83  C   UNL A   1      39.142  34.868  38.095  1.00  0.00     0.040 A 
ATOM     84  C   UNL A   1      40.492  36.371  36.785  1.00  0.00     0.040 A 
ATOM     85  F   UNL A   1      41.388  35.662  34.735  1.00  0.00    -0.206 F 
ATOM     86  C   UNL A   1      39.729  36.120  37.924  1.00  0.00     0.006 A 
ENDBRANCH  62  79
ENDBRANCH  36  37
ENDBRANCH  29  31
ENDBRANCH  28  29
ENDBRANCH  27  28
ENDBRANCH  26  27
ENDBRANCH  25  26
ENDBRANCH   1  25
TORSDOF 19
ENDMDL
