MODEL 1
REMARK VINA RESULT:     -11.2      0.000      0.000
REMARK SMILES Cc1ccc(NC(=O)c2csc(Br)c2)c(C(=O)OCCOCCOC(=O)c2ccc(-c3c4nc(c(-c5c(F)cccc5F)c5ccc([nH]5)c(-c5c(F)cccc5F)c5nc(c(-c6c(F)cccc6F)c6ccc3[nH]6)C=C5)C=C4)cc2)c1
REMARK SMILES IDX 21 1 20 2 19 3 18 4 16 5 17 6 15 7 1 8 2 9 3 10 81 11 4 12
REMARK SMILES IDX 5 13 6 14 7 15 8 17 9 18 10 19 14 20 11 21 12 22 13 23 22 24
REMARK SMILES IDX 23 25 24 26 25 27 26 28 27 29 28 30 80 31 29 32 79 33 30 34
REMARK SMILES IDX 31 35 32 36 73 37 33 38 78 39 72 40 74 41 34 42 77 43 71 44
REMARK SMILES IDX 70 45 35 47 61 48 44 49 60 50 45 51 48 52 59 53 75 54 46 55
REMARK SMILES IDX 47 56 58 58 76 59 49 60 36 61 37 62 42 63 38 64 39 65 41 66
REMARK SMILES IDX 43 67 40 68 62 69 63 70 68 71 64 72 65 73 67 74 69 75 66 76
REMARK SMILES IDX 50 77 51 78 56 79 52 80 53 81 55 82 57 83 54 84
REMARK H PARENT 6 16 74 46 48 57
REMARK Flexibility Score: inf
ROOT
ATOM      1  O   UNL A   1      33.077  30.912  27.588  1.00  0.00    -0.374 OA
ENDROOT
BRANCH   1   2
ATOM      2  C   UNL A   1      33.607  30.057  26.590  1.00  0.00     0.202 C 
BRANCH   2   3
ATOM      3  C   UNL A   1      33.891  28.746  27.265  1.00  0.00     0.261 C 
BRANCH   3   4
ATOM      4  O   UNL A   1      33.139  27.671  26.676  1.00  0.00    -0.460 OA
BRANCH   4   5
ATOM      5  C   UNL A   1      31.796  27.551  26.905  1.00  0.00     0.340 C 
ATOM      6  O   UNL A   1      31.162  27.871  27.880  1.00  0.00    -0.246 OA
BRANCH   5   7
ATOM      7  C   UNL A   1      31.199  27.196  25.597  1.00  0.00     0.083 A 
ATOM      8  C   UNL A   1      30.665  29.153  22.399  1.00  0.00     0.044 C 
ATOM      9  C   UNL A   1      30.532  28.085  23.440  1.00  0.00    -0.050 A 
ATOM     10  C   UNL A   1      29.537  27.113  23.384  1.00  0.00     0.005 A 
ATOM     11  C   UNL A   1      31.393  28.086  24.527  1.00  0.00     0.021 A 
ATOM     12  C   UNL A   1      29.411  26.159  24.406  1.00  0.00     0.027 A 
ATOM     13  C   UNL A   1      30.272  26.145  25.509  1.00  0.00     0.056 A 
BRANCH  13  14
ATOM     14  N   UNL A   1      30.193  25.173  26.542  1.00  0.00    -0.321 N 
ATOM     15  C   UNL A   1      30.665  23.879  26.631  1.00  0.00     0.256 C 
ATOM     16  H   UNL A   1      29.712  25.480  27.345  1.00  0.00     0.170 HD
ATOM     17  O   UNL A   1      30.236  23.120  27.497  1.00  0.00    -0.269 OA
BRANCH  15  18
ATOM     18  C   UNL A   1      31.705  23.450  25.701  1.00  0.00     0.052 A 
ATOM     19  C   UNL A   1      31.424  22.823  24.499  1.00  0.00     0.080 A 
ATOM     20  C   UNL A   1      33.125  23.611  25.875  1.00  0.00     0.041 A 
ATOM     21  S   UNL A   1      32.821  22.651  23.517  1.00  0.00    -0.136 S 
ATOM     22  C   UNL A   1      33.805  23.316  24.723  1.00  0.00     0.071 A 
ATOM     23  Br  UNL A   1      35.628  23.676  24.488  1.00  0.00    -0.039 Br
ENDBRANCH  15  18
ENDBRANCH  13  14
ENDBRANCH   5   7
ENDBRANCH   4   5
ENDBRANCH   3   4
ENDBRANCH   2   3
ENDBRANCH   1   2
BRANCH   1  24
ATOM     24  C   UNL A   1      32.496  32.118  27.132  1.00  0.00     0.202 C 
BRANCH  24  25
ATOM     25  C   UNL A   1      33.151  33.363  27.746  1.00  0.00     0.261 C 
BRANCH  25  26
ATOM     26  O   UNL A   1      34.163  32.974  28.703  1.00  0.00    -0.460 OA
BRANCH  26  27
ATOM     27  C   UNL A   1      34.251  33.730  29.834  1.00  0.00     0.338 C 
ATOM     28  O   UNL A   1      33.408  34.522  30.220  1.00  0.00    -0.246 OA
BRANCH  27  29
ATOM     29  C   UNL A   1      35.643  33.674  30.374  1.00  0.00     0.060 A 
ATOM     30  C   UNL A   1      36.743  33.937  29.532  1.00  0.00     0.016 A 
ATOM     31  C   UNL A   1      35.841  33.020  31.584  1.00  0.00     0.016 A 
ATOM     32  C   UNL A   1      38.001  33.379  29.818  1.00  0.00     0.010 A 
ATOM     33  C   UNL A   1      37.034  32.364  31.782  1.00  0.00     0.010 A 
ATOM     34  C   UNL A   1      38.115  32.504  30.892  1.00  0.00    -0.014 A 
BRANCH  34  35
ATOM     35  C   UNL A   1      39.252  31.634  31.221  1.00  0.00     0.031 A 
ATOM     36  C   UNL A   1      39.375  30.389  30.424  1.00  0.00     0.074 A 
ATOM     37  C   UNL A   1      40.332  32.105  31.900  1.00  0.00     0.049 A 
ATOM     38  N   UNL A   1      40.353  29.564  30.529  1.00  0.00    -0.248 NA
ATOM     39  C   UNL A   1      38.384  29.948  29.436  1.00  0.00     0.031 C 
ATOM     40  C   UNL A   1      41.740  31.722  31.731  1.00  0.00     0.029 A 
ATOM     41  N   UNL A   1      40.407  33.063  32.921  1.00  0.00    -0.354 N 
ATOM     42  C   UNL A   1      40.330  28.751  29.424  1.00  0.00     0.074 A 
ATOM     43  C   UNL A   1      39.023  28.929  28.853  1.00  0.00     0.031 C 
ATOM     44  C   UNL A   1      42.471  32.190  32.758  1.00  0.00     0.029 A 
ATOM     45  C   UNL A   1      41.536  32.763  33.707  1.00  0.00     0.049 A 
ATOM     46  H   UNL A   1      39.784  33.810  33.062  1.00  0.00     0.167 HD
ATOM     47  C   UNL A   1      41.489  28.137  29.070  1.00  0.00     0.037 A 
ATOM     48  C   UNL A   1      41.400  32.449  35.024  1.00  0.00     0.037 A 
ATOM     49  C   UNL A   1      42.476  28.262  30.149  1.00  0.00     0.049 A 
ATOM     50  C   UNL A   1      41.846  31.030  35.223  1.00  0.00     0.074 A 
ATOM     51  C   UNL A   1      43.644  28.986  30.305  1.00  0.00     0.029 A 
ATOM     52  N   UNL A   1      42.123  27.806  31.421  1.00  0.00    -0.354 N 
ATOM     53  N   UNL A   1      41.864  30.162  34.247  1.00  0.00    -0.248 NA
ATOM     54  C   UNL A   1      42.415  30.502  36.456  1.00  0.00     0.031 C 
ATOM     55  C   UNL A   1      43.918  29.058  31.707  1.00  0.00     0.029 A 
ATOM     56  C   UNL A   1      42.949  28.337  32.392  1.00  0.00     0.049 A 
ATOM     57  H   UNL A   1      41.381  27.187  31.602  1.00  0.00     0.167 HD
ATOM     58  C   UNL A   1      42.500  29.033  34.653  1.00  0.00     0.074 A 
ATOM     59  C   UNL A   1      42.791  29.273  36.056  1.00  0.00     0.031 C 
ATOM     60  C   UNL A   1      42.756  27.998  33.803  1.00  0.00     0.037 A 
BRANCH  47  61
ATOM     61  C   UNL A   1      41.791  27.550  27.710  1.00  0.00     0.057 A 
ATOM     62  C   UNL A   1      41.912  26.154  27.559  1.00  0.00     0.134 A 
ATOM     63  C   UNL A   1      42.074  28.284  26.539  1.00  0.00     0.134 A 
ATOM     64  F   UNL A   1      41.706  25.323  28.590  1.00  0.00    -0.206 F 
ATOM     65  C   UNL A   1      42.265  25.545  26.345  1.00  0.00     0.040 A 
ATOM     66  C   UNL A   1      42.379  27.684  25.308  1.00  0.00     0.040 A 
ATOM     67  F   UNL A   1      42.129  29.620  26.524  1.00  0.00    -0.206 F 
ATOM     68  C   UNL A   1      42.485  26.307  25.208  1.00  0.00     0.006 A 
ENDBRANCH  47  61
BRANCH  48  69
ATOM     69  C   UNL A   1      40.253  33.191  35.630  1.00  0.00     0.057 A 
ATOM     70  C   UNL A   1      39.086  32.437  35.886  1.00  0.00     0.134 A 
ATOM     71  C   UNL A   1      40.470  34.307  36.450  1.00  0.00     0.134 A 
ATOM     72  F   UNL A   1      38.815  31.349  35.145  1.00  0.00    -0.206 F 
ATOM     73  C   UNL A   1      38.280  32.670  37.006  1.00  0.00     0.040 A 
ATOM     74  C   UNL A   1      39.666  34.546  37.575  1.00  0.00     0.040 A 
ATOM     75  F   UNL A   1      41.559  35.069  36.285  1.00  0.00    -0.206 F 
ATOM     76  C   UNL A   1      38.604  33.697  37.886  1.00  0.00     0.006 A 
ENDBRANCH  48  69
BRANCH  60  77
ATOM     77  C   UNL A   1      42.915  26.576  34.269  1.00  0.00     0.057 A 
ATOM     78  C   UNL A   1      44.153  25.918  34.335  1.00  0.00     0.134 A 
ATOM     79  C   UNL A   1      41.835  25.877  34.847  1.00  0.00     0.134 A 
ATOM     80  F   UNL A   1      45.296  26.514  33.967  1.00  0.00    -0.206 F 
ATOM     81  C   UNL A   1      44.292  24.624  34.843  1.00  0.00     0.040 A 
ATOM     82  C   UNL A   1      41.976  24.615  35.425  1.00  0.00     0.040 A 
ATOM     83  F   UNL A   1      40.602  26.400  34.914  1.00  0.00    -0.206 F 
ATOM     84  C   UNL A   1      43.202  23.971  35.400  1.00  0.00     0.006 A 
ENDBRANCH  60  77
ENDBRANCH  34  35
ENDBRANCH  27  29
ENDBRANCH  26  27
ENDBRANCH  25  26
ENDBRANCH  24  25
ENDBRANCH   1  24
TORSDOF 16
ENDMDL
MODEL 2
REMARK VINA RESULT:     -10.8      2.613      4.128
REMARK SMILES Cc1ccc(NC(=O)c2csc(Br)c2)c(C(=O)OCCOCCOC(=O)c2ccc(-c3c4nc(c(-c5c(F)cccc5F)c5ccc([nH]5)c(-c5c(F)cccc5F)c5nc(c(-c6c(F)cccc6F)c6ccc3[nH]6)C=C5)C=C4)cc2)c1
REMARK SMILES IDX 21 1 20 2 19 3 18 4 16 5 17 6 15 7 1 8 2 9 3 10 81 11 4 12
REMARK SMILES IDX 5 13 6 14 7 15 8 17 9 18 10 19 14 20 11 21 12 22 13 23 22 24
REMARK SMILES IDX 23 25 24 26 25 27 26 28 27 29 28 30 80 31 29 32 79 33 30 34
REMARK SMILES IDX 31 35 32 36 73 37 33 38 78 39 72 40 74 41 34 42 77 43 71 44
REMARK SMILES IDX 70 45 35 47 61 48 44 49 60 50 45 51 48 52 59 53 75 54 46 55
REMARK SMILES IDX 47 56 58 58 76 59 49 60 36 61 37 62 42 63 38 64 39 65 41 66
REMARK SMILES IDX 43 67 40 68 62 69 63 70 68 71 64 72 65 73 67 74 69 75 66 76
REMARK SMILES IDX 50 77 51 78 56 79 52 80 53 81 55 82 57 83 54 84
REMARK H PARENT 6 16 74 46 48 57
REMARK Flexibility Score: inf
ROOT
ATOM      1  O   UNL A   1      32.751  28.272  27.266  1.00  0.00    -0.374 OA
ENDROOT
BRANCH   1   2
ATOM      2  C   UNL A   1      32.270  27.424  26.238  1.00  0.00     0.202 C 
BRANCH   2   3
ATOM      3  C   UNL A   1      33.383  26.464  25.927  1.00  0.00     0.261 C 
BRANCH   3   4
ATOM      4  O   UNL A   1      32.884  25.236  25.370  1.00  0.00    -0.460 OA
BRANCH   4   5
ATOM      5  C   UNL A   1      33.079  24.046  26.015  1.00  0.00     0.340 C 
ATOM      6  O   UNL A   1      32.338  23.462  26.768  1.00  0.00    -0.246 OA
BRANCH   5   7
ATOM      7  C   UNL A   1      34.286  23.451  25.398  1.00  0.00     0.083 A 
ATOM      8  C   UNL A   1      37.986  23.805  26.127  1.00  0.00     0.044 C 
ATOM      9  C   UNL A   1      36.713  23.485  25.407  1.00  0.00    -0.050 A 
ATOM     10  C   UNL A   1      36.690  23.133  24.060  1.00  0.00     0.005 A 
ATOM     11  C   UNL A   1      35.506  23.591  26.083  1.00  0.00     0.021 A 
ATOM     12  C   UNL A   1      35.472  22.892  23.405  1.00  0.00     0.027 A 
ATOM     13  C   UNL A   1      34.245  22.992  24.072  1.00  0.00     0.056 A 
BRANCH  13  14
ATOM     14  N   UNL A   1      32.999  22.722  23.447  1.00  0.00    -0.321 N 
ATOM     15  C   UNL A   1      32.328  21.542  23.198  1.00  0.00     0.256 C 
ATOM     16  H   UNL A   1      32.524  23.527  23.134  1.00  0.00     0.170 HD
ATOM     17  O   UNL A   1      31.403  21.513  22.389  1.00  0.00    -0.269 OA
BRANCH  15  18
ATOM     18  C   UNL A   1      32.718  20.347  23.939  1.00  0.00     0.052 A 
ATOM     19  C   UNL A   1      32.578  20.236  25.311  1.00  0.00     0.080 A 
ATOM     20  C   UNL A   1      33.277  19.142  23.382  1.00  0.00     0.041 A 
ATOM     21  S   UNL A   1      32.895  18.644  25.868  1.00  0.00    -0.136 S 
ATOM     22  C   UNL A   1      33.310  18.133  24.309  1.00  0.00     0.071 A 
ATOM     23  Br  UNL A   1      33.710  16.356  23.875  1.00  0.00    -0.039 Br
ENDBRANCH  15  18
ENDBRANCH  13  14
ENDBRANCH   5   7
ENDBRANCH   4   5
ENDBRANCH   3   4
ENDBRANCH   2   3
ENDBRANCH   1   2
BRANCH   1  24
ATOM     24  C   UNL A   1      32.377  29.634  27.179  1.00  0.00     0.202 C 
BRANCH  24  25
ATOM     25  C   UNL A   1      33.563  30.557  26.870  1.00  0.00     0.261 C 
BRANCH  25  26
ATOM     26  O   UNL A   1      34.118  31.084  28.098  1.00  0.00    -0.460 OA
BRANCH  26  27
ATOM     27  C   UNL A   1      35.425  31.467  28.056  1.00  0.00     0.338 C 
ATOM     28  O   UNL A   1      35.836  32.533  27.627  1.00  0.00    -0.246 OA
BRANCH  27  29
ATOM     29  C   UNL A   1      36.306  30.292  28.331  1.00  0.00     0.060 A 
ATOM     30  C   UNL A   1      36.276  29.658  29.590  1.00  0.00     0.016 A 
ATOM     31  C   UNL A   1      37.383  30.078  27.477  1.00  0.00     0.016 A 
ATOM     32  C   UNL A   1      37.405  28.967  30.062  1.00  0.00     0.010 A 
ATOM     33  C   UNL A   1      38.529  29.524  27.999  1.00  0.00     0.010 A 
ATOM     34  C   UNL A   1      38.569  28.993  29.302  1.00  0.00    -0.014 A 
BRANCH  34  35
ATOM     35  C   UNL A   1      39.912  28.555  29.707  1.00  0.00     0.031 A 
ATOM     36  C   UNL A   1      40.333  27.215  29.232  1.00  0.00     0.074 A 
ATOM     37  C   UNL A   1      40.852  29.444  30.125  1.00  0.00     0.049 A 
ATOM     38  N   UNL A   1      41.501  26.718  29.428  1.00  0.00    -0.248 NA
ATOM     39  C   UNL A   1      39.458  26.293  28.499  1.00  0.00     0.031 C 
ATOM     40  C   UNL A   1      42.302  29.394  29.900  1.00  0.00     0.029 A 
ATOM     41  N   UNL A   1      40.707  30.626  30.864  1.00  0.00    -0.354 N 
ATOM     42  C   UNL A   1      41.652  25.662  28.565  1.00  0.00     0.074 A 
ATOM     43  C   UNL A   1      40.323  25.349  28.117  1.00  0.00     0.031 C 
ATOM     44  C   UNL A   1      42.922  30.286  30.693  1.00  0.00     0.029 A 
ATOM     45  C   UNL A   1      41.908  30.839  31.570  1.00  0.00     0.049 A 
ATOM     46  H   UNL A   1      39.912  31.204  30.886  1.00  0.00     0.167 HD
ATOM     47  C   UNL A   1      42.918  25.285  28.247  1.00  0.00     0.037 A 
ATOM     48  C   UNL A   1      41.916  30.863  32.930  1.00  0.00     0.037 A 
ATOM     49  C   UNL A   1      43.879  25.936  29.146  1.00  0.00     0.049 A 
ATOM     50  C   UNL A   1      42.737  29.707  33.421  1.00  0.00     0.074 A 
ATOM     51  C   UNL A   1      44.814  26.943  28.990  1.00  0.00     0.029 A 
ATOM     52  N   UNL A   1      43.716  25.762  30.522  1.00  0.00    -0.354 N 
ATOM     53  N   UNL A   1      42.948  28.643  32.693  1.00  0.00    -0.248 NA
ATOM     54  C   UNL A   1      43.478  29.685  34.676  1.00  0.00     0.031 C 
ATOM     55  C   UNL A   1      45.115  27.452  30.291  1.00  0.00     0.029 A 
ATOM     56  C   UNL A   1      44.408  26.721  31.236  1.00  0.00     0.049 A 
ATOM     57  H   UNL A   1      43.176  25.048  30.931  1.00  0.00     0.167 HD
ATOM     58  C   UNL A   1      43.882  27.859  33.291  1.00  0.00     0.074 A 
ATOM     59  C   UNL A   1      44.156  28.529  34.551  1.00  0.00     0.031 C 
ATOM     60  C   UNL A   1      44.372  26.733  32.699  1.00  0.00     0.037 A 
BRANCH  47  61
ATOM     61  C   UNL A   1      43.310  24.452  27.049  1.00  0.00     0.057 A 
ATOM     62  C   UNL A   1      44.150  23.333  27.216  1.00  0.00     0.134 A 
ATOM     63  C   UNL A   1      42.993  24.739  25.704  1.00  0.00     0.134 A 
ATOM     64  F   UNL A   1      44.567  22.952  28.431  1.00  0.00    -0.206 F 
ATOM     65  C   UNL A   1      44.616  22.559  26.141  1.00  0.00     0.040 A 
ATOM     66  C   UNL A   1      43.412  23.945  24.626  1.00  0.00     0.040 A 
ATOM     67  F   UNL A   1      42.310  25.832  25.345  1.00  0.00    -0.206 F 
ATOM     68  C   UNL A   1      44.235  22.853  24.841  1.00  0.00     0.006 A 
ENDBRANCH  47  61
BRANCH  48  69
ATOM     69  C   UNL A   1      40.638  31.429  33.459  1.00  0.00     0.057 A 
ATOM     70  C   UNL A   1      40.467  32.824  33.320  1.00  0.00     0.134 A 
ATOM     71  C   UNL A   1      39.470  30.655  33.497  1.00  0.00     0.134 A 
ATOM     72  F   UNL A   1      41.541  33.630  33.269  1.00  0.00    -0.206 F 
ATOM     73  C   UNL A   1      39.219  33.398  33.050  1.00  0.00     0.040 A 
ATOM     74  C   UNL A   1      38.215  31.224  33.227  1.00  0.00     0.040 A 
ATOM     75  F   UNL A   1      39.542  29.323  33.613  1.00  0.00    -0.206 F 
ATOM     76  C   UNL A   1      38.095  32.586  32.949  1.00  0.00     0.006 A 
ENDBRANCH  48  69
BRANCH  60  77
ATOM     77  C   UNL A   1      44.928  25.574  33.479  1.00  0.00     0.057 A 
ATOM     78  C   UNL A   1      46.297  25.266  33.536  1.00  0.00     0.134 A 
ATOM     79  C   UNL A   1      44.111  24.831  34.358  1.00  0.00     0.134 A 
ATOM     80  F   UNL A   1      47.216  25.985  32.878  1.00  0.00    -0.206 F 
ATOM     81  C   UNL A   1      46.803  24.232  34.328  1.00  0.00     0.040 A 
ATOM     82  C   UNL A   1      44.617  23.847  35.208  1.00  0.00     0.040 A 
ATOM     83  F   UNL A   1      42.792  25.051  34.461  1.00  0.00    -0.206 F 
ATOM     84  C   UNL A   1      45.963  23.525  35.175  1.00  0.00     0.006 A 
ENDBRANCH  60  77
ENDBRANCH  34  35
ENDBRANCH  27  29
ENDBRANCH  26  27
ENDBRANCH  25  26
ENDBRANCH  24  25
ENDBRANCH   1  24
TORSDOF 16
ENDMDL
MODEL 3
REMARK VINA RESULT:     -10.7      1.915      3.087
REMARK SMILES Cc1ccc(NC(=O)c2csc(Br)c2)c(C(=O)OCCOCCOC(=O)c2ccc(-c3c4nc(c(-c5c(F)cccc5F)c5ccc([nH]5)c(-c5c(F)cccc5F)c5nc(c(-c6c(F)cccc6F)c6ccc3[nH]6)C=C5)C=C4)cc2)c1
REMARK SMILES IDX 21 1 20 2 19 3 18 4 16 5 17 6 15 7 1 8 2 9 3 10 81 11 4 12
REMARK SMILES IDX 5 13 6 14 7 15 8 17 9 18 10 19 14 20 11 21 12 22 13 23 22 24
REMARK SMILES IDX 23 25 24 26 25 27 26 28 27 29 28 30 80 31 29 32 79 33 30 34
REMARK SMILES IDX 31 35 32 36 73 37 33 38 78 39 72 40 74 41 34 42 77 43 71 44
REMARK SMILES IDX 70 45 35 47 61 48 44 49 60 50 45 51 48 52 59 53 75 54 46 55
REMARK SMILES IDX 47 56 58 58 76 59 49 60 36 61 37 62 42 63 38 64 39 65 41 66
REMARK SMILES IDX 43 67 40 68 62 69 63 70 68 71 64 72 65 73 67 74 69 75 66 76
REMARK SMILES IDX 50 77 51 78 56 79 52 80 53 81 55 82 57 83 54 84
REMARK H PARENT 6 16 74 46 48 57
REMARK Flexibility Score: inf
ROOT
ATOM      1  O   UNL A   1      32.536  28.585  27.293  1.00  0.00    -0.374 OA
ENDROOT
BRANCH   1   2
ATOM      2  C   UNL A   1      32.170  27.459  26.515  1.00  0.00     0.202 C 
BRANCH   2   3
ATOM      3  C   UNL A   1      33.453  26.832  26.051  1.00  0.00     0.261 C 
BRANCH   3   4
ATOM      4  O   UNL A   1      33.217  25.611  25.327  1.00  0.00    -0.460 OA
BRANCH   4   5
ATOM      5  C   UNL A   1      33.268  24.402  25.962  1.00  0.00     0.340 C 
ATOM      6  O   UNL A   1      32.445  23.886  26.678  1.00  0.00    -0.246 OA
BRANCH   5   7
ATOM      7  C   UNL A   1      34.432  23.695  25.380  1.00  0.00     0.083 A 
ATOM      8  C   UNL A   1      38.147  23.840  26.101  1.00  0.00     0.044 C 
ATOM      9  C   UNL A   1      36.856  23.569  25.395  1.00  0.00    -0.050 A 
ATOM     10  C   UNL A   1      36.809  23.148  24.069  1.00  0.00     0.005 A 
ATOM     11  C   UNL A   1      35.660  23.790  26.061  1.00  0.00     0.021 A 
ATOM     12  C   UNL A   1      35.578  22.954  23.424  1.00  0.00     0.027 A 
ATOM     13  C   UNL A   1      34.360  23.171  24.080  1.00  0.00     0.056 A 
BRANCH  13  14
ATOM     14  N   UNL A   1      33.099  22.951  23.467  1.00  0.00    -0.321 N 
ATOM     15  C   UNL A   1      32.383  21.798  23.215  1.00  0.00     0.256 C 
ATOM     16  H   UNL A   1      32.650  23.775  23.166  1.00  0.00     0.170 HD
ATOM     17  O   UNL A   1      31.449  21.810  22.416  1.00  0.00    -0.269 OA
BRANCH  15  18
ATOM     18  C   UNL A   1      32.737  20.583  23.941  1.00  0.00     0.052 A 
ATOM     19  C   UNL A   1      32.504  20.424  25.297  1.00  0.00     0.080 A 
ATOM     20  C   UNL A   1      33.350  19.405  23.385  1.00  0.00     0.041 A 
ATOM     21  S   UNL A   1      32.804  18.819  25.821  1.00  0.00    -0.136 S 
ATOM     22  C   UNL A   1      33.333  18.365  24.278  1.00  0.00     0.071 A 
ATOM     23  Br  UNL A   1      33.786  16.609  23.815  1.00  0.00    -0.039 Br
ENDBRANCH  15  18
ENDBRANCH  13  14
ENDBRANCH   5   7
ENDBRANCH   4   5
ENDBRANCH   3   4
ENDBRANCH   2   3
ENDBRANCH   1   2
BRANCH   1  24
ATOM     24  C   UNL A   1      33.377  29.532  26.664  1.00  0.00     0.202 C 
BRANCH  24  25
ATOM     25  C   UNL A   1      33.170  30.957  27.197  1.00  0.00     0.261 C 
BRANCH  25  26
ATOM     26  O   UNL A   1      34.440  31.535  27.580  1.00  0.00    -0.460 OA
BRANCH  26  27
ATOM     27  C   UNL A   1      34.391  32.581  28.452  1.00  0.00     0.338 C 
ATOM     28  O   UNL A   1      33.563  33.477  28.434  1.00  0.00    -0.246 OA
BRANCH  27  29
ATOM     29  C   UNL A   1      35.656  32.641  29.244  1.00  0.00     0.060 A 
ATOM     30  C   UNL A   1      36.844  33.116  28.651  1.00  0.00     0.016 A 
ATOM     31  C   UNL A   1      35.720  31.899  30.417  1.00  0.00     0.016 A 
ATOM     32  C   UNL A   1      38.094  32.689  29.131  1.00  0.00     0.010 A 
ATOM     33  C   UNL A   1      36.937  31.376  30.792  1.00  0.00     0.010 A 
ATOM     34  C   UNL A   1      38.131  31.733  30.139  1.00  0.00    -0.014 A 
BRANCH  34  35
ATOM     35  C   UNL A   1      39.298  30.978  30.614  1.00  0.00     0.031 A 
ATOM     36  C   UNL A   1      39.578  29.698  29.918  1.00  0.00     0.074 A 
ATOM     37  C   UNL A   1      40.281  31.575  31.340  1.00  0.00     0.049 A 
ATOM     38  N   UNL A   1      40.601  28.961  30.155  1.00  0.00    -0.248 NA
ATOM     39  C   UNL A   1      38.706  29.117  28.890  1.00  0.00     0.031 C 
ATOM     40  C   UNL A   1      41.722  31.294  31.306  1.00  0.00     0.029 A 
ATOM     41  N   UNL A   1      40.201  32.598  32.293  1.00  0.00    -0.354 N 
ATOM     42  C   UNL A   1      40.729  28.080  29.111  1.00  0.00     0.074 A 
ATOM     43  C   UNL A   1      39.464  28.117  28.430  1.00  0.00     0.031 C 
ATOM     44  C   UNL A   1      42.330  31.883  32.351  1.00  0.00     0.029 A 
ATOM     45  C   UNL A   1      41.281  32.439  33.183  1.00  0.00     0.049 A 
ATOM     46  H   UNL A   1      39.515  33.302  32.334  1.00  0.00     0.167 HD
ATOM     47  C   UNL A   1      41.956  27.538  28.891  1.00  0.00     0.037 A 
ATOM     48  C   UNL A   1      41.061  32.201  34.504  1.00  0.00     0.037 A 
ATOM     49  C   UNL A   1      42.839  27.809  30.031  1.00  0.00     0.049 A 
ATOM     50  C   UNL A   1      41.592  30.837  34.836  1.00  0.00     0.074 A 
ATOM     51  C   UNL A   1      43.933  28.631  30.226  1.00  0.00     0.029 A 
ATOM     52  N   UNL A   1      42.417  27.409  31.301  1.00  0.00    -0.354 N 
ATOM     53  N   UNL A   1      41.754  29.912  33.927  1.00  0.00    -0.248 NA
ATOM     54  C   UNL A   1      42.095  30.435  36.143  1.00  0.00     0.031 C 
ATOM     55  C   UNL A   1      44.085  28.815  31.636  1.00  0.00     0.029 A 
ATOM     56  C   UNL A   1      43.120  28.064  32.294  1.00  0.00     0.049 A 
ATOM     57  H   UNL A   1      41.710  26.746  31.467  1.00  0.00     0.167 HD
ATOM     58  C   UNL A   1      42.436  28.865  34.459  1.00  0.00     0.074 A 
ATOM     59  C   UNL A   1      42.593  29.216  35.860  1.00  0.00     0.031 C 
ATOM     60  C   UNL A   1      42.836  27.801  33.706  1.00  0.00     0.037 A 
BRANCH  47  61
ATOM     61  C   UNL A   1      42.410  26.891  27.603  1.00  0.00     0.057 A 
ATOM     62  C   UNL A   1      42.786  25.533  27.593  1.00  0.00     0.134 A 
ATOM     63  C   UNL A   1      42.601  27.551  26.370  1.00  0.00     0.134 A 
ATOM     64  F   UNL A   1      42.693  24.778  28.697  1.00  0.00    -0.206 F 
ATOM     65  C   UNL A   1      43.290  24.887  26.453  1.00  0.00     0.040 A 
ATOM     66  C   UNL A   1      43.057  26.904  25.212  1.00  0.00     0.040 A 
ATOM     67  F   UNL A   1      42.417  28.868  26.225  1.00  0.00    -0.206 F 
ATOM     68  C   UNL A   1      43.412  25.567  25.252  1.00  0.00     0.006 A 
ENDBRANCH  47  61
BRANCH  48  69
ATOM     69  C   UNL A   1      39.816  32.887  34.968  1.00  0.00     0.057 A 
ATOM     70  C   UNL A   1      38.710  32.054  35.246  1.00  0.00     0.134 A 
ATOM     71  C   UNL A   1      39.881  34.098  35.669  1.00  0.00     0.134 A 
ATOM     72  F   UNL A   1      38.584  30.873  34.616  1.00  0.00    -0.206 F 
ATOM     73  C   UNL A   1      37.820  32.323  36.292  1.00  0.00     0.040 A 
ATOM     74  C   UNL A   1      38.992  34.374  36.720  1.00  0.00     0.040 A 
ATOM     75  F   UNL A   1      40.904  34.941  35.476  1.00  0.00    -0.206 F 
ATOM     76  C   UNL A   1      37.995  33.463  37.069  1.00  0.00     0.006 A 
ENDBRANCH  48  69
BRANCH  60  77
ATOM     77  C   UNL A   1      43.061  26.430  34.280  1.00  0.00     0.057 A 
ATOM     78  C   UNL A   1      42.047  25.668  34.882  1.00  0.00     0.134 A 
ATOM     79  C   UNL A   1      44.280  25.748  34.078  1.00  0.00     0.134 A 
ATOM     80  F   UNL A   1      40.792  26.123  35.003  1.00  0.00    -0.206 F 
ATOM     81  C   UNL A   1      42.255  24.365  35.340  1.00  0.00     0.040 A 
ATOM     82  C   UNL A   1      44.476  24.422  34.464  1.00  0.00     0.040 A 
ATOM     83  F   UNL A   1      45.323  26.323  33.462  1.00  0.00    -0.206 F 
ATOM     84  C   UNL A   1      43.471  23.733  35.122  1.00  0.00     0.006 A 
ENDBRANCH  60  77
ENDBRANCH  34  35
ENDBRANCH  27  29
ENDBRANCH  26  27
ENDBRANCH  25  26
ENDBRANCH  24  25
ENDBRANCH   1  24
TORSDOF 16
ENDMDL
