MODEL 1
REMARK VINA RESULT:     -12.1      0.000      0.000
REMARK SMILES O=C(OCCOCCOC(=O)[C@H]1C[C@](O)(c2ccc(F)cc2)[C@@H](c2ccc(F)cc2)O1)c1ccc(-c2c3nc(c(-c4c(F)cccc4F)c4ccc([nH]4)c(-c4c(F)cccc4F)c4nc(c(-c5c(F)cccc5F)c5ccc2[nH]5)C=C4)C=C3)cc1
REMARK SMILES IDX 5 1 4 2 3 3 2 4 1 5 32 6 33 7 85 8 34 9 84 10 35 11 36 12
REMARK SMILES IDX 37 13 78 14 38 15 83 16 77 17 79 18 39 19 82 20 76 21 75 22
REMARK SMILES IDX 40 24 66 25 49 26 65 27 50 28 53 29 64 30 80 31 51 32 52 33
REMARK SMILES IDX 63 35 81 36 54 37 41 38 42 39 47 40 43 41 44 42 46 43 48 44
REMARK SMILES IDX 45 45 67 46 68 47 73 48 69 49 70 50 72 51 74 52 71 53 55 54
REMARK SMILES IDX 56 55 61 56 57 57 58 58 60 59 62 60 59 61 6 62 7 63 8 64
REMARK SMILES IDX 9 65 10 66 11 67 12 68 13 69 31 70 14 71 23 72 16 73 17 74
REMARK SMILES IDX 22 75 18 76 21 77 19 78 20 79 15 80 24 82 25 83 30 84 26 85
REMARK SMILES IDX 29 86 27 87 28 88
REMARK H PARENT 79 23 53 34 15 81
REMARK Flexibility Score: inf
ROOT
ATOM      1  C   UNL A   1      31.933  31.320  26.511  1.00  0.00     0.202 C 
ENDROOT
BRANCH   1   2
ATOM      2  C   UNL A   1      31.450  32.579  27.264  1.00  0.00     0.261 C 
BRANCH   2   3
ATOM      3  O   UNL A   1      32.425  33.639  27.285  1.00  0.00    -0.460 OA
BRANCH   3   4
ATOM      4  C   UNL A   1      33.017  34.163  28.391  1.00  0.00     0.338 C 
ATOM      5  O   UNL A   1      32.541  35.178  28.894  1.00  0.00    -0.246 OA
BRANCH   4   6
ATOM      6  C   UNL A   1      34.296  33.619  28.953  1.00  0.00     0.060 A 
ATOM      7  C   UNL A   1      34.369  32.475  29.742  1.00  0.00     0.016 A 
ATOM      8  C   UNL A   1      35.510  34.238  28.599  1.00  0.00     0.016 A 
ATOM      9  C   UNL A   1      35.566  31.953  30.177  1.00  0.00     0.010 A 
ATOM     10  C   UNL A   1      36.741  33.711  29.023  1.00  0.00     0.010 A 
ATOM     11  C   UNL A   1      36.760  32.561  29.813  1.00  0.00    -0.014 A 
BRANCH  11  12
ATOM     12  C   UNL A   1      37.964  31.951  30.394  1.00  0.00     0.031 A 
ATOM     13  C   UNL A   1      38.231  32.177  31.847  1.00  0.00     0.074 A 
ATOM     14  C   UNL A   1      38.581  30.976  29.701  1.00  0.00     0.049 A 
ATOM     15  N   UNL A   1      39.120  31.616  32.618  1.00  0.00    -0.248 NA
ATOM     16  C   UNL A   1      37.339  33.125  32.540  1.00  0.00     0.031 C 
ATOM     17  C   UNL A   1      38.218  30.557  28.343  1.00  0.00     0.029 A 
ATOM     18  N   UNL A   1      39.570  30.104  30.066  1.00  0.00    -0.354 N 
ATOM     19  C   UNL A   1      38.895  32.137  33.884  1.00  0.00     0.074 A 
ATOM     20  C   UNL A   1      37.784  33.056  33.785  1.00  0.00     0.031 C 
ATOM     21  C   UNL A   1      38.943  29.477  28.010  1.00  0.00     0.029 A 
ATOM     22  C   UNL A   1      39.859  29.169  29.101  1.00  0.00     0.049 A 
ATOM     23  H   UNL A   1      40.030  30.144  30.936  1.00  0.00     0.167 HD
ATOM     24  C   UNL A   1      39.571  31.870  35.022  1.00  0.00     0.037 A 
ATOM     25  C   UNL A   1      40.780  28.186  29.106  1.00  0.00     0.037 A 
ATOM     26  C   UNL A   1      40.694  30.977  35.078  1.00  0.00     0.049 A 
ATOM     27  C   UNL A   1      41.633  28.034  30.334  1.00  0.00     0.074 A 
ATOM     28  C   UNL A   1      41.567  30.746  36.122  1.00  0.00     0.029 A 
ATOM     29  N   UNL A   1      41.091  30.163  34.026  1.00  0.00    -0.354 N 
ATOM     30  N   UNL A   1      41.517  28.634  31.496  1.00  0.00    -0.248 NA
ATOM     31  C   UNL A   1      42.766  27.105  30.246  1.00  0.00     0.031 C 
ATOM     32  C   UNL A   1      42.518  29.815  35.688  1.00  0.00     0.029 A 
ATOM     33  C   UNL A   1      42.211  29.438  34.389  1.00  0.00     0.049 A 
ATOM     34  H   UNL A   1      40.643  30.109  33.151  1.00  0.00     0.167 HD
ATOM     35  C   UNL A   1      42.556  28.156  32.278  1.00  0.00     0.074 A 
ATOM     36  C   UNL A   1      43.280  27.196  31.466  1.00  0.00     0.031 C 
ATOM     37  C   UNL A   1      42.895  28.488  33.548  1.00  0.00     0.037 A 
BRANCH  24  38
ATOM     38  C   UNL A   1      39.164  32.623  36.249  1.00  0.00     0.057 A 
ATOM     39  C   UNL A   1      38.272  32.052  37.165  1.00  0.00     0.134 A 
ATOM     40  C   UNL A   1      39.671  33.894  36.543  1.00  0.00     0.134 A 
ATOM     41  F   UNL A   1      37.765  30.830  36.948  1.00  0.00    -0.206 F 
ATOM     42  C   UNL A   1      37.891  32.723  38.328  1.00  0.00     0.040 A 
ATOM     43  C   UNL A   1      39.309  34.570  37.710  1.00  0.00     0.040 A 
ATOM     44  F   UNL A   1      40.557  34.479  35.722  1.00  0.00    -0.206 F 
ATOM     45  C   UNL A   1      38.413  33.985  38.604  1.00  0.00     0.006 A 
ENDBRANCH  24  38
BRANCH  25  46
ATOM     46  C   UNL A   1      40.976  27.326  27.909  1.00  0.00     0.057 A 
ATOM     47  C   UNL A   1      40.308  26.100  27.778  1.00  0.00     0.134 A 
ATOM     48  C   UNL A   1      41.820  27.708  26.860  1.00  0.00     0.134 A 
ATOM     49  F   UNL A   1      39.478  25.675  28.741  1.00  0.00    -0.206 F 
ATOM     50  C   UNL A   1      40.490  25.277  26.665  1.00  0.00     0.040 A 
ATOM     51  C   UNL A   1      41.990  26.907  25.728  1.00  0.00     0.040 A 
ATOM     52  F   UNL A   1      42.470  28.880  26.910  1.00  0.00    -0.206 F 
ATOM     53  C   UNL A   1      41.330  25.684  25.632  1.00  0.00     0.006 A 
ENDBRANCH  25  46
BRANCH  37  54
ATOM     54  C   UNL A   1      44.091  27.807  34.133  1.00  0.00     0.057 A 
ATOM     55  C   UNL A   1      43.956  26.592  34.815  1.00  0.00     0.134 A 
ATOM     56  C   UNL A   1      45.356  28.403  34.100  1.00  0.00     0.134 A 
ATOM     57  F   UNL A   1      42.763  25.980  34.887  1.00  0.00    -0.206 F 
ATOM     58  C   UNL A   1      45.039  25.999  35.459  1.00  0.00     0.040 A 
ATOM     59  C   UNL A   1      46.452  27.810  34.723  1.00  0.00     0.040 A 
ATOM     60  F   UNL A   1      45.545  29.564  33.453  1.00  0.00    -0.206 F 
ATOM     61  C   UNL A   1      46.292  26.609  35.414  1.00  0.00     0.006 A 
ENDBRANCH  37  54
ENDBRANCH  11  12
ENDBRANCH   4   6
ENDBRANCH   3   4
ENDBRANCH   2   3
ENDBRANCH   1   2
BRANCH   1  62
ATOM     62  O   UNL A   1      32.663  30.332  27.242  1.00  0.00    -0.374 OA
BRANCH  62  63
ATOM     63  C   UNL A   1      34.085  30.316  27.104  1.00  0.00     0.202 C 
BRANCH  63  64
ATOM     64  C   UNL A   1      34.614  28.893  26.899  1.00  0.00     0.261 C 
BRANCH  64  65
ATOM     65  O   UNL A   1      34.171  28.410  25.619  1.00  0.00    -0.461 OA
BRANCH  65  66
ATOM     66  C   UNL A   1      33.360  27.323  25.620  1.00  0.00     0.335 C 
ATOM     67  O   UNL A   1      33.645  26.223  26.091  1.00  0.00    -0.249 OA
BRANCH  66  68
ATOM     68  C   UNL A   1      31.948  27.711  25.170  1.00  0.00     0.232 C 
ATOM     69  C   UNL A   1      32.035  28.254  23.746  1.00  0.00     0.087 C 
ATOM     70  O   UNL A   1      30.993  26.643  25.167  1.00  0.00    -0.355 OA
ATOM     71  C   UNL A   1      30.779  27.759  23.061  1.00  0.00     0.123 C 
ATOM     72  C   UNL A   1      30.550  26.411  23.804  1.00  0.00     0.186 C 
BRANCH  71  73
ATOM     73  C   UNL A   1      29.681  28.820  23.205  1.00  0.00    -0.013 A 
ATOM     74  C   UNL A   1      30.039  30.136  23.578  1.00  0.00     0.010 A 
ATOM     75  C   UNL A   1      28.318  28.547  23.000  1.00  0.00     0.010 A 
ATOM     76  C   UNL A   1      29.086  31.148  23.684  1.00  0.00     0.039 A 
ATOM     77  C   UNL A   1      27.362  29.563  23.105  1.00  0.00     0.039 A 
ATOM     78  C   UNL A   1      27.755  30.853  23.435  1.00  0.00     0.123 A 
ATOM     79  F   UNL A   1      26.838  31.826  23.513  1.00  0.00    -0.207 F 
ENDBRANCH  71  73
BRANCH  71  80
ATOM     80  O   UNL A   1      30.948  27.575  21.655  1.00  0.00    -0.382 OA
ATOM     81  H   UNL A   1      31.166  28.424  21.241  1.00  0.00     0.212 HD
ENDBRANCH  71  80
BRANCH  72  82
ATOM     82  C   UNL A   1      31.229  25.116  23.360  1.00  0.00    -0.016 A 
ATOM     83  C   UNL A   1      32.384  25.039  22.566  1.00  0.00     0.009 A 
ATOM     84  C   UNL A   1      30.666  23.904  23.813  1.00  0.00     0.009 A 
ATOM     85  C   UNL A   1      32.953  23.805  22.233  1.00  0.00     0.039 A 
ATOM     86  C   UNL A   1      31.227  22.671  23.476  1.00  0.00     0.039 A 
ATOM     87  C   UNL A   1      32.367  22.633  22.688  1.00  0.00     0.123 A 
ATOM     88  F   UNL A   1      32.912  21.453  22.366  1.00  0.00    -0.207 F 
ENDBRANCH  72  82
ENDBRANCH  66  68
ENDBRANCH  65  66
ENDBRANCH  64  65
ENDBRANCH  63  64
ENDBRANCH  62  63
ENDBRANCH   1  62
TORSDOF 17
ENDMDL
MODEL 2
REMARK VINA RESULT:     -12.1      4.955     10.310
REMARK SMILES O=C(OCCOCCOC(=O)[C@H]1C[C@](O)(c2ccc(F)cc2)[C@@H](c2ccc(F)cc2)O1)c1ccc(-c2c3nc(c(-c4c(F)cccc4F)c4ccc([nH]4)c(-c4c(F)cccc4F)c4nc(c(-c5c(F)cccc5F)c5ccc2[nH]5)C=C4)C=C3)cc1
REMARK SMILES IDX 5 1 4 2 3 3 2 4 1 5 32 6 33 7 85 8 34 9 84 10 35 11 36 12
REMARK SMILES IDX 37 13 78 14 38 15 83 16 77 17 79 18 39 19 82 20 76 21 75 22
REMARK SMILES IDX 40 24 66 25 49 26 65 27 50 28 53 29 64 30 80 31 51 32 52 33
REMARK SMILES IDX 63 35 81 36 54 37 41 38 42 39 47 40 43 41 44 42 46 43 48 44
REMARK SMILES IDX 45 45 67 46 68 47 73 48 69 49 70 50 72 51 74 52 71 53 55 54
REMARK SMILES IDX 56 55 61 56 57 57 58 58 60 59 62 60 59 61 6 62 7 63 8 64
REMARK SMILES IDX 9 65 10 66 11 67 12 68 13 69 31 70 14 71 23 72 16 73 17 74
REMARK SMILES IDX 22 75 18 76 21 77 19 78 20 79 15 80 24 82 25 83 30 84 26 85
REMARK SMILES IDX 29 86 27 87 28 88
REMARK H PARENT 79 23 53 34 15 81
REMARK Flexibility Score: inf
ROOT
ATOM      1  C   UNL A   1      38.183  19.890  24.999  1.00  0.00     0.202 C 
ENDROOT
BRANCH   1   2
ATOM      2  C   UNL A   1      39.247  19.574  26.073  1.00  0.00     0.261 C 
BRANCH   2   3
ATOM      3  O   UNL A   1      40.410  18.911  25.544  1.00  0.00    -0.460 OA
BRANCH   3   4
ATOM      4  C   UNL A   1      41.705  19.204  25.838  1.00  0.00     0.338 C 
ATOM      5  O   UNL A   1      42.550  18.317  25.746  1.00  0.00    -0.246 OA
BRANCH   4   6
ATOM      6  C   UNL A   1      42.125  20.537  26.382  1.00  0.00     0.060 A 
ATOM      7  C   UNL A   1      42.322  21.666  25.593  1.00  0.00     0.016 A 
ATOM      8  C   UNL A   1      42.243  20.694  27.776  1.00  0.00     0.016 A 
ATOM      9  C   UNL A   1      42.628  22.897  26.128  1.00  0.00     0.010 A 
ATOM     10  C   UNL A   1      42.541  21.946  28.339  1.00  0.00     0.010 A 
ATOM     11  C   UNL A   1      42.730  23.048  27.505  1.00  0.00    -0.014 A 
BRANCH  11  12
ATOM     12  C   UNL A   1      43.127  24.390  27.949  1.00  0.00     0.031 A 
ATOM     13  C   UNL A   1      44.541  24.815  27.717  1.00  0.00     0.074 A 
ATOM     14  C   UNL A   1      42.157  25.278  28.239  1.00  0.00     0.049 A 
ATOM     15  N   UNL A   1      45.083  25.992  27.863  1.00  0.00    -0.248 NA
ATOM     16  C   UNL A   1      45.460  23.785  27.197  1.00  0.00     0.031 C 
ATOM     17  C   UNL A   1      40.723  24.969  28.268  1.00  0.00     0.029 A 
ATOM     18  N   UNL A   1      42.213  26.624  28.471  1.00  0.00    -0.354 N 
ATOM     19  C   UNL A   1      46.400  25.847  27.452  1.00  0.00     0.074 A 
ATOM     20  C   UNL A   1      46.580  24.473  27.045  1.00  0.00     0.031 C 
ATOM     21  C   UNL A   1      40.035  26.107  28.455  1.00  0.00     0.029 A 
ATOM     22  C   UNL A   1      40.978  27.207  28.622  1.00  0.00     0.049 A 
ATOM     23  H   UNL A   1      43.058  27.127  28.524  1.00  0.00     0.167 HD
ATOM     24  C   UNL A   1      47.369  26.789  27.430  1.00  0.00     0.037 A 
ATOM     25  C   UNL A   1      40.658  28.488  28.883  1.00  0.00     0.037 A 
ATOM     26  C   UNL A   1      47.163  28.138  27.874  1.00  0.00     0.049 A 
ATOM     27  C   UNL A   1      41.783  29.475  29.023  1.00  0.00     0.074 A 
ATOM     28  C   UNL A   1      48.094  29.141  28.061  1.00  0.00     0.029 A 
ATOM     29  N   UNL A   1      45.922  28.667  28.202  1.00  0.00    -0.354 N 
ATOM     30  N   UNL A   1      43.061  29.305  28.774  1.00  0.00    -0.248 NA
ATOM     31  C   UNL A   1      41.437  30.814  29.513  1.00  0.00     0.031 C 
ATOM     32  C   UNL A   1      47.418  30.270  28.538  1.00  0.00     0.029 A 
ATOM     33  C   UNL A   1      46.063  29.981  28.608  1.00  0.00     0.049 A 
ATOM     34  H   UNL A   1      45.068  28.181  28.153  1.00  0.00     0.167 HD
ATOM     35  C   UNL A   1      43.672  30.512  29.074  1.00  0.00     0.074 A 
ATOM     36  C   UNL A   1      42.619  31.415  29.501  1.00  0.00     0.031 C 
ATOM     37  C   UNL A   1      44.985  30.845  29.019  1.00  0.00     0.037 A 
BRANCH  24  38
ATOM     38  C   UNL A   1      48.733  26.352  26.998  1.00  0.00     0.057 A 
ATOM     39  C   UNL A   1      49.122  26.470  25.658  1.00  0.00     0.134 A 
ATOM     40  C   UNL A   1      49.670  25.845  27.905  1.00  0.00     0.134 A 
ATOM     41  F   UNL A   1      48.274  26.965  24.746  1.00  0.00    -0.206 F 
ATOM     42  C   UNL A   1      50.395  26.090  25.232  1.00  0.00     0.040 A 
ATOM     43  C   UNL A   1      50.953  25.474  27.494  1.00  0.00     0.040 A 
ATOM     44  F   UNL A   1      49.370  25.741  29.208  1.00  0.00    -0.206 F 
ATOM     45  C   UNL A   1      51.316  25.592  26.153  1.00  0.00     0.006 A 
ENDBRANCH  24  38
BRANCH  25  46
ATOM     46  C   UNL A   1      39.240  28.889  29.085  1.00  0.00     0.057 A 
ATOM     47  C   UNL A   1      38.620  28.758  30.336  1.00  0.00     0.134 A 
ATOM     48  C   UNL A   1      38.471  29.423  28.045  1.00  0.00     0.134 A 
ATOM     49  F   UNL A   1      39.299  28.261  31.380  1.00  0.00    -0.206 F 
ATOM     50  C   UNL A   1      37.287  29.119  30.539  1.00  0.00     0.040 A 
ATOM     51  C   UNL A   1      37.144  29.814  28.241  1.00  0.00     0.040 A 
ATOM     52  F   UNL A   1      39.009  29.597  26.829  1.00  0.00    -0.206 F 
ATOM     53  C   UNL A   1      36.546  29.655  29.490  1.00  0.00     0.006 A 
ENDBRANCH  25  46
BRANCH  37  54
ATOM     54  C   UNL A   1      45.352  32.237  29.422  1.00  0.00     0.057 A 
ATOM     55  C   UNL A   1      45.387  33.267  28.475  1.00  0.00     0.134 A 
ATOM     56  C   UNL A   1      45.758  32.533  30.728  1.00  0.00     0.134 A 
ATOM     57  F   UNL A   1      45.018  33.037  27.205  1.00  0.00    -0.206 F 
ATOM     58  C   UNL A   1      45.830  34.544  28.810  1.00  0.00     0.040 A 
ATOM     59  C   UNL A   1      46.185  33.812  31.081  1.00  0.00     0.040 A 
ATOM     60  F   UNL A   1      45.735  31.587  31.679  1.00  0.00    -0.206 F 
ATOM     61  C   UNL A   1      46.231  34.819  30.117  1.00  0.00     0.006 A 
ENDBRANCH  37  54
ENDBRANCH  11  12
ENDBRANCH   4   6
ENDBRANCH   3   4
ENDBRANCH   2   3
ENDBRANCH   1   2
BRANCH   1  62
ATOM     62  O   UNL A   1      37.675  21.224  24.921  1.00  0.00    -0.374 OA
BRANCH  62  63
ATOM     63  C   UNL A   1      38.283  22.218  25.749  1.00  0.00     0.202 C 
BRANCH  63  64
ATOM     64  C   UNL A   1      37.369  23.433  25.931  1.00  0.00     0.261 C 
BRANCH  64  65
ATOM     65  O   UNL A   1      36.694  23.701  24.690  1.00  0.00    -0.461 OA
BRANCH  65  66
ATOM     66  C   UNL A   1      35.340  23.755  24.727  1.00  0.00     0.335 C 
ATOM     67  O   UNL A   1      34.674  24.754  24.996  1.00  0.00    -0.249 OA
BRANCH  66  68
ATOM     68  C   UNL A   1      34.739  22.465  24.157  1.00  0.00     0.232 C 
ATOM     69  C   UNL A   1      34.174  21.650  25.318  1.00  0.00     0.087 C 
ATOM     70  O   UNL A   1      33.684  22.652  23.206  1.00  0.00    -0.355 OA
ATOM     71  C   UNL A   1      32.915  21.012  24.771  1.00  0.00     0.123 C 
ATOM     72  C   UNL A   1      32.458  22.092  23.747  1.00  0.00     0.186 C 
BRANCH  71  73
ATOM     73  C   UNL A   1      33.261  19.630  24.206  1.00  0.00    -0.013 A 
ATOM     74  C   UNL A   1      34.392  18.944  24.706  1.00  0.00     0.010 A 
ATOM     75  C   UNL A   1      32.514  19.005  23.192  1.00  0.00     0.010 A 
ATOM     76  C   UNL A   1      34.728  17.668  24.255  1.00  0.00     0.039 A 
ATOM     77  C   UNL A   1      32.851  17.725  22.741  1.00  0.00     0.039 A 
ATOM     78  C   UNL A   1      33.946  17.065  23.283  1.00  0.00     0.123 A 
ATOM     79  F   UNL A   1      34.251  15.831  22.863  1.00  0.00    -0.207 F 
ENDBRANCH  71  73
BRANCH  71  80
ATOM     80  O   UNL A   1      31.929  20.776  25.778  1.00  0.00    -0.382 OA
ATOM     81  H   UNL A   1      31.920  19.834  26.006  1.00  0.00     0.212 HD
ENDBRANCH  71  80
BRANCH  72  82
ATOM     82  C   UNL A   1      31.601  23.288  24.160  1.00  0.00    -0.016 A 
ATOM     83  C   UNL A   1      31.353  23.688  25.483  1.00  0.00     0.009 A 
ATOM     84  C   UNL A   1      31.041  24.067  23.126  1.00  0.00     0.009 A 
ATOM     85  C   UNL A   1      30.577  24.817  25.764  1.00  0.00     0.039 A 
ATOM     86  C   UNL A   1      30.260  25.190  23.404  1.00  0.00     0.039 A 
ATOM     87  C   UNL A   1      30.034  25.555  24.722  1.00  0.00     0.123 A 
ATOM     88  F   UNL A   1      29.289  26.635  24.993  1.00  0.00    -0.207 F 
ENDBRANCH  72  82
ENDBRANCH  66  68
ENDBRANCH  65  66
ENDBRANCH  64  65
ENDBRANCH  63  64
ENDBRANCH  62  63
ENDBRANCH   1  62
TORSDOF 17
ENDMDL
MODEL 3
REMARK VINA RESULT:     -11.6      0.908      3.396
REMARK SMILES O=C(OCCOCCOC(=O)[C@H]1C[C@](O)(c2ccc(F)cc2)[C@@H](c2ccc(F)cc2)O1)c1ccc(-c2c3nc(c(-c4c(F)cccc4F)c4ccc([nH]4)c(-c4c(F)cccc4F)c4nc(c(-c5c(F)cccc5F)c5ccc2[nH]5)C=C4)C=C3)cc1
REMARK SMILES IDX 5 1 4 2 3 3 2 4 1 5 32 6 33 7 85 8 34 9 84 10 35 11 36 12
REMARK SMILES IDX 37 13 78 14 38 15 83 16 77 17 79 18 39 19 82 20 76 21 75 22
REMARK SMILES IDX 40 24 66 25 49 26 65 27 50 28 53 29 64 30 80 31 51 32 52 33
REMARK SMILES IDX 63 35 81 36 54 37 41 38 42 39 47 40 43 41 44 42 46 43 48 44
REMARK SMILES IDX 45 45 67 46 68 47 73 48 69 49 70 50 72 51 74 52 71 53 55 54
REMARK SMILES IDX 56 55 61 56 57 57 58 58 60 59 62 60 59 61 6 62 7 63 8 64
REMARK SMILES IDX 9 65 10 66 11 67 12 68 13 69 31 70 14 71 23 72 16 73 17 74
REMARK SMILES IDX 22 75 18 76 21 77 19 78 20 79 15 80 24 82 25 83 30 84 26 85
REMARK SMILES IDX 29 86 27 87 28 88
REMARK H PARENT 79 23 53 34 15 81
REMARK Flexibility Score: inf
ROOT
ATOM      1  C   UNL A   1      32.786  31.674  27.232  1.00  0.00     0.202 C 
ENDROOT
BRANCH   1   2
ATOM      2  C   UNL A   1      32.449  33.142  26.887  1.00  0.00     0.261 C 
BRANCH   2   3
ATOM      3  O   UNL A   1      32.134  33.940  28.044  1.00  0.00    -0.460 OA
BRANCH   3   4
ATOM      4  C   UNL A   1      33.020  34.646  28.797  1.00  0.00     0.338 C 
ATOM      5  O   UNL A   1      32.817  35.843  28.985  1.00  0.00    -0.246 OA
BRANCH   4   6
ATOM      6  C   UNL A   1      34.294  34.047  29.313  1.00  0.00     0.060 A 
ATOM      7  C   UNL A   1      34.342  33.034  30.265  1.00  0.00     0.016 A 
ATOM      8  C   UNL A   1      35.515  34.461  28.747  1.00  0.00     0.016 A 
ATOM      9  C   UNL A   1      35.524  32.447  30.660  1.00  0.00     0.010 A 
ATOM     10  C   UNL A   1      36.728  33.864  29.128  1.00  0.00     0.010 A 
ATOM     11  C   UNL A   1      36.723  32.851  30.088  1.00  0.00    -0.014 A 
BRANCH  11  12
ATOM     12  C   UNL A   1      37.918  32.200  30.640  1.00  0.00     0.031 A 
ATOM     13  C   UNL A   1      38.228  32.415  32.086  1.00  0.00     0.074 A 
ATOM     14  C   UNL A   1      38.485  31.205  29.932  1.00  0.00     0.049 A 
ATOM     15  N   UNL A   1      39.115  31.822  32.836  1.00  0.00    -0.248 NA
ATOM     16  C   UNL A   1      37.385  33.393  32.800  1.00  0.00     0.031 C 
ATOM     17  C   UNL A   1      38.076  30.800  28.583  1.00  0.00     0.029 A 
ATOM     18  N   UNL A   1      39.452  30.300  30.273  1.00  0.00    -0.354 N 
ATOM     19  C   UNL A   1      38.938  32.350  34.107  1.00  0.00     0.074 A 
ATOM     20  C   UNL A   1      37.858  33.307  34.034  1.00  0.00     0.031 C 
ATOM     21  C   UNL A   1      38.755  29.696  28.233  1.00  0.00     0.029 A 
ATOM     22  C   UNL A   1      39.686  29.355  29.302  1.00  0.00     0.049 A 
ATOM     23  H   UNL A   1      39.933  30.322  31.132  1.00  0.00     0.167 HD
ATOM     24  C   UNL A   1      39.632  32.059  35.229  1.00  0.00     0.037 A 
ATOM     25  C   UNL A   1      40.572  28.342  29.285  1.00  0.00     0.037 A 
ATOM     26  C   UNL A   1      40.724  31.128  35.257  1.00  0.00     0.049 A 
ATOM     27  C   UNL A   1      41.449  28.160  30.491  1.00  0.00     0.074 A 
ATOM     28  C   UNL A   1      41.614  30.865  36.280  1.00  0.00     0.029 A 
ATOM     29  N   UNL A   1      41.069  30.302  34.196  1.00  0.00    -0.354 N 
ATOM     30  N   UNL A   1      41.381  28.762  31.656  1.00  0.00    -0.248 NA
ATOM     31  C   UNL A   1      42.547  27.192  30.376  1.00  0.00     0.031 C 
ATOM     32  C   UNL A   1      42.521  29.903  35.824  1.00  0.00     0.029 A 
ATOM     33  C   UNL A   1      42.171  29.538  34.532  1.00  0.00     0.049 A 
ATOM     34  H   UNL A   1      40.598  30.264  33.332  1.00  0.00     0.167 HD
ATOM     35  C   UNL A   1      42.421  28.247  32.413  1.00  0.00     0.074 A 
ATOM     36  C   UNL A   1      43.092  27.265  31.583  1.00  0.00     0.031 C 
ATOM     37  C   UNL A   1      42.801  28.566  33.674  1.00  0.00     0.037 A 
BRANCH  24  38
ATOM     38  C   UNL A   1      39.280  32.824  36.465  1.00  0.00     0.057 A 
ATOM     39  C   UNL A   1      38.361  32.300  37.383  1.00  0.00     0.134 A 
ATOM     40  C   UNL A   1      39.867  34.058  36.766  1.00  0.00     0.134 A 
ATOM     41  F   UNL A   1      37.779  31.113  37.159  1.00  0.00    -0.206 F 
ATOM     42  C   UNL A   1      38.030  32.982  38.554  1.00  0.00     0.040 A 
ATOM     43  C   UNL A   1      39.555  34.745  37.942  1.00  0.00     0.040 A 
ATOM     44  F   UNL A   1      40.781  34.596  35.944  1.00  0.00    -0.206 F 
ATOM     45  C   UNL A   1      38.630  34.208  38.837  1.00  0.00     0.006 A 
ENDBRANCH  24  38
BRANCH  25  46
ATOM     46  C   UNL A   1      40.710  27.477  28.082  1.00  0.00     0.057 A 
ATOM     47  C   UNL A   1      40.048  26.244  27.995  1.00  0.00     0.134 A 
ATOM     48  C   UNL A   1      41.490  27.861  26.987  1.00  0.00     0.134 A 
ATOM     49  F   UNL A   1      39.277  25.816  29.005  1.00  0.00    -0.206 F 
ATOM     50  C   UNL A   1      40.176  25.416  26.878  1.00  0.00     0.040 A 
ATOM     51  C   UNL A   1      41.606  27.055  25.851  1.00  0.00     0.040 A 
ATOM     52  F   UNL A   1      42.131  29.039  26.994  1.00  0.00    -0.206 F 
ATOM     53  C   UNL A   1      40.953  25.825  25.798  1.00  0.00     0.006 A 
ENDBRANCH  25  46
BRANCH  37  54
ATOM     54  C   UNL A   1      43.987  27.844  34.231  1.00  0.00     0.057 A 
ATOM     55  C   UNL A   1      43.825  26.643  34.931  1.00  0.00     0.134 A 
ATOM     56  C   UNL A   1      45.273  28.389  34.151  1.00  0.00     0.134 A 
ATOM     57  F   UNL A   1      42.612  26.081  35.047  1.00  0.00    -0.206 F 
ATOM     58  C   UNL A   1      44.904  26.014  35.548  1.00  0.00     0.040 A 
ATOM     59  C   UNL A   1      46.364  27.759  34.748  1.00  0.00     0.040 A 
ATOM     60  F   UNL A   1      45.488  29.534  33.485  1.00  0.00    -0.206 F 
ATOM     61  C   UNL A   1      46.178  26.573  35.457  1.00  0.00     0.006 A 
ENDBRANCH  37  54
ENDBRANCH  11  12
ENDBRANCH   4   6
ENDBRANCH   3   4
ENDBRANCH   2   3
ENDBRANCH   1   2
BRANCH   1  62
ATOM     62  O   UNL A   1      34.161  31.288  27.280  1.00  0.00    -0.374 OA
BRANCH  62  63
ATOM     63  C   UNL A   1      34.471  29.992  27.797  1.00  0.00     0.202 C 
BRANCH  63  64
ATOM     64  C   UNL A   1      34.613  28.959  26.675  1.00  0.00     0.261 C 
BRANCH  64  65
ATOM     65  O   UNL A   1      33.327  28.369  26.417  1.00  0.00    -0.461 OA
BRANCH  65  66
ATOM     66  C   UNL A   1      32.884  28.400  25.136  1.00  0.00     0.335 C 
ATOM     67  O   UNL A   1      32.935  29.375  24.388  1.00  0.00    -0.249 OA
BRANCH  66  68
ATOM     68  C   UNL A   1      32.524  26.988  24.662  1.00  0.00     0.232 C 
ATOM     69  C   UNL A   1      31.447  26.433  25.591  1.00  0.00     0.087 C 
ATOM     70  O   UNL A   1      32.025  26.902  23.323  1.00  0.00    -0.355 OA
ATOM     71  C   UNL A   1      30.532  25.629  24.694  1.00  0.00     0.123 C 
ATOM     72  C   UNL A   1      30.654  26.423  23.361  1.00  0.00     0.186 C 
BRANCH  71  73
ATOM     73  C   UNL A   1      31.009  24.171  24.673  1.00  0.00    -0.013 A 
ATOM     74  C   UNL A   1      31.069  23.449  25.887  1.00  0.00     0.010 A 
ATOM     75  C   UNL A   1      31.410  23.511  23.499  1.00  0.00     0.010 A 
ATOM     76  C   UNL A   1      31.456  22.110  25.919  1.00  0.00     0.039 A 
ATOM     77  C   UNL A   1      31.797  22.167  23.532  1.00  0.00     0.039 A 
ATOM     78  C   UNL A   1      31.806  21.478  24.737  1.00  0.00     0.123 A 
ATOM     79  F   UNL A   1      32.157  20.185  24.758  1.00  0.00    -0.207 F 
ENDBRANCH  71  73
BRANCH  71  80
ATOM     80  O   UNL A   1      29.186  25.582  25.170  1.00  0.00    -0.382 OA
ATOM     81  H   UNL A   1      29.123  26.063  26.009  1.00  0.00     0.212 HD
ENDBRANCH  71  80
BRANCH  72  82
ATOM     82  C   UNL A   1      29.779  27.640  23.060  1.00  0.00    -0.016 A 
ATOM     83  C   UNL A   1      28.435  27.783  23.438  1.00  0.00     0.009 A 
ATOM     84  C   UNL A   1      30.385  28.716  22.377  1.00  0.00     0.009 A 
ATOM     85  C   UNL A   1      27.721  28.949  23.143  1.00  0.00     0.039 A 
ATOM     86  C   UNL A   1      29.672  29.877  22.075  1.00  0.00     0.039 A 
ATOM     87  C   UNL A   1      28.345  29.983  22.461  1.00  0.00     0.123 A 
ATOM     88  F   UNL A   1      27.658  31.098  22.178  1.00  0.00    -0.207 F 
ENDBRANCH  72  82
ENDBRANCH  66  68
ENDBRANCH  65  66
ENDBRANCH  64  65
ENDBRANCH  63  64
ENDBRANCH  62  63
ENDBRANCH   1  62
TORSDOF 17
ENDMDL
