MODEL 1
REMARK VINA RESULT:     -12.4      0.000      0.000
REMARK SMILES Cc1ccnc(C(=O)c2[nH]c3cc(Cl)c(F)cc3c2CC(=O)OCCOCCOC(=O)c2ccc(-c3c4nc(c(-c5c(F)cccc5F)c5ccc([nH]5)c(-c5c(F)cccc5F)c5nc(c(-c6c(F)cccc6F)c6ccc3[nH]6)C=C5)C=C4)cc2)c1
REMARK SMILES IDX 25 1 24 2 23 3 21 4 22 5 20 6 19 7 9 8 10 9 11 10 18 12
REMARK SMILES IDX 12 13 17 14 13 15 15 16 14 17 16 18 7 19 8 20 6 21 1 22 2 23
REMARK SMILES IDX 3 24 86 25 4 26 5 27 26 28 27 29 28 30 29 31 30 32 31 33
REMARK SMILES IDX 32 34 33 35 85 36 34 37 84 38 35 39 36 40 37 41 78 42 38 43
REMARK SMILES IDX 83 44 77 45 79 46 39 47 82 48 76 49 75 50 40 52 66 53 49 54
REMARK SMILES IDX 65 55 50 56 53 57 64 58 80 59 51 60 52 61 63 63 81 64 54 65
REMARK SMILES IDX 41 66 42 67 47 68 43 69 44 70 46 71 48 72 45 73 67 74 68 75
REMARK SMILES IDX 73 76 69 77 70 78 72 79 74 80 71 81 55 82 56 83 61 84 57 85
REMARK SMILES IDX 58 86 60 87 62 88 59 89
REMARK H PARENT 10 11 79 51 53 62
REMARK Flexibility Score: inf
ROOT
ATOM      1  C   UNL A   1      39.946  20.946  26.504  1.00  0.00     0.202 C 
ENDROOT
BRANCH   1   2
ATOM      2  C   UNL A   1      38.959  21.850  25.756  1.00  0.00     0.261 C 
BRANCH   2   3
ATOM      3  O   UNL A   1      38.017  21.063  24.960  1.00  0.00    -0.463 OA
BRANCH   3   4
ATOM      4  C   UNL A   1      36.890  21.712  24.573  1.00  0.00     0.310 C 
ATOM      5  O   UNL A   1      36.804  22.268  23.479  1.00  0.00    -0.252 OA
BRANCH   4   6
ATOM      6  C   UNL A   1      35.694  21.642  25.532  1.00  0.00     0.161 C 
BRANCH   6   7
ATOM      7  C   UNL A   1      34.344  21.027  25.140  1.00  0.00     0.000 A 
ATOM      8  C   UNL A   1      33.031  21.582  25.043  1.00  0.00     0.093 A 
ATOM      9  N   UNL A   1      32.176  20.485  25.057  1.00  0.00    -0.351 N 
ATOM     10  C   UNL A   1      32.846  19.292  24.988  1.00  0.00     0.048 A 
ATOM     11  H   UNL A   1      31.196  20.558  25.113  1.00  0.00     0.167 HD
ATOM     12  C   UNL A   1      34.204  19.586  24.989  1.00  0.00     0.007 A 
ATOM     13  C   UNL A   1      32.343  17.981  24.967  1.00  0.00     0.050 A 
ATOM     14  C   UNL A   1      35.116  18.506  24.929  1.00  0.00     0.051 A 
ATOM     15  C   UNL A   1      33.264  16.931  24.903  1.00  0.00     0.078 A 
ATOM     16  C   UNL A   1      34.628  17.195  24.873  1.00  0.00     0.142 A 
ATOM     17  Cl  UNL A   1      32.683  15.309  24.872  1.00  0.00    -0.081 Cl
ATOM     18  F   UNL A   1      35.513  16.187  24.801  1.00  0.00    -0.205 F 
BRANCH   8  19
ATOM     19  C   UNL A   1      32.389  22.916  25.206  1.00  0.00     0.227 C 
ATOM     20  O   UNL A   1      31.179  22.947  25.439  1.00  0.00    -0.285 OA
BRANCH  19  21
ATOM     21  C   UNL A   1      33.057  24.290  24.970  1.00  0.00     0.113 A 
ATOM     22  C   UNL A   1      33.531  27.727  26.493  1.00  0.00     0.044 C 
ATOM     23  C   UNL A   1      33.693  26.562  25.545  1.00  0.00    -0.047 A 
ATOM     24  C   UNL A   1      33.777  26.868  24.193  1.00  0.00     0.023 A 
ATOM     25  C   UNL A   1      33.490  25.206  25.938  1.00  0.00     0.036 A 
ATOM     26  C   UNL A   1      33.556  25.848  23.296  1.00  0.00     0.112 A 
ATOM     27  N   UNL A   1      33.152  24.603  23.648  1.00  0.00    -0.253 NA
ENDBRANCH  19  21
ENDBRANCH   8  19
ENDBRANCH   6   7
ENDBRANCH   4   6
ENDBRANCH   3   4
ENDBRANCH   2   3
ENDBRANCH   1   2
BRANCH   1  28
ATOM     28  O   UNL A   1      40.982  20.571  25.604  1.00  0.00    -0.374 OA
BRANCH  28  29
ATOM     29  C   UNL A   1      42.224  20.393  26.270  1.00  0.00     0.202 C 
BRANCH  29  30
ATOM     30  C   UNL A   1      43.193  19.463  25.532  1.00  0.00     0.261 C 
BRANCH  30  31
ATOM     31  O   UNL A   1      43.869  20.243  24.582  1.00  0.00    -0.460 OA
BRANCH  31  32
ATOM     32  C   UNL A   1      45.179  20.118  24.295  1.00  0.00     0.338 C 
ATOM     33  O   UNL A   1      45.837  19.133  24.039  1.00  0.00    -0.246 OA
BRANCH  32  34
ATOM     34  C   UNL A   1      45.529  21.552  24.356  1.00  0.00     0.060 A 
ATOM     35  C   UNL A   1      46.069  21.864  25.614  1.00  0.00     0.016 A 
ATOM     36  C   UNL A   1      44.557  22.372  23.752  1.00  0.00     0.016 A 
ATOM     37  C   UNL A   1      45.368  22.760  26.397  1.00  0.00     0.010 A 
ATOM     38  C   UNL A   1      43.895  23.316  24.530  1.00  0.00     0.010 A 
ATOM     39  C   UNL A   1      44.260  23.456  25.869  1.00  0.00    -0.014 A 
BRANCH  39  40
ATOM     40  C   UNL A   1      43.843  24.594  26.674  1.00  0.00     0.031 A 
ATOM     41  C   UNL A   1      44.922  25.613  26.647  1.00  0.00     0.074 A 
ATOM     42  C   UNL A   1      42.713  24.833  27.357  1.00  0.00     0.049 A 
ATOM     43  N   UNL A   1      45.755  25.889  27.593  1.00  0.00    -0.248 NA
ATOM     44  C   UNL A   1      45.259  26.187  25.334  1.00  0.00     0.031 C 
ATOM     45  C   UNL A   1      41.413  24.173  27.313  1.00  0.00     0.029 A 
ATOM     46  N   UNL A   1      42.518  25.847  28.249  1.00  0.00    -0.354 N 
ATOM     47  C   UNL A   1      46.660  26.775  27.031  1.00  0.00     0.074 A 
ATOM     48  C   UNL A   1      46.412  26.788  25.611  1.00  0.00     0.031 C 
ATOM     49  C   UNL A   1      40.511  24.941  27.980  1.00  0.00     0.029 A 
ATOM     50  C   UNL A   1      41.200  26.066  28.602  1.00  0.00     0.049 A 
ATOM     51  H   UNL A   1      43.260  26.382  28.612  1.00  0.00     0.167 HD
ATOM     52  C   UNL A   1      47.434  27.590  27.788  1.00  0.00     0.037 A 
ATOM     53  C   UNL A   1      40.742  27.148  29.281  1.00  0.00     0.037 A 
ATOM     54  C   UNL A   1      47.533  27.141  29.149  1.00  0.00     0.049 A 
ATOM     55  C   UNL A   1      41.894  27.776  29.983  1.00  0.00     0.074 A 
ATOM     56  C   UNL A   1      48.030  26.004  29.758  1.00  0.00     0.029 A 
ATOM     57  N   UNL A   1      46.737  27.745  30.091  1.00  0.00    -0.354 N 
ATOM     58  N   UNL A   1      42.497  27.258  31.015  1.00  0.00    -0.248 NA
ATOM     59  C   UNL A   1      42.646  28.801  29.273  1.00  0.00     0.031 C 
ATOM     60  C   UNL A   1      47.140  25.739  30.840  1.00  0.00     0.029 A 
ATOM     61  C   UNL A   1      46.172  26.742  30.838  1.00  0.00     0.049 A 
ATOM     62  H   UNL A   1      46.597  28.713  30.207  1.00  0.00     0.167 HD
ATOM     63  C   UNL A   1      43.836  27.573  30.840  1.00  0.00     0.074 A 
ATOM     64  C   UNL A   1      43.856  28.598  29.800  1.00  0.00     0.031 C 
ATOM     65  C   UNL A   1      44.825  26.786  31.354  1.00  0.00     0.037 A 
BRANCH  52  66
ATOM     66  C   UNL A   1      47.811  28.965  27.330  1.00  0.00     0.057 A 
ATOM     67  C   UNL A   1      49.155  29.359  27.332  1.00  0.00     0.134 A 
ATOM     68  C   UNL A   1      46.872  29.998  27.118  1.00  0.00     0.134 A 
ATOM     69  F   UNL A   1      50.132  28.471  27.570  1.00  0.00    -0.206 F 
ATOM     70  C   UNL A   1      49.535  30.695  27.159  1.00  0.00     0.040 A 
ATOM     71  C   UNL A   1      47.241  31.320  26.883  1.00  0.00     0.040 A 
ATOM     72  F   UNL A   1      45.552  29.799  27.229  1.00  0.00    -0.206 F 
ATOM     73  C   UNL A   1      48.577  31.678  26.929  1.00  0.00     0.006 A 
ENDBRANCH  52  66
BRANCH  53  74
ATOM     74  C   UNL A   1      39.465  27.881  29.115  1.00  0.00     0.057 A 
ATOM     75  C   UNL A   1      38.569  28.023  30.186  1.00  0.00     0.134 A 
ATOM     76  C   UNL A   1      39.241  28.718  28.010  1.00  0.00     0.134 A 
ATOM     77  F   UNL A   1      38.722  27.296  31.304  1.00  0.00    -0.206 F 
ATOM     78  C   UNL A   1      37.536  28.968  30.176  1.00  0.00     0.040 A 
ATOM     79  C   UNL A   1      38.208  29.660  27.983  1.00  0.00     0.040 A 
ATOM     80  F   UNL A   1      40.074  28.719  26.960  1.00  0.00    -0.206 F 
ATOM     81  C   UNL A   1      37.361  29.801  29.075  1.00  0.00     0.006 A 
ENDBRANCH  53  74
BRANCH  65  82
ATOM     82  C   UNL A   1      44.428  25.719  32.336  1.00  0.00     0.057 A 
ATOM     83  C   UNL A   1      44.205  24.377  31.992  1.00  0.00     0.134 A 
ATOM     84  C   UNL A   1      44.397  26.035  33.700  1.00  0.00     0.134 A 
ATOM     85  F   UNL A   1      44.319  23.956  30.724  1.00  0.00    -0.206 F 
ATOM     86  C   UNL A   1      43.911  23.408  32.956  1.00  0.00     0.040 A 
ATOM     87  C   UNL A   1      44.140  25.070  34.676  1.00  0.00     0.040 A 
ATOM     88  F   UNL A   1      44.655  27.287  34.110  1.00  0.00    -0.206 F 
ATOM     89  C   UNL A   1      43.884  23.753  34.304  1.00  0.00     0.006 A 
ENDBRANCH  65  82
ENDBRANCH  39  40
ENDBRANCH  32  34
ENDBRANCH  31  32
ENDBRANCH  30  31
ENDBRANCH  29  30
ENDBRANCH  28  29
ENDBRANCH   1  28
TORSDOF 17
ENDMDL
MODEL 2
REMARK VINA RESULT:     -12.3      2.019      3.623
REMARK SMILES Cc1ccnc(C(=O)c2[nH]c3cc(Cl)c(F)cc3c2CC(=O)OCCOCCOC(=O)c2ccc(-c3c4nc(c(-c5c(F)cccc5F)c5ccc([nH]5)c(-c5c(F)cccc5F)c5nc(c(-c6c(F)cccc6F)c6ccc3[nH]6)C=C5)C=C4)cc2)c1
REMARK SMILES IDX 25 1 24 2 23 3 21 4 22 5 20 6 19 7 9 8 10 9 11 10 18 12
REMARK SMILES IDX 12 13 17 14 13 15 15 16 14 17 16 18 7 19 8 20 6 21 1 22 2 23
REMARK SMILES IDX 3 24 86 25 4 26 5 27 26 28 27 29 28 30 29 31 30 32 31 33
REMARK SMILES IDX 32 34 33 35 85 36 34 37 84 38 35 39 36 40 37 41 78 42 38 43
REMARK SMILES IDX 83 44 77 45 79 46 39 47 82 48 76 49 75 50 40 52 66 53 49 54
REMARK SMILES IDX 65 55 50 56 53 57 64 58 80 59 51 60 52 61 63 63 81 64 54 65
REMARK SMILES IDX 41 66 42 67 47 68 43 69 44 70 46 71 48 72 45 73 67 74 68 75
REMARK SMILES IDX 73 76 69 77 70 78 72 79 74 80 71 81 55 82 56 83 61 84 57 85
REMARK SMILES IDX 58 86 60 87 62 88 59 89
REMARK H PARENT 10 11 79 51 53 62
REMARK Flexibility Score: inf
ROOT
ATOM      1  C   UNL A   1      40.090  20.583  26.079  1.00  0.00     0.202 C 
ENDROOT
BRANCH   1   2
ATOM      2  C   UNL A   1      39.158  21.800  26.079  1.00  0.00     0.261 C 
BRANCH   2   3
ATOM      3  O   UNL A   1      38.170  21.711  25.004  1.00  0.00    -0.463 OA
BRANCH   3   4
ATOM      4  C   UNL A   1      37.205  22.666  25.012  1.00  0.00     0.310 C 
ATOM      5  O   UNL A   1      37.312  23.691  25.682  1.00  0.00    -0.252 OA
BRANCH   4   6
ATOM      6  C   UNL A   1      36.013  22.444  24.071  1.00  0.00     0.161 C 
BRANCH   6   7
ATOM      7  C   UNL A   1      34.568  22.778  24.463  1.00  0.00     0.000 A 
ATOM      8  C   UNL A   1      33.584  22.051  25.204  1.00  0.00     0.093 A 
ATOM      9  N   UNL A   1      32.374  22.652  24.878  1.00  0.00    -0.351 N 
ATOM     10  C   UNL A   1      32.533  23.790  24.131  1.00  0.00     0.048 A 
ATOM     11  H   UNL A   1      31.497  22.298  25.152  1.00  0.00     0.167 HD
ATOM     12  C   UNL A   1      33.893  23.933  23.890  1.00  0.00     0.007 A 
ATOM     13  C   UNL A   1      31.565  24.672  23.624  1.00  0.00     0.050 A 
ATOM     14  C   UNL A   1      34.317  25.044  23.123  1.00  0.00     0.051 A 
ATOM     15  C   UNL A   1      32.009  25.765  22.873  1.00  0.00     0.078 A 
ATOM     16  C   UNL A   1      33.366  25.951  22.639  1.00  0.00     0.142 A 
ATOM     17  Cl  UNL A   1      30.850  26.870  22.237  1.00  0.00    -0.081 Cl
ATOM     18  F   UNL A   1      33.794  27.006  21.927  1.00  0.00    -0.205 F 
BRANCH   8  19
ATOM     19  C   UNL A   1      33.498  20.758  25.938  1.00  0.00     0.227 C 
ATOM     20  O   UNL A   1      33.474  20.798  27.169  1.00  0.00    -0.285 OA
BRANCH  19  21
ATOM     21  C   UNL A   1      33.581  19.344  25.319  1.00  0.00     0.113 A 
ATOM     22  C   UNL A   1      32.368  15.779  25.741  1.00  0.00     0.044 C 
ATOM     23  C   UNL A   1      33.037  16.986  25.124  1.00  0.00    -0.047 A 
ATOM     24  C   UNL A   1      34.258  16.768  24.500  1.00  0.00     0.023 A 
ATOM     25  C   UNL A   1      32.622  18.325  25.389  1.00  0.00     0.036 A 
ATOM     26  C   UNL A   1      35.054  17.865  24.261  1.00  0.00     0.112 A 
ATOM     27  N   UNL A   1      34.771  19.117  24.697  1.00  0.00    -0.253 NA
ENDBRANCH  19  21
ENDBRANCH   8  19
ENDBRANCH   6   7
ENDBRANCH   4   6
ENDBRANCH   3   4
ENDBRANCH   2   3
ENDBRANCH   1   2
BRANCH   1  28
ATOM     28  O   UNL A   1      41.396  21.019  25.718  1.00  0.00    -0.374 OA
BRANCH  28  29
ATOM     29  C   UNL A   1      42.406  20.285  26.397  1.00  0.00     0.202 C 
BRANCH  29  30
ATOM     30  C   UNL A   1      43.257  19.407  25.473  1.00  0.00     0.261 C 
BRANCH  30  31
ATOM     31  O   UNL A   1      43.935  20.267  24.597  1.00  0.00    -0.460 OA
BRANCH  31  32
ATOM     32  C   UNL A   1      45.231  20.134  24.257  1.00  0.00     0.338 C 
ATOM     33  O   UNL A   1      45.866  19.147  23.949  1.00  0.00    -0.246 OA
BRANCH  32  34
ATOM     34  C   UNL A   1      45.604  21.561  24.345  1.00  0.00     0.060 A 
ATOM     35  C   UNL A   1      46.108  21.850  25.624  1.00  0.00     0.016 A 
ATOM     36  C   UNL A   1      44.667  22.403  23.719  1.00  0.00     0.016 A 
ATOM     37  C   UNL A   1      45.397  22.751  26.392  1.00  0.00     0.010 A 
ATOM     38  C   UNL A   1      43.996  23.351  24.485  1.00  0.00     0.010 A 
ATOM     39  C   UNL A   1      44.318  23.471  25.836  1.00  0.00    -0.014 A 
BRANCH  39  40
ATOM     40  C   UNL A   1      43.895  24.608  26.640  1.00  0.00     0.031 A 
ATOM     41  C   UNL A   1      44.971  25.630  26.616  1.00  0.00     0.074 A 
ATOM     42  C   UNL A   1      42.762  24.843  27.318  1.00  0.00     0.049 A 
ATOM     43  N   UNL A   1      45.800  25.909  27.565  1.00  0.00    -0.248 NA
ATOM     44  C   UNL A   1      45.310  26.205  25.304  1.00  0.00     0.031 C 
ATOM     45  C   UNL A   1      41.464  24.179  27.270  1.00  0.00     0.029 A 
ATOM     46  N   UNL A   1      42.561  25.856  28.209  1.00  0.00    -0.354 N 
ATOM     47  C   UNL A   1      46.704  26.798  27.006  1.00  0.00     0.074 A 
ATOM     48  C   UNL A   1      46.461  26.810  25.586  1.00  0.00     0.031 C 
ATOM     49  C   UNL A   1      40.557  24.944  27.934  1.00  0.00     0.029 A 
ATOM     50  C   UNL A   1      41.241  26.071  28.558  1.00  0.00     0.049 A 
ATOM     51  H   UNL A   1      43.300  26.394  28.576  1.00  0.00     0.167 HD
ATOM     52  C   UNL A   1      47.472  27.616  27.766  1.00  0.00     0.037 A 
ATOM     53  C   UNL A   1      40.776  27.152  29.235  1.00  0.00     0.037 A 
ATOM     54  C   UNL A   1      47.567  27.167  29.127  1.00  0.00     0.049 A 
ATOM     55  C   UNL A   1      41.924  27.784  29.941  1.00  0.00     0.074 A 
ATOM     56  C   UNL A   1      48.067  26.032  29.738  1.00  0.00     0.029 A 
ATOM     57  N   UNL A   1      46.766  27.769  30.066  1.00  0.00    -0.354 N 
ATOM     58  N   UNL A   1      42.525  27.268  30.975  1.00  0.00    -0.248 NA
ATOM     59  C   UNL A   1      42.675  28.812  29.234  1.00  0.00     0.031 C 
ATOM     60  C   UNL A   1      47.173  25.764  30.817  1.00  0.00     0.029 A 
ATOM     61  C   UNL A   1      46.202  26.764  30.811  1.00  0.00     0.049 A 
ATOM     62  H   UNL A   1      46.622  28.736  30.181  1.00  0.00     0.167 HD
ATOM     63  C   UNL A   1      43.864  27.588  30.805  1.00  0.00     0.074 A 
ATOM     64  C   UNL A   1      43.883  28.612  29.765  1.00  0.00     0.031 C 
ATOM     65  C   UNL A   1      44.853  26.804  31.323  1.00  0.00     0.037 A 
BRANCH  52  66
ATOM     66  C   UNL A   1      47.846  28.992  27.309  1.00  0.00     0.057 A 
ATOM     67  C   UNL A   1      49.191  29.382  27.293  1.00  0.00     0.134 A 
ATOM     68  C   UNL A   1      46.907  30.028  27.116  1.00  0.00     0.134 A 
ATOM     69  F   UNL A   1      50.169  28.491  27.512  1.00  0.00    -0.206 F 
ATOM     70  C   UNL A   1      49.572  30.718  27.121  1.00  0.00     0.040 A 
ATOM     71  C   UNL A   1      47.276  31.351  26.882  1.00  0.00     0.040 A 
ATOM     72  F   UNL A   1      45.588  29.833  27.245  1.00  0.00    -0.206 F 
ATOM     73  C   UNL A   1      48.614  31.705  26.909  1.00  0.00     0.006 A 
ENDBRANCH  52  66
BRANCH  53  74
ATOM     74  C   UNL A   1      39.498  27.881  29.065  1.00  0.00     0.057 A 
ATOM     75  C   UNL A   1      38.591  28.007  30.129  1.00  0.00     0.134 A 
ATOM     76  C   UNL A   1      39.280  28.727  27.965  1.00  0.00     0.134 A 
ATOM     77  F   UNL A   1      38.737  27.271  31.240  1.00  0.00    -0.206 F 
ATOM     78  C   UNL A   1      37.553  28.948  30.118  1.00  0.00     0.040 A 
ATOM     79  C   UNL A   1      38.243  29.665  27.938  1.00  0.00     0.040 A 
ATOM     80  F   UNL A   1      40.122  28.742  26.923  1.00  0.00    -0.206 F 
ATOM     81  C   UNL A   1      37.385  29.791  29.024  1.00  0.00     0.006 A 
ENDBRANCH  53  74
BRANCH  65  82
ATOM     82  C   UNL A   1      44.457  25.736  32.304  1.00  0.00     0.057 A 
ATOM     83  C   UNL A   1      44.251  24.390  31.961  1.00  0.00     0.134 A 
ATOM     84  C   UNL A   1      44.407  26.056  33.666  1.00  0.00     0.134 A 
ATOM     85  F   UNL A   1      44.383  23.967  30.696  1.00  0.00    -0.206 F 
ATOM     86  C   UNL A   1      43.956  23.421  32.925  1.00  0.00     0.040 A 
ATOM     87  C   UNL A   1      44.149  25.090  34.642  1.00  0.00     0.040 A 
ATOM     88  F   UNL A   1      44.647  27.312  34.075  1.00  0.00    -0.206 F 
ATOM     89  C   UNL A   1      43.910  23.770  34.272  1.00  0.00     0.006 A 
ENDBRANCH  65  82
ENDBRANCH  39  40
ENDBRANCH  32  34
ENDBRANCH  31  32
ENDBRANCH  30  31
ENDBRANCH  29  30
ENDBRANCH  28  29
ENDBRANCH   1  28
TORSDOF 17
ENDMDL
MODEL 3
REMARK VINA RESULT:     -12.0      4.112      8.982
REMARK SMILES Cc1ccnc(C(=O)c2[nH]c3cc(Cl)c(F)cc3c2CC(=O)OCCOCCOC(=O)c2ccc(-c3c4nc(c(-c5c(F)cccc5F)c5ccc([nH]5)c(-c5c(F)cccc5F)c5nc(c(-c6c(F)cccc6F)c6ccc3[nH]6)C=C5)C=C4)cc2)c1
REMARK SMILES IDX 25 1 24 2 23 3 21 4 22 5 20 6 19 7 9 8 10 9 11 10 18 12
REMARK SMILES IDX 12 13 17 14 13 15 15 16 14 17 16 18 7 19 8 20 6 21 1 22 2 23
REMARK SMILES IDX 3 24 86 25 4 26 5 27 26 28 27 29 28 30 29 31 30 32 31 33
REMARK SMILES IDX 32 34 33 35 85 36 34 37 84 38 35 39 36 40 37 41 78 42 38 43
REMARK SMILES IDX 83 44 77 45 79 46 39 47 82 48 76 49 75 50 40 52 66 53 49 54
REMARK SMILES IDX 65 55 50 56 53 57 64 58 80 59 51 60 52 61 63 63 81 64 54 65
REMARK SMILES IDX 41 66 42 67 47 68 43 69 44 70 46 71 48 72 45 73 67 74 68 75
REMARK SMILES IDX 73 76 69 77 70 78 72 79 74 80 71 81 55 82 56 83 61 84 57 85
REMARK SMILES IDX 58 86 60 87 62 88 59 89
REMARK H PARENT 10 11 79 51 53 62
REMARK Flexibility Score: inf
ROOT
ATOM      1  C   UNL A   1      32.786  28.405  25.841  1.00  0.00     0.202 C 
ENDROOT
BRANCH   1   2
ATOM      2  C   UNL A   1      31.738  27.457  26.434  1.00  0.00     0.261 C 
BRANCH   2   3
ATOM      3  O   UNL A   1      32.011  26.068  26.067  1.00  0.00    -0.463 OA
BRANCH   3   4
ATOM      4  C   UNL A   1      30.919  25.284  25.876  1.00  0.00     0.310 C 
ATOM      5  O   UNL A   1      30.374  24.692  26.806  1.00  0.00    -0.252 OA
BRANCH   4   6
ATOM      6  C   UNL A   1      30.343  25.245  24.454  1.00  0.00     0.161 C 
BRANCH   6   7
ATOM      7  C   UNL A   1      30.702  26.281  23.380  1.00  0.00     0.000 A 
ATOM      8  C   UNL A   1      31.910  26.534  22.659  1.00  0.00     0.093 A 
ATOM      9  N   UNL A   1      31.763  27.821  22.155  1.00  0.00    -0.351 N 
ATOM     10  C   UNL A   1      30.507  28.329  22.358  1.00  0.00     0.048 A 
ATOM     11  H   UNL A   1      32.484  28.315  21.702  1.00  0.00     0.167 HD
ATOM     12  C   UNL A   1      29.795  27.378  23.079  1.00  0.00     0.007 A 
ATOM     13  C   UNL A   1      29.972  29.574  21.989  1.00  0.00     0.050 A 
ATOM     14  C   UNL A   1      28.455  27.675  23.423  1.00  0.00     0.051 A 
ATOM     15  C   UNL A   1      28.645  29.841  22.337  1.00  0.00     0.078 A 
ATOM     16  C   UNL A   1      27.897  28.898  23.032  1.00  0.00     0.142 A 
ATOM     17  Cl  UNL A   1      27.954  31.358  21.898  1.00  0.00    -0.081 Cl
ATOM     18  F   UNL A   1      26.619  29.150  23.357  1.00  0.00    -0.205 F 
BRANCH   8  19
ATOM     19  C   UNL A   1      33.273  25.942  22.560  1.00  0.00     0.227 C 
ATOM     20  O   UNL A   1      34.010  26.345  21.659  1.00  0.00    -0.285 OA
BRANCH  19  21
ATOM     21  C   UNL A   1      33.821  24.757  23.389  1.00  0.00     0.113 A 
ATOM     22  C   UNL A   1      36.864  23.549  25.297  1.00  0.00     0.044 C 
ATOM     23  C   UNL A   1      35.455  23.587  24.753  1.00  0.00    -0.047 A 
ATOM     24  C   UNL A   1      34.915  22.377  24.339  1.00  0.00     0.023 A 
ATOM     25  C   UNL A   1      34.790  24.800  24.400  1.00  0.00     0.036 A 
ATOM     26  C   UNL A   1      33.812  22.421  23.518  1.00  0.00     0.112 A 
ATOM     27  N   UNL A   1      33.296  23.563  23.001  1.00  0.00    -0.253 NA
ENDBRANCH  19  21
ENDBRANCH   8  19
ENDBRANCH   6   7
ENDBRANCH   4   6
ENDBRANCH   3   4
ENDBRANCH   2   3
ENDBRANCH   1   2
BRANCH   1  28
ATOM     28  O   UNL A   1      32.287  29.735  25.926  1.00  0.00    -0.374 OA
BRANCH  28  29
ATOM     29  C   UNL A   1      32.480  30.292  27.218  1.00  0.00     0.202 C 
BRANCH  29  30
ATOM     30  C   UNL A   1      33.419  31.504  27.235  1.00  0.00     0.261 C 
BRANCH  30  31
ATOM     31  O   UNL A   1      34.574  31.121  27.934  1.00  0.00    -0.460 OA
BRANCH  31  32
ATOM     32  C   UNL A   1      35.642  31.918  28.125  1.00  0.00     0.338 C 
ATOM     33  O   UNL A   1      35.924  32.986  27.626  1.00  0.00    -0.246 OA
BRANCH  32  34
ATOM     34  C   UNL A   1      36.317  31.097  29.150  1.00  0.00     0.060 A 
ATOM     35  C   UNL A   1      37.546  31.678  29.502  1.00  0.00     0.016 A 
ATOM     36  C   UNL A   1      36.206  29.717  28.896  1.00  0.00     0.016 A 
ATOM     37  C   UNL A   1      38.689  30.953  29.228  1.00  0.00     0.010 A 
ATOM     38  C   UNL A   1      37.363  28.976  28.680  1.00  0.00     0.010 A 
ATOM     39  C   UNL A   1      38.598  29.617  28.780  1.00  0.00    -0.014 A 
BRANCH  39  40
ATOM     40  C   UNL A   1      39.852  28.884  28.863  1.00  0.00     0.031 A 
ATOM     41  C   UNL A   1      40.227  28.748  30.293  1.00  0.00     0.074 A 
ATOM     42  C   UNL A   1      40.631  28.346  27.912  1.00  0.00     0.049 A 
ATOM     43  N   UNL A   1      41.148  29.399  30.921  1.00  0.00    -0.248 NA
ATOM     44  C   UNL A   1      39.298  27.999  31.153  1.00  0.00     0.031 C 
ATOM     45  C   UNL A   1      40.367  28.070  26.505  1.00  0.00     0.029 A 
ATOM     46  N   UNL A   1      41.894  27.863  28.094  1.00  0.00    -0.354 N 
ATOM     47  C   UNL A   1      40.996  29.047  32.252  1.00  0.00     0.074 A 
ATOM     48  C   UNL A   1      39.752  28.329  32.360  1.00  0.00     0.031 C 
ATOM     49  C   UNL A   1      41.358  27.274  26.023  1.00  0.00     0.029 A 
ATOM     50  C   UNL A   1      42.381  27.102  27.048  1.00  0.00     0.049 A 
ATOM     51  H   UNL A   1      42.417  28.042  28.907  1.00  0.00     0.167 HD
ATOM     52  C   UNL A   1      41.995  29.200  33.155  1.00  0.00     0.037 A 
ATOM     53  C   UNL A   1      43.500  26.334  27.094  1.00  0.00     0.037 A 
ATOM     54  C   UNL A   1      42.999  30.125  32.708  1.00  0.00     0.049 A 
ATOM     55  C   UNL A   1      44.344  26.814  28.222  1.00  0.00     0.074 A 
ATOM     56  C   UNL A   1      43.001  31.470  32.389  1.00  0.00     0.029 A 
ATOM     57  N   UNL A   1      44.155  29.616  32.168  1.00  0.00    -0.354 N 
ATOM     58  N   UNL A   1      44.996  27.942  28.224  1.00  0.00    -0.248 NA
ATOM     59  C   UNL A   1      44.132  26.215  29.533  1.00  0.00     0.031 C 
ATOM     60  C   UNL A   1      43.895  31.591  31.284  1.00  0.00     0.029 A 
ATOM     61  C   UNL A   1      44.399  30.320  31.015  1.00  0.00     0.049 A 
ATOM     62  H   UNL A   1      44.702  28.886  32.537  1.00  0.00     0.167 HD
ATOM     63  C   UNL A   1      44.907  28.401  29.530  1.00  0.00     0.074 A 
ATOM     64  C   UNL A   1      44.442  27.257  30.308  1.00  0.00     0.031 C 
ATOM     65  C   UNL A   1      44.955  29.734  29.819  1.00  0.00     0.037 A 
BRANCH  52  66
ATOM     66  C   UNL A   1      42.186  28.238  34.287  1.00  0.00     0.057 A 
ATOM     67  C   UNL A   1      42.715  26.965  34.041  1.00  0.00     0.134 A 
ATOM     68  C   UNL A   1      41.640  28.435  35.574  1.00  0.00     0.134 A 
ATOM     69  F   UNL A   1      43.218  26.650  32.839  1.00  0.00    -0.206 F 
ATOM     70  C   UNL A   1      42.680  25.951  35.005  1.00  0.00     0.040 A 
ATOM     71  C   UNL A   1      41.655  27.452  36.561  1.00  0.00     0.040 A 
ATOM     72  F   UNL A   1      40.976  29.549  35.907  1.00  0.00    -0.206 F 
ATOM     73  C   UNL A   1      42.154  26.195  36.270  1.00  0.00     0.006 A 
ENDBRANCH  52  66
BRANCH  53  74
ATOM     74  C   UNL A   1      43.754  25.017  26.464  1.00  0.00     0.057 A 
ATOM     75  C   UNL A   1      42.972  23.898  26.791  1.00  0.00     0.134 A 
ATOM     76  C   UNL A   1      44.550  24.899  25.313  1.00  0.00     0.134 A 
ATOM     77  F   UNL A   1      42.149  23.926  27.849  1.00  0.00    -0.206 F 
ATOM     78  C   UNL A   1      42.953  22.744  25.997  1.00  0.00     0.040 A 
ATOM     79  C   UNL A   1      44.545  23.750  24.516  1.00  0.00     0.040 A 
ATOM     80  F   UNL A   1      45.283  25.929  24.868  1.00  0.00    -0.206 F 
ATOM     81  C   UNL A   1      43.732  22.673  24.847  1.00  0.00     0.006 A 
ENDBRANCH  53  74
BRANCH  65  82
ATOM     82  C   UNL A   1      45.370  30.673  28.721  1.00  0.00     0.057 A 
ATOM     83  C   UNL A   1      44.504  31.151  27.725  1.00  0.00     0.134 A 
ATOM     84  C   UNL A   1      46.662  31.213  28.748  1.00  0.00     0.134 A 
ATOM     85  F   UNL A   1      43.218  30.774  27.682  1.00  0.00    -0.206 F 
ATOM     86  C   UNL A   1      44.923  32.082  26.769  1.00  0.00     0.040 A 
ATOM     87  C   UNL A   1      47.081  32.170  27.822  1.00  0.00     0.040 A 
ATOM     88  F   UNL A   1      47.529  30.845  29.705  1.00  0.00    -0.206 F 
ATOM     89  C   UNL A   1      46.214  32.599  26.820  1.00  0.00     0.006 A 
ENDBRANCH  65  82
ENDBRANCH  39  40
ENDBRANCH  32  34
ENDBRANCH  31  32
ENDBRANCH  30  31
ENDBRANCH  29  30
ENDBRANCH  28  29
ENDBRANCH   1  28
TORSDOF 17
ENDMDL
