MODEL 1
REMARK VINA RESULT:     -11.7      0.000      0.000
REMARK SMILES O=C(OCCOCCOC(=O)[C@H]1Cc2ccc(Cl)cc2C[N@@H+]1Cc1ccc(Cl)cc1)c1ccc(-c2c3nc(c(-c4c(F)cccc4F)c4ccc([nH]4)c(-c4c(F)cccc4F)c4nc(c(-c5c(F)cccc5F)c5ccc2[nH]5)C=C4)C=C3)cc1
REMARK SMILES IDX 6 1 5 2 4 3 3 4 2 5 1 6 31 7 32 8 84 9 33 10 83 11 34 12
REMARK SMILES IDX 35 13 36 14 77 15 37 16 82 17 76 18 78 19 38 20 81 21 75 22
REMARK SMILES IDX 74 23 39 25 65 26 48 27 64 28 49 29 52 30 63 31 79 32 50 33
REMARK SMILES IDX 51 34 62 36 80 37 53 38 40 39 41 40 46 41 42 42 43 43 45 44
REMARK SMILES IDX 47 45 44 46 66 47 67 48 72 49 68 50 69 51 71 52 73 53 70 54
REMARK SMILES IDX 54 55 55 56 60 57 56 58 57 59 59 60 61 61 58 62 7 63 8 64
REMARK SMILES IDX 9 65 10 66 11 67 12 68 13 69 22 70 14 71 21 72 15 74 20 75
REMARK SMILES IDX 16 76 19 77 17 78 18 79 23 80 24 81 25 82 30 83 26 84 29 85
REMARK SMILES IDX 27 86 28 87
REMARK H PARENT 78 24 52 35 22 73
REMARK Flexibility Score: inf
ROOT
ATOM      1  O   UNL A   1      36.535  20.189  25.013  1.00  0.00    -0.374 OA
ENDROOT
BRANCH   1   2
ATOM      2  C   UNL A   1      37.783  19.537  24.800  1.00  0.00     0.202 C 
BRANCH   2   3
ATOM      3  C   UNL A   1      38.904  19.883  25.781  1.00  0.00     0.261 C 
BRANCH   3   4
ATOM      4  O   UNL A   1      40.048  19.038  25.608  1.00  0.00    -0.460 OA
BRANCH   4   5
ATOM      5  C   UNL A   1      41.333  19.303  25.927  1.00  0.00     0.338 C 
ATOM      6  O   UNL A   1      42.151  18.388  25.822  1.00  0.00    -0.246 OA
BRANCH   5   7
ATOM      7  C   UNL A   1      41.837  20.638  26.392  1.00  0.00     0.060 A 
ATOM      8  C   UNL A   1      41.821  20.855  27.784  1.00  0.00     0.016 A 
ATOM      9  C   UNL A   1      42.237  21.701  25.580  1.00  0.00     0.016 A 
ATOM     10  C   UNL A   1      42.127  22.104  28.326  1.00  0.00     0.010 A 
ATOM     11  C   UNL A   1      42.491  22.958  26.099  1.00  0.00     0.010 A 
ATOM     12  C   UNL A   1      42.435  23.162  27.471  1.00  0.00    -0.014 A 
BRANCH  12  13
ATOM     13  C   UNL A   1      42.859  24.480  27.945  1.00  0.00     0.031 A 
ATOM     14  C   UNL A   1      41.846  25.545  28.213  1.00  0.00     0.074 A 
ATOM     15  C   UNL A   1      44.178  24.725  27.884  1.00  0.00     0.049 A 
ATOM     16  N   UNL A   1      42.041  26.785  28.570  1.00  0.00    -0.248 NA
ATOM     17  C   UNL A   1      40.430  25.184  28.028  1.00  0.00     0.031 C 
ATOM     18  C   UNL A   1      45.193  23.748  27.470  1.00  0.00     0.029 A 
ATOM     19  N   UNL A   1      44.885  25.871  28.099  1.00  0.00    -0.354 N 
ATOM     20  C   UNL A   1      40.777  27.348  28.681  1.00  0.00     0.074 A 
ATOM     21  C   UNL A   1      39.821  26.333  28.297  1.00  0.00     0.031 C 
ATOM     22  C   UNL A   1      46.391  24.347  27.440  1.00  0.00     0.029 A 
ATOM     23  C   UNL A   1      46.224  25.738  27.835  1.00  0.00     0.049 A 
ATOM     24  H   UNL A   1      44.474  26.709  28.412  1.00  0.00     0.167 HD
ATOM     25  C   UNL A   1      40.466  28.601  29.088  1.00  0.00     0.037 A 
ATOM     26  C   UNL A   1      47.203  26.653  27.917  1.00  0.00     0.037 A 
ATOM     27  C   UNL A   1      41.466  29.586  29.412  1.00  0.00     0.049 A 
ATOM     28  C   UNL A   1      46.831  28.022  28.399  1.00  0.00     0.074 A 
ATOM     29  C   UNL A   1      41.298  30.861  29.919  1.00  0.00     0.029 A 
ATOM     30  N   UNL A   1      42.832  29.402  29.231  1.00  0.00    -0.354 N 
ATOM     31  N   UNL A   1      45.641  28.505  28.673  1.00  0.00    -0.248 NA
ATOM     32  C   UNL A   1      47.931  28.965  28.616  1.00  0.00     0.031 C 
ATOM     33  C   UNL A   1      42.558  31.465  29.995  1.00  0.00     0.029 A 
ATOM     34  C   UNL A   1      43.517  30.547  29.595  1.00  0.00     0.049 A 
ATOM     35  H   UNL A   1      43.251  28.578  28.893  1.00  0.00     0.167 HD
ATOM     36  C   UNL A   1      45.851  29.793  29.139  1.00  0.00     0.074 A 
ATOM     37  C   UNL A   1      47.286  30.010  29.115  1.00  0.00     0.031 C 
ATOM     38  C   UNL A   1      44.949  30.712  29.559  1.00  0.00     0.037 A 
BRANCH  25  39
ATOM     39  C   UNL A   1      39.015  28.966  29.227  1.00  0.00     0.057 A 
ATOM     40  C   UNL A   1      38.301  29.523  28.160  1.00  0.00     0.134 A 
ATOM     41  C   UNL A   1      38.344  28.844  30.452  1.00  0.00     0.134 A 
ATOM     42  F   UNL A   1      38.878  29.677  26.959  1.00  0.00    -0.206 F 
ATOM     43  C   UNL A   1      36.979  29.954  28.306  1.00  0.00     0.040 A 
ATOM     44  C   UNL A   1      37.015  29.249  30.605  1.00  0.00     0.040 A 
ATOM     45  F   UNL A   1      38.963  28.317  31.519  1.00  0.00    -0.206 F 
ATOM     46  C   UNL A   1      36.331  29.816  29.532  1.00  0.00     0.006 A 
ENDBRANCH  25  39
BRANCH  26  47
ATOM     47  C   UNL A   1      48.604  26.272  27.623  1.00  0.00     0.057 A 
ATOM     48  C   UNL A   1      49.155  26.413  26.345  1.00  0.00     0.134 A 
ATOM     49  C   UNL A   1      49.421  25.731  28.622  1.00  0.00     0.134 A 
ATOM     50  F   UNL A   1      48.413  26.891  25.335  1.00  0.00    -0.206 F 
ATOM     51  C   UNL A   1      50.473  26.043  26.074  1.00  0.00     0.040 A 
ATOM     52  C   UNL A   1      50.748  25.383  28.373  1.00  0.00     0.040 A 
ATOM     53  F   UNL A   1      48.946  25.564  29.865  1.00  0.00    -0.206 F 
ATOM     54  C   UNL A   1      51.278  25.539  27.093  1.00  0.00     0.006 A 
ENDBRANCH  26  47
BRANCH  38  55
ATOM     55  C   UNL A   1      45.504  32.007  30.069  1.00  0.00     0.057 A 
ATOM     56  C   UNL A   1      45.803  32.159  31.428  1.00  0.00     0.134 A 
ATOM     57  C   UNL A   1      45.719  33.103  29.225  1.00  0.00     0.134 A 
ATOM     58  F   UNL A   1      45.610  31.146  32.286  1.00  0.00    -0.206 F 
ATOM     59  C   UNL A   1      46.292  33.362  31.933  1.00  0.00     0.040 A 
ATOM     60  C   UNL A   1      46.240  34.301  29.713  1.00  0.00     0.040 A 
ATOM     61  F   UNL A   1      45.468  33.011  27.910  1.00  0.00    -0.206 F 
ATOM     62  C   UNL A   1      46.521  34.434  31.072  1.00  0.00     0.006 A 
ENDBRANCH  38  55
ENDBRANCH  12  13
ENDBRANCH   5   7
ENDBRANCH   4   5
ENDBRANCH   3   4
ENDBRANCH   2   3
ENDBRANCH   1   2
BRANCH   1  63
ATOM     63  C   UNL A   1      36.482  21.551  24.577  1.00  0.00     0.202 C 
BRANCH  63  64
ATOM     64  C   UNL A   1      36.447  22.532  25.747  1.00  0.00     0.261 C 
BRANCH  64  65
ATOM     65  O   UNL A   1      35.401  23.502  25.569  1.00  0.00    -0.459 OA
BRANCH  65  66
ATOM     66  C   UNL A   1      34.420  23.512  26.514  1.00  0.00     0.365 C 
ATOM     67  O   UNL A   1      34.457  22.870  27.562  1.00  0.00    -0.245 OA
BRANCH  66  68
ATOM     68  C   UNL A   1      33.288  24.485  26.180  1.00  0.00     0.300 C 
ATOM     69  C   UNL A   1      33.939  25.717  25.541  1.00  0.00     0.113 C 
ATOM     70  N   UNL A   1      32.254  23.922  25.270  1.00  0.00    -0.315 N 
ATOM     71  C   UNL A   1      32.952  26.745  25.091  1.00  0.00    -0.033 A 
ATOM     72  C   UNL A   1      31.191  24.911  25.014  1.00  0.00     0.300 C 
ATOM     73  H   UNL A   1      32.730  23.719  24.390  1.00  0.00     0.349 HD
ATOM     74  C   UNL A   1      33.354  28.078  24.916  1.00  0.00     0.006 A 
ATOM     75  C   UNL A   1      31.651  26.337  24.773  1.00  0.00     0.011 A 
ATOM     76  C   UNL A   1      32.442  29.024  24.460  1.00  0.00     0.021 A 
ATOM     77  C   UNL A   1      30.741  27.301  24.317  1.00  0.00     0.030 A 
ATOM     78  C   UNL A   1      31.138  28.632  24.166  1.00  0.00     0.041 A 
ATOM     79  Cl  UNL A   1      30.001  29.804  23.624  1.00  0.00    -0.084 Cl
BRANCH  70  80
ATOM     80  C   UNL A   1      31.707  22.611  25.704  1.00  0.00     0.300 C 
BRANCH  80  81
ATOM     81  C   UNL A   1      32.249  21.396  24.969  1.00  0.00     0.006 A 
ATOM     82  C   UNL A   1      32.074  21.257  23.587  1.00  0.00     0.011 A 
ATOM     83  C   UNL A   1      32.826  20.330  25.681  1.00  0.00     0.011 A 
ATOM     84  C   UNL A   1      32.329  20.037  22.958  1.00  0.00     0.021 A 
ATOM     85  C   UNL A   1      33.083  19.109  25.054  1.00  0.00     0.021 A 
ATOM     86  C   UNL A   1      32.805  18.960  23.700  1.00  0.00     0.041 A 
ATOM     87  Cl  UNL A   1      33.030  17.433  22.940  1.00  0.00    -0.084 Cl
ENDBRANCH  80  81
ENDBRANCH  70  80
ENDBRANCH  66  68
ENDBRANCH  65  66
ENDBRANCH  64  65
ENDBRANCH  63  64
ENDBRANCH   1  63
TORSDOF 16
ENDMDL
MODEL 2
REMARK VINA RESULT:     -11.5      4.405      9.700
REMARK SMILES O=C(OCCOCCOC(=O)[C@H]1Cc2ccc(Cl)cc2C[N@@H+]1Cc1ccc(Cl)cc1)c1ccc(-c2c3nc(c(-c4c(F)cccc4F)c4ccc([nH]4)c(-c4c(F)cccc4F)c4nc(c(-c5c(F)cccc5F)c5ccc2[nH]5)C=C4)C=C3)cc1
REMARK SMILES IDX 6 1 5 2 4 3 3 4 2 5 1 6 31 7 32 8 84 9 33 10 83 11 34 12
REMARK SMILES IDX 35 13 36 14 77 15 37 16 82 17 76 18 78 19 38 20 81 21 75 22
REMARK SMILES IDX 74 23 39 25 65 26 48 27 64 28 49 29 52 30 63 31 79 32 50 33
REMARK SMILES IDX 51 34 62 36 80 37 53 38 40 39 41 40 46 41 42 42 43 43 45 44
REMARK SMILES IDX 47 45 44 46 66 47 67 48 72 49 68 50 69 51 71 52 73 53 70 54
REMARK SMILES IDX 54 55 55 56 60 57 56 58 57 59 59 60 61 61 58 62 7 63 8 64
REMARK SMILES IDX 9 65 10 66 11 67 12 68 13 69 22 70 14 71 21 72 15 74 20 75
REMARK SMILES IDX 16 76 19 77 17 78 18 79 23 80 24 81 25 82 30 83 26 84 29 85
REMARK SMILES IDX 27 86 28 87
REMARK H PARENT 78 24 52 35 22 73
REMARK Flexibility Score: inf
ROOT
ATOM      1  O   UNL A   1      33.123  30.465  27.078  1.00  0.00    -0.374 OA
ENDROOT
BRANCH   1   2
ATOM      2  C   UNL A   1      31.927  30.932  26.463  1.00  0.00     0.202 C 
BRANCH   2   3
ATOM      3  C   UNL A   1      31.422  32.303  26.913  1.00  0.00     0.261 C 
BRANCH   3   4
ATOM      4  O   UNL A   1      32.471  33.279  26.940  1.00  0.00    -0.460 OA
BRANCH   4   5
ATOM      5  C   UNL A   1      33.047  33.852  28.019  1.00  0.00     0.338 C 
ATOM      6  O   UNL A   1      32.531  34.877  28.467  1.00  0.00    -0.246 OA
BRANCH   5   7
ATOM      7  C   UNL A   1      34.266  33.322  28.716  1.00  0.00     0.060 A 
ATOM      8  C   UNL A   1      35.503  33.823  28.265  1.00  0.00     0.016 A 
ATOM      9  C   UNL A   1      34.292  32.330  29.699  1.00  0.00     0.016 A 
ATOM     10  C   UNL A   1      36.710  33.301  28.734  1.00  0.00     0.010 A 
ATOM     11  C   UNL A   1      35.480  31.767  30.133  1.00  0.00     0.010 A 
ATOM     12  C   UNL A   1      36.689  32.250  29.650  1.00  0.00    -0.014 A 
BRANCH  12  13
ATOM     13  C   UNL A   1      37.895  31.700  30.268  1.00  0.00     0.031 A 
ATOM     14  C   UNL A   1      38.671  30.625  29.579  1.00  0.00     0.074 A 
ATOM     15  C   UNL A   1      38.101  32.040  31.551  1.00  0.00     0.049 A 
ATOM     16  N   UNL A   1      39.720  29.974  30.005  1.00  0.00    -0.248 NA
ATOM     17  C   UNL A   1      38.193  30.200  28.252  1.00  0.00     0.031 C 
ATOM     18  C   UNL A   1      37.262  32.974  32.314  1.00  0.00     0.029 A 
ATOM     19  N   UNL A   1      39.021  31.601  32.456  1.00  0.00    -0.354 N 
ATOM     20  C   UNL A   1      40.047  29.085  28.991  1.00  0.00     0.074 A 
ATOM     21  C   UNL A   1      39.052  29.234  27.952  1.00  0.00     0.031 C 
ATOM     22  C   UNL A   1      37.697  33.018  33.581  1.00  0.00     0.029 A 
ATOM     23  C   UNL A   1      38.838  32.124  33.711  1.00  0.00     0.049 A 
ATOM     24  H   UNL A   1      39.743  30.971  32.231  1.00  0.00     0.167 HD
ATOM     25  C   UNL A   1      41.103  28.238  28.947  1.00  0.00     0.037 A 
ATOM     26  C   UNL A   1      39.534  31.900  34.836  1.00  0.00     0.037 A 
ATOM     27  C   UNL A   1      42.035  28.098  30.036  1.00  0.00     0.049 A 
ATOM     28  C   UNL A   1      40.715  30.981  34.748  1.00  0.00     0.074 A 
ATOM     29  C   UNL A   1      43.194  27.348  30.097  1.00  0.00     0.029 A 
ATOM     30  N   UNL A   1      41.889  28.714  31.274  1.00  0.00    -0.354 N 
ATOM     31  N   UNL A   1      41.129  30.266  33.727  1.00  0.00    -0.248 NA
ATOM     32  C   UNL A   1      41.545  30.858  35.949  1.00  0.00     0.031 C 
ATOM     33  C   UNL A   1      43.721  27.469  31.387  1.00  0.00     0.029 A 
ATOM     34  C   UNL A   1      42.925  28.343  32.112  1.00  0.00     0.049 A 
ATOM     35  H   UNL A   1      41.156  29.323  31.519  1.00  0.00     0.167 HD
ATOM     36  C   UNL A   1      42.294  29.645  34.146  1.00  0.00     0.074 A 
ATOM     37  C   UNL A   1      42.521  30.074  35.513  1.00  0.00     0.031 C 
ATOM     38  C   UNL A   1      43.111  28.804  33.466  1.00  0.00     0.037 A 
BRANCH  25  39
ATOM     39  C   UNL A   1      41.319  27.430  27.698  1.00  0.00     0.057 A 
ATOM     40  C   UNL A   1      40.819  26.127  27.581  1.00  0.00     0.134 A 
ATOM     41  C   UNL A   1      42.098  27.915  26.638  1.00  0.00     0.134 A 
ATOM     42  F   UNL A   1      40.071  25.593  28.557  1.00  0.00    -0.206 F 
ATOM     43  C   UNL A   1      41.094  25.334  26.464  1.00  0.00     0.040 A 
ATOM     44  C   UNL A   1      42.360  27.141  25.505  1.00  0.00     0.040 A 
ATOM     45  F   UNL A   1      42.607  29.156  26.679  1.00  0.00    -0.206 F 
ATOM     46  C   UNL A   1      41.866  25.841  25.420  1.00  0.00     0.006 A 
ENDBRANCH  25  39
BRANCH  26  47
ATOM     47  C   UNL A   1      39.183  32.617  36.084  1.00  0.00     0.057 A 
ATOM     48  C   UNL A   1      39.703  33.882  36.380  1.00  0.00     0.134 A 
ATOM     49  C   UNL A   1      38.331  32.033  37.027  1.00  0.00     0.134 A 
ATOM     50  F   UNL A   1      40.554  34.481  35.535  1.00  0.00    -0.206 F 
ATOM     51  C   UNL A   1      39.374  34.546  37.563  1.00  0.00     0.040 A 
ATOM     52  C   UNL A   1      37.972  32.695  38.200  1.00  0.00     0.040 A 
ATOM     53  F   UNL A   1      37.809  30.817  36.802  1.00  0.00    -0.206 F 
ATOM     54  C   UNL A   1      38.495  33.959  38.471  1.00  0.00     0.006 A 
ENDBRANCH  26  47
BRANCH  38  55
ATOM     55  C   UNL A   1      44.342  28.344  34.185  1.00  0.00     0.057 A 
ATOM     56  C   UNL A   1      44.296  27.214  35.010  1.00  0.00     0.134 A 
ATOM     57  C   UNL A   1      45.559  29.030  34.082  1.00  0.00     0.134 A 
ATOM     58  F   UNL A   1      43.156  26.522  35.155  1.00  0.00    -0.206 F 
ATOM     59  C   UNL A   1      45.419  26.783  35.713  1.00  0.00     0.040 A 
ATOM     60  C   UNL A   1      46.698  28.588  34.754  1.00  0.00     0.040 A 
ATOM     61  F   UNL A   1      45.668  30.108  33.292  1.00  0.00    -0.206 F 
ATOM     62  C   UNL A   1      46.626  27.466  35.579  1.00  0.00     0.006 A 
ENDBRANCH  38  55
ENDBRANCH  12  13
ENDBRANCH   5   7
ENDBRANCH   4   5
ENDBRANCH   3   4
ENDBRANCH   2   3
ENDBRANCH   1   2
BRANCH   1  63
ATOM     63  C   UNL A   1      33.202  29.046  27.245  1.00  0.00     0.202 C 
BRANCH  63  64
ATOM     64  C   UNL A   1      33.344  28.313  25.912  1.00  0.00     0.261 C 
BRANCH  64  65
ATOM     65  O   UNL A   1      33.587  26.912  26.123  1.00  0.00    -0.459 OA
BRANCH  65  66
ATOM     66  C   UNL A   1      32.498  26.096  26.065  1.00  0.00     0.365 C 
ATOM     67  O   UNL A   1      31.441  26.302  26.658  1.00  0.00    -0.245 OA
BRANCH  66  68
ATOM     68  C   UNL A   1      32.692  24.922  25.103  1.00  0.00     0.300 C 
ATOM     69  C   UNL A   1      32.247  23.660  25.852  1.00  0.00     0.113 C 
ATOM     70  N   UNL A   1      31.938  25.053  23.827  1.00  0.00    -0.315 N 
ATOM     71  C   UNL A   1      32.311  22.421  25.020  1.00  0.00    -0.033 A 
ATOM     72  C   UNL A   1      32.193  23.895  22.950  1.00  0.00     0.300 C 
ATOM     73  H   UNL A   1      30.950  25.059  24.081  1.00  0.00     0.349 HD
ATOM     74  C   UNL A   1      32.386  21.162  25.635  1.00  0.00     0.006 A 
ATOM     75  C   UNL A   1      32.215  22.537  23.628  1.00  0.00     0.011 A 
ATOM     76  C   UNL A   1      32.406  20.009  24.858  1.00  0.00     0.021 A 
ATOM     77  C   UNL A   1      32.240  21.368  22.856  1.00  0.00     0.030 A 
ATOM     78  C   UNL A   1      32.338  20.117  23.472  1.00  0.00     0.041 A 
ATOM     79  Cl  UNL A   1      32.386  18.694  22.506  1.00  0.00    -0.084 Cl
BRANCH  70  80
ATOM     80  C   UNL A   1      32.147  26.345  23.125  1.00  0.00     0.300 C 
BRANCH  80  81
ATOM     81  C   UNL A   1      30.997  27.335  23.213  1.00  0.00     0.006 A 
ATOM     82  C   UNL A   1      29.711  26.910  23.566  1.00  0.00     0.011 A 
ATOM     83  C   UNL A   1      31.177  28.673  22.821  1.00  0.00     0.011 A 
ATOM     84  C   UNL A   1      28.612  27.754  23.391  1.00  0.00     0.021 A 
ATOM     85  C   UNL A   1      30.079  29.518  22.646  1.00  0.00     0.021 A 
ATOM     86  C   UNL A   1      28.798  29.044  22.904  1.00  0.00     0.041 A 
ATOM     87  Cl  UNL A   1      27.434  30.047  22.603  1.00  0.00    -0.084 Cl
ENDBRANCH  80  81
ENDBRANCH  70  80
ENDBRANCH  66  68
ENDBRANCH  65  66
ENDBRANCH  64  65
ENDBRANCH  63  64
ENDBRANCH   1  63
TORSDOF 16
ENDMDL
MODEL 3
REMARK VINA RESULT:     -11.4      1.130      1.882
REMARK SMILES O=C(OCCOCCOC(=O)[C@H]1Cc2ccc(Cl)cc2C[N@@H+]1Cc1ccc(Cl)cc1)c1ccc(-c2c3nc(c(-c4c(F)cccc4F)c4ccc([nH]4)c(-c4c(F)cccc4F)c4nc(c(-c5c(F)cccc5F)c5ccc2[nH]5)C=C4)C=C3)cc1
REMARK SMILES IDX 6 1 5 2 4 3 3 4 2 5 1 6 31 7 32 8 84 9 33 10 83 11 34 12
REMARK SMILES IDX 35 13 36 14 77 15 37 16 82 17 76 18 78 19 38 20 81 21 75 22
REMARK SMILES IDX 74 23 39 25 65 26 48 27 64 28 49 29 52 30 63 31 79 32 50 33
REMARK SMILES IDX 51 34 62 36 80 37 53 38 40 39 41 40 46 41 42 42 43 43 45 44
REMARK SMILES IDX 47 45 44 46 66 47 67 48 72 49 68 50 69 51 71 52 73 53 70 54
REMARK SMILES IDX 54 55 55 56 60 57 56 58 57 59 59 60 61 61 58 62 7 63 8 64
REMARK SMILES IDX 9 65 10 66 11 67 12 68 13 69 22 70 14 71 21 72 15 74 20 75
REMARK SMILES IDX 16 76 19 77 17 78 18 79 23 80 24 81 25 82 30 83 26 84 29 85
REMARK SMILES IDX 27 86 28 87
REMARK H PARENT 78 24 52 35 22 73
REMARK Flexibility Score: inf
ROOT
ATOM      1  O   UNL A   1      36.953  20.427  24.768  1.00  0.00    -0.374 OA
ENDROOT
BRANCH   1   2
ATOM      2  C   UNL A   1      38.023  19.516  25.000  1.00  0.00     0.202 C 
BRANCH   2   3
ATOM      3  C   UNL A   1      39.184  20.035  25.848  1.00  0.00     0.261 C 
BRANCH   3   4
ATOM      4  O   UNL A   1      40.323  19.169  25.786  1.00  0.00    -0.460 OA
BRANCH   4   5
ATOM      5  C   UNL A   1      41.617  19.478  26.022  1.00  0.00     0.338 C 
ATOM      6  O   UNL A   1      42.448  18.573  25.934  1.00  0.00    -0.246 OA
BRANCH   5   7
ATOM      7  C   UNL A   1      42.114  20.850  26.374  1.00  0.00     0.060 A 
ATOM      8  C   UNL A   1      42.227  21.132  27.749  1.00  0.00     0.016 A 
ATOM      9  C   UNL A   1      42.392  21.885  25.479  1.00  0.00     0.016 A 
ATOM     10  C   UNL A   1      42.538  22.415  28.202  1.00  0.00     0.010 A 
ATOM     11  C   UNL A   1      42.648  23.174  25.914  1.00  0.00     0.010 A 
ATOM     12  C   UNL A   1      42.721  23.440  27.275  1.00  0.00    -0.014 A 
BRANCH  12  13
ATOM     13  C   UNL A   1      43.140  24.793  27.645  1.00  0.00     0.031 A 
ATOM     14  C   UNL A   1      42.129  25.798  28.093  1.00  0.00     0.074 A 
ATOM     15  C   UNL A   1      44.404  25.119  27.328  1.00  0.00     0.049 A 
ATOM     16  N   UNL A   1      42.307  27.056  28.393  1.00  0.00    -0.248 NA
ATOM     17  C   UNL A   1      40.731  25.344  28.188  1.00  0.00     0.031 C 
ATOM     18  C   UNL A   1      45.382  24.198  26.735  1.00  0.00     0.029 A 
ATOM     19  N   UNL A   1      45.061  26.312  27.391  1.00  0.00    -0.354 N 
ATOM     20  C   UNL A   1      41.053  27.540  28.741  1.00  0.00     0.074 A 
ATOM     21  C   UNL A   1      40.111  26.459  28.558  1.00  0.00     0.031 C 
ATOM     22  C   UNL A   1      46.510  24.871  26.468  1.00  0.00     0.029 A 
ATOM     23  C   UNL A   1      46.331  26.257  26.875  1.00  0.00     0.049 A 
ATOM     24  H   UNL A   1      44.664  27.129  27.769  1.00  0.00     0.167 HD
ATOM     25  C   UNL A   1      40.744  28.780  29.188  1.00  0.00     0.037 A 
ATOM     26  C   UNL A   1      47.244  27.233  26.757  1.00  0.00     0.037 A 
ATOM     27  C   UNL A   1      41.720  29.833  29.303  1.00  0.00     0.049 A 
ATOM     28  C   UNL A   1      46.882  28.588  27.288  1.00  0.00     0.074 A 
ATOM     29  C   UNL A   1      41.569  31.106  29.819  1.00  0.00     0.029 A 
ATOM     30  N   UNL A   1      43.036  29.731  28.863  1.00  0.00    -0.354 N 
ATOM     31  N   UNL A   1      45.737  29.001  27.781  1.00  0.00    -0.248 NA
ATOM     32  C   UNL A   1      47.939  29.602  27.279  1.00  0.00     0.031 C 
ATOM     33  C   UNL A   1      42.777  31.789  29.645  1.00  0.00     0.029 A 
ATOM     34  C   UNL A   1      43.700  30.925  29.077  1.00  0.00     0.049 A 
ATOM     35  H   UNL A   1      43.435  28.928  28.458  1.00  0.00     0.167 HD
ATOM     36  C   UNL A   1      45.948  30.309  28.186  1.00  0.00     0.074 A 
ATOM     37  C   UNL A   1      47.334  30.615  27.883  1.00  0.00     0.031 C 
ATOM     38  C   UNL A   1      45.084  31.179  28.763  1.00  0.00     0.037 A 
BRANCH  25  39
ATOM     39  C   UNL A   1      39.326  29.056  29.601  1.00  0.00     0.057 A 
ATOM     40  C   UNL A   1      38.889  28.810  30.908  1.00  0.00     0.134 A 
ATOM     41  C   UNL A   1      38.366  29.491  28.676  1.00  0.00     0.134 A 
ATOM     42  F   UNL A   1      39.749  28.386  31.847  1.00  0.00    -0.206 F 
ATOM     43  C   UNL A   1      37.551  28.973  31.278  1.00  0.00     0.040 A 
ATOM     44  C   UNL A   1      37.030  29.682  29.040  1.00  0.00     0.040 A 
ATOM     45  F   UNL A   1      38.711  29.751  27.406  1.00  0.00    -0.206 F 
ATOM     46  C   UNL A   1      36.617  29.413  30.342  1.00  0.00     0.006 A 
ENDBRANCH  25  39
BRANCH  26  47
ATOM     47  C   UNL A   1      48.585  26.935  26.202  1.00  0.00     0.057 A 
ATOM     48  C   UNL A   1      48.867  27.077  24.839  1.00  0.00     0.134 A 
ATOM     49  C   UNL A   1      49.614  26.474  27.030  1.00  0.00     0.134 A 
ATOM     50  F   UNL A   1      47.914  27.480  23.986  1.00  0.00    -0.206 F 
ATOM     51  C   UNL A   1      50.131  26.785  24.322  1.00  0.00     0.040 A 
ATOM     52  C   UNL A   1      50.888  26.205  26.533  1.00  0.00     0.040 A 
ATOM     53  F   UNL A   1      49.400  26.310  28.344  1.00  0.00    -0.206 F 
ATOM     54  C   UNL A   1      51.150  26.360  25.172  1.00  0.00     0.006 A 
ENDBRANCH  26  47
BRANCH  38  55
ATOM     55  C   UNL A   1      45.640  32.517  29.143  1.00  0.00     0.057 A 
ATOM     56  C   UNL A   1      45.589  33.584  28.237  1.00  0.00     0.134 A 
ATOM     57  C   UNL A   1      46.244  32.742  30.386  1.00  0.00     0.134 A 
ATOM     58  F   UNL A   1      45.030  33.427  27.028  1.00  0.00    -0.206 F 
ATOM     59  C   UNL A   1      46.125  34.830  28.555  1.00  0.00     0.040 A 
ATOM     60  C   UNL A   1      46.754  33.994  30.727  1.00  0.00     0.040 A 
ATOM     61  F   UNL A   1      46.306  31.763  31.300  1.00  0.00    -0.206 F 
ATOM     62  C   UNL A   1      46.702  35.040  29.806  1.00  0.00     0.006 A 
ENDBRANCH  38  55
ENDBRANCH  12  13
ENDBRANCH   5   7
ENDBRANCH   4   5
ENDBRANCH   3   4
ENDBRANCH   2   3
ENDBRANCH   1   2
BRANCH   1  63
ATOM     63  C   UNL A   1      37.152  21.740  25.302  1.00  0.00     0.202 C 
BRANCH  63  64
ATOM     64  C   UNL A   1      35.852  22.360  25.813  1.00  0.00     0.261 C 
BRANCH  64  65
ATOM     65  O   UNL A   1      35.583  23.604  25.145  1.00  0.00    -0.459 OA
BRANCH  65  66
ATOM     66  C   UNL A   1      34.730  23.546  24.084  1.00  0.00     0.365 C 
ATOM     67  O   UNL A   1      34.930  22.888  23.065  1.00  0.00    -0.245 OA
BRANCH  66  68
ATOM     68  C   UNL A   1      33.435  24.324  24.325  1.00  0.00     0.300 C 
ATOM     69  C   UNL A   1      33.255  25.264  23.128  1.00  0.00     0.113 C 
ATOM     70  N   UNL A   1      32.232  23.463  24.485  1.00  0.00    -0.315 N 
ATOM     71  C   UNL A   1      31.988  26.055  23.178  1.00  0.00    -0.033 A 
ATOM     72  C   UNL A   1      31.033  24.284  24.734  1.00  0.00     0.300 C 
ATOM     73  H   UNL A   1      32.113  22.973  23.598  1.00  0.00     0.349 HD
ATOM     74  C   UNL A   1      31.874  27.249  22.449  1.00  0.00     0.006 A 
ATOM     75  C   UNL A   1      30.901  25.543  23.896  1.00  0.00     0.011 A 
ATOM     76  C   UNL A   1      30.680  27.962  22.467  1.00  0.00     0.021 A 
ATOM     77  C   UNL A   1      29.705  26.273  23.908  1.00  0.00     0.030 A 
ATOM     78  C   UNL A   1      29.602  27.473  23.200  1.00  0.00     0.041 A 
ATOM     79  Cl  UNL A   1      28.131  28.365  23.244  1.00  0.00    -0.084 Cl
BRANCH  70  80
ATOM     80  C   UNL A   1      32.386  22.378  25.489  1.00  0.00     0.300 C 
BRANCH  80  81
ATOM     81  C   UNL A   1      32.453  20.968  24.927  1.00  0.00     0.006 A 
ATOM     82  C   UNL A   1      32.916  19.904  25.711  1.00  0.00     0.011 A 
ATOM     83  C   UNL A   1      32.171  20.726  23.571  1.00  0.00     0.011 A 
ATOM     84  C   UNL A   1      33.228  18.675  25.128  1.00  0.00     0.021 A 
ATOM     85  C   UNL A   1      32.482  19.497  22.986  1.00  0.00     0.021 A 
ATOM     86  C   UNL A   1      33.037  18.486  23.763  1.00  0.00     0.041 A 
ATOM     87  Cl  UNL A   1      33.509  17.003  23.032  1.00  0.00    -0.084 Cl
ENDBRANCH  80  81
ENDBRANCH  70  80
ENDBRANCH  66  68
ENDBRANCH  65  66
ENDBRANCH  64  65
ENDBRANCH  63  64
ENDBRANCH   1  63
TORSDOF 16
ENDMDL
