MODEL 1
REMARK VINA RESULT:     -11.3      0.000      0.000
REMARK SMILES C[NH2+][C@@]1(C(=O)OCCOCCOC(=O)c2ccc(-c3c4nc(c(-c5c(F)cccc5F)c5ccc([nH]5)c(-c5c(F)cccc5F)c5nc(c(-c6c(F)cccc6F)c6ccc3[nH]6)C=C5)C=C4)cc2)CCC[C@@H](Oc2cc(F)cc(F)c2)C1
REMARK SMILES IDX 9 1 8 2 7 3 6 4 4 5 5 6 3 7 69 8 82 9 70 10 72 11 71 12 2 13
REMARK SMILES IDX 1 14 73 17 74 18 75 19 81 20 76 21 79 22 77 23 78 24 80 25
REMARK SMILES IDX 10 26 11 27 12 28 13 29 14 30 15 31 16 32 68 33 17 34 67 35
REMARK SMILES IDX 18 36 19 37 20 38 61 39 21 40 66 41 60 42 62 43 22 44 65 45
REMARK SMILES IDX 59 46 58 47 23 49 49 50 32 51 48 52 33 53 36 54 47 55 63 56
REMARK SMILES IDX 34 57 35 58 46 60 64 61 37 62 24 63 25 64 30 65 26 66 27 67
REMARK SMILES IDX 29 68 31 69 28 70 50 71 51 72 56 73 52 74 53 75 55 76 57 77
REMARK SMILES IDX 54 78 38 79 39 80 44 81 40 82 41 83 43 84 45 85 42 86
REMARK H PARENT 2 15 2 16 62 48 36 59
REMARK Flexibility Score: inf
ROOT
ATOM      1  O   UNL A   1      32.296  30.850  26.573  1.00  0.00    -0.374 OA
ENDROOT
BRANCH   1   2
ATOM      2  C   UNL A   1      31.777  29.637  26.036  1.00  0.00     0.202 C 
BRANCH   2   3
ATOM      3  C   UNL A   1      31.711  28.434  26.980  1.00  0.00     0.261 C 
BRANCH   3   4
ATOM      4  O   UNL A   1      30.983  27.332  26.409  1.00  0.00    -0.459 OA
BRANCH   4   5
ATOM      5  C   UNL A   1      31.741  26.461  25.690  1.00  0.00     0.368 C 
ATOM      6  O   UNL A   1      32.894  26.158  25.989  1.00  0.00    -0.245 OA
BRANCH   5   7
ATOM      7  C   UNL A   1      31.032  25.920  24.409  1.00  0.00     0.197 C 
ATOM      8  C   UNL A   1      32.030  26.088  23.241  1.00  0.00     0.081 C 
ATOM      9  C   UNL A   1      29.696  26.600  24.024  1.00  0.00     0.126 C 
ATOM     10  C   UNL A   1      32.204  27.562  22.856  1.00  0.00     0.011 C 
ATOM     11  C   UNL A   1      29.797  28.031  23.489  1.00  0.00     0.180 C 
ATOM     12  C   UNL A   1      30.881  28.180  22.415  1.00  0.00     0.046 C 
BRANCH   7  13
ATOM     13  N   UNL A   1      30.627  24.486  24.585  1.00  0.00    -0.334 N 
ATOM     14  C   UNL A   1      30.664  23.639  23.401  1.00  0.00     0.331 C 
ATOM     15  H   UNL A   1      31.251  24.072  25.278  1.00  0.00     0.347 HD
ATOM     16  H   UNL A   1      29.644  24.518  24.855  1.00  0.00     0.347 HD
ENDBRANCH   7  13
BRANCH  11  17
ATOM     17  O   UNL A   1      28.503  28.563  23.105  1.00  0.00    -0.490 OA
BRANCH  17  18
ATOM     18  C   UNL A   1      28.463  29.872  22.707  1.00  0.00     0.125 A 
ATOM     19  C   UNL A   1      28.045  30.158  21.408  1.00  0.00     0.085 A 
ATOM     20  C   UNL A   1      28.940  30.897  23.521  1.00  0.00     0.085 A 
ATOM     21  C   UNL A   1      28.028  31.481  20.970  1.00  0.00     0.129 A 
ATOM     22  C   UNL A   1      28.892  32.214  23.069  1.00  0.00     0.129 A 
ATOM     23  F   UNL A   1      27.615  31.755  19.726  1.00  0.00    -0.207 F 
ATOM     24  C   UNL A   1      28.431  32.519  21.797  1.00  0.00     0.078 A 
ATOM     25  F   UNL A   1      29.303  33.201  23.876  1.00  0.00    -0.207 F 
ENDBRANCH  17  18
ENDBRANCH  11  17
ENDBRANCH   5   7
ENDBRANCH   4   5
ENDBRANCH   3   4
ENDBRANCH   2   3
ENDBRANCH   1   2
BRANCH   1  26
ATOM     26  C   UNL A   1      31.407  31.962  26.690  1.00  0.00     0.202 C 
BRANCH  26  27
ATOM     27  C   UNL A   1      32.042  33.355  26.822  1.00  0.00     0.261 C 
BRANCH  27  28
ATOM     28  O   UNL A   1      32.238  33.763  28.192  1.00  0.00    -0.460 OA
BRANCH  28  29
ATOM     29  C   UNL A   1      33.335  34.527  28.403  1.00  0.00     0.338 C 
ATOM     30  O   UNL A   1      33.378  35.746  28.539  1.00  0.00    -0.246 OA
BRANCH  29  31
ATOM     31  C   UNL A   1      34.523  33.689  28.635  1.00  0.00     0.060 A 
ATOM     32  C   UNL A   1      34.319  32.387  29.114  1.00  0.00     0.016 A 
ATOM     33  C   UNL A   1      35.814  34.208  28.522  1.00  0.00     0.016 A 
ATOM     34  C   UNL A   1      35.404  31.615  29.525  1.00  0.00     0.010 A 
ATOM     35  C   UNL A   1      36.902  33.436  28.950  1.00  0.00     0.010 A 
ATOM     36  C   UNL A   1      36.698  32.151  29.486  1.00  0.00    -0.014 A 
BRANCH  36  37
ATOM     37  C   UNL A   1      37.807  31.417  30.146  1.00  0.00     0.031 A 
ATOM     38  C   UNL A   1      38.117  31.702  31.591  1.00  0.00     0.074 A 
ATOM     39  C   UNL A   1      38.503  30.478  29.483  1.00  0.00     0.049 A 
ATOM     40  N   UNL A   1      39.044  31.186  32.359  1.00  0.00    -0.248 NA
ATOM     41  C   UNL A   1      37.267  32.698  32.259  1.00  0.00     0.031 C 
ATOM     42  C   UNL A   1      38.273  30.077  28.096  1.00  0.00     0.029 A 
ATOM     43  N   UNL A   1      39.549  29.689  29.893  1.00  0.00    -0.354 N 
ATOM     44  C   UNL A   1      38.888  31.793  33.598  1.00  0.00     0.074 A 
ATOM     45  C   UNL A   1      37.797  32.736  33.473  1.00  0.00     0.031 C 
ATOM     46  C   UNL A   1      39.162  29.125  27.766  1.00  0.00     0.029 A 
ATOM     47  C   UNL A   1      40.037  28.867  28.907  1.00  0.00     0.049 A 
ATOM     48  H   UNL A   1      39.916  29.712  30.807  1.00  0.00     0.167 HD
ATOM     49  C   UNL A   1      39.583  31.579  34.740  1.00  0.00     0.037 A 
ATOM     50  C   UNL A   1      41.082  28.018  28.922  1.00  0.00     0.037 A 
ATOM     51  C   UNL A   1      40.670  30.644  34.868  1.00  0.00     0.049 A 
ATOM     52  C   UNL A   1      41.887  27.849  30.183  1.00  0.00     0.074 A 
ATOM     53  C   UNL A   1      41.428  30.349  35.988  1.00  0.00     0.029 A 
ATOM     54  N   UNL A   1      41.158  29.857  33.837  1.00  0.00    -0.354 N 
ATOM     55  N   UNL A   1      41.718  28.414  31.354  1.00  0.00    -0.248 NA
ATOM     56  C   UNL A   1      43.028  26.923  30.124  1.00  0.00     0.031 C 
ATOM     57  C   UNL A   1      42.403  29.414  35.624  1.00  0.00     0.029 A 
ATOM     58  C   UNL A   1      42.222  29.093  34.287  1.00  0.00     0.049 A 
ATOM     59  H   UNL A   1      40.800  29.842  32.920  1.00  0.00     0.167 HD
ATOM     60  C   UNL A   1      42.711  27.894  32.175  1.00  0.00     0.074 A 
ATOM     61  C   UNL A   1      43.472  26.960  31.372  1.00  0.00     0.031 C 
ATOM     62  C   UNL A   1      42.968  28.165  33.478  1.00  0.00     0.037 A 
BRANCH  49  63
ATOM     63  C   UNL A   1      39.199  32.389  35.942  1.00  0.00     0.057 A 
ATOM     64  C   UNL A   1      38.297  31.908  36.900  1.00  0.00     0.134 A 
ATOM     65  C   UNL A   1      39.762  33.653  36.160  1.00  0.00     0.134 A 
ATOM     66  F   UNL A   1      37.714  30.710  36.743  1.00  0.00    -0.206 F 
ATOM     67  C   UNL A   1      37.953  32.664  38.021  1.00  0.00     0.040 A 
ATOM     68  C   UNL A   1      39.442  34.409  37.289  1.00  0.00     0.040 A 
ATOM     69  F   UNL A   1      40.636  34.170  35.284  1.00  0.00    -0.206 F 
ATOM     70  C   UNL A   1      38.530  33.917  38.221  1.00  0.00     0.006 A 
ENDBRANCH  49  63
BRANCH  50  71
ATOM     71  C   UNL A   1      41.443  27.266  27.694  1.00  0.00     0.057 A 
ATOM     72  C   UNL A   1      40.968  25.970  27.468  1.00  0.00     0.134 A 
ATOM     73  C   UNL A   1      42.289  27.822  26.727  1.00  0.00     0.134 A 
ATOM     74  F   UNL A   1      40.173  25.376  28.370  1.00  0.00    -0.206 F 
ATOM     75  C   UNL A   1      41.333  25.246  26.331  1.00  0.00     0.040 A 
ATOM     76  C   UNL A   1      42.645  27.119  25.575  1.00  0.00     0.040 A 
ATOM     77  F   UNL A   1      42.779  29.061  26.886  1.00  0.00    -0.206 F 
ATOM     78  C   UNL A   1      42.170  25.824  25.377  1.00  0.00     0.006 A 
ENDBRANCH  50  71
BRANCH  62  79
ATOM     79  C   UNL A   1      44.099  27.422  34.126  1.00  0.00     0.057 A 
ATOM     80  C   UNL A   1      43.923  26.149  34.683  1.00  0.00     0.134 A 
ATOM     81  C   UNL A   1      45.387  27.970  34.157  1.00  0.00     0.134 A 
ATOM     82  F   UNL A   1      42.712  25.574  34.696  1.00  0.00    -0.206 F 
ATOM     83  C   UNL A   1      44.986  25.455  35.264  1.00  0.00     0.040 A 
ATOM     84  C   UNL A   1      46.463  27.276  34.714  1.00  0.00     0.040 A 
ATOM     85  F   UNL A   1      45.625  29.182  33.633  1.00  0.00    -0.206 F 
ATOM     86  C   UNL A   1      46.262  26.017  35.274  1.00  0.00     0.006 A 
ENDBRANCH  62  79
ENDBRANCH  36  37
ENDBRANCH  29  31
ENDBRANCH  28  29
ENDBRANCH  27  28
ENDBRANCH  26  27
ENDBRANCH   1  26
TORSDOF 17
ENDMDL
MODEL 2
REMARK VINA RESULT:     -11.2      4.586      9.454
REMARK SMILES C[NH2+][C@@]1(C(=O)OCCOCCOC(=O)c2ccc(-c3c4nc(c(-c5c(F)cccc5F)c5ccc([nH]5)c(-c5c(F)cccc5F)c5nc(c(-c6c(F)cccc6F)c6ccc3[nH]6)C=C5)C=C4)cc2)CCC[C@@H](Oc2cc(F)cc(F)c2)C1
REMARK SMILES IDX 9 1 8 2 7 3 6 4 4 5 5 6 3 7 69 8 82 9 70 10 72 11 71 12 2 13
REMARK SMILES IDX 1 14 73 17 74 18 75 19 81 20 76 21 79 22 77 23 78 24 80 25
REMARK SMILES IDX 10 26 11 27 12 28 13 29 14 30 15 31 16 32 68 33 17 34 67 35
REMARK SMILES IDX 18 36 19 37 20 38 61 39 21 40 66 41 60 42 62 43 22 44 65 45
REMARK SMILES IDX 59 46 58 47 23 49 49 50 32 51 48 52 33 53 36 54 47 55 63 56
REMARK SMILES IDX 34 57 35 58 46 60 64 61 37 62 24 63 25 64 30 65 26 66 27 67
REMARK SMILES IDX 29 68 31 69 28 70 50 71 51 72 56 73 52 74 53 75 55 76 57 77
REMARK SMILES IDX 54 78 38 79 39 80 44 81 40 82 41 83 43 84 45 85 42 86
REMARK H PARENT 2 15 2 16 62 48 36 59
REMARK Flexibility Score: inf
ROOT
ATOM      1  O   UNL A   1      40.919  21.521  25.568  1.00  0.00    -0.374 OA
ENDROOT
BRANCH   1   2
ATOM      2  C   UNL A   1      39.824  21.447  26.475  1.00  0.00     0.202 C 
BRANCH   2   3
ATOM      3  C   UNL A   1      38.768  22.551  26.379  1.00  0.00     0.261 C 
BRANCH   3   4
ATOM      4  O   UNL A   1      38.033  22.499  25.145  1.00  0.00    -0.459 OA
BRANCH   4   5
ATOM      5  C   UNL A   1      36.959  21.664  25.156  1.00  0.00     0.368 C 
ATOM      6  O   UNL A   1      37.048  20.447  25.306  1.00  0.00    -0.245 OA
BRANCH   5   7
ATOM      7  C   UNL A   1      35.599  22.386  24.905  1.00  0.00     0.197 C 
ATOM      8  C   UNL A   1      35.224  23.103  26.222  1.00  0.00     0.081 C 
ATOM      9  C   UNL A   1      34.414  21.489  24.472  1.00  0.00     0.126 C 
ATOM     10  C   UNL A   1      34.807  22.104  27.309  1.00  0.00     0.011 C 
ATOM     11  C   UNL A   1      33.841  20.562  25.548  1.00  0.00     0.180 C 
ATOM     12  C   UNL A   1      33.594  21.287  26.876  1.00  0.00     0.046 C 
BRANCH   7  13
ATOM     13  N   UNL A   1      35.707  23.354  23.763  1.00  0.00    -0.334 N 
ATOM     14  C   UNL A   1      34.642  24.338  23.628  1.00  0.00     0.331 C 
ATOM     15  H   UNL A   1      36.584  23.863  23.873  1.00  0.00     0.347 HD
ATOM     16  H   UNL A   1      35.645  22.780  22.922  1.00  0.00     0.347 HD
ENDBRANCH   7  13
BRANCH  11  17
ATOM     17  O   UNL A   1      32.703  19.802  25.065  1.00  0.00    -0.490 OA
BRANCH  17  18
ATOM     18  C   UNL A   1      32.898  18.466  24.843  1.00  0.00     0.125 A 
ATOM     19  C   UNL A   1      32.449  17.561  25.804  1.00  0.00     0.085 A 
ATOM     20  C   UNL A   1      33.632  18.007  23.751  1.00  0.00     0.085 A 
ATOM     21  C   UNL A   1      32.665  16.198  25.615  1.00  0.00     0.129 A 
ATOM     22  C   UNL A   1      33.816  16.637  23.573  1.00  0.00     0.129 A 
ATOM     23  F   UNL A   1      32.222  15.329  26.533  1.00  0.00    -0.207 F 
ATOM     24  C   UNL A   1      33.330  15.722  24.494  1.00  0.00     0.078 A 
ATOM     25  F   UNL A   1      34.478  16.199  22.494  1.00  0.00    -0.207 F 
ENDBRANCH  17  18
ENDBRANCH  11  17
ENDBRANCH   5   7
ENDBRANCH   4   5
ENDBRANCH   3   4
ENDBRANCH   2   3
ENDBRANCH   1   2
BRANCH   1  26
ATOM     26  C   UNL A   1      42.217  21.185  26.061  1.00  0.00     0.202 C 
BRANCH  26  27
ATOM     27  C   UNL A   1      43.416  21.901  25.421  1.00  0.00     0.261 C 
BRANCH  27  28
ATOM     28  O   UNL A   1      43.048  23.096  24.700  1.00  0.00    -0.460 OA
BRANCH  28  29
ATOM     29  C   UNL A   1      43.800  24.184  24.986  1.00  0.00     0.338 C 
ATOM     30  O   UNL A   1      44.895  24.476  24.517  1.00  0.00    -0.246 OA
BRANCH  29  31
ATOM     31  C   UNL A   1      43.058  25.125  25.842  1.00  0.00     0.060 A 
ATOM     32  C   UNL A   1      43.629  26.385  26.073  1.00  0.00     0.016 A 
ATOM     33  C   UNL A   1      41.900  24.737  26.518  1.00  0.00     0.016 A 
ATOM     34  C   UNL A   1      43.068  27.245  27.016  1.00  0.00     0.010 A 
ATOM     35  C   UNL A   1      41.347  25.597  27.476  1.00  0.00     0.010 A 
ATOM     36  C   UNL A   1      41.949  26.838  27.754  1.00  0.00    -0.014 A 
BRANCH  36  37
ATOM     37  C   UNL A   1      41.510  27.654  28.915  1.00  0.00     0.031 A 
ATOM     38  C   UNL A   1      42.261  27.542  30.214  1.00  0.00     0.074 A 
ATOM     39  C   UNL A   1      40.485  28.515  28.803  1.00  0.00     0.049 A 
ATOM     40  N   UNL A   1      42.045  28.153  31.352  1.00  0.00    -0.248 NA
ATOM     41  C   UNL A   1      43.409  26.624  30.232  1.00  0.00     0.031 C 
ATOM     42  C   UNL A   1      39.705  28.748  27.589  1.00  0.00     0.029 A 
ATOM     43  N   UNL A   1      39.922  29.355  29.732  1.00  0.00    -0.354 N 
ATOM     44  C   UNL A   1      43.028  27.694  32.219  1.00  0.00     0.074 A 
ATOM     45  C   UNL A   1      43.824  26.733  31.485  1.00  0.00     0.031 C 
ATOM     46  C   UNL A   1      38.756  29.663  27.851  1.00  0.00     0.029 A 
ATOM     47  C   UNL A   1      38.846  30.060  29.254  1.00  0.00     0.049 A 
ATOM     48  H   UNL A   1      40.259  29.442  30.653  1.00  0.00     0.167 HD
ATOM     49  C   UNL A   1      43.255  28.046  33.507  1.00  0.00     0.037 A 
ATOM     50  C   UNL A   1      38.017  30.915  29.885  1.00  0.00     0.037 A 
ATOM     51  C   UNL A   1      42.464  28.999  34.241  1.00  0.00     0.049 A 
ATOM     52  C   UNL A   1      38.245  31.236  31.338  1.00  0.00     0.074 A 
ATOM     53  C   UNL A   1      42.624  29.429  35.547  1.00  0.00     0.029 A 
ATOM     54  N   UNL A   1      41.360  29.664  33.733  1.00  0.00    -0.354 N 
ATOM     55  N   UNL A   1      39.189  30.812  32.141  1.00  0.00    -0.248 NA
ATOM     56  C   UNL A   1      37.291  32.159  31.971  1.00  0.00     0.031 C 
ATOM     57  C   UNL A   1      41.589  30.324  35.843  1.00  0.00     0.029 A 
ATOM     58  C   UNL A   1      40.813  30.484  34.706  1.00  0.00     0.049 A 
ATOM     59  H   UNL A   1      41.015  29.569  32.816  1.00  0.00     0.167 HD
ATOM     60  C   UNL A   1      38.959  31.432  33.363  1.00  0.00     0.074 A 
ATOM     61  C   UNL A   1      37.792  32.273  33.192  1.00  0.00     0.031 C 
ATOM     62  C   UNL A   1      39.653  31.318  34.521  1.00  0.00     0.037 A 
BRANCH  49  63
ATOM     63  C   UNL A   1      44.397  27.378  34.213  1.00  0.00     0.057 A 
ATOM     64  C   UNL A   1      44.240  26.159  34.882  1.00  0.00     0.134 A 
ATOM     65  C   UNL A   1      45.677  27.946  34.195  1.00  0.00     0.134 A 
ATOM     66  F   UNL A   1      43.036  25.569  34.947  1.00  0.00    -0.206 F 
ATOM     67  C   UNL A   1      45.310  25.538  35.528  1.00  0.00     0.040 A 
ATOM     68  C   UNL A   1      46.760  27.325  34.817  1.00  0.00     0.040 A 
ATOM     69  F   UNL A   1      45.896  29.111  33.566  1.00  0.00    -0.206 F 
ATOM     70  C   UNL A   1      46.577  26.119  35.492  1.00  0.00     0.006 A 
ENDBRANCH  49  63
BRANCH  50  71
ATOM     71  C   UNL A   1      36.879  31.520  29.150  1.00  0.00     0.057 A 
ATOM     72  C   UNL A   1      35.714  30.792  28.884  1.00  0.00     0.134 A 
ATOM     73  C   UNL A   1      36.938  32.837  28.679  1.00  0.00     0.134 A 
ATOM     74  F   UNL A   1      35.609  29.517  29.289  1.00  0.00    -0.206 F 
ATOM     75  C   UNL A   1      34.655  31.345  28.162  1.00  0.00     0.040 A 
ATOM     76  C   UNL A   1      35.878  33.411  27.976  1.00  0.00     0.040 A 
ATOM     77  F   UNL A   1      38.028  33.588  28.902  1.00  0.00    -0.206 F 
ATOM     78  C   UNL A   1      34.734  32.662  27.711  1.00  0.00     0.006 A 
ENDBRANCH  50  71
BRANCH  62  79
ATOM     79  C   UNL A   1      39.190  32.142  35.687  1.00  0.00     0.057 A 
ATOM     80  C   UNL A   1      38.323  31.624  36.657  1.00  0.00     0.134 A 
ATOM     81  C   UNL A   1      39.649  33.453  35.861  1.00  0.00     0.134 A 
ATOM     82  F   UNL A   1      37.838  30.380  36.542  1.00  0.00    -0.206 F 
ATOM     83  C   UNL A   1      37.914  32.390  37.751  1.00  0.00     0.040 A 
ATOM     84  C   UNL A   1      39.266  34.220  36.963  1.00  0.00     0.040 A 
ATOM     85  F   UNL A   1      40.488  34.005  34.972  1.00  0.00    -0.206 F 
ATOM     86  C   UNL A   1      38.392  33.690  37.908  1.00  0.00     0.006 A 
ENDBRANCH  62  79
ENDBRANCH  36  37
ENDBRANCH  29  31
ENDBRANCH  28  29
ENDBRANCH  27  28
ENDBRANCH  26  27
ENDBRANCH   1  26
TORSDOF 17
ENDMDL
MODEL 3
REMARK VINA RESULT:     -11.0      3.162      8.218
REMARK SMILES C[NH2+][C@@]1(C(=O)OCCOCCOC(=O)c2ccc(-c3c4nc(c(-c5c(F)cccc5F)c5ccc([nH]5)c(-c5c(F)cccc5F)c5nc(c(-c6c(F)cccc6F)c6ccc3[nH]6)C=C5)C=C4)cc2)CCC[C@@H](Oc2cc(F)cc(F)c2)C1
REMARK SMILES IDX 9 1 8 2 7 3 6 4 4 5 5 6 3 7 69 8 82 9 70 10 72 11 71 12 2 13
REMARK SMILES IDX 1 14 73 17 74 18 75 19 81 20 76 21 79 22 77 23 78 24 80 25
REMARK SMILES IDX 10 26 11 27 12 28 13 29 14 30 15 31 16 32 68 33 17 34 67 35
REMARK SMILES IDX 18 36 19 37 20 38 61 39 21 40 66 41 60 42 62 43 22 44 65 45
REMARK SMILES IDX 59 46 58 47 23 49 49 50 32 51 48 52 33 53 36 54 47 55 63 56
REMARK SMILES IDX 34 57 35 58 46 60 64 61 37 62 24 63 25 64 30 65 26 66 27 67
REMARK SMILES IDX 29 68 31 69 28 70 50 71 51 72 56 73 52 74 53 75 55 76 57 77
REMARK SMILES IDX 54 78 38 79 39 80 44 81 40 82 41 83 43 84 45 85 42 86
REMARK H PARENT 2 15 2 16 62 48 36 59
REMARK Flexibility Score: inf
ROOT
ATOM      1  O   UNL A   1      40.716  20.991  25.928  1.00  0.00    -0.374 OA
ENDROOT
BRANCH   1   2
ATOM      2  C   UNL A   1      39.636  21.611  26.619  1.00  0.00     0.202 C 
BRANCH   2   3
ATOM      3  C   UNL A   1      38.648  22.421  25.776  1.00  0.00     0.261 C 
BRANCH   3   4
ATOM      4  O   UNL A   1      37.301  21.933  25.895  1.00  0.00    -0.459 OA
BRANCH   4   5
ATOM      5  C   UNL A   1      36.342  22.898  25.881  1.00  0.00     0.368 C 
ATOM      6  O   UNL A   1      36.564  24.077  26.148  1.00  0.00    -0.245 OA
BRANCH   5   7
ATOM      7  C   UNL A   1      34.915  22.363  25.547  1.00  0.00     0.197 C 
ATOM      8  C   UNL A   1      34.903  22.034  24.037  1.00  0.00     0.081 C 
ATOM      9  C   UNL A   1      33.734  23.312  25.859  1.00  0.00     0.126 C 
ATOM     10  C   UNL A   1      34.924  23.307  23.183  1.00  0.00     0.011 C 
ATOM     11  C   UNL A   1      33.597  24.539  24.954  1.00  0.00     0.180 C 
ATOM     12  C   UNL A   1      33.709  24.185  23.466  1.00  0.00     0.046 C 
BRANCH   7  13
ATOM     13  N   UNL A   1      34.588  21.154  26.376  1.00  0.00    -0.334 N 
ATOM     14  C   UNL A   1      33.831  20.093  25.727  1.00  0.00     0.331 C 
ATOM     15  H   UNL A   1      35.469  20.753  26.696  1.00  0.00     0.347 HD
ATOM     16  H   UNL A   1      33.977  21.498  27.117  1.00  0.00     0.347 HD
ENDBRANCH   7  13
BRANCH  11  17
ATOM     17  O   UNL A   1      32.433  25.338  25.288  1.00  0.00    -0.490 OA
BRANCH  17  18
ATOM     18  C   UNL A   1      32.618  26.690  25.397  1.00  0.00     0.125 A 
ATOM     19  C   UNL A   1      33.807  27.154  25.957  1.00  0.00     0.085 A 
ATOM     20  C   UNL A   1      31.607  27.593  25.075  1.00  0.00     0.085 A 
ATOM     21  C   UNL A   1      34.004  28.525  26.107  1.00  0.00     0.129 A 
ATOM     22  C   UNL A   1      31.836  28.960  25.214  1.00  0.00     0.129 A 
ATOM     23  F   UNL A   1      35.152  28.970  26.635  1.00  0.00    -0.207 F 
ATOM     24  C   UNL A   1      33.034  29.439  25.723  1.00  0.00     0.078 A 
ATOM     25  F   UNL A   1      30.879  29.826  24.854  1.00  0.00    -0.207 F 
ENDBRANCH  17  18
ENDBRANCH  11  17
ENDBRANCH   5   7
ENDBRANCH   4   5
ENDBRANCH   3   4
ENDBRANCH   2   3
ENDBRANCH   1   2
BRANCH   1  26
ATOM     26  C   UNL A   1      42.013  21.057  26.523  1.00  0.00     0.202 C 
BRANCH  26  27
ATOM     27  C   UNL A   1      43.131  21.711  25.695  1.00  0.00     0.261 C 
BRANCH  27  28
ATOM     28  O   UNL A   1      42.678  22.840  24.920  1.00  0.00    -0.460 OA
BRANCH  28  29
ATOM     29  C   UNL A   1      43.454  23.944  25.022  1.00  0.00     0.338 C 
ATOM     30  O   UNL A   1      44.492  24.183  24.413  1.00  0.00    -0.246 OA
BRANCH  29  31
ATOM     31  C   UNL A   1      42.807  24.966  25.861  1.00  0.00     0.060 A 
ATOM     32  C   UNL A   1      43.544  26.116  26.174  1.00  0.00     0.016 A 
ATOM     33  C   UNL A   1      41.559  24.743  26.446  1.00  0.00     0.016 A 
ATOM     34  C   UNL A   1      43.056  27.027  27.109  1.00  0.00     0.010 A 
ATOM     35  C   UNL A   1      41.077  25.652  27.397  1.00  0.00     0.010 A 
ATOM     36  C   UNL A   1      41.840  26.779  27.758  1.00  0.00    -0.014 A 
BRANCH  36  37
ATOM     37  C   UNL A   1      41.450  27.622  28.916  1.00  0.00     0.031 A 
ATOM     38  C   UNL A   1      42.222  27.502  30.202  1.00  0.00     0.074 A 
ATOM     39  C   UNL A   1      40.451  28.514  28.813  1.00  0.00     0.049 A 
ATOM     40  N   UNL A   1      42.049  28.133  31.337  1.00  0.00    -0.248 NA
ATOM     41  C   UNL A   1      43.341  26.548  30.209  1.00  0.00     0.031 C 
ATOM     42  C   UNL A   1      39.655  28.758  27.612  1.00  0.00     0.029 A 
ATOM     43  N   UNL A   1      39.934  29.383  29.742  1.00  0.00    -0.354 N 
ATOM     44  C   UNL A   1      43.034  27.653  32.190  1.00  0.00     0.074 A 
ATOM     45  C   UNL A   1      43.784  26.659  31.453  1.00  0.00     0.031 C 
ATOM     46  C   UNL A   1      38.741  29.705  27.881  1.00  0.00     0.029 A 
ATOM     47  C   UNL A   1      38.871  30.117  29.277  1.00  0.00     0.049 A 
ATOM     48  H   UNL A   1      40.292  29.471  30.656  1.00  0.00     0.167 HD
ATOM     49  C   UNL A   1      43.297  28.014  33.469  1.00  0.00     0.037 A 
ATOM     50  C   UNL A   1      38.083  31.005  29.913  1.00  0.00     0.037 A 
ATOM     51  C   UNL A   1      42.552  29.000  34.205  1.00  0.00     0.049 A 
ATOM     52  C   UNL A   1      38.349  31.337  31.357  1.00  0.00     0.074 A 
ATOM     53  C   UNL A   1      42.751  29.441  35.503  1.00  0.00     0.029 A 
ATOM     54  N   UNL A   1      41.459  29.694  33.711  1.00  0.00    -0.354 N 
ATOM     55  N   UNL A   1      39.295  30.891  32.147  1.00  0.00    -0.248 NA
ATOM     56  C   UNL A   1      37.437  32.297  31.997  1.00  0.00     0.031 C 
ATOM     57  C   UNL A   1      41.752  30.372  35.807  1.00  0.00     0.029 A 
ATOM     58  C   UNL A   1      40.958  30.543  34.684  1.00  0.00     0.049 A 
ATOM     59  H   UNL A   1      41.093  29.599  32.802  1.00  0.00     0.167 HD
ATOM     60  C   UNL A   1      39.109  31.534  33.365  1.00  0.00     0.074 A 
ATOM     61  C   UNL A   1      37.967  32.409  33.207  1.00  0.00     0.031 C 
ATOM     62  C   UNL A   1      39.823  31.412  34.511  1.00  0.00     0.037 A 
BRANCH  49  63
ATOM     63  C   UNL A   1      44.432  27.318  34.160  1.00  0.00     0.057 A 
ATOM     64  C   UNL A   1      44.252  26.106  34.837  1.00  0.00     0.134 A 
ATOM     65  C   UNL A   1      45.726  27.852  34.121  1.00  0.00     0.134 A 
ATOM     66  F   UNL A   1      43.034  25.549  34.923  1.00  0.00    -0.206 F 
ATOM     67  C   UNL A   1      45.314  25.459  35.470  1.00  0.00     0.040 A 
ATOM     68  C   UNL A   1      46.801  27.204  34.730  1.00  0.00     0.040 A 
ATOM     69  F   UNL A   1      45.967  29.008  33.484  1.00  0.00    -0.206 F 
ATOM     70  C   UNL A   1      46.596  26.006  35.413  1.00  0.00     0.006 A 
ENDBRANCH  49  63
BRANCH  50  71
ATOM     71  C   UNL A   1      36.949  31.638  29.193  1.00  0.00     0.057 A 
ATOM     72  C   UNL A   1      37.049  32.933  28.674  1.00  0.00     0.134 A 
ATOM     73  C   UNL A   1      35.733  30.966  29.025  1.00  0.00     0.134 A 
ATOM     74  F   UNL A   1      38.182  33.635  28.826  1.00  0.00    -0.206 F 
ATOM     75  C   UNL A   1      35.975  33.546  28.028  1.00  0.00     0.040 A 
ATOM     76  C   UNL A   1      34.657  31.558  28.361  1.00  0.00     0.040 A 
ATOM     77  F   UNL A   1      35.573  29.722  29.500  1.00  0.00    -0.206 F 
ATOM     78  C   UNL A   1      34.775  32.854  27.864  1.00  0.00     0.006 A 
ENDBRANCH  50  71
BRANCH  62  79
ATOM     79  C   UNL A   1      39.408  32.264  35.675  1.00  0.00     0.057 A 
ATOM     80  C   UNL A   1      39.909  33.559  35.856  1.00  0.00     0.134 A 
ATOM     81  C   UNL A   1      38.468  31.796  36.601  1.00  0.00     0.134 A 
ATOM     82  F   UNL A   1      40.821  34.060  35.010  1.00  0.00    -0.206 F 
ATOM     83  C   UNL A   1      39.501  34.353  36.929  1.00  0.00     0.040 A 
ATOM     84  C   UNL A   1      38.035  32.590  37.665  1.00  0.00     0.040 A 
ATOM     85  F   UNL A   1      37.944  30.567  36.480  1.00  0.00    -0.206 F 
ATOM     86  C   UNL A   1      38.556  33.871  37.833  1.00  0.00     0.006 A 
ENDBRANCH  62  79
ENDBRANCH  36  37
ENDBRANCH  29  31
ENDBRANCH  28  29
ENDBRANCH  27  28
ENDBRANCH  26  27
ENDBRANCH   1  26
TORSDOF 17
ENDMDL
