MODEL 1
REMARK VINA RESULT:     -10.7      0.000      0.000
REMARK SMILES C[C@]([NH2+]Cc1nc(-c2ccsc2)no1)(C(=O)OCCOCCOC(=O)c1ccc(-c2c3nc(c(-c4c(F)cccc4F)c4ccc([nH]4)c(-c4c(F)cccc4F)c4nc(c(-c5c(F)cccc5F)c5ccc2[nH]5)C=C4)C=C3)cc1)C(F)(F)F
REMARK SMILES IDX 19 1 18 2 17 3 15 4 16 5 2 6 1 7 80 8 81 9 82 10 83 11 3 12
REMARK SMILES IDX 4 15 5 16 6 17 14 18 7 19 13 20 8 21 9 22 12 23 10 24 11 25
REMARK SMILES IDX 20 26 21 27 22 28 23 29 24 30 25 31 26 32 27 33 79 34 28 35
REMARK SMILES IDX 78 36 29 37 30 38 31 39 72 40 32 41 77 42 71 43 73 44 33 45
REMARK SMILES IDX 76 46 70 47 69 48 34 50 60 51 43 52 59 53 44 54 47 55 58 56
REMARK SMILES IDX 74 57 45 58 46 59 57 61 75 62 48 63 35 64 36 65 41 66 37 67
REMARK SMILES IDX 38 68 40 69 42 70 39 71 61 72 62 73 67 74 63 75 64 76 66 77
REMARK SMILES IDX 68 78 65 79 49 80 50 81 55 82 51 83 52 84 54 85 56 86 53 87
REMARK H PARENT 3 13 3 14 73 49 47 60
REMARK Flexibility Score: inf
ROOT
ATOM      1  C   UNL A   1      33.041  29.383  26.178  1.00  0.00     0.202 C 
ENDROOT
BRANCH   1   2
ATOM      2  C   UNL A   1      33.552  28.148  26.924  1.00  0.00     0.261 C 
BRANCH   2   3
ATOM      3  O   UNL A   1      33.545  26.970  26.098  1.00  0.00    -0.458 OA
BRANCH   3   4
ATOM      4  C   UNL A   1      32.403  26.226  26.157  1.00  0.00     0.377 C 
ATOM      5  O   UNL A   1      31.475  26.485  26.915  1.00  0.00    -0.244 OA
BRANCH   4   6
ATOM      6  C   UNL A   1      32.426  24.987  25.247  1.00  0.00     0.287 C 
ATOM      7  C   UNL A   1      33.663  25.150  24.348  1.00  0.00     0.103 C 
BRANCH   6   8
ATOM      8  C   UNL A   1      32.631  23.813  26.244  1.00  0.00     0.455 C 
ATOM      9  F   UNL A   1      32.612  22.615  25.612  1.00  0.00    -0.164 F 
ATOM     10  F   UNL A   1      33.850  23.912  26.843  1.00  0.00    -0.164 F 
ATOM     11  F   UNL A   1      31.735  23.776  27.249  1.00  0.00    -0.164 F 
ENDBRANCH   6   8
BRANCH   6  12
ATOM     12  N   UNL A   1      31.187  24.912  24.355  1.00  0.00    -0.317 N 
ATOM     13  H   UNL A   1      30.367  25.138  24.918  1.00  0.00     0.347 HD
ATOM     14  H   UNL A   1      31.138  23.966  23.977  1.00  0.00     0.347 HD
BRANCH  12  15
ATOM     15  C   UNL A   1      31.248  25.845  23.213  1.00  0.00     0.363 C 
BRANCH  15  16
ATOM     16  C   UNL A   1      30.222  26.930  23.219  1.00  0.00     0.282 A 
ATOM     17  N   UNL A   1      30.353  28.179  22.828  1.00  0.00    -0.186 NA
ATOM     18  O   UNL A   1      28.947  26.606  23.584  1.00  0.00    -0.333 OA
ATOM     19  C   UNL A   1      29.077  28.661  22.968  1.00  0.00     0.203 A 
ATOM     20  N   UNL A   1      28.188  27.774  23.436  1.00  0.00    -0.057 NA
BRANCH  19  21
ATOM     21  C   UNL A   1      28.767  30.048  22.616  1.00  0.00     0.033 A 
ATOM     22  C   UNL A   1      28.767  31.108  23.576  1.00  0.00     0.024 A 
ATOM     23  C   UNL A   1      28.446  30.503  21.355  1.00  0.00     0.077 A 
ATOM     24  C   UNL A   1      28.445  32.323  23.010  1.00  0.00     0.065 A 
ATOM     25  S   UNL A   1      28.132  32.187  21.334  1.00  0.00    -0.152 S 
ENDBRANCH  19  21
ENDBRANCH  15  16
ENDBRANCH  12  15
ENDBRANCH   6  12
ENDBRANCH   4   6
ENDBRANCH   3   4
ENDBRANCH   2   3
ENDBRANCH   1   2
BRANCH   1  26
ATOM     26  O   UNL A   1      31.860  30.001  26.682  1.00  0.00    -0.374 OA
BRANCH  26  27
ATOM     27  C   UNL A   1      31.502  31.284  26.167  1.00  0.00     0.202 C 
BRANCH  27  28
ATOM     28  C   UNL A   1      31.466  32.459  27.153  1.00  0.00     0.261 C 
BRANCH  28  29
ATOM     29  O   UNL A   1      32.578  33.359  26.996  1.00  0.00    -0.460 OA
BRANCH  29  30
ATOM     30  C   UNL A   1      33.201  33.684  28.152  1.00  0.00     0.338 C 
ATOM     31  O   UNL A   1      32.743  34.338  29.083  1.00  0.00    -0.246 OA
BRANCH  30  32
ATOM     32  C   UNL A   1      34.501  32.998  28.261  1.00  0.00     0.060 A 
ATOM     33  C   UNL A   1      34.477  31.637  28.596  1.00  0.00     0.016 A 
ATOM     34  C   UNL A   1      35.714  33.683  28.164  1.00  0.00     0.016 A 
ATOM     35  C   UNL A   1      35.658  30.978  28.924  1.00  0.00     0.010 A 
ATOM     36  C   UNL A   1      36.901  33.020  28.500  1.00  0.00     0.010 A 
ATOM     37  C   UNL A   1      36.868  31.684  28.937  1.00  0.00    -0.014 A 
BRANCH  37  38
ATOM     38  C   UNL A   1      38.032  31.073  29.625  1.00  0.00     0.031 A 
ATOM     39  C   UNL A   1      38.262  31.400  31.077  1.00  0.00     0.074 A 
ATOM     40  C   UNL A   1      38.820  30.180  29.002  1.00  0.00     0.049 A 
ATOM     41  N   UNL A   1      39.166  30.936  31.902  1.00  0.00    -0.248 NA
ATOM     42  C   UNL A   1      37.347  32.384  31.681  1.00  0.00     0.031 C 
ATOM     43  C   UNL A   1      38.677  29.747  27.614  1.00  0.00     0.029 A 
ATOM     44  N   UNL A   1      39.893  29.464  29.472  1.00  0.00    -0.354 N 
ATOM     45  C   UNL A   1      38.930  31.571  33.115  1.00  0.00     0.074 A 
ATOM     46  C   UNL A   1      37.822  32.477  32.912  1.00  0.00     0.031 C 
ATOM     47  C   UNL A   1      39.625  28.833  27.344  1.00  0.00     0.029 A 
ATOM     48  C   UNL A   1      40.448  28.628  28.535  1.00  0.00     0.049 A 
ATOM     49  H   UNL A   1      40.232  29.543  30.392  1.00  0.00     0.167 HD
ATOM     50  C   UNL A   1      39.569  31.407  34.298  1.00  0.00     0.037 A 
ATOM     51  C   UNL A   1      41.500  27.793  28.632  1.00  0.00     0.037 A 
ATOM     52  C   UNL A   1      40.665  30.498  34.508  1.00  0.00     0.049 A 
ATOM     53  C   UNL A   1      42.224  27.659  29.946  1.00  0.00     0.074 A 
ATOM     54  C   UNL A   1      41.368  30.247  35.673  1.00  0.00     0.029 A 
ATOM     55  N   UNL A   1      41.218  29.693  33.525  1.00  0.00    -0.354 N 
ATOM     56  N   UNL A   1      41.971  28.240  31.094  1.00  0.00    -0.248 NA
ATOM     57  C   UNL A   1      43.372  26.741  29.979  1.00  0.00     0.031 C 
ATOM     58  C   UNL A   1      42.372  29.315  35.385  1.00  0.00     0.029 A 
ATOM     59  C   UNL A   1      42.266  28.957  34.051  1.00  0.00     0.049 A 
ATOM     60  H   UNL A   1      40.912  29.652  32.590  1.00  0.00     0.167 HD
ATOM     61  C   UNL A   1      42.902  27.731  31.992  1.00  0.00     0.074 A 
ATOM     62  C   UNL A   1      43.723  26.792  31.256  1.00  0.00     0.031 C 
ATOM     63  C   UNL A   1      43.060  28.012  33.309  1.00  0.00     0.037 A 
BRANCH  50  64
ATOM     64  C   UNL A   1      39.110  32.251  35.449  1.00  0.00     0.057 A 
ATOM     65  C   UNL A   1      38.239  31.756  36.429  1.00  0.00     0.134 A 
ATOM     66  C   UNL A   1      39.552  33.572  35.583  1.00  0.00     0.134 A 
ATOM     67  F   UNL A   1      37.765  30.504  36.348  1.00  0.00    -0.206 F 
ATOM     68  C   UNL A   1      37.804  32.555  37.488  1.00  0.00     0.040 A 
ATOM     69  C   UNL A   1      39.144  34.373  36.651  1.00  0.00     0.040 A 
ATOM     70  F   UNL A   1      40.389  34.105  34.681  1.00  0.00    -0.206 F 
ATOM     71  C   UNL A   1      38.261  33.867  37.603  1.00  0.00     0.006 A 
ENDBRANCH  50  64
BRANCH  51  72
ATOM     72  C   UNL A   1      41.926  26.994  27.457  1.00  0.00     0.057 A 
ATOM     73  C   UNL A   1      41.492  25.675  27.282  1.00  0.00     0.134 A 
ATOM     74  C   UNL A   1      42.794  27.521  26.495  1.00  0.00     0.134 A 
ATOM     75  F   UNL A   1      40.678  25.107  28.183  1.00  0.00    -0.206 F 
ATOM     76  C   UNL A   1      41.921  24.902  26.201  1.00  0.00     0.040 A 
ATOM     77  C   UNL A   1      43.214  26.767  25.397  1.00  0.00     0.040 A 
ATOM     78  F   UNL A   1      43.245  28.780  26.607  1.00  0.00    -0.206 F 
ATOM     79  C   UNL A   1      42.782  25.451  25.253  1.00  0.00     0.006 A 
ENDBRANCH  51  72
BRANCH  63  80
ATOM     80  C   UNL A   1      44.122  27.256  34.051  1.00  0.00     0.057 A 
ATOM     81  C   UNL A   1      45.447  27.708  34.117  1.00  0.00     0.134 A 
ATOM     82  C   UNL A   1      43.806  26.076  34.737  1.00  0.00     0.134 A 
ATOM     83  F   UNL A   1      45.816  28.824  33.472  1.00  0.00    -0.206 F 
ATOM     84  C   UNL A   1      46.423  26.998  34.817  1.00  0.00     0.040 A 
ATOM     85  C   UNL A   1      44.769  25.371  35.460  1.00  0.00     0.040 A 
ATOM     86  F   UNL A   1      42.554  25.595  34.722  1.00  0.00    -0.206 F 
ATOM     87  C   UNL A   1      46.084  25.829  35.496  1.00  0.00     0.006 A 
ENDBRANCH  63  80
ENDBRANCH  37  38
ENDBRANCH  30  32
ENDBRANCH  29  30
ENDBRANCH  28  29
ENDBRANCH  27  28
ENDBRANCH  26  27
ENDBRANCH   1  26
TORSDOF 19
ENDMDL
MODEL 2
REMARK VINA RESULT:     -10.6      4.958      9.808
REMARK SMILES C[C@]([NH2+]Cc1nc(-c2ccsc2)no1)(C(=O)OCCOCCOC(=O)c1ccc(-c2c3nc(c(-c4c(F)cccc4F)c4ccc([nH]4)c(-c4c(F)cccc4F)c4nc(c(-c5c(F)cccc5F)c5ccc2[nH]5)C=C4)C=C3)cc1)C(F)(F)F
REMARK SMILES IDX 19 1 18 2 17 3 15 4 16 5 2 6 1 7 80 8 81 9 82 10 83 11 3 12
REMARK SMILES IDX 4 15 5 16 6 17 14 18 7 19 13 20 8 21 9 22 12 23 10 24 11 25
REMARK SMILES IDX 20 26 21 27 22 28 23 29 24 30 25 31 26 32 27 33 79 34 28 35
REMARK SMILES IDX 78 36 29 37 30 38 31 39 72 40 32 41 77 42 71 43 73 44 33 45
REMARK SMILES IDX 76 46 70 47 69 48 34 50 60 51 43 52 59 53 44 54 47 55 58 56
REMARK SMILES IDX 74 57 45 58 46 59 57 61 75 62 48 63 35 64 36 65 41 66 37 67
REMARK SMILES IDX 38 68 40 69 42 70 39 71 61 72 62 73 67 74 63 75 64 76 66 77
REMARK SMILES IDX 68 78 65 79 49 80 50 81 55 82 51 83 52 84 54 85 56 86 53 87
REMARK H PARENT 3 13 3 14 73 49 47 60
REMARK Flexibility Score: inf
ROOT
ATOM      1  C   UNL A   1      35.969  23.666  24.447  1.00  0.00     0.202 C 
ENDROOT
BRANCH   1   2
ATOM      2  C   UNL A   1      34.969  24.510  25.241  1.00  0.00     0.261 C 
BRANCH   2   3
ATOM      3  O   UNL A   1      33.621  24.023  25.111  1.00  0.00    -0.458 OA
BRANCH   3   4
ATOM      4  C   UNL A   1      32.751  24.879  24.501  1.00  0.00     0.377 C 
ATOM      5  O   UNL A   1      32.292  25.871  25.054  1.00  0.00    -0.244 OA
BRANCH   4   6
ATOM      6  C   UNL A   1      32.337  24.435  23.088  1.00  0.00     0.287 C 
ATOM      7  C   UNL A   1      30.806  24.305  23.121  1.00  0.00     0.103 C 
BRANCH   6   8
ATOM      8  C   UNL A   1      32.761  25.635  22.197  1.00  0.00     0.455 C 
ATOM      9  F   UNL A   1      31.997  26.727  22.438  1.00  0.00    -0.164 F 
ATOM     10  F   UNL A   1      34.045  25.997  22.473  1.00  0.00    -0.164 F 
ATOM     11  F   UNL A   1      32.733  25.382  20.874  1.00  0.00    -0.164 F 
ENDBRANCH   6   8
BRANCH   6  12
ATOM     12  N   UNL A   1      32.930  23.075  22.722  1.00  0.00    -0.317 N 
ATOM     13  H   UNL A   1      33.680  22.859  23.379  1.00  0.00     0.347 HD
ATOM     14  H   UNL A   1      33.273  23.138  21.764  1.00  0.00     0.347 HD
BRANCH  12  15
ATOM     15  C   UNL A   1      31.934  21.986  22.768  1.00  0.00     0.363 C 
BRANCH  15  16
ATOM     16  C   UNL A   1      32.234  20.886  23.732  1.00  0.00     0.282 A 
ATOM     17  N   UNL A   1      32.543  19.634  23.471  1.00  0.00    -0.186 NA
ATOM     18  O   UNL A   1      32.295  21.194  25.060  1.00  0.00    -0.333 OA
ATOM     19  C   UNL A   1      32.805  19.134  24.720  1.00  0.00     0.203 A 
ATOM     20  N   UNL A   1      32.656  20.013  25.721  1.00  0.00    -0.057 NA
BRANCH  19  21
ATOM     21  C   UNL A   1      33.214  17.738  24.889  1.00  0.00     0.033 A 
ATOM     22  C   UNL A   1      34.549  17.288  24.642  1.00  0.00     0.024 A 
ATOM     23  C   UNL A   1      32.395  16.706  25.295  1.00  0.00     0.077 A 
ATOM     24  C   UNL A   1      34.692  15.936  24.867  1.00  0.00     0.065 A 
ATOM     25  S   UNL A   1      33.225  15.209  25.362  1.00  0.00    -0.152 S 
ENDBRANCH  19  21
ENDBRANCH  15  16
ENDBRANCH  12  15
ENDBRANCH   6  12
ENDBRANCH   4   6
ENDBRANCH   3   4
ENDBRANCH   2   3
ENDBRANCH   1   2
BRANCH   1  26
ATOM     26  O   UNL A   1      35.648  22.290  24.257  1.00  0.00    -0.374 OA
BRANCH  26  27
ATOM     27  C   UNL A   1      36.050  21.362  25.264  1.00  0.00     0.202 C 
BRANCH  27  28
ATOM     28  C   UNL A   1      37.329  20.553  25.014  1.00  0.00     0.261 C 
BRANCH  28  29
ATOM     29  O   UNL A   1      38.515  21.368  24.998  1.00  0.00    -0.460 OA
BRANCH  29  30
ATOM     30  C   UNL A   1      39.414  21.065  25.962  1.00  0.00     0.338 C 
ATOM     31  O   UNL A   1      39.997  19.998  26.123  1.00  0.00    -0.246 OA
BRANCH  30  32
ATOM     32  C   UNL A   1      39.768  22.261  26.747  1.00  0.00     0.060 A 
ATOM     33  C   UNL A   1      39.078  23.444  26.449  1.00  0.00     0.016 A 
ATOM     34  C   UNL A   1      40.826  22.267  27.658  1.00  0.00     0.016 A 
ATOM     35  C   UNL A   1      39.499  24.653  26.993  1.00  0.00     0.010 A 
ATOM     36  C   UNL A   1      41.253  23.485  28.199  1.00  0.00     0.010 A 
ATOM     37  C   UNL A   1      40.628  24.688  27.822  1.00  0.00    -0.014 A 
BRANCH  37  38
ATOM     38  C   UNL A   1      41.266  26.000  28.091  1.00  0.00     0.031 A 
ATOM     39  C   UNL A   1      42.645  26.256  27.544  1.00  0.00     0.074 A 
ATOM     40  C   UNL A   1      40.603  26.979  28.732  1.00  0.00     0.049 A 
ATOM     41  N   UNL A   1      43.370  27.344  27.589  1.00  0.00    -0.248 NA
ATOM     42  C   UNL A   1      43.294  25.131  26.849  1.00  0.00     0.031 C 
ATOM     43  C   UNL A   1      39.250  26.872  29.272  1.00  0.00     0.029 A 
ATOM     44  N   UNL A   1      40.983  28.265  29.021  1.00  0.00    -0.354 N 
ATOM     45  C   UNL A   1      44.557  27.034  26.935  1.00  0.00     0.074 A 
ATOM     46  C   UNL A   1      44.469  25.648  26.531  1.00  0.00     0.031 C 
ATOM     47  C   UNL A   1      38.908  28.049  29.824  1.00  0.00     0.029 A 
ATOM     48  C   UNL A   1      40.023  28.985  29.688  1.00  0.00     0.049 A 
ATOM     49  H   UNL A   1      41.861  28.636  28.776  1.00  0.00     0.167 HD
ATOM     50  C   UNL A   1      45.620  27.833  26.681  1.00  0.00     0.037 A 
ATOM     51  C   UNL A   1      40.045  30.256  30.134  1.00  0.00     0.037 A 
ATOM     52  C   UNL A   1      45.708  29.215  27.070  1.00  0.00     0.049 A 
ATOM     53  C   UNL A   1      41.257  31.112  29.878  1.00  0.00     0.074 A 
ATOM     54  C   UNL A   1      46.736  30.113  26.844  1.00  0.00     0.029 A 
ATOM     55  N   UNL A   1      44.727  29.897  27.772  1.00  0.00    -0.354 N 
ATOM     56  N   UNL A   1      42.358  30.818  29.231  1.00  0.00    -0.248 NA
ATOM     57  C   UNL A   1      41.220  32.485  30.405  1.00  0.00     0.031 C 
ATOM     58  C   UNL A   1      46.391  31.331  27.442  1.00  0.00     0.029 A 
ATOM     59  C   UNL A   1      45.131  31.201  28.004  1.00  0.00     0.049 A 
ATOM     60  H   UNL A   1      43.869  29.512  28.064  1.00  0.00     0.167 HD
ATOM     61  C   UNL A   1      43.127  31.976  29.240  1.00  0.00     0.074 A 
ATOM     62  C   UNL A   1      42.365  32.978  29.955  1.00  0.00     0.031 C 
ATOM     63  C   UNL A   1      44.352  32.192  28.700  1.00  0.00     0.037 A 
BRANCH  50  64
ATOM     64  C   UNL A   1      46.786  27.217  25.966  1.00  0.00     0.057 A 
ATOM     65  C   UNL A   1      47.761  26.472  26.644  1.00  0.00     0.134 A 
ATOM     66  C   UNL A   1      46.930  27.362  24.582  1.00  0.00     0.134 A 
ATOM     67  F   UNL A   1      47.690  26.310  27.974  1.00  0.00    -0.206 F 
ATOM     68  C   UNL A   1      48.851  25.916  25.973  1.00  0.00     0.040 A 
ATOM     69  C   UNL A   1      48.002  26.790  23.895  1.00  0.00     0.040 A 
ATOM     70  F   UNL A   1      46.029  28.061  23.873  1.00  0.00    -0.206 F 
ATOM     71  C   UNL A   1      48.970  26.071  24.592  1.00  0.00     0.006 A 
ENDBRANCH  50  64
BRANCH  51  72
ATOM     72  C   UNL A   1      38.872  30.811  30.853  1.00  0.00     0.057 A 
ATOM     73  C   UNL A   1      38.725  30.645  32.235  1.00  0.00     0.134 A 
ATOM     74  C   UNL A   1      37.861  31.499  30.174  1.00  0.00     0.134 A 
ATOM     75  F   UNL A   1      39.650  29.975  32.937  1.00  0.00    -0.206 F 
ATOM     76  C   UNL A   1      37.604  31.128  32.914  1.00  0.00     0.040 A 
ATOM     77  C   UNL A   1      36.745  32.006  30.843  1.00  0.00     0.040 A 
ATOM     78  F   UNL A   1      37.944  31.691  28.849  1.00  0.00    -0.206 F 
ATOM     79  C   UNL A   1      36.612  31.815  32.216  1.00  0.00     0.006 A 
ENDBRANCH  51  72
BRANCH  63  80
ATOM     80  C   UNL A   1      44.919  33.576  28.813  1.00  0.00     0.057 A 
ATOM     81  C   UNL A   1      45.742  33.956  29.881  1.00  0.00     0.134 A 
ATOM     82  C   UNL A   1      44.664  34.530  27.820  1.00  0.00     0.134 A 
ATOM     83  F   UNL A   1      46.015  33.093  30.870  1.00  0.00    -0.206 F 
ATOM     84  C   UNL A   1      46.269  35.246  29.969  1.00  0.00     0.040 A 
ATOM     85  C   UNL A   1      45.205  35.814  27.885  1.00  0.00     0.040 A 
ATOM     86  F   UNL A   1      43.892  34.226  26.766  1.00  0.00    -0.206 F 
ATOM     87  C   UNL A   1      46.006  36.177  28.966  1.00  0.00     0.006 A 
ENDBRANCH  63  80
ENDBRANCH  37  38
ENDBRANCH  30  32
ENDBRANCH  29  30
ENDBRANCH  28  29
ENDBRANCH  27  28
ENDBRANCH  26  27
ENDBRANCH   1  26
TORSDOF 19
ENDMDL
MODEL 3
REMARK VINA RESULT:     -10.5      2.942      4.611
REMARK SMILES C[C@]([NH2+]Cc1nc(-c2ccsc2)no1)(C(=O)OCCOCCOC(=O)c1ccc(-c2c3nc(c(-c4c(F)cccc4F)c4ccc([nH]4)c(-c4c(F)cccc4F)c4nc(c(-c5c(F)cccc5F)c5ccc2[nH]5)C=C4)C=C3)cc1)C(F)(F)F
REMARK SMILES IDX 19 1 18 2 17 3 15 4 16 5 2 6 1 7 80 8 81 9 82 10 83 11 3 12
REMARK SMILES IDX 4 15 5 16 6 17 14 18 7 19 13 20 8 21 9 22 12 23 10 24 11 25
REMARK SMILES IDX 20 26 21 27 22 28 23 29 24 30 25 31 26 32 27 33 79 34 28 35
REMARK SMILES IDX 78 36 29 37 30 38 31 39 72 40 32 41 77 42 71 43 73 44 33 45
REMARK SMILES IDX 76 46 70 47 69 48 34 50 60 51 43 52 59 53 44 54 47 55 58 56
REMARK SMILES IDX 74 57 45 58 46 59 57 61 75 62 48 63 35 64 36 65 41 66 37 67
REMARK SMILES IDX 38 68 40 69 42 70 39 71 61 72 62 73 67 74 63 75 64 76 66 77
REMARK SMILES IDX 68 78 65 79 49 80 50 81 55 82 51 83 52 84 54 85 56 86 53 87
REMARK H PARENT 3 13 3 14 73 49 47 60
REMARK Flexibility Score: inf
ROOT
ATOM      1  C   UNL A   1      32.261  29.667  25.506  1.00  0.00     0.202 C 
ENDROOT
BRANCH   1   2
ATOM      2  C   UNL A   1      31.771  28.261  25.861  1.00  0.00     0.261 C 
BRANCH   2   3
ATOM      3  O   UNL A   1      31.471  27.477  24.693  1.00  0.00    -0.458 OA
BRANCH   3   4
ATOM      4  C   UNL A   1      32.408  26.540  24.367  1.00  0.00     0.377 C 
ATOM      5  O   UNL A   1      33.550  26.555  24.811  1.00  0.00    -0.244 OA
BRANCH   4   6
ATOM      6  C   UNL A   1      31.921  25.516  23.328  1.00  0.00     0.287 C 
ATOM      7  C   UNL A   1      30.480  25.163  23.731  1.00  0.00     0.103 C 
BRANCH   6   8
ATOM      8  C   UNL A   1      31.930  26.322  21.999  1.00  0.00     0.455 C 
ATOM      9  F   UNL A   1      30.791  27.039  21.846  1.00  0.00    -0.164 F 
ATOM     10  F   UNL A   1      32.952  27.222  22.002  1.00  0.00    -0.164 F 
ATOM     11  F   UNL A   1      32.111  25.571  20.896  1.00  0.00    -0.164 F 
ENDBRANCH   6   8
BRANCH   6  12
ATOM     12  N   UNL A   1      32.757  24.237  23.353  1.00  0.00    -0.317 N 
ATOM     13  H   UNL A   1      33.488  24.340  24.056  1.00  0.00     0.347 HD
ATOM     14  H   UNL A   1      33.146  24.107  22.419  1.00  0.00     0.347 HD
BRANCH  12  15
ATOM     15  C   UNL A   1      31.959  23.038  23.674  1.00  0.00     0.363 C 
BRANCH  15  16
ATOM     16  C   UNL A   1      32.744  21.845  24.110  1.00  0.00     0.282 A 
ATOM     17  N   UNL A   1      32.342  20.598  24.216  1.00  0.00    -0.186 NA
ATOM     18  O   UNL A   1      34.077  22.008  24.353  1.00  0.00    -0.333 OA
ATOM     19  C   UNL A   1      33.501  19.948  24.555  1.00  0.00     0.203 A 
ATOM     20  N   UNL A   1      34.576  20.739  24.672  1.00  0.00    -0.057 NA
BRANCH  19  21
ATOM     21  C   UNL A   1      33.504  18.497  24.758  1.00  0.00     0.033 A 
ATOM     22  C   UNL A   1      34.465  17.633  24.146  1.00  0.00     0.024 A 
ATOM     23  C   UNL A   1      32.614  17.795  25.542  1.00  0.00     0.077 A 
ATOM     24  C   UNL A   1      34.267  16.312  24.484  1.00  0.00     0.065 A 
ATOM     25  S   UNL A   1      32.924  16.110  25.525  1.00  0.00    -0.152 S 
ENDBRANCH  19  21
ENDBRANCH  15  16
ENDBRANCH  12  15
ENDBRANCH   6  12
ENDBRANCH   4   6
ENDBRANCH   3   4
ENDBRANCH   2   3
ENDBRANCH   1   2
BRANCH   1  26
ATOM     26  O   UNL A   1      32.310  30.622  26.563  1.00  0.00    -0.374 OA
BRANCH  26  27
ATOM     27  C   UNL A   1      31.391  31.714  26.523  1.00  0.00     0.202 C 
BRANCH  27  28
ATOM     28  C   UNL A   1      31.945  33.118  26.798  1.00  0.00     0.261 C 
BRANCH  28  29
ATOM     29  O   UNL A   1      32.237  33.345  28.189  1.00  0.00    -0.460 OA
BRANCH  29  30
ATOM     30  C   UNL A   1      33.316  34.128  28.412  1.00  0.00     0.338 C 
ATOM     31  O   UNL A   1      33.323  35.329  28.657  1.00  0.00    -0.246 OA
BRANCH  30  32
ATOM     32  C   UNL A   1      34.545  33.318  28.501  1.00  0.00     0.060 A 
ATOM     33  C   UNL A   1      34.421  32.030  29.039  1.00  0.00     0.016 A 
ATOM     34  C   UNL A   1      35.803  33.838  28.188  1.00  0.00     0.016 A 
ATOM     35  C   UNL A   1      35.558  31.292  29.350  1.00  0.00     0.010 A 
ATOM     36  C   UNL A   1      36.946  33.096  28.507  1.00  0.00     0.010 A 
ATOM     37  C   UNL A   1      36.827  31.847  29.143  1.00  0.00    -0.014 A 
BRANCH  37  38
ATOM     38  C   UNL A   1      37.993  31.209  29.803  1.00  0.00     0.031 A 
ATOM     39  C   UNL A   1      38.254  31.515  31.254  1.00  0.00     0.074 A 
ATOM     40  C   UNL A   1      38.754  30.309  29.155  1.00  0.00     0.049 A 
ATOM     41  N   UNL A   1      39.164  31.026  32.056  1.00  0.00    -0.248 NA
ATOM     42  C   UNL A   1      37.368  32.507  31.885  1.00  0.00     0.031 C 
ATOM     43  C   UNL A   1      38.579  29.895  27.765  1.00  0.00     0.029 A 
ATOM     44  N   UNL A   1      39.822  29.569  29.598  1.00  0.00    -0.354 N 
ATOM     45  C   UNL A   1      38.962  31.650  33.282  1.00  0.00     0.074 A 
ATOM     46  C   UNL A   1      37.866  32.578  33.109  1.00  0.00     0.031 C 
ATOM     47  C   UNL A   1      39.505  28.968  27.468  1.00  0.00     0.029 A 
ATOM     48  C   UNL A   1      40.346  28.735  28.641  1.00  0.00     0.049 A 
ATOM     49  H   UNL A   1      40.179  29.632  30.513  1.00  0.00     0.167 HD
ATOM     50  C   UNL A   1      39.619  31.461  34.450  1.00  0.00     0.037 A 
ATOM     51  C   UNL A   1      41.385  27.881  28.710  1.00  0.00     0.037 A 
ATOM     52  C   UNL A   1      40.701  30.531  34.630  1.00  0.00     0.049 A 
ATOM     53  C   UNL A   1      42.129  27.720  30.009  1.00  0.00     0.074 A 
ATOM     54  C   UNL A   1      41.421  30.254  35.780  1.00  0.00     0.029 A 
ATOM     55  N   UNL A   1      41.223  29.729  33.628  1.00  0.00    -0.354 N 
ATOM     56  N   UNL A   1      41.907  28.291  31.168  1.00  0.00    -0.248 NA
ATOM     57  C   UNL A   1      43.262  26.782  30.011  1.00  0.00     0.031 C 
ATOM     58  C   UNL A   1      42.403  29.309  35.463  1.00  0.00     0.029 A 
ATOM     59  C   UNL A   1      42.267  28.968  34.127  1.00  0.00     0.049 A 
ATOM     60  H   UNL A   1      40.900  29.703  32.698  1.00  0.00     0.167 HD
ATOM     61  C   UNL A   1      42.845  27.756  32.043  1.00  0.00     0.074 A 
ATOM     62  C   UNL A   1      43.636  26.812  31.282  1.00  0.00     0.031 C 
ATOM     63  C   UNL A   1      43.031  28.018  33.360  1.00  0.00     0.037 A 
BRANCH  50  64
ATOM     64  C   UNL A   1      39.195  32.299  35.619  1.00  0.00     0.057 A 
ATOM     65  C   UNL A   1      38.292  31.826  36.582  1.00  0.00     0.134 A 
ATOM     66  C   UNL A   1      39.702  33.593  35.789  1.00  0.00     0.134 A 
ATOM     67  F   UNL A   1      37.756  30.602  36.467  1.00  0.00    -0.206 F 
ATOM     68  C   UNL A   1      37.891  32.620  37.657  1.00  0.00     0.040 A 
ATOM     69  C   UNL A   1      39.328  34.387  36.873  1.00  0.00     0.040 A 
ATOM     70  F   UNL A   1      40.572  34.104  34.904  1.00  0.00    -0.206 F 
ATOM     71  C   UNL A   1      38.414  33.904  37.807  1.00  0.00     0.006 A 
ENDBRANCH  50  64
BRANCH  51  72
ATOM     72  C   UNL A   1      41.776  27.088  27.518  1.00  0.00     0.057 A 
ATOM     73  C   UNL A   1      41.313  25.781  27.334  1.00  0.00     0.134 A 
ATOM     74  C   UNL A   1      42.638  27.611  26.549  1.00  0.00     0.134 A 
ATOM     75  F   UNL A   1      40.502  25.218  28.241  1.00  0.00    -0.206 F 
ATOM     76  C   UNL A   1      41.709  25.013  26.237  1.00  0.00     0.040 A 
ATOM     77  C   UNL A   1      43.026  26.862  25.435  1.00  0.00     0.040 A 
ATOM     78  F   UNL A   1      43.116  28.859  26.669  1.00  0.00    -0.206 F 
ATOM     79  C   UNL A   1      42.565  25.557  25.282  1.00  0.00     0.006 A 
ENDBRANCH  51  72
BRANCH  63  80
ATOM     80  C   UNL A   1      44.093  27.235  34.074  1.00  0.00     0.057 A 
ATOM     81  C   UNL A   1      43.826  25.998  34.674  1.00  0.00     0.134 A 
ATOM     82  C   UNL A   1      45.409  27.713  34.133  1.00  0.00     0.134 A 
ATOM     83  F   UNL A   1      42.585  25.491  34.663  1.00  0.00    -0.206 F 
ATOM     84  C   UNL A   1      44.826  25.276  35.329  1.00  0.00     0.040 A 
ATOM     85  C   UNL A   1      46.421  26.989  34.764  1.00  0.00     0.040 A 
ATOM     86  F   UNL A   1      45.733  28.887  33.570  1.00  0.00    -0.206 F 
ATOM     87  C   UNL A   1      46.129  25.769  35.370  1.00  0.00     0.006 A 
ENDBRANCH  63  80
ENDBRANCH  37  38
ENDBRANCH  30  32
ENDBRANCH  29  30
ENDBRANCH  28  29
ENDBRANCH  27  28
ENDBRANCH  26  27
ENDBRANCH   1  26
TORSDOF 19
ENDMDL
