MODEL 1
REMARK VINA RESULT:     -12.2      0.000      0.000
REMARK SMILES COc1c[nH]c(C[N@H+]2CCC[C@@H](c3ccc(C(=O)OCCOCCOC(=O)c4ccc(-c5c6nc(c(-c7c(F)cccc7F)c7ccc([nH]7)c(-c7c(F)cccc7F)c7nc(c(-c8c(F)cccc8F)c8ccc5[nH]8)C=C7)C=C6)cc4)cc3)C2)cc1=O
REMARK SMILES IDX 21 1 20 2 19 3 17 4 18 5 16 6 13 7 14 8 83 9 15 10 82 11
REMARK SMILES IDX 12 12 8 13 9 14 84 15 10 17 11 18 7 19 6 20 3 21 4 22 86 23
REMARK SMILES IDX 5 24 85 25 87 26 2 28 1 29 22 30 23 31 24 32 25 33 26 34
REMARK SMILES IDX 27 35 28 36 29 37 81 38 30 39 80 40 31 41 32 42 33 43 74 44
REMARK SMILES IDX 34 45 79 46 73 47 75 48 35 49 78 50 72 51 71 52 36 54 62 55
REMARK SMILES IDX 45 56 61 57 46 58 49 59 60 60 76 61 47 62 48 63 59 65 77 66
REMARK SMILES IDX 50 67 37 68 38 69 43 70 39 71 40 72 42 73 44 74 41 75 63 76
REMARK SMILES IDX 64 77 69 78 65 79 66 80 68 81 70 82 67 83 51 84 52 85 57 86
REMARK SMILES IDX 53 87 54 88 56 89 58 90 55 91
REMARK H PARENT 8 16 5 27 75 53 49 64
REMARK Flexibility Score: inf
ROOT
ATOM      1  C   UNL A   1      42.777  19.522  25.373  1.00  0.00     0.202 C 
ENDROOT
BRANCH   1   2
ATOM      2  C   UNL A   1      41.946  19.844  26.618  1.00  0.00     0.261 C 
BRANCH   2   3
ATOM      3  O   UNL A   1      40.589  20.153  26.264  1.00  0.00    -0.460 OA
BRANCH   3   4
ATOM      4  C   UNL A   1      40.107  21.283  26.830  1.00  0.00     0.338 C 
ATOM      5  O   UNL A   1      40.584  21.895  27.775  1.00  0.00    -0.246 OA
BRANCH   4   6
ATOM      6  C   UNL A   1      38.974  21.810  26.042  1.00  0.00     0.060 A 
ATOM      7  C   UNL A   1      36.680  22.884  24.845  1.00  0.00    -0.039 A 
ATOM      8  C   UNL A   1      37.529  23.695  25.618  1.00  0.00     0.005 A 
ATOM      9  C   UNL A   1      37.060  21.557  24.588  1.00  0.00     0.005 A 
ATOM     10  C   UNL A   1      38.653  23.156  26.232  1.00  0.00     0.016 A 
ATOM     11  C   UNL A   1      38.212  21.020  25.177  1.00  0.00     0.016 A 
BRANCH   7  12
ATOM     12  C   UNL A   1      35.275  23.368  24.491  1.00  0.00     0.074 C 
ATOM     13  N   UNL A   1      32.870  22.605  24.828  1.00  0.00    -0.329 N 
ATOM     14  C   UNL A   1      32.550  23.890  25.463  1.00  0.00     0.262 C 
ATOM     15  C   UNL A   1      34.289  22.276  24.972  1.00  0.00     0.270 C 
ATOM     16  H   UNL A   1      32.682  22.711  23.831  1.00  0.00     0.348 HD
ATOM     17  C   UNL A   1      33.423  25.020  24.907  1.00  0.00     0.062 C 
ATOM     18  C   UNL A   1      34.911  24.728  25.103  1.00  0.00     0.020 C 
BRANCH  13  19
ATOM     19  C   UNL A   1      31.993  21.509  25.302  1.00  0.00     0.317 C 
BRANCH  19  20
ATOM     20  C   UNL A   1      32.374  20.083  24.900  1.00  0.00     0.074 A 
ATOM     21  C   UNL A   1      32.943  17.322  24.411  1.00  0.00     0.182 A 
ATOM     22  C   UNL A   1      33.042  17.880  25.625  1.00  0.00     0.133 A 
ATOM     23  C   UNL A   1      32.579  18.249  23.281  1.00  0.00     0.223 A 
ATOM     24  N   UNL A   1      32.839  19.211  25.870  1.00  0.00    -0.357 N 
ATOM     25  C   UNL A   1      32.269  19.668  23.623  1.00  0.00     0.083 A 
ATOM     26  O   UNL A   1      32.509  17.882  22.111  1.00  0.00    -0.286 OA
ATOM     27  H   UNL A   1      33.029  19.560  26.770  1.00  0.00     0.166 HD
BRANCH  21  28
ATOM     28  O   UNL A   1      33.083  15.958  24.245  1.00  0.00    -0.491 OA
ATOM     29  C   UNL A   1      33.213  15.268  25.484  1.00  0.00     0.278 C 
ENDBRANCH  21  28
ENDBRANCH  19  20
ENDBRANCH  13  19
ENDBRANCH   7  12
ENDBRANCH   4   6
ENDBRANCH   3   4
ENDBRANCH   2   3
ENDBRANCH   1   2
BRANCH   1  30
ATOM     30  O   UNL A   1      43.974  20.280  25.202  1.00  0.00    -0.374 OA
BRANCH  30  31
ATOM     31  C   UNL A   1      44.096  21.486  25.961  1.00  0.00     0.202 C 
BRANCH  31  32
ATOM     32  C   UNL A   1      45.360  22.317  25.714  1.00  0.00     0.261 C 
BRANCH  32  33
ATOM     33  O   UNL A   1      45.072  23.728  25.695  1.00  0.00    -0.460 OA
BRANCH  33  34
ATOM     34  C   UNL A   1      43.873  24.061  25.166  1.00  0.00     0.338 C 
ATOM     35  O   UNL A   1      43.337  23.583  24.176  1.00  0.00    -0.246 OA
BRANCH  34  36
ATOM     36  C   UNL A   1      43.171  24.990  26.071  1.00  0.00     0.060 A 
ATOM     37  C   UNL A   1      43.647  26.306  26.147  1.00  0.00     0.016 A 
ATOM     38  C   UNL A   1      42.110  24.570  26.876  1.00  0.00     0.016 A 
ATOM     39  C   UNL A   1      43.092  27.197  27.062  1.00  0.00     0.010 A 
ATOM     40  C   UNL A   1      41.562  25.463  27.801  1.00  0.00     0.010 A 
ATOM     41  C   UNL A   1      42.072  26.769  27.921  1.00  0.00    -0.014 A 
BRANCH  41  42
ATOM     42  C   UNL A   1      41.639  27.637  29.042  1.00  0.00     0.031 A 
ATOM     43  C   UNL A   1      42.379  27.560  30.347  1.00  0.00     0.074 A 
ATOM     44  C   UNL A   1      40.607  28.486  28.896  1.00  0.00     0.049 A 
ATOM     45  N   UNL A   1      42.130  28.168  31.480  1.00  0.00    -0.248 NA
ATOM     46  C   UNL A   1      43.555  26.676  30.382  1.00  0.00     0.031 C 
ATOM     47  C   UNL A   1      39.840  28.683  27.668  1.00  0.00     0.029 A 
ATOM     48  N   UNL A   1      40.021  29.335  29.801  1.00  0.00    -0.354 N 
ATOM     49  C   UNL A   1      43.112  27.735  32.362  1.00  0.00     0.074 A 
ATOM     50  C   UNL A   1      43.944  26.794  31.643  1.00  0.00     0.031 C 
ATOM     51  C   UNL A   1      38.871  29.585  27.901  1.00  0.00     0.029 A 
ATOM     52  C   UNL A   1      38.930  30.001  29.301  1.00  0.00     0.049 A 
ATOM     53  H   UNL A   1      40.352  29.455  30.721  1.00  0.00     0.167 HD
ATOM     54  C   UNL A   1      43.305  28.093  33.653  1.00  0.00     0.037 A 
ATOM     55  C   UNL A   1      38.062  30.829  29.914  1.00  0.00     0.037 A 
ATOM     56  C   UNL A   1      42.478  29.031  34.365  1.00  0.00     0.049 A 
ATOM     57  C   UNL A   1      38.252  31.155  31.371  1.00  0.00     0.074 A 
ATOM     58  C   UNL A   1      42.604  29.475  35.669  1.00  0.00     0.029 A 
ATOM     59  N   UNL A   1      41.364  29.663  33.831  1.00  0.00    -0.354 N 
ATOM     60  N   UNL A   1      39.193  30.756  32.192  1.00  0.00    -0.248 NA
ATOM     61  C   UNL A   1      37.256  32.044  31.989  1.00  0.00     0.031 C 
ATOM     62  C   UNL A   1      41.539  30.341  35.940  1.00  0.00     0.029 A 
ATOM     63  C   UNL A   1      40.779  30.474  34.789  1.00  0.00     0.049 A 
ATOM     64  H   UNL A   1      41.039  29.552  32.909  1.00  0.00     0.167 HD
ATOM     65  C   UNL A   1      38.922  31.367  33.410  1.00  0.00     0.074 A 
ATOM     66  C   UNL A   1      37.731  32.169  33.220  1.00  0.00     0.031 C 
ATOM     67  C   UNL A   1      39.600  31.274  34.581  1.00  0.00     0.037 A 
BRANCH  54  68
ATOM     68  C   UNL A   1      44.442  27.449  34.386  1.00  0.00     0.057 A 
ATOM     69  C   UNL A   1      44.294  26.228  35.058  1.00  0.00     0.134 A 
ATOM     70  C   UNL A   1      45.711  28.041  34.395  1.00  0.00     0.134 A 
ATOM     71  F   UNL A   1      43.100  25.617  35.101  1.00  0.00    -0.206 F 
ATOM     72  C   UNL A   1      45.362  25.631  35.729  1.00  0.00     0.040 A 
ATOM     73  C   UNL A   1      46.793  27.441  35.042  1.00  0.00     0.040 A 
ATOM     74  F   UNL A   1      45.922  29.208  33.768  1.00  0.00    -0.206 F 
ATOM     75  C   UNL A   1      46.618  26.234  35.716  1.00  0.00     0.006 A 
ENDBRANCH  54  68
BRANCH  55  76
ATOM     76  C   UNL A   1      36.918  31.397  29.157  1.00  0.00     0.057 A 
ATOM     77  C   UNL A   1      35.789  30.626  28.860  1.00  0.00     0.134 A 
ATOM     78  C   UNL A   1      36.934  32.721  28.698  1.00  0.00     0.134 A 
ATOM     79  F   UNL A   1      35.726  29.345  29.251  1.00  0.00    -0.206 F 
ATOM     80  C   UNL A   1      34.724  31.143  28.121  1.00  0.00     0.040 A 
ATOM     81  C   UNL A   1      35.867  33.258  27.979  1.00  0.00     0.040 A 
ATOM     82  F   UNL A   1      37.988  33.512  28.950  1.00  0.00    -0.206 F 
ATOM     83  C   UNL A   1      34.760  32.466  27.682  1.00  0.00     0.006 A 
ENDBRANCH  55  76
BRANCH  67  84
ATOM     84  C   UNL A   1      39.097  32.088  35.737  1.00  0.00     0.057 A 
ATOM     85  C   UNL A   1      38.256  31.543  36.714  1.00  0.00     0.134 A 
ATOM     86  C   UNL A   1      39.510  33.417  35.903  1.00  0.00     0.134 A 
ATOM     87  F   UNL A   1      37.816  30.280  36.606  1.00  0.00    -0.206 F 
ATOM     88  C   UNL A   1      37.828  32.297  37.809  1.00  0.00     0.040 A 
ATOM     89  C   UNL A   1      39.109  34.172  37.007  1.00  0.00     0.040 A 
ATOM     90  F   UNL A   1      40.324  33.995  35.008  1.00  0.00    -0.206 F 
ATOM     91  C   UNL A   1      38.263  33.613  37.961  1.00  0.00     0.006 A 
ENDBRANCH  67  84
ENDBRANCH  41  42
ENDBRANCH  34  36
ENDBRANCH  33  34
ENDBRANCH  32  33
ENDBRANCH  31  32
ENDBRANCH  30  31
ENDBRANCH   1  30
TORSDOF 18
ENDMDL
MODEL 2
REMARK VINA RESULT:     -11.5      0.847      5.954
REMARK SMILES COc1c[nH]c(C[N@H+]2CCC[C@@H](c3ccc(C(=O)OCCOCCOC(=O)c4ccc(-c5c6nc(c(-c7c(F)cccc7F)c7ccc([nH]7)c(-c7c(F)cccc7F)c7nc(c(-c8c(F)cccc8F)c8ccc5[nH]8)C=C7)C=C6)cc4)cc3)C2)cc1=O
REMARK SMILES IDX 21 1 20 2 19 3 17 4 18 5 16 6 13 7 14 8 83 9 15 10 82 11
REMARK SMILES IDX 12 12 8 13 9 14 84 15 10 17 11 18 7 19 6 20 3 21 4 22 86 23
REMARK SMILES IDX 5 24 85 25 87 26 2 28 1 29 22 30 23 31 24 32 25 33 26 34
REMARK SMILES IDX 27 35 28 36 29 37 81 38 30 39 80 40 31 41 32 42 33 43 74 44
REMARK SMILES IDX 34 45 79 46 73 47 75 48 35 49 78 50 72 51 71 52 36 54 62 55
REMARK SMILES IDX 45 56 61 57 46 58 49 59 60 60 76 61 47 62 48 63 59 65 77 66
REMARK SMILES IDX 50 67 37 68 38 69 43 70 39 71 40 72 42 73 44 74 41 75 63 76
REMARK SMILES IDX 64 77 69 78 65 79 66 80 68 81 70 82 67 83 51 84 52 85 57 86
REMARK SMILES IDX 53 87 54 88 56 89 58 90 55 91
REMARK H PARENT 8 16 5 27 75 53 49 64
REMARK Flexibility Score: inf
ROOT
ATOM      1  C   UNL A   1      43.161  20.272  26.257  1.00  0.00     0.202 C 
ENDROOT
BRANCH   1   2
ATOM      2  C   UNL A   1      41.719  19.790  26.076  1.00  0.00     0.261 C 
BRANCH   2   3
ATOM      3  O   UNL A   1      40.799  20.649  26.768  1.00  0.00    -0.460 OA
BRANCH   3   4
ATOM      4  C   UNL A   1      40.651  21.872  26.211  1.00  0.00     0.338 C 
ATOM      5  O   UNL A   1      41.531  22.581  25.744  1.00  0.00    -0.246 OA
BRANCH   4   6
ATOM      6  C   UNL A   1      39.219  22.208  26.082  1.00  0.00     0.060 A 
ATOM      7  C   UNL A   1      36.543  22.808  25.503  1.00  0.00    -0.039 A 
ATOM      8  C   UNL A   1      37.073  21.541  25.204  1.00  0.00     0.005 A 
ATOM      9  C   UNL A   1      37.343  23.728  26.200  1.00  0.00     0.005 A 
ATOM     10  C   UNL A   1      38.405  21.252  25.468  1.00  0.00     0.016 A 
ATOM     11  C   UNL A   1      38.678  23.427  26.500  1.00  0.00     0.016 A 
BRANCH   7  12
ATOM     12  C   UNL A   1      35.219  23.249  24.883  1.00  0.00     0.074 C 
ATOM     13  N   UNL A   1      32.809  22.436  24.792  1.00  0.00    -0.329 N 
ATOM     14  C   UNL A   1      32.352  23.728  25.320  1.00  0.00     0.262 C 
ATOM     15  C   UNL A   1      34.182  22.145  25.204  1.00  0.00     0.270 C 
ATOM     16  H   UNL A   1      32.807  22.514  23.775  1.00  0.00     0.348 HD
ATOM     17  C   UNL A   1      33.290  24.865  24.903  1.00  0.00     0.062 C 
ATOM     18  C   UNL A   1      34.722  24.614  25.379  1.00  0.00     0.020 C 
BRANCH  13  19
ATOM     19  C   UNL A   1      31.881  21.330  25.126  1.00  0.00     0.317 C 
BRANCH  19  20
ATOM     20  C   UNL A   1      32.322  19.911  24.764  1.00  0.00     0.074 A 
ATOM     21  C   UNL A   1      32.985  17.161  24.336  1.00  0.00     0.182 A 
ATOM     22  C   UNL A   1      32.973  17.725  25.551  1.00  0.00     0.133 A 
ATOM     23  C   UNL A   1      32.696  18.077  23.175  1.00  0.00     0.223 A 
ATOM     24  N   UNL A   1      32.723  19.052  25.772  1.00  0.00    -0.357 N 
ATOM     25  C   UNL A   1      32.330  19.490  23.484  1.00  0.00     0.083 A 
ATOM     26  O   UNL A   1      32.728  17.704  22.006  1.00  0.00    -0.286 OA
ATOM     27  H   UNL A   1      32.833  19.408  26.684  1.00  0.00     0.166 HD
BRANCH  21  28
ATOM     28  O   UNL A   1      33.166  15.799  24.189  1.00  0.00    -0.491 OA
ATOM     29  C   UNL A   1      32.909  15.082  25.392  1.00  0.00     0.278 C 
ENDBRANCH  21  28
ENDBRANCH  19  20
ENDBRANCH  13  19
ENDBRANCH   7  12
ENDBRANCH   4   6
ENDBRANCH   3   4
ENDBRANCH   2   3
ENDBRANCH   1   2
BRANCH   1  30
ATOM     30  O   UNL A   1      43.961  20.321  25.076  1.00  0.00    -0.374 OA
BRANCH  30  31
ATOM     31  C   UNL A   1      44.385  21.610  24.628  1.00  0.00     0.202 C 
BRANCH  31  32
ATOM     32  C   UNL A   1      45.340  22.370  25.555  1.00  0.00     0.261 C 
BRANCH  32  33
ATOM     33  O   UNL A   1      44.633  23.287  26.411  1.00  0.00    -0.460 OA
BRANCH  33  34
ATOM     34  C   UNL A   1      44.509  24.543  25.925  1.00  0.00     0.338 C 
ATOM     35  O   UNL A   1      44.830  24.948  24.817  1.00  0.00    -0.246 OA
BRANCH  34  36
ATOM     36  C   UNL A   1      43.740  25.369  26.874  1.00  0.00     0.060 A 
ATOM     37  C   UNL A   1      44.107  26.714  27.012  1.00  0.00     0.016 A 
ATOM     38  C   UNL A   1      42.720  24.827  27.660  1.00  0.00     0.016 A 
ATOM     39  C   UNL A   1      43.487  27.513  27.969  1.00  0.00     0.010 A 
ATOM     40  C   UNL A   1      42.106  25.628  28.627  1.00  0.00     0.010 A 
ATOM     41  C   UNL A   1      42.510  26.964  28.808  1.00  0.00    -0.014 A 
BRANCH  41  42
ATOM     42  C   UNL A   1      42.013  27.739  29.969  1.00  0.00     0.031 A 
ATOM     43  C   UNL A   1      40.801  28.610  29.796  1.00  0.00     0.074 A 
ATOM     44  C   UNL A   1      42.628  27.663  31.163  1.00  0.00     0.049 A 
ATOM     45  N   UNL A   1      40.238  29.429  30.647  1.00  0.00    -0.248 NA
ATOM     46  C   UNL A   1      40.137  28.554  28.483  1.00  0.00     0.031 C 
ATOM     47  C   UNL A   1      43.783  26.821  31.467  1.00  0.00     0.029 A 
ATOM     48  N   UNL A   1      42.366  28.317  32.340  1.00  0.00    -0.354 N 
ATOM     49  C   UNL A   1      39.160  29.989  29.973  1.00  0.00     0.074 A 
ATOM     50  C   UNL A   1      39.163  29.439  28.635  1.00  0.00     0.031 C 
ATOM     51  C   UNL A   1      44.143  27.023  32.747  1.00  0.00     0.029 A 
ATOM     52  C   UNL A   1      43.265  28.031  33.337  1.00  0.00     0.049 A 
ATOM     53  H   UNL A   1      41.606  28.933  32.457  1.00  0.00     0.167 HD
ATOM     54  C   UNL A   1      38.248  30.879  30.431  1.00  0.00     0.037 A 
ATOM     55  C   UNL A   1      43.381  28.548  34.576  1.00  0.00     0.037 A 
ATOM     56  C   UNL A   1      38.246  31.423  31.763  1.00  0.00     0.049 A 
ATOM     57  C   UNL A   1      42.399  29.592  35.038  1.00  0.00     0.074 A 
ATOM     58  C   UNL A   1      37.352  32.314  32.329  1.00  0.00     0.029 A 
ATOM     59  N   UNL A   1      39.190  31.130  32.736  1.00  0.00    -0.354 N 
ATOM     60  N   UNL A   1      41.374  30.102  34.401  1.00  0.00    -0.248 NA
ATOM     61  C   UNL A   1      42.595  30.135  36.391  1.00  0.00     0.031 C 
ATOM     62  C   UNL A   1      37.781  32.597  33.630  1.00  0.00     0.029 A 
ATOM     63  C   UNL A   1      38.914  31.843  33.890  1.00  0.00     0.049 A 
ATOM     64  H   UNL A   1      39.943  30.506  32.623  1.00  0.00     0.167 HD
ATOM     65  C   UNL A   1      40.784  31.000  35.282  1.00  0.00     0.074 A 
ATOM     66  C   UNL A   1      41.564  30.962  36.502  1.00  0.00     0.031 C 
ATOM     67  C   UNL A   1      39.694  31.785  35.099  1.00  0.00     0.037 A 
BRANCH  54  68
ATOM     68  C   UNL A   1      37.190  31.338  29.474  1.00  0.00     0.057 A 
ATOM     69  C   UNL A   1      36.071  30.551  29.173  1.00  0.00     0.134 A 
ATOM     70  C   UNL A   1      37.277  32.598  28.867  1.00  0.00     0.134 A 
ATOM     71  F   UNL A   1      35.937  29.328  29.708  1.00  0.00    -0.206 F 
ATOM     72  C   UNL A   1      35.086  30.992  28.288  1.00  0.00     0.040 A 
ATOM     73  C   UNL A   1      36.286  33.060  28.000  1.00  0.00     0.040 A 
ATOM     74  F   UNL A   1      38.321  33.403  29.115  1.00  0.00    -0.206 F 
ATOM     75  C   UNL A   1      35.188  32.253  27.704  1.00  0.00     0.006 A 
ENDBRANCH  54  68
BRANCH  55  76
ATOM     76  C   UNL A   1      44.481  28.101  35.467  1.00  0.00     0.057 A 
ATOM     77  C   UNL A   1      44.305  27.038  36.360  1.00  0.00     0.134 A 
ATOM     78  C   UNL A   1      45.729  28.737  35.458  1.00  0.00     0.134 A 
ATOM     79  F   UNL A   1      43.125  26.405  36.431  1.00  0.00    -0.206 F 
ATOM     80  C   UNL A   1      45.324  26.633  37.224  1.00  0.00     0.040 A 
ATOM     81  C   UNL A   1      46.764  28.327  36.300  1.00  0.00     0.040 A 
ATOM     82  F   UNL A   1      45.960  29.762  34.625  1.00  0.00    -0.206 F 
ATOM     83  C   UNL A   1      46.560  27.277  37.192  1.00  0.00     0.006 A 
ENDBRANCH  55  76
BRANCH  67  84
ATOM     84  C   UNL A   1      39.254  32.636  36.254  1.00  0.00     0.057 A 
ATOM     85  C   UNL A   1      38.337  32.175  37.206  1.00  0.00     0.134 A 
ATOM     86  C   UNL A   1      39.800  33.913  36.445  1.00  0.00     0.134 A 
ATOM     87  F   UNL A   1      37.769  30.967  37.073  1.00  0.00    -0.206 F 
ATOM     88  C   UNL A   1      37.966  32.959  38.300  1.00  0.00     0.040 A 
ATOM     89  C   UNL A   1      39.456  34.696  37.548  1.00  0.00     0.040 A 
ATOM     90  F   UNL A   1      40.690  34.410  35.574  1.00  0.00    -0.206 F 
ATOM     91  C   UNL A   1      38.533  34.220  38.477  1.00  0.00     0.006 A 
ENDBRANCH  67  84
ENDBRANCH  41  42
ENDBRANCH  34  36
ENDBRANCH  33  34
ENDBRANCH  32  33
ENDBRANCH  31  32
ENDBRANCH  30  31
ENDBRANCH   1  30
TORSDOF 18
ENDMDL
MODEL 3
REMARK VINA RESULT:     -11.1      2.601      7.076
REMARK SMILES COc1c[nH]c(C[N@H+]2CCC[C@@H](c3ccc(C(=O)OCCOCCOC(=O)c4ccc(-c5c6nc(c(-c7c(F)cccc7F)c7ccc([nH]7)c(-c7c(F)cccc7F)c7nc(c(-c8c(F)cccc8F)c8ccc5[nH]8)C=C7)C=C6)cc4)cc3)C2)cc1=O
REMARK SMILES IDX 21 1 20 2 19 3 17 4 18 5 16 6 13 7 14 8 83 9 15 10 82 11
REMARK SMILES IDX 12 12 8 13 9 14 84 15 10 17 11 18 7 19 6 20 3 21 4 22 86 23
REMARK SMILES IDX 5 24 85 25 87 26 2 28 1 29 22 30 23 31 24 32 25 33 26 34
REMARK SMILES IDX 27 35 28 36 29 37 81 38 30 39 80 40 31 41 32 42 33 43 74 44
REMARK SMILES IDX 34 45 79 46 73 47 75 48 35 49 78 50 72 51 71 52 36 54 62 55
REMARK SMILES IDX 45 56 61 57 46 58 49 59 60 60 76 61 47 62 48 63 59 65 77 66
REMARK SMILES IDX 50 67 37 68 38 69 43 70 39 71 40 72 42 73 44 74 41 75 63 76
REMARK SMILES IDX 64 77 69 78 65 79 66 80 68 81 70 82 67 83 51 84 52 85 57 86
REMARK SMILES IDX 53 87 54 88 56 89 58 90 55 91
REMARK H PARENT 8 16 5 27 75 53 49 64
REMARK Flexibility Score: inf
ROOT
ATOM      1  C   UNL A   1      42.082  20.903  26.112  1.00  0.00     0.202 C 
ENDROOT
BRANCH   1   2
ATOM      2  C   UNL A   1      40.877  21.348  26.945  1.00  0.00     0.261 C 
BRANCH   2   3
ATOM      3  O   UNL A   1      39.735  21.590  26.107  1.00  0.00    -0.460 OA
BRANCH   3   4
ATOM      4  C   UNL A   1      39.195  22.822  26.243  1.00  0.00     0.338 C 
ATOM      5  O   UNL A   1      39.782  23.857  26.523  1.00  0.00    -0.246 OA
BRANCH   4   6
ATOM      6  C   UNL A   1      37.773  22.807  25.843  1.00  0.00     0.060 A 
ATOM      7  C   UNL A   1      35.187  22.770  24.767  1.00  0.00    -0.039 A 
ATOM      8  C   UNL A   1      36.059  21.685  24.569  1.00  0.00     0.005 A 
ATOM      9  C   UNL A   1      35.591  23.819  25.607  1.00  0.00     0.005 A 
ATOM     10  C   UNL A   1      37.350  21.714  25.082  1.00  0.00     0.016 A 
ATOM     11  C   UNL A   1      36.880  23.835  26.156  1.00  0.00     0.016 A 
BRANCH   7  12
ATOM     12  C   UNL A   1      33.932  22.907  23.906  1.00  0.00     0.074 C 
ATOM     13  N   UNL A   1      31.715  24.157  23.980  1.00  0.00    -0.329 N 
ATOM     14  C   UNL A   1      32.005  24.749  22.668  1.00  0.00     0.262 C 
ATOM     15  C   UNL A   1      32.945  23.806  24.691  1.00  0.00     0.270 C 
ATOM     16  H   UNL A   1      31.206  23.290  23.808  1.00  0.00     0.348 HD
ATOM     17  C   UNL A   1      32.873  23.819  21.814  1.00  0.00     0.062 C 
ATOM     18  C   UNL A   1      34.194  23.488  22.510  1.00  0.00     0.020 C 
BRANCH  13  19
ATOM     19  C   UNL A   1      30.822  25.009  24.798  1.00  0.00     0.317 C 
BRANCH  19  20
ATOM     20  C   UNL A   1      30.639  26.462  24.354  1.00  0.00     0.074 A 
ATOM     21  C   UNL A   1      29.987  29.127  23.544  1.00  0.00     0.182 A 
ATOM     22  C   UNL A   1      29.320  28.051  23.105  1.00  0.00     0.133 A 
ATOM     23  C   UNL A   1      31.163  28.858  24.445  1.00  0.00     0.223 A 
ATOM     24  N   UNL A   1      29.655  26.764  23.428  1.00  0.00    -0.357 N 
ATOM     25  C   UNL A   1      31.419  27.444  24.845  1.00  0.00     0.083 A 
ATOM     26  O   UNL A   1      31.894  29.747  24.873  1.00  0.00    -0.286 OA
ATOM     27  H   UNL A   1      29.178  26.026  22.985  1.00  0.00     0.166 HD
BRANCH  21  28
ATOM     28  O   UNL A   1      29.548  30.402  23.244  1.00  0.00    -0.491 OA
ATOM     29  C   UNL A   1      28.139  30.545  23.397  1.00  0.00     0.278 C 
ENDBRANCH  21  28
ENDBRANCH  19  20
ENDBRANCH  13  19
ENDBRANCH   7  12
ENDBRANCH   4   6
ENDBRANCH   3   4
ENDBRANCH   2   3
ENDBRANCH   1   2
BRANCH   1  30
ATOM     30  O   UNL A   1      43.212  21.776  26.124  1.00  0.00    -0.374 OA
BRANCH  30  31
ATOM     31  C   UNL A   1      44.143  21.652  25.046  1.00  0.00     0.202 C 
BRANCH  31  32
ATOM     32  C   UNL A   1      44.476  22.941  24.287  1.00  0.00     0.261 C 
BRANCH  32  33
ATOM     33  O   UNL A   1      43.692  24.054  24.760  1.00  0.00    -0.460 OA
BRANCH  33  34
ATOM     34  C   UNL A   1      44.409  25.100  25.228  1.00  0.00     0.338 C 
ATOM     35  O   UNL A   1      45.477  25.519  24.805  1.00  0.00    -0.246 OA
BRANCH  34  36
ATOM     36  C   UNL A   1      43.626  25.822  26.247  1.00  0.00     0.060 A 
ATOM     37  C   UNL A   1      43.863  27.195  26.397  1.00  0.00     0.016 A 
ATOM     38  C   UNL A   1      42.721  25.163  27.082  1.00  0.00     0.016 A 
ATOM     39  C   UNL A   1      43.231  27.906  27.415  1.00  0.00     0.010 A 
ATOM     40  C   UNL A   1      42.096  25.875  28.108  1.00  0.00     0.010 A 
ATOM     41  C   UNL A   1      42.373  27.242  28.299  1.00  0.00    -0.014 A 
BRANCH  41  42
ATOM     42  C   UNL A   1      41.880  27.938  29.511  1.00  0.00     0.031 A 
ATOM     43  C   UNL A   1      40.638  28.777  29.411  1.00  0.00     0.074 A 
ATOM     44  C   UNL A   1      42.524  27.818  30.686  1.00  0.00     0.049 A 
ATOM     45  N   UNL A   1      40.069  29.531  30.318  1.00  0.00    -0.248 NA
ATOM     46  C   UNL A   1      39.945  28.770  28.112  1.00  0.00     0.031 C 
ATOM     47  C   UNL A   1      43.711  26.999  30.919  1.00  0.00     0.029 A 
ATOM     48  N   UNL A   1      42.269  28.400  31.902  1.00  0.00    -0.354 N 
ATOM     49  C   UNL A   1      38.959  30.092  29.698  1.00  0.00     0.074 A 
ATOM     50  C   UNL A   1      38.948  29.614  28.332  1.00  0.00     0.031 C 
ATOM     51  C   UNL A   1      44.094  27.144  32.200  1.00  0.00     0.029 A 
ATOM     52  C   UNL A   1      43.200  28.090  32.863  1.00  0.00     0.049 A 
ATOM     53  H   UNL A   1      41.494  28.983  32.068  1.00  0.00     0.167 HD
ATOM     54  C   UNL A   1      38.031  30.926  30.223  1.00  0.00     0.037 A 
ATOM     55  C   UNL A   1      43.328  28.543  34.125  1.00  0.00     0.037 A 
ATOM     56  C   UNL A   1      38.042  31.397  31.582  1.00  0.00     0.049 A 
ATOM     57  C   UNL A   1      42.325  29.530  34.663  1.00  0.00     0.074 A 
ATOM     58  C   UNL A   1      37.134  32.228  32.214  1.00  0.00     0.029 A 
ATOM     59  N   UNL A   1      39.017  31.083  32.517  1.00  0.00    -0.354 N 
ATOM     60  N   UNL A   1      41.270  30.039  34.077  1.00  0.00    -0.248 NA
ATOM     61  C   UNL A   1      42.535  30.006  36.039  1.00  0.00     0.031 C 
ATOM     62  C   UNL A   1      37.585  32.455  33.519  1.00  0.00     0.029 A 
ATOM     63  C   UNL A   1      38.746  31.725  33.714  1.00  0.00     0.049 A 
ATOM     64  H   UNL A   1      39.786  30.491  32.354  1.00  0.00     0.167 HD
ATOM     65  C   UNL A   1      40.673  30.870  35.018  1.00  0.00     0.074 A 
ATOM     66  C   UNL A   1      41.482  30.791  36.217  1.00  0.00     0.031 C 
ATOM     67  C   UNL A   1      39.555  31.628  34.901  1.00  0.00     0.037 A 
BRANCH  54  68
ATOM     68  C   UNL A   1      36.937  31.401  29.314  1.00  0.00     0.057 A 
ATOM     69  C   UNL A   1      35.869  30.573  28.945  1.00  0.00     0.134 A 
ATOM     70  C   UNL A   1      36.937  32.714  28.827  1.00  0.00     0.134 A 
ATOM     71  F   UNL A   1      35.819  29.300  29.365  1.00  0.00    -0.206 F 
ATOM     72  C   UNL A   1      34.850  31.029  28.107  1.00  0.00     0.040 A 
ATOM     73  C   UNL A   1      35.911  33.188  28.008  1.00  0.00     0.040 A 
ATOM     74  F   UNL A   1      37.928  33.559  29.145  1.00  0.00    -0.206 F 
ATOM     75  C   UNL A   1      34.866  32.342  27.642  1.00  0.00     0.006 A 
ENDBRANCH  54  68
BRANCH  55  76
ATOM     76  C   UNL A   1      44.461  28.085  34.966  1.00  0.00     0.057 A 
ATOM     77  C   UNL A   1      44.336  26.977  35.811  1.00  0.00     0.134 A 
ATOM     78  C   UNL A   1      45.691  28.755  34.959  1.00  0.00     0.134 A 
ATOM     79  F   UNL A   1      43.176  26.309  35.880  1.00  0.00    -0.206 F 
ATOM     80  C   UNL A   1      45.387  26.560  36.630  1.00  0.00     0.040 A 
ATOM     81  C   UNL A   1      46.758  28.335  35.754  1.00  0.00     0.040 A 
ATOM     82  F   UNL A   1      45.874  29.825  34.171  1.00  0.00    -0.206 F 
ATOM     83  C   UNL A   1      46.605  27.238  36.599  1.00  0.00     0.006 A 
ENDBRANCH  55  76
BRANCH  67  84
ATOM     84  C   UNL A   1      39.115  32.402  36.109  1.00  0.00     0.057 A 
ATOM     85  C   UNL A   1      38.259  31.850  37.069  1.00  0.00     0.134 A 
ATOM     86  C   UNL A   1      39.603  33.695  36.341  1.00  0.00     0.134 A 
ATOM     87  F   UNL A   1      37.748  30.621  36.899  1.00  0.00    -0.206 F 
ATOM     88  C   UNL A   1      37.890  32.564  38.211  1.00  0.00     0.040 A 
ATOM     89  C   UNL A   1      39.261  34.407  37.491  1.00  0.00     0.040 A 
ATOM     90  F   UNL A   1      40.435  34.276  35.465  1.00  0.00    -0.206 F 
ATOM     91  C   UNL A   1      38.399  33.843  38.428  1.00  0.00     0.006 A 
ENDBRANCH  67  84
ENDBRANCH  41  42
ENDBRANCH  34  36
ENDBRANCH  33  34
ENDBRANCH  32  33
ENDBRANCH  31  32
ENDBRANCH  30  31
ENDBRANCH   1  30
TORSDOF 18
ENDMDL
