MODEL 1
REMARK VINA RESULT:     -11.1      0.000      0.000
REMARK SMILES COc1ccccc1N1CC[NH+]([C@@H](C(=O)OCCOCCOC(=O)c2ccc(-c3c4nc(c(-c5c(F)cccc5F)c5ccc([nH]5)c(-c5c(F)cccc5F)c5nc(c(-c6c(F)cccc6F)c6ccc3[nH]6)C=C5)C=C4)cc2)c2c[nH]c3ccc(OCC#N)cc23)CC1
REMARK SMILES IDX 18 1 17 2 16 3 14 4 15 5 13 6 12 7 9 8 10 9 93 10 11 11
REMARK SMILES IDX 92 12 8 14 3 15 4 16 5 17 7 18 6 19 2 20 1 21 79 22 80 23
REMARK SMILES IDX 91 24 81 25 82 26 90 27 83 29 85 30 84 31 86 32 87 33 88 34
REMARK SMILES IDX 89 35 19 36 20 37 21 38 22 39 23 40 24 41 25 42 26 43 78 44
REMARK SMILES IDX 27 45 77 46 28 47 29 48 30 49 71 50 31 51 76 52 70 53 72 54
REMARK SMILES IDX 32 55 75 56 69 57 68 58 33 60 59 61 42 62 58 63 43 64 46 65
REMARK SMILES IDX 57 66 73 67 44 68 45 69 56 71 74 72 47 73 34 74 35 75 40 76
REMARK SMILES IDX 36 77 37 78 39 79 41 80 38 81 60 82 61 83 66 84 62 85 63 86
REMARK SMILES IDX 65 87 67 88 64 89 48 90 49 91 54 92 50 93 51 94 53 95 55 96
REMARK SMILES IDX 52 97
REMARK H PARENT 12 13 81 28 72 59 46 70
REMARK Flexibility Score: inf
ROOT
ATOM      1  C   UNL A   1      36.284  23.685  24.799  1.00  0.00     0.202 C 
ENDROOT
BRANCH   1   2
ATOM      2  C   UNL A   1      35.069  24.386  25.409  1.00  0.00     0.261 C 
BRANCH   2   3
ATOM      3  O   UNL A   1      34.408  25.204  24.427  1.00  0.00    -0.459 OA
BRANCH   3   4
ATOM      4  C   UNL A   1      33.074  25.434  24.600  1.00  0.00     0.370 C 
ATOM      5  O   UNL A   1      32.636  26.329  25.317  1.00  0.00    -0.245 OA
BRANCH   4   6
ATOM      6  C   UNL A   1      32.172  24.459  23.833  1.00  0.00     0.328 C 
BRANCH   6   7
ATOM      7  N   UNL A   1      31.211  24.947  22.760  1.00  0.00    -0.316 N 
ATOM      8  N   UNL A   1      29.973  27.614  22.796  1.00  0.00    -0.357 N 
ATOM      9  C   UNL A   1      29.657  26.586  23.792  1.00  0.00     0.178 C 
ATOM     10  C   UNL A   1      31.282  27.450  22.112  1.00  0.00     0.178 C 
ATOM     11  C   UNL A   1      29.820  25.216  23.133  1.00  0.00     0.284 C 
ATOM     12  C   UNL A   1      31.593  25.959  21.754  1.00  0.00     0.284 C 
ATOM     13  H   UNL A   1      31.308  24.041  22.300  1.00  0.00     0.349 HD
BRANCH   8  14
ATOM     14  C   UNL A   1      29.526  28.915  23.046  1.00  0.00     0.080 A 
ATOM     15  C   UNL A   1      30.240  29.827  23.852  1.00  0.00     0.142 A 
ATOM     16  C   UNL A   1      29.693  31.074  24.193  1.00  0.00     0.048 A 
ATOM     17  C   UNL A   1      28.440  31.453  23.717  1.00  0.00     0.004 A 
ATOM     18  C   UNL A   1      28.284  29.351  22.543  1.00  0.00     0.030 A 
ATOM     19  C   UNL A   1      27.738  30.592  22.884  1.00  0.00     0.002 A 
BRANCH  15  20
ATOM     20  O   UNL A   1      31.477  29.581  24.400  1.00  0.00    -0.495 OA
ATOM     21  C   UNL A   1      31.584  30.002  25.758  1.00  0.00     0.278 C 
ENDBRANCH  15  20
ENDBRANCH   8  14
ENDBRANCH   6   7
BRANCH   6  22
ATOM     22  C   UNL A   1      31.876  23.015  24.440  1.00  0.00     0.046 A 
ATOM     23  C   UNL A   1      31.266  23.001  25.696  1.00  0.00     0.094 A 
ATOM     24  C   UNL A   1      32.387  21.618  24.361  1.00  0.00     0.013 A 
ATOM     25  N   UNL A   1      32.073  22.208  26.471  1.00  0.00    -0.361 N 
ATOM     26  C   UNL A   1      32.802  21.363  25.671  1.00  0.00     0.046 A 
ATOM     27  C   UNL A   1      32.362  20.414  23.545  1.00  0.00     0.057 A 
ATOM     28  H   UNL A   1      32.122  22.240  27.454  1.00  0.00     0.166 HD
ATOM     29  C   UNL A   1      33.662  20.327  26.036  1.00  0.00     0.030 A 
ATOM     30  C   UNL A   1      32.904  19.170  24.064  1.00  0.00     0.121 A 
ATOM     31  C   UNL A   1      33.701  19.215  25.198  1.00  0.00     0.048 A 
BRANCH  30  32
ATOM     32  O   UNL A   1      32.633  17.928  23.470  1.00  0.00    -0.479 OA
BRANCH  32  33
ATOM     33  C   UNL A   1      33.761  16.880  23.411  1.00  0.00     0.349 C 
BRANCH  33  34
ATOM     34  C   UNL A   1      33.412  15.784  24.404  1.00  0.00     0.104 C 
ATOM     35  N   UNL A   1      33.122  14.874  25.228  1.00  0.00    -0.195 NA
ENDBRANCH  33  34
ENDBRANCH  32  33
ENDBRANCH  30  32
ENDBRANCH   6  22
ENDBRANCH   4   6
ENDBRANCH   3   4
ENDBRANCH   2   3
ENDBRANCH   1   2
BRANCH   1  36
ATOM     36  O   UNL A   1      36.055  22.364  24.305  1.00  0.00    -0.374 OA
BRANCH  36  37
ATOM     37  C   UNL A   1      37.056  21.380  24.544  1.00  0.00     0.202 C 
BRANCH  37  38
ATOM     38  C   UNL A   1      37.840  21.488  25.846  1.00  0.00     0.261 C 
BRANCH  38  39
ATOM     39  O   UNL A   1      39.053  22.244  25.700  1.00  0.00    -0.460 OA
BRANCH  39  40
ATOM     40  C   UNL A   1      39.853  22.235  26.786  1.00  0.00     0.338 C 
ATOM     41  O   UNL A   1      40.092  21.251  27.496  1.00  0.00    -0.246 OA
BRANCH  40  42
ATOM     42  C   UNL A   1      40.476  23.547  27.068  1.00  0.00     0.060 A 
ATOM     43  C   UNL A   1      41.334  23.623  28.167  1.00  0.00     0.016 A 
ATOM     44  C   UNL A   1      40.179  24.712  26.356  1.00  0.00     0.016 A 
ATOM     45  C   UNL A   1      41.791  24.858  28.614  1.00  0.00     0.010 A 
ATOM     46  C   UNL A   1      40.627  25.958  26.803  1.00  0.00     0.010 A 
ATOM     47  C   UNL A   1      41.393  26.036  27.968  1.00  0.00    -0.014 A 
BRANCH  47  48
ATOM     48  C   UNL A   1      41.779  27.327  28.564  1.00  0.00     0.031 A 
ATOM     49  C   UNL A   1      43.203  27.790  28.494  1.00  0.00     0.074 A 
ATOM     50  C   UNL A   1      40.822  28.111  29.086  1.00  0.00     0.049 A 
ATOM     51  N   UNL A   1      43.689  28.991  28.670  1.00  0.00    -0.248 NA
ATOM     52  C   UNL A   1      44.217  26.768  28.185  1.00  0.00     0.031 C 
ATOM     53  C   UNL A   1      39.424  27.722  29.262  1.00  0.00     0.029 A 
ATOM     54  N   UNL A   1      40.880  29.400  29.542  1.00  0.00    -0.354 N 
ATOM     55  C   UNL A   1      45.057  28.881  28.458  1.00  0.00     0.074 A 
ATOM     56  C   UNL A   1      45.334  27.484  28.197  1.00  0.00     0.031 C 
ATOM     57  C   UNL A   1      38.747  28.762  29.774  1.00  0.00     0.029 A 
ATOM     58  C   UNL A   1      39.661  29.889  29.938  1.00  0.00     0.049 A 
ATOM     59  H   UNL A   1      41.712  29.924  29.581  1.00  0.00     0.167 HD
ATOM     60  C   UNL A   1      45.984  29.869  28.463  1.00  0.00     0.037 A 
ATOM     61  C   UNL A   1      39.319  31.122  30.350  1.00  0.00     0.037 A 
ATOM     62  C   UNL A   1      45.678  31.248  28.752  1.00  0.00     0.049 A 
ATOM     63  C   UNL A   1      40.357  32.209  30.315  1.00  0.00     0.074 A 
ATOM     64  C   UNL A   1      46.519  32.347  28.722  1.00  0.00     0.029 A 
ATOM     65  N   UNL A   1      44.430  31.711  29.149  1.00  0.00    -0.354 N 
ATOM     66  N   UNL A   1      41.619  32.134  29.967  1.00  0.00    -0.248 NA
ATOM     67  C   UNL A   1      39.914  33.557  30.691  1.00  0.00     0.031 C 
ATOM     68  C   UNL A   1      45.792  33.464  29.149  1.00  0.00     0.029 A 
ATOM     69  C   UNL A   1      44.486  33.073  29.394  1.00  0.00     0.049 A 
ATOM     70  H   UNL A   1      43.625  31.152  29.241  1.00  0.00     0.167 HD
ATOM     71  C   UNL A   1      42.116  33.428  30.055  1.00  0.00     0.074 A 
ATOM     72  C   UNL A   1      41.009  34.268  30.470  1.00  0.00     0.031 C 
ATOM     73  C   UNL A   1      43.370  33.884  29.813  1.00  0.00     0.037 A 
BRANCH  60  74
ATOM     74  C   UNL A   1      47.406  29.509  28.140  1.00  0.00     0.057 A 
ATOM     75  C   UNL A   1      48.353  29.276  29.147  1.00  0.00     0.134 A 
ATOM     76  C   UNL A   1      47.815  29.308  26.815  1.00  0.00     0.134 A 
ATOM     77  F   UNL A   1      48.031  29.454  30.437  1.00  0.00    -0.206 F 
ATOM     78  C   UNL A   1      49.655  28.868  28.848  1.00  0.00     0.040 A 
ATOM     79  C   UNL A   1      49.107  28.879  26.505  1.00  0.00     0.040 A 
ATOM     80  F   UNL A   1      46.960  29.504  25.801  1.00  0.00    -0.206 F 
ATOM     81  C   UNL A   1      50.032  28.659  27.523  1.00  0.00     0.006 A 
ENDBRANCH  60  74
BRANCH  61  82
ATOM     82  C   UNL A   1      37.920  31.396  30.756  1.00  0.00     0.057 A 
ATOM     83  C   UNL A   1      36.947  31.771  29.824  1.00  0.00     0.134 A 
ATOM     84  C   UNL A   1      37.518  31.257  32.091  1.00  0.00     0.134 A 
ATOM     85  F   UNL A   1      37.273  31.925  28.533  1.00  0.00    -0.206 F 
ATOM     86  C   UNL A   1      35.628  32.022  30.206  1.00  0.00     0.040 A 
ATOM     87  C   UNL A   1      36.198  31.479  32.482  1.00  0.00     0.040 A 
ATOM     88  F   UNL A   1      38.401  30.882  33.028  1.00  0.00    -0.206 F 
ATOM     89  C   UNL A   1      35.250  31.870  31.539  1.00  0.00     0.006 A 
ENDBRANCH  61  82
BRANCH  73  90
ATOM     90  C   UNL A   1      43.598  35.357  29.978  1.00  0.00     0.057 A 
ATOM     91  C   UNL A   1      43.402  36.258  28.923  1.00  0.00     0.134 A 
ATOM     92  C   UNL A   1      44.002  35.883  31.212  1.00  0.00     0.134 A 
ATOM     93  F   UNL A   1      43.027  35.816  27.713  1.00  0.00    -0.206 F 
ATOM     94  C   UNL A   1      43.634  37.625  29.080  1.00  0.00     0.040 A 
ATOM     95  C   UNL A   1      44.209  37.251  31.388  1.00  0.00     0.040 A 
ATOM     96  F   UNL A   1      44.197  35.077  32.266  1.00  0.00    -0.206 F 
ATOM     97  C   UNL A   1      44.034  38.125  30.317  1.00  0.00     0.006 A 
ENDBRANCH  73  90
ENDBRANCH  47  48
ENDBRANCH  40  42
ENDBRANCH  39  40
ENDBRANCH  38  39
ENDBRANCH  37  38
ENDBRANCH  36  37
ENDBRANCH   1  36
TORSDOF 21
ENDMDL
MODEL 2
REMARK VINA RESULT:     -10.9      3.895      9.067
REMARK SMILES COc1ccccc1N1CC[NH+]([C@@H](C(=O)OCCOCCOC(=O)c2ccc(-c3c4nc(c(-c5c(F)cccc5F)c5ccc([nH]5)c(-c5c(F)cccc5F)c5nc(c(-c6c(F)cccc6F)c6ccc3[nH]6)C=C5)C=C4)cc2)c2c[nH]c3ccc(OCC#N)cc23)CC1
REMARK SMILES IDX 18 1 17 2 16 3 14 4 15 5 13 6 12 7 9 8 10 9 93 10 11 11
REMARK SMILES IDX 92 12 8 14 3 15 4 16 5 17 7 18 6 19 2 20 1 21 79 22 80 23
REMARK SMILES IDX 91 24 81 25 82 26 90 27 83 29 85 30 84 31 86 32 87 33 88 34
REMARK SMILES IDX 89 35 19 36 20 37 21 38 22 39 23 40 24 41 25 42 26 43 78 44
REMARK SMILES IDX 27 45 77 46 28 47 29 48 30 49 71 50 31 51 76 52 70 53 72 54
REMARK SMILES IDX 32 55 75 56 69 57 68 58 33 60 59 61 42 62 58 63 43 64 46 65
REMARK SMILES IDX 57 66 73 67 44 68 45 69 56 71 74 72 47 73 34 74 35 75 40 76
REMARK SMILES IDX 36 77 37 78 39 79 41 80 38 81 60 82 61 83 66 84 62 85 63 86
REMARK SMILES IDX 65 87 67 88 64 89 48 90 49 91 54 92 50 93 51 94 53 95 55 96
REMARK SMILES IDX 52 97
REMARK H PARENT 12 13 81 28 72 59 46 70
REMARK Flexibility Score: inf
ROOT
ATOM      1  C   UNL A   1      33.347  29.517  25.183  1.00  0.00     0.202 C 
ENDROOT
BRANCH   1   2
ATOM      2  C   UNL A   1      32.827  28.090  24.998  1.00  0.00     0.261 C 
BRANCH   2   3
ATOM      3  O   UNL A   1      33.257  27.249  26.084  1.00  0.00    -0.459 OA
BRANCH   3   4
ATOM      4  C   UNL A   1      32.383  26.297  26.521  1.00  0.00     0.370 C 
ATOM      5  O   UNL A   1      31.389  26.558  27.193  1.00  0.00    -0.245 OA
BRANCH   4   6
ATOM      6  C   UNL A   1      32.766  24.868  26.115  1.00  0.00     0.328 C 
BRANCH   6   7
ATOM      7  N   UNL A   1      32.132  23.658  26.783  1.00  0.00    -0.316 N 
ATOM      8  N   UNL A   1      32.347  20.928  25.711  1.00  0.00    -0.357 N 
ATOM      9  C   UNL A   1      31.600  21.986  25.025  1.00  0.00     0.178 C 
ATOM     10  C   UNL A   1      33.392  21.402  26.655  1.00  0.00     0.178 C 
ATOM     11  C   UNL A   1      31.058  22.950  26.082  1.00  0.00     0.284 C 
ATOM     12  C   UNL A   1      32.930  22.638  27.495  1.00  0.00     0.284 C 
ATOM     13  H   UNL A   1      31.765  24.281  27.502  1.00  0.00     0.349 HD
BRANCH   8  14
ATOM     14  C   UNL A   1      32.595  19.749  25.001  1.00  0.00     0.080 A 
ATOM     15  C   UNL A   1      32.491  19.667  23.596  1.00  0.00     0.142 A 
ATOM     16  C   UNL A   1      32.612  18.435  22.933  1.00  0.00     0.048 A 
ATOM     17  C   UNL A   1      32.867  17.267  23.647  1.00  0.00     0.004 A 
ATOM     18  C   UNL A   1      32.901  18.557  25.685  1.00  0.00     0.030 A 
ATOM     19  C   UNL A   1      33.019  17.329  25.025  1.00  0.00     0.002 A 
BRANCH  15  20
ATOM     20  O   UNL A   1      32.229  20.733  22.770  1.00  0.00    -0.495 OA
ATOM     21  C   UNL A   1      31.777  20.343  21.474  1.00  0.00     0.278 C 
ENDBRANCH  15  20
ENDBRANCH   8  14
ENDBRANCH   6   7
BRANCH   6  22
ATOM     22  C   UNL A   1      34.135  24.609  25.341  1.00  0.00     0.046 A 
ATOM     23  C   UNL A   1      34.096  24.808  23.959  1.00  0.00     0.094 A 
ATOM     24  C   UNL A   1      35.387  23.812  25.474  1.00  0.00     0.013 A 
ATOM     25  N   UNL A   1      34.576  23.642  23.421  1.00  0.00    -0.361 N 
ATOM     26  C   UNL A   1      35.354  22.988  24.345  1.00  0.00     0.046 A 
ATOM     27  C   UNL A   1      36.675  23.771  26.150  1.00  0.00     0.057 A 
ATOM     28  H   UNL A   1      34.391  23.321  22.509  1.00  0.00     0.166 HD
ATOM     29  C   UNL A   1      36.118  21.830  24.194  1.00  0.00     0.030 A 
ATOM     30  C   UNL A   1      37.685  22.813  25.737  1.00  0.00     0.121 A 
ATOM     31  C   UNL A   1      37.305  21.760  24.918  1.00  0.00     0.048 A 
BRANCH  30  32
ATOM     32  O   UNL A   1      39.029  22.926  26.123  1.00  0.00    -0.479 OA
BRANCH  32  33
ATOM     33  C   UNL A   1      39.843  21.635  26.342  1.00  0.00     0.349 C 
BRANCH  33  34
ATOM     34  C   UNL A   1      41.293  22.044  26.543  1.00  0.00     0.104 C 
ATOM     35  N   UNL A   1      42.496  22.383  26.710  1.00  0.00    -0.195 NA
ENDBRANCH  33  34
ENDBRANCH  32  33
ENDBRANCH  30  32
ENDBRANCH   6  22
ENDBRANCH   4   6
ENDBRANCH   3   4
ENDBRANCH   2   3
ENDBRANCH   1   2
BRANCH   1  36
ATOM     36  O   UNL A   1      32.461  30.419  25.849  1.00  0.00    -0.374 OA
BRANCH  36  37
ATOM     37  C   UNL A   1      32.686  30.674  27.231  1.00  0.00     0.202 C 
BRANCH  37  38
ATOM     38  C   UNL A   1      33.622  31.825  27.582  1.00  0.00     0.261 C 
BRANCH  38  39
ATOM     39  O   UNL A   1      32.993  33.110  27.450  1.00  0.00    -0.460 OA
BRANCH  39  40
ATOM     40  C   UNL A   1      33.239  33.962  28.466  1.00  0.00     0.338 C 
ATOM     41  O   UNL A   1      32.552  34.948  28.760  1.00  0.00    -0.246 OA
BRANCH  40  42
ATOM     42  C   UNL A   1      34.436  33.602  29.259  1.00  0.00     0.060 A 
ATOM     43  C   UNL A   1      35.667  34.082  28.810  1.00  0.00     0.016 A 
ATOM     44  C   UNL A   1      34.401  32.746  30.362  1.00  0.00     0.016 A 
ATOM     45  C   UNL A   1      36.848  33.620  29.380  1.00  0.00     0.010 A 
ATOM     46  C   UNL A   1      35.583  32.270  30.937  1.00  0.00     0.010 A 
ATOM     47  C   UNL A   1      36.812  32.668  30.408  1.00  0.00    -0.014 A 
BRANCH  47  48
ATOM     48  C   UNL A   1      38.087  32.097  30.879  1.00  0.00     0.031 A 
ATOM     49  C   UNL A   1      38.628  32.478  32.224  1.00  0.00     0.074 A 
ATOM     50  C   UNL A   1      38.700  31.172  30.124  1.00  0.00     0.049 A 
ATOM     51  N   UNL A   1      39.540  31.879  32.944  1.00  0.00    -0.248 NA
ATOM     52  C   UNL A   1      38.072  33.692  32.842  1.00  0.00     0.031 C 
ATOM     53  C   UNL A   1      38.290  30.785  28.775  1.00  0.00     0.029 A 
ATOM     54  N   UNL A   1      39.780  30.376  30.395  1.00  0.00    -0.354 N 
ATOM     55  C   UNL A   1      39.642  32.619  34.116  1.00  0.00     0.074 A 
ATOM     56  C   UNL A   1      38.742  33.744  33.987  1.00  0.00     0.031 C 
ATOM     57  C   UNL A   1      39.101  29.809  28.338  1.00  0.00     0.029 A 
ATOM     58  C   UNL A   1      40.067  29.492  29.386  1.00  0.00     0.049 A 
ATOM     59  H   UNL A   1      40.298  30.433  31.229  1.00  0.00     0.167 HD
ATOM     60  C   UNL A   1      40.408  32.358  35.202  1.00  0.00     0.037 A 
ATOM     61  C   UNL A   1      40.986  28.511  29.336  1.00  0.00     0.037 A 
ATOM     62  C   UNL A   1      41.316  31.241  35.289  1.00  0.00     0.049 A 
ATOM     63  C   UNL A   1      41.800  28.220  30.565  1.00  0.00     0.074 A 
ATOM     64  C   UNL A   1      42.093  30.836  36.361  1.00  0.00     0.029 A 
ATOM     65  N   UNL A   1      41.582  30.361  34.248  1.00  0.00    -0.354 N 
ATOM     66  N   UNL A   1      41.786  28.827  31.728  1.00  0.00    -0.248 NA
ATOM     67  C   UNL A   1      42.726  27.084  30.489  1.00  0.00     0.031 C 
ATOM     68  C   UNL A   1      42.866  29.744  35.952  1.00  0.00     0.029 A 
ATOM     69  C   UNL A   1      42.532  29.434  34.643  1.00  0.00     0.049 A 
ATOM     70  H   UNL A   1      41.157  30.392  33.361  1.00  0.00     0.167 HD
ATOM     71  C   UNL A   1      42.681  28.131  32.531  1.00  0.00     0.074 A 
ATOM     72  C   UNL A   1      43.201  27.044  31.725  1.00  0.00     0.031 C 
ATOM     73  C   UNL A   1      43.039  28.366  33.818  1.00  0.00     0.037 A 
BRANCH  60  74
ATOM     74  C   UNL A   1      40.299  33.278  36.384  1.00  0.00     0.057 A 
ATOM     75  C   UNL A   1      41.155  34.377  36.544  1.00  0.00     0.134 A 
ATOM     76  C   UNL A   1      39.277  33.119  37.329  1.00  0.00     0.134 A 
ATOM     77  F   UNL A   1      42.159  34.587  35.678  1.00  0.00    -0.206 F 
ATOM     78  C   UNL A   1      41.005  35.276  37.603  1.00  0.00     0.040 A 
ATOM     79  C   UNL A   1      39.103  34.023  38.379  1.00  0.00     0.040 A 
ATOM     80  F   UNL A   1      38.416  32.095  37.235  1.00  0.00    -0.206 F 
ATOM     81  C   UNL A   1      39.970  35.105  38.519  1.00  0.00     0.006 A 
ENDBRANCH  60  74
BRANCH  61  82
ATOM     82  C   UNL A   1      41.120  27.699  28.103  1.00  0.00     0.057 A 
ATOM     83  C   UNL A   1      40.424  26.497  27.938  1.00  0.00     0.134 A 
ATOM     84  C   UNL A   1      41.931  28.127  27.044  1.00  0.00     0.134 A 
ATOM     85  F   UNL A   1      39.637  26.033  28.919  1.00  0.00    -0.206 F 
ATOM     86  C   UNL A   1      40.546  25.736  26.774  1.00  0.00     0.040 A 
ATOM     87  C   UNL A   1      42.043  27.390  25.865  1.00  0.00     0.040 A 
ATOM     88  F   UNL A   1      42.610  29.281  27.135  1.00  0.00    -0.206 F 
ATOM     89  C   UNL A   1      41.354  26.186  25.731  1.00  0.00     0.006 A 
ENDBRANCH  61  82
BRANCH  73  90
ATOM     90  C   UNL A   1      44.027  27.417  34.429  1.00  0.00     0.057 A 
ATOM     91  C   UNL A   1      45.407  27.654  34.379  1.00  0.00     0.134 A 
ATOM     92  C   UNL A   1      43.591  26.261  35.090  1.00  0.00     0.134 A 
ATOM     93  F   UNL A   1      45.888  28.737  33.752  1.00  0.00    -0.206 F 
ATOM     94  C   UNL A   1      46.320  26.757  34.935  1.00  0.00     0.040 A 
ATOM     95  C   UNL A   1      44.494  25.372  35.673  1.00  0.00     0.040 A 
ATOM     96  F   UNL A   1      42.283  25.980  35.182  1.00  0.00    -0.206 F 
ATOM     97  C   UNL A   1      45.864  25.615  35.588  1.00  0.00     0.006 A 
ENDBRANCH  73  90
ENDBRANCH  47  48
ENDBRANCH  40  42
ENDBRANCH  39  40
ENDBRANCH  38  39
ENDBRANCH  37  38
ENDBRANCH  36  37
ENDBRANCH   1  36
TORSDOF 21
ENDMDL
MODEL 3
REMARK VINA RESULT:     -10.9      3.484      6.585
REMARK SMILES COc1ccccc1N1CC[NH+]([C@@H](C(=O)OCCOCCOC(=O)c2ccc(-c3c4nc(c(-c5c(F)cccc5F)c5ccc([nH]5)c(-c5c(F)cccc5F)c5nc(c(-c6c(F)cccc6F)c6ccc3[nH]6)C=C5)C=C4)cc2)c2c[nH]c3ccc(OCC#N)cc23)CC1
REMARK SMILES IDX 18 1 17 2 16 3 14 4 15 5 13 6 12 7 9 8 10 9 93 10 11 11
REMARK SMILES IDX 92 12 8 14 3 15 4 16 5 17 7 18 6 19 2 20 1 21 79 22 80 23
REMARK SMILES IDX 91 24 81 25 82 26 90 27 83 29 85 30 84 31 86 32 87 33 88 34
REMARK SMILES IDX 89 35 19 36 20 37 21 38 22 39 23 40 24 41 25 42 26 43 78 44
REMARK SMILES IDX 27 45 77 46 28 47 29 48 30 49 71 50 31 51 76 52 70 53 72 54
REMARK SMILES IDX 32 55 75 56 69 57 68 58 33 60 59 61 42 62 58 63 43 64 46 65
REMARK SMILES IDX 57 66 73 67 44 68 45 69 56 71 74 72 47 73 34 74 35 75 40 76
REMARK SMILES IDX 36 77 37 78 39 79 41 80 38 81 60 82 61 83 66 84 62 85 63 86
REMARK SMILES IDX 65 87 67 88 64 89 48 90 49 91 54 92 50 93 51 94 53 95 55 96
REMARK SMILES IDX 52 97
REMARK H PARENT 12 13 81 28 72 59 46 70
REMARK Flexibility Score: inf
ROOT
ATOM      1  C   UNL A   1      35.445  24.156  25.191  1.00  0.00     0.202 C 
ENDROOT
BRANCH   1   2
ATOM      2  C   UNL A   1      34.631  24.859  24.104  1.00  0.00     0.261 C 
BRANCH   2   3
ATOM      3  O   UNL A   1      33.920  25.985  24.651  1.00  0.00    -0.459 OA
BRANCH   3   4
ATOM      4  C   UNL A   1      32.638  25.772  25.068  1.00  0.00     0.370 C 
ATOM      5  O   UNL A   1      32.142  26.352  26.030  1.00  0.00    -0.245 OA
BRANCH   4   6
ATOM      6  C   UNL A   1      31.881  24.727  24.239  1.00  0.00     0.328 C 
BRANCH   6   7
ATOM      7  N   UNL A   1      30.945  25.136  23.112  1.00  0.00    -0.316 N 
ATOM      8  N   UNL A   1      29.883  27.862  22.808  1.00  0.00    -0.357 N 
ATOM      9  C   UNL A   1      29.508  26.991  23.926  1.00  0.00     0.178 C 
ATOM     10  C   UNL A   1      31.174  27.527  22.152  1.00  0.00     0.178 C 
ATOM     11  C   UNL A   1      29.577  25.540  23.446  1.00  0.00     0.284 C 
ATOM     12  C   UNL A   1      31.385  25.986  21.986  1.00  0.00     0.284 C 
ATOM     13  H   UNL A   1      30.980  24.175  22.771  1.00  0.00     0.349 HD
BRANCH   8  14
ATOM     14  C   UNL A   1      29.523  29.210  22.890  1.00  0.00     0.080 A 
ATOM     15  C   UNL A   1      29.953  30.053  23.937  1.00  0.00     0.142 A 
ATOM     16  C   UNL A   1      29.460  31.362  24.061  1.00  0.00     0.048 A 
ATOM     17  C   UNL A   1      28.554  31.869  23.133  1.00  0.00     0.004 A 
ATOM     18  C   UNL A   1      28.644  29.772  21.944  1.00  0.00     0.030 A 
ATOM     19  C   UNL A   1      28.151  31.075  22.068  1.00  0.00     0.002 A 
BRANCH  15  20
ATOM     20  O   UNL A   1      30.831  29.681  24.927  1.00  0.00    -0.495 OA
ATOM     21  C   UNL A   1      32.189  29.654  24.494  1.00  0.00     0.278 C 
ENDBRANCH  15  20
ENDBRANCH   8  14
ENDBRANCH   6   7
BRANCH   6  22
ATOM     22  C   UNL A   1      31.686  23.254  24.816  1.00  0.00     0.046 A 
ATOM     23  C   UNL A   1      30.952  23.161  26.001  1.00  0.00     0.094 A 
ATOM     24  C   UNL A   1      32.356  21.924  24.796  1.00  0.00     0.013 A 
ATOM     25  N   UNL A   1      31.756  22.456  26.859  1.00  0.00    -0.361 N 
ATOM     26  C   UNL A   1      32.656  21.705  26.144  1.00  0.00     0.046 A 
ATOM     27  C   UNL A   1      32.553  20.731  23.986  1.00  0.00     0.057 A 
ATOM     28  H   UNL A   1      31.698  22.485  27.841  1.00  0.00     0.166 HD
ATOM     29  C   UNL A   1      33.583  20.768  26.601  1.00  0.00     0.030 A 
ATOM     30  C   UNL A   1      33.172  19.551  24.564  1.00  0.00     0.121 A 
ATOM     31  C   UNL A   1      33.835  19.676  25.776  1.00  0.00     0.048 A 
BRANCH  30  32
ATOM     32  O   UNL A   1      33.107  18.292  23.948  1.00  0.00    -0.479 OA
BRANCH  32  33
ATOM     33  C   UNL A   1      32.621  17.090  24.781  1.00  0.00     0.349 C 
BRANCH  33  34
ATOM     34  C   UNL A   1      33.814  16.172  24.989  1.00  0.00     0.104 C 
ATOM     35  N   UNL A   1      34.804  15.410  25.161  1.00  0.00    -0.195 NA
ENDBRANCH  33  34
ENDBRANCH  32  33
ENDBRANCH  30  32
ENDBRANCH   6  22
ENDBRANCH   4   6
ENDBRANCH   3   4
ENDBRANCH   2   3
ENDBRANCH   1   2
BRANCH   1  36
ATOM     36  O   UNL A   1      36.056  22.923  24.808  1.00  0.00    -0.374 OA
BRANCH  36  37
ATOM     37  C   UNL A   1      37.444  22.754  25.077  1.00  0.00     0.202 C 
BRANCH  37  38
ATOM     38  C   UNL A   1      38.106  23.786  25.983  1.00  0.00     0.261 C 
BRANCH  38  39
ATOM     39  O   UNL A   1      39.230  23.251  26.700  1.00  0.00    -0.460 OA
BRANCH  39  40
ATOM     40  C   UNL A   1      40.305  24.064  26.747  1.00  0.00     0.338 C 
ATOM     41  O   UNL A   1      41.393  23.850  26.199  1.00  0.00    -0.246 OA
BRANCH  40  42
ATOM     42  C   UNL A   1      40.071  25.306  27.517  1.00  0.00     0.060 A 
ATOM     43  C   UNL A   1      40.721  26.461  27.080  1.00  0.00     0.016 A 
ATOM     44  C   UNL A   1      39.317  25.355  28.692  1.00  0.00     0.016 A 
ATOM     45  C   UNL A   1      40.715  27.608  27.865  1.00  0.00     0.010 A 
ATOM     46  C   UNL A   1      39.311  26.501  29.492  1.00  0.00     0.010 A 
ATOM     47  C   UNL A   1      40.057  27.614  29.102  1.00  0.00    -0.014 A 
BRANCH  47  48
ATOM     48  C   UNL A   1      40.201  28.800  29.966  1.00  0.00     0.031 A 
ATOM     49  C   UNL A   1      39.192  29.907  29.896  1.00  0.00     0.074 A 
ATOM     50  C   UNL A   1      41.193  28.825  30.870  1.00  0.00     0.049 A 
ATOM     51  N   UNL A   1      38.959  30.864  30.754  1.00  0.00    -0.248 NA
ATOM     52  C   UNL A   1      38.333  29.944  28.701  1.00  0.00     0.031 C 
ATOM     53  C   UNL A   1      42.260  27.831  30.971  1.00  0.00     0.029 A 
ATOM     54  N   UNL A   1      41.448  29.705  31.886  1.00  0.00    -0.354 N 
ATOM     55  C   UNL A   1      37.903  31.596  30.227  1.00  0.00     0.074 A 
ATOM     56  C   UNL A   1      37.578  31.008  28.945  1.00  0.00     0.031 C 
ATOM     57  C   UNL A   1      43.051  28.148  32.008  1.00  0.00     0.029 A 
ATOM     58  C   UNL A   1      42.529  29.350  32.652  1.00  0.00     0.049 A 
ATOM     59  H   UNL A   1      40.909  30.512  32.051  1.00  0.00     0.167 HD
ATOM     60  C   UNL A   1      37.259  32.650  30.784  1.00  0.00     0.037 A 
ATOM     61  C   UNL A   1      43.016  29.915  33.771  1.00  0.00     0.037 A 
ATOM     62  C   UNL A   1      37.624  33.229  32.053  1.00  0.00     0.049 A 
ATOM     63  C   UNL A   1      42.265  31.062  34.387  1.00  0.00     0.074 A 
ATOM     64  C   UNL A   1      37.005  34.253  32.750  1.00  0.00     0.029 A 
ATOM     65  N   UNL A   1      38.726  32.843  32.806  1.00  0.00    -0.354 N 
ATOM     66  N   UNL A   1      41.175  31.657  33.965  1.00  0.00    -0.248 NA
ATOM     67  C   UNL A   1      42.787  31.588  35.654  1.00  0.00     0.031 C 
ATOM     68  C   UNL A   1      37.762  34.520  33.896  1.00  0.00     0.029 A 
ATOM     69  C   UNL A   1      38.820  33.627  33.943  1.00  0.00     0.049 A 
ATOM     70  H   UNL A   1      39.347  32.118  32.565  1.00  0.00     0.167 HD
ATOM     71  C   UNL A   1      40.864  32.609  34.927  1.00  0.00     0.074 A 
ATOM     72  C   UNL A   1      41.872  32.495  35.963  1.00  0.00     0.031 C 
ATOM     73  C   UNL A   1      39.839  33.497  34.955  1.00  0.00     0.037 A 
BRANCH  60  74
ATOM     74  C   UNL A   1      36.094  33.241  30.043  1.00  0.00     0.057 A 
ATOM     75  C   UNL A   1      34.770  32.998  30.436  1.00  0.00     0.134 A 
ATOM     76  C   UNL A   1      36.293  34.131  28.980  1.00  0.00     0.134 A 
ATOM     77  F   UNL A   1      34.506  32.152  31.444  1.00  0.00    -0.206 F 
ATOM     78  C   UNL A   1      33.690  33.608  29.794  1.00  0.00     0.040 A 
ATOM     79  C   UNL A   1      35.223  34.765  28.344  1.00  0.00     0.040 A 
ATOM     80  F   UNL A   1      37.532  34.418  28.555  1.00  0.00    -0.206 F 
ATOM     81  C   UNL A   1      33.916  34.502  28.750  1.00  0.00     0.006 A 
ENDBRANCH  60  74
BRANCH  61  82
ATOM     82  C   UNL A   1      44.232  29.352  34.404  1.00  0.00     0.057 A 
ATOM     83  C   UNL A   1      44.157  28.304  35.328  1.00  0.00     0.134 A 
ATOM     84  C   UNL A   1      45.505  29.833  34.073  1.00  0.00     0.134 A 
ATOM     85  F   UNL A   1      42.967  27.805  35.689  1.00  0.00    -0.206 F 
ATOM     86  C   UNL A   1      45.303  27.770  35.919  1.00  0.00     0.040 A 
ATOM     87  C   UNL A   1      46.660  29.291  34.636  1.00  0.00     0.040 A 
ATOM     88  F   UNL A   1      45.643  30.824  33.179  1.00  0.00    -0.206 F 
ATOM     89  C   UNL A   1      46.560  28.260  35.569  1.00  0.00     0.006 A 
ENDBRANCH  61  82
BRANCH  73  90
ATOM     90  C   UNL A   1      39.756  34.397  36.153  1.00  0.00     0.057 A 
ATOM     91  C   UNL A   1      40.370  35.655  36.175  1.00  0.00     0.134 A 
ATOM     92  C   UNL A   1      39.037  34.005  37.290  1.00  0.00     0.134 A 
ATOM     93  F   UNL A   1      41.081  36.083  35.121  1.00  0.00    -0.206 F 
ATOM     94  C   UNL A   1      40.302  36.479  37.299  1.00  0.00     0.040 A 
ATOM     95  C   UNL A   1      38.940  34.832  38.409  1.00  0.00     0.040 A 
ATOM     96  F   UNL A   1      38.417  32.817  37.330  1.00  0.00    -0.206 F 
ATOM     97  C   UNL A   1      39.581  36.069  38.419  1.00  0.00     0.006 A 
ENDBRANCH  73  90
ENDBRANCH  47  48
ENDBRANCH  40  42
ENDBRANCH  39  40
ENDBRANCH  38  39
ENDBRANCH  37  38
ENDBRANCH  36  37
ENDBRANCH   1  36
TORSDOF 21
ENDMDL
