MODEL 1
REMARK VINA RESULT:      -8.9      0.000      0.000
REMARK SMILES O=C(COc1cccc(C(=O)OCCOCCOC(=O)c2ccc(-c3c4nc(c(-c5c(F)cccc5F)c5ccc([nH]5)c(-c5c(F)cccc5F)c5nc(c(-c6c(F)cccc6F)c6ccc3[nH]6)C=C5)C=C4)cc2)c1)NCCc1cccs1
REMARK SMILES IDX 13 1 12 2 10 3 11 4 9 5 5 6 6 7 75 8 7 9 8 10 4 11 3 12 2 13
REMARK SMILES IDX 1 14 76 15 77 17 78 18 79 19 80 20 83 21 81 22 82 23 14 24
REMARK SMILES IDX 15 25 16 26 17 27 18 28 19 29 20 30 21 31 22 32 74 33 23 34
REMARK SMILES IDX 73 35 24 36 25 37 26 38 67 39 27 40 72 41 66 42 68 43 28 44
REMARK SMILES IDX 71 45 65 46 64 47 29 49 55 50 38 51 54 52 39 53 42 54 53 55
REMARK SMILES IDX 69 56 40 57 41 58 52 60 70 61 43 62 30 63 31 64 36 65 32 66
REMARK SMILES IDX 33 67 35 68 37 69 34 70 56 71 57 72 62 73 58 74 59 75 61 76
REMARK SMILES IDX 63 77 60 78 44 79 45 80 50 81 46 82 47 83 49 84 51 85 48 86
REMARK H PARENT 76 16 68 48 42 59
REMARK Flexibility Score: inf
ROOT
ATOM      1  C   UNL A   1      35.997  34.747  33.669  1.00  0.00     0.261 C 
ENDROOT
BRANCH   1   2
ATOM      2  O   UNL A   1      36.156  33.320  33.718  1.00  0.00    -0.460 OA
BRANCH   2   3
ATOM      3  C   UNL A   1      36.910  32.835  34.733  1.00  0.00     0.338 C 
ATOM      4  O   UNL A   1      36.876  33.183  35.905  1.00  0.00    -0.246 OA
BRANCH   3   5
ATOM      5  C   UNL A   1      37.677  31.658  34.253  1.00  0.00     0.063 A 
ATOM      6  C   UNL A   1      39.730  30.379  34.107  1.00  0.00     0.120 A 
ATOM      7  C   UNL A   1      39.135  29.551  33.154  1.00  0.00     0.046 A 
ATOM      8  C   UNL A   1      39.003  31.441  34.647  1.00  0.00     0.062 A 
ATOM      9  C   UNL A   1      37.808  29.754  32.769  1.00  0.00     0.005 A 
ATOM     10  C   UNL A   1      37.075  30.804  33.322  1.00  0.00     0.016 A 
BRANCH   6  11
ATOM     11  O   UNL A   1      41.048  30.126  34.385  1.00  0.00    -0.484 OA
BRANCH  11  12
ATOM     12  C   UNL A   1      41.467  28.775  34.189  1.00  0.00     0.329 C 
BRANCH  12  13
ATOM     13  C   UNL A   1      41.373  27.870  35.421  1.00  0.00     0.257 C 
ATOM     14  O   UNL A   1      41.410  28.306  36.568  1.00  0.00    -0.271 OA
ATOM     15  N   UNL A   1      41.261  26.534  35.120  1.00  0.00    -0.353 N 
ATOM     16  H   UNL A   1      41.200  26.275  34.171  1.00  0.00     0.163 HD
BRANCH  15  17
ATOM     17  C   UNL A   1      41.230  25.483  36.117  1.00  0.00     0.121 C 
BRANCH  17  18
ATOM     18  C   UNL A   1      42.616  25.115  36.654  1.00  0.00     0.068 C 
BRANCH  18  19
ATOM     19  C   UNL A   1      43.442  24.252  35.729  1.00  0.00     0.006 A 
ATOM     20  C   UNL A   1      42.991  23.479  34.674  1.00  0.00     0.015 A 
ATOM     21  S   UNL A   1      45.154  24.196  35.833  1.00  0.00    -0.149 S 
ATOM     22  C   UNL A   1      44.043  22.786  34.009  1.00  0.00     0.012 A 
ATOM     23  C   UNL A   1      45.273  23.082  34.548  1.00  0.00     0.065 A 
ENDBRANCH  18  19
ENDBRANCH  17  18
ENDBRANCH  15  17
ENDBRANCH  12  13
ENDBRANCH  11  12
ENDBRANCH   6  11
ENDBRANCH   3   5
ENDBRANCH   2   3
ENDBRANCH   1   2
BRANCH   1  24
ATOM     24  C   UNL A   1      34.566  35.119  33.261  1.00  0.00     0.202 C 
BRANCH  24  25
ATOM     25  O   UNL A   1      34.211  36.493  33.421  1.00  0.00    -0.374 OA
BRANCH  25  26
ATOM     26  C   UNL A   1      33.556  37.121  32.319  1.00  0.00     0.202 C 
BRANCH  26  27
ATOM     27  C   UNL A   1      32.897  36.183  31.302  1.00  0.00     0.261 C 
BRANCH  27  28
ATOM     28  O   UNL A   1      33.610  36.147  30.053  1.00  0.00    -0.460 OA
BRANCH  28  29
ATOM     29  C   UNL A   1      33.382  35.037  29.313  1.00  0.00     0.338 C 
ATOM     30  O   UNL A   1      32.407  34.790  28.621  1.00  0.00    -0.246 OA
BRANCH  29  31
ATOM     31  C   UNL A   1      34.571  34.169  29.327  1.00  0.00     0.060 A 
ATOM     32  C   UNL A   1      34.633  33.167  30.304  1.00  0.00     0.016 A 
ATOM     33  C   UNL A   1      35.648  34.390  28.469  1.00  0.00     0.016 A 
ATOM     34  C   UNL A   1      35.797  32.419  30.464  1.00  0.00     0.010 A 
ATOM     35  C   UNL A   1      36.815  33.637  28.635  1.00  0.00     0.010 A 
ATOM     36  C   UNL A   1      36.912  32.675  29.655  1.00  0.00    -0.014 A 
BRANCH  36  37
ATOM     37  C   UNL A   1      38.218  32.044  29.975  1.00  0.00     0.031 A 
ATOM     38  C   UNL A   1      39.180  32.763  30.885  1.00  0.00     0.074 A 
ATOM     39  C   UNL A   1      38.536  30.831  29.485  1.00  0.00     0.049 A 
ATOM     40  N   UNL A   1      40.370  32.400  31.290  1.00  0.00    -0.248 NA
ATOM     41  C   UNL A   1      38.746  34.073  31.398  1.00  0.00     0.031 C 
ATOM     42  C   UNL A   1      37.694  30.029  28.599  1.00  0.00     0.029 A 
ATOM     43  N   UNL A   1      39.660  30.063  29.667  1.00  0.00    -0.354 N 
ATOM     44  C   UNL A   1      40.831  33.438  32.092  1.00  0.00     0.074 A 
ATOM     45  C   UNL A   1      39.810  34.463  32.084  1.00  0.00     0.031 C 
ATOM     46  C   UNL A   1      38.331  28.879  28.316  1.00  0.00     0.029 A 
ATOM     47  C   UNL A   1      39.634  28.875  28.978  1.00  0.00     0.049 A 
ATOM     48  H   UNL A   1      40.413  30.338  30.238  1.00  0.00     0.167 HD
ATOM     49  C   UNL A   1      41.990  33.523  32.786  1.00  0.00     0.037 A 
ATOM     50  C   UNL A   1      40.559  27.900  28.886  1.00  0.00     0.037 A 
ATOM     51  C   UNL A   1      42.994  32.492  32.817  1.00  0.00     0.049 A 
ATOM     52  C   UNL A   1      41.848  28.027  29.655  1.00  0.00     0.074 A 
ATOM     53  C   UNL A   1      44.184  32.470  33.525  1.00  0.00     0.029 A 
ATOM     54  N   UNL A   1      42.928  31.302  32.109  1.00  0.00    -0.354 N 
ATOM     55  N   UNL A   1      42.250  28.994  30.445  1.00  0.00    -0.248 NA
ATOM     56  C   UNL A   1      42.806  26.919  29.531  1.00  0.00     0.031 C 
ATOM     57  C   UNL A   1      44.861  31.289  33.206  1.00  0.00     0.029 A 
ATOM     58  C   UNL A   1      44.066  30.548  32.347  1.00  0.00     0.049 A 
ATOM     59  H   UNL A   1      42.184  31.033  31.525  1.00  0.00     0.167 HD
ATOM     60  C   UNL A   1      43.487  28.595  30.937  1.00  0.00     0.074 A 
ATOM     61  C   UNL A   1      43.762  27.293  30.369  1.00  0.00     0.031 C 
ATOM     62  C   UNL A   1      44.321  29.246  31.786  1.00  0.00     0.037 A 
BRANCH  49  63
ATOM     63  C   UNL A   1      42.245  34.781  33.565  1.00  0.00     0.057 A 
ATOM     64  C   UNL A   1      42.944  35.865  33.019  1.00  0.00     0.134 A 
ATOM     65  C   UNL A   1      41.738  34.929  34.863  1.00  0.00     0.134 A 
ATOM     66  F   UNL A   1      43.468  35.784  31.786  1.00  0.00    -0.206 F 
ATOM     67  C   UNL A   1      43.147  37.042  33.742  1.00  0.00     0.040 A 
ATOM     68  C   UNL A   1      41.909  36.110  35.584  1.00  0.00     0.040 A 
ATOM     69  F   UNL A   1      41.056  33.930  35.445  1.00  0.00    -0.206 F 
ATOM     70  C   UNL A   1      42.620  37.170  35.025  1.00  0.00     0.006 A 
ENDBRANCH  49  63
BRANCH  50  71
ATOM     71  C   UNL A   1      40.310  26.711  28.030  1.00  0.00     0.057 A 
ATOM     72  C   UNL A   1      40.870  26.602  26.752  1.00  0.00     0.134 A 
ATOM     73  C   UNL A   1      39.472  25.673  28.456  1.00  0.00     0.134 A 
ATOM     74  F   UNL A   1      41.663  27.574  26.277  1.00  0.00    -0.206 F 
ATOM     75  C   UNL A   1      40.583  25.520  25.917  1.00  0.00     0.040 A 
ATOM     76  C   UNL A   1      39.201  24.571  27.644  1.00  0.00     0.040 A 
ATOM     77  F   UNL A   1      38.907  25.715  29.672  1.00  0.00    -0.206 F 
ATOM     78  C   UNL A   1      39.749  24.498  26.366  1.00  0.00     0.006 A 
ENDBRANCH  50  71
BRANCH  62  79
ATOM     79  C   UNL A   1      45.582  28.538  32.192  1.00  0.00     0.057 A 
ATOM     80  C   UNL A   1      46.802  28.751  31.539  1.00  0.00     0.134 A 
ATOM     81  C   UNL A   1      45.576  27.644  33.272  1.00  0.00     0.134 A 
ATOM     82  F   UNL A   1      46.876  29.586  30.492  1.00  0.00    -0.206 F 
ATOM     83  C   UNL A   1      47.962  28.073  31.919  1.00  0.00     0.040 A 
ATOM     84  C   UNL A   1      46.736  26.984  33.682  1.00  0.00     0.040 A 
ATOM     85  F   UNL A   1      44.445  27.404  33.952  1.00  0.00    -0.206 F 
ATOM     86  C   UNL A   1      47.931  27.190  32.998  1.00  0.00     0.006 A 
ENDBRANCH  62  79
ENDBRANCH  36  37
ENDBRANCH  29  31
ENDBRANCH  28  29
ENDBRANCH  27  28
ENDBRANCH  26  27
ENDBRANCH  25  26
ENDBRANCH  24  25
ENDBRANCH   1  24
TORSDOF 20
ENDMDL
MODEL 2
REMARK VINA RESULT:      -8.6      0.700      6.198
REMARK SMILES O=C(COc1cccc(C(=O)OCCOCCOC(=O)c2ccc(-c3c4nc(c(-c5c(F)cccc5F)c5ccc([nH]5)c(-c5c(F)cccc5F)c5nc(c(-c6c(F)cccc6F)c6ccc3[nH]6)C=C5)C=C4)cc2)c1)NCCc1cccs1
REMARK SMILES IDX 13 1 12 2 10 3 11 4 9 5 5 6 6 7 75 8 7 9 8 10 4 11 3 12 2 13
REMARK SMILES IDX 1 14 76 15 77 17 78 18 79 19 80 20 83 21 81 22 82 23 14 24
REMARK SMILES IDX 15 25 16 26 17 27 18 28 19 29 20 30 21 31 22 32 74 33 23 34
REMARK SMILES IDX 73 35 24 36 25 37 26 38 67 39 27 40 72 41 66 42 68 43 28 44
REMARK SMILES IDX 71 45 65 46 64 47 29 49 55 50 38 51 54 52 39 53 42 54 53 55
REMARK SMILES IDX 69 56 40 57 41 58 52 60 70 61 43 62 30 63 31 64 36 65 32 66
REMARK SMILES IDX 33 67 35 68 37 69 34 70 56 71 57 72 62 73 58 74 59 75 61 76
REMARK SMILES IDX 63 77 60 78 44 79 45 80 50 81 46 82 47 83 49 84 51 85 48 86
REMARK H PARENT 76 16 68 48 42 59
REMARK Flexibility Score: inf
ROOT
ATOM      1  C   UNL A   1      35.579  34.840  33.351  1.00  0.00     0.261 C 
ENDROOT
BRANCH   1   2
ATOM      2  O   UNL A   1      35.792  33.436  33.565  1.00  0.00    -0.460 OA
BRANCH   2   3
ATOM      3  C   UNL A   1      36.645  33.104  34.564  1.00  0.00     0.338 C 
ATOM      4  O   UNL A   1      36.676  33.576  35.692  1.00  0.00    -0.246 OA
BRANCH   3   5
ATOM      5  C   UNL A   1      37.445  31.924  34.151  1.00  0.00     0.063 A 
ATOM      6  C   UNL A   1      39.522  30.676  34.110  1.00  0.00     0.120 A 
ATOM      7  C   UNL A   1      38.968  29.801  33.175  1.00  0.00     0.046 A 
ATOM      8  C   UNL A   1      38.764  31.746  34.588  1.00  0.00     0.062 A 
ATOM      9  C   UNL A   1      37.647  29.965  32.748  1.00  0.00     0.005 A 
ATOM     10  C   UNL A   1      36.883  31.023  33.240  1.00  0.00     0.016 A 
BRANCH   6  11
ATOM     11  O   UNL A   1      40.837  30.458  34.432  1.00  0.00    -0.484 OA
BRANCH  11  12
ATOM     12  C   UNL A   1      41.307  29.126  34.220  1.00  0.00     0.329 C 
BRANCH  12  13
ATOM     13  C   UNL A   1      41.541  28.300  35.489  1.00  0.00     0.257 C 
ATOM     14  O   UNL A   1      41.002  28.563  36.559  1.00  0.00    -0.271 OA
ATOM     15  N   UNL A   1      42.421  27.258  35.316  1.00  0.00    -0.353 N 
ATOM     16  H   UNL A   1      42.778  27.097  34.412  1.00  0.00     0.163 HD
BRANCH  15  17
ATOM     17  C   UNL A   1      42.854  26.384  36.388  1.00  0.00     0.121 C 
BRANCH  17  18
ATOM     18  C   UNL A   1      44.153  25.636  36.072  1.00  0.00     0.068 C 
BRANCH  18  19
ATOM     19  C   UNL A   1      44.122  24.829  34.795  1.00  0.00     0.006 A 
ATOM     20  C   UNL A   1      44.612  25.197  33.556  1.00  0.00     0.015 A 
ATOM     21  S   UNL A   1      43.513  23.225  34.756  1.00  0.00    -0.149 S 
ATOM     22  C   UNL A   1      44.415  24.193  32.565  1.00  0.00     0.012 A 
ATOM     23  C   UNL A   1      43.817  23.069  33.085  1.00  0.00     0.065 A 
ENDBRANCH  18  19
ENDBRANCH  17  18
ENDBRANCH  15  17
ENDBRANCH  12  13
ENDBRANCH  11  12
ENDBRANCH   6  11
ENDBRANCH   3   5
ENDBRANCH   2   3
ENDBRANCH   1   2
BRANCH   1  24
ATOM     24  C   UNL A   1      34.146  35.104  32.875  1.00  0.00     0.202 C 
BRANCH  24  25
ATOM     25  O   UNL A   1      33.747  36.475  32.830  1.00  0.00    -0.374 OA
BRANCH  25  26
ATOM     26  C   UNL A   1      33.286  36.969  31.573  1.00  0.00     0.202 C 
BRANCH  26  27
ATOM     27  C   UNL A   1      32.650  35.939  30.634  1.00  0.00     0.261 C 
BRANCH  27  28
ATOM     28  O   UNL A   1      33.337  35.854  29.373  1.00  0.00    -0.460 OA
BRANCH  28  29
ATOM     29  C   UNL A   1      33.212  34.660  28.749  1.00  0.00     0.338 C 
ATOM     30  O   UNL A   1      32.288  34.279  28.048  1.00  0.00    -0.246 OA
BRANCH  29  31
ATOM     31  C   UNL A   1      34.450  33.877  28.907  1.00  0.00     0.060 A 
ATOM     32  C   UNL A   1      34.548  33.035  30.021  1.00  0.00     0.016 A 
ATOM     33  C   UNL A   1      35.531  34.035  28.040  1.00  0.00     0.016 A 
ATOM     34  C   UNL A   1      35.750  32.390  30.306  1.00  0.00     0.010 A 
ATOM     35  C   UNL A   1      36.735  33.387  28.331  1.00  0.00     0.010 A 
ATOM     36  C   UNL A   1      36.866  32.592  29.483  1.00  0.00    -0.014 A 
BRANCH  36  37
ATOM     37  C   UNL A   1      38.199  32.095  29.910  1.00  0.00     0.031 A 
ATOM     38  C   UNL A   1      38.687  30.765  29.398  1.00  0.00     0.074 A 
ATOM     39  C   UNL A   1      38.980  32.831  30.722  1.00  0.00     0.049 A 
ATOM     40  N   UNL A   1      39.810  30.141  29.647  1.00  0.00    -0.248 NA
ATOM     41  C   UNL A   1      37.782  30.034  28.495  1.00  0.00     0.031 C 
ATOM     42  C   UNL A   1      38.629  34.135  31.283  1.00  0.00     0.029 A 
ATOM     43  N   UNL A   1      40.237  32.580  31.216  1.00  0.00    -0.354 N 
ATOM     44  C   UNL A   1      39.742  28.944  28.943  1.00  0.00     0.074 A 
ATOM     45  C   UNL A   1      38.451  28.909  28.291  1.00  0.00     0.031 C 
ATOM     46  C   UNL A   1      39.648  34.571  32.043  1.00  0.00     0.029 A 
ATOM     47  C   UNL A   1      40.711  33.568  32.045  1.00  0.00     0.049 A 
ATOM     48  H   UNL A   1      40.749  31.769  30.998  1.00  0.00     0.167 HD
ATOM     49  C   UNL A   1      40.676  27.969  28.834  1.00  0.00     0.037 A 
ATOM     50  C   UNL A   1      41.868  33.650  32.732  1.00  0.00     0.037 A 
ATOM     51  C   UNL A   1      41.971  28.014  29.460  1.00  0.00     0.049 A 
ATOM     52  C   UNL A   1      42.882  32.543  32.607  1.00  0.00     0.074 A 
ATOM     53  C   UNL A   1      43.001  27.092  29.375  1.00  0.00     0.029 A 
ATOM     54  N   UNL A   1      42.414  29.034  30.288  1.00  0.00    -0.354 N 
ATOM     55  N   UNL A   1      42.822  31.439  31.902  1.00  0.00    -0.248 NA
ATOM     56  C   UNL A   1      44.132  32.703  33.364  1.00  0.00     0.031 C 
ATOM     57  C   UNL A   1      44.048  27.530  30.192  1.00  0.00     0.029 A 
ATOM     58  C   UNL A   1      43.695  28.754  30.737  1.00  0.00     0.049 A 
ATOM     59  H   UNL A   1      41.897  29.838  30.521  1.00  0.00     0.167 HD
ATOM     60  C   UNL A   1      44.036  30.792  32.102  1.00  0.00     0.074 A 
ATOM     61  C   UNL A   1      44.818  31.635  32.981  1.00  0.00     0.031 C 
ATOM     62  C   UNL A   1      44.468  29.608  31.601  1.00  0.00     0.037 A 
BRANCH  49  63
ATOM     63  C   UNL A   1      40.328  26.759  28.015  1.00  0.00     0.057 A 
ATOM     64  C   UNL A   1      40.842  26.560  26.728  1.00  0.00     0.134 A 
ATOM     65  C   UNL A   1      39.508  25.754  28.545  1.00  0.00     0.134 A 
ATOM     66  F   UNL A   1      41.622  27.490  26.156  1.00  0.00    -0.206 F 
ATOM     67  C   UNL A   1      40.537  25.415  25.989  1.00  0.00     0.040 A 
ATOM     68  C   UNL A   1      39.220  24.593  27.828  1.00  0.00     0.040 A 
ATOM     69  F   UNL A   1      38.985  25.880  29.775  1.00  0.00    -0.206 F 
ATOM     70  C   UNL A   1      39.732  24.423  26.544  1.00  0.00     0.006 A 
ENDBRANCH  49  63
BRANCH  50  71
ATOM     71  C   UNL A   1      42.137  34.820  33.607  1.00  0.00     0.057 A 
ATOM     72  C   UNL A   1      41.717  34.845  34.942  1.00  0.00     0.134 A 
ATOM     73  C   UNL A   1      42.785  35.960  33.115  1.00  0.00     0.134 A 
ATOM     74  F   UNL A   1      41.070  33.792  35.466  1.00  0.00    -0.206 F 
ATOM     75  C   UNL A   1      41.907  35.969  35.748  1.00  0.00     0.040 A 
ATOM     76  C   UNL A   1      43.008  37.079  33.918  1.00  0.00     0.040 A 
ATOM     77  F   UNL A   1      43.215  35.999  31.846  1.00  0.00    -0.206 F 
ATOM     78  C   UNL A   1      42.558  37.089  35.236  1.00  0.00     0.006 A 
ENDBRANCH  50  71
BRANCH  62  79
ATOM     79  C   UNL A   1      45.865  29.181  31.948  1.00  0.00     0.057 A 
ATOM     80  C   UNL A   1      46.169  28.518  33.144  1.00  0.00     0.134 A 
ATOM     81  C   UNL A   1      46.921  29.419  31.058  1.00  0.00     0.134 A 
ATOM     82  F   UNL A   1      45.207  28.267  34.045  1.00  0.00    -0.206 F 
ATOM     83  C   UNL A   1      47.476  28.142  33.459  1.00  0.00     0.040 A 
ATOM     84  C   UNL A   1      48.227  29.020  31.347  1.00  0.00     0.040 A 
ATOM     85  F   UNL A   1      46.700  30.037  29.888  1.00  0.00    -0.206 F 
ATOM     86  C   UNL A   1      48.509  28.388  32.556  1.00  0.00     0.006 A 
ENDBRANCH  62  79
ENDBRANCH  36  37
ENDBRANCH  29  31
ENDBRANCH  28  29
ENDBRANCH  27  28
ENDBRANCH  26  27
ENDBRANCH  25  26
ENDBRANCH  24  25
ENDBRANCH   1  24
TORSDOF 20
ENDMDL
MODEL 3
REMARK VINA RESULT:      -8.1      5.762     11.366
REMARK SMILES O=C(COc1cccc(C(=O)OCCOCCOC(=O)c2ccc(-c3c4nc(c(-c5c(F)cccc5F)c5ccc([nH]5)c(-c5c(F)cccc5F)c5nc(c(-c6c(F)cccc6F)c6ccc3[nH]6)C=C5)C=C4)cc2)c1)NCCc1cccs1
REMARK SMILES IDX 13 1 12 2 10 3 11 4 9 5 5 6 6 7 75 8 7 9 8 10 4 11 3 12 2 13
REMARK SMILES IDX 1 14 76 15 77 17 78 18 79 19 80 20 83 21 81 22 82 23 14 24
REMARK SMILES IDX 15 25 16 26 17 27 18 28 19 29 20 30 21 31 22 32 74 33 23 34
REMARK SMILES IDX 73 35 24 36 25 37 26 38 67 39 27 40 72 41 66 42 68 43 28 44
REMARK SMILES IDX 71 45 65 46 64 47 29 49 55 50 38 51 54 52 39 53 42 54 53 55
REMARK SMILES IDX 69 56 40 57 41 58 52 60 70 61 43 62 30 63 31 64 36 65 32 66
REMARK SMILES IDX 33 67 35 68 37 69 34 70 56 71 57 72 62 73 58 74 59 75 61 76
REMARK SMILES IDX 63 77 60 78 44 79 45 80 50 81 46 82 47 83 49 84 51 85 48 86
REMARK H PARENT 76 16 68 48 42 59
REMARK Flexibility Score: inf
ROOT
ATOM      1  C   UNL A   1      39.943  21.886  26.121  1.00  0.00     0.261 C 
ENDROOT
BRANCH   1   2
ATOM      2  O   UNL A   1      38.587  21.482  26.368  1.00  0.00    -0.460 OA
BRANCH   2   3
ATOM      3  C   UNL A   1      37.936  20.897  25.333  1.00  0.00     0.338 C 
ATOM      4  O   UNL A   1      38.232  19.849  24.778  1.00  0.00    -0.246 OA
BRANCH   3   5
ATOM      5  C   UNL A   1      36.672  21.630  25.075  1.00  0.00     0.063 A 
ATOM      6  C   UNL A   1      34.376  22.165  25.637  1.00  0.00     0.120 A 
ATOM      7  C   UNL A   1      34.252  22.858  24.431  1.00  0.00     0.046 A 
ATOM      8  C   UNL A   1      35.583  21.540  25.951  1.00  0.00     0.062 A 
ATOM      9  C   UNL A   1      35.340  22.965  23.561  1.00  0.00     0.005 A 
ATOM     10  C   UNL A   1      36.552  22.356  23.885  1.00  0.00     0.016 A 
BRANCH   6  11
ATOM     11  O   UNL A   1      33.241  22.079  26.401  1.00  0.00    -0.484 OA
BRANCH  11  12
ATOM     12  C   UNL A   1      32.013  22.281  25.699  1.00  0.00     0.329 C 
BRANCH  12  13
ATOM     13  C   UNL A   1      31.075  23.332  26.300  1.00  0.00     0.257 C 
ATOM     14  O   UNL A   1      30.604  23.231  27.428  1.00  0.00    -0.271 OA
ATOM     15  N   UNL A   1      30.803  24.380  25.453  1.00  0.00    -0.353 N 
ATOM     16  H   UNL A   1      31.256  24.400  24.579  1.00  0.00     0.163 HD
BRANCH  15  17
ATOM     17  C   UNL A   1      29.887  25.456  25.773  1.00  0.00     0.121 C 
BRANCH  17  18
ATOM     18  C   UNL A   1      29.495  26.300  24.556  1.00  0.00     0.068 C 
BRANCH  18  19
ATOM     19  C   UNL A   1      30.510  27.348  24.161  1.00  0.00     0.006 A 
ATOM     20  C   UNL A   1      31.386  28.024  24.991  1.00  0.00     0.015 A 
ATOM     21  S   UNL A   1      30.768  27.783  22.522  1.00  0.00    -0.149 S 
ATOM     22  C   UNL A   1      32.207  28.950  24.288  1.00  0.00     0.012 A 
ATOM     23  C   UNL A   1      31.965  28.925  22.934  1.00  0.00     0.065 A 
ENDBRANCH  18  19
ENDBRANCH  17  18
ENDBRANCH  15  17
ENDBRANCH  12  13
ENDBRANCH  11  12
ENDBRANCH   6  11
ENDBRANCH   3   5
ENDBRANCH   2   3
ENDBRANCH   1   2
BRANCH   1  24
ATOM     24  C   UNL A   1      40.923  20.788  26.552  1.00  0.00     0.202 C 
BRANCH  24  25
ATOM     25  O   UNL A   1      41.813  20.316  25.540  1.00  0.00    -0.374 OA
BRANCH  25  26
ATOM     26  C   UNL A   1      43.209  20.495  25.777  1.00  0.00     0.202 C 
BRANCH  26  27
ATOM     27  C   UNL A   1      43.672  21.934  26.035  1.00  0.00     0.261 C 
BRANCH  27  28
ATOM     28  O   UNL A   1      43.248  22.836  24.998  1.00  0.00    -0.460 OA
BRANCH  28  29
ATOM     29  C   UNL A   1      43.894  24.026  24.998  1.00  0.00     0.338 C 
ATOM     30  O   UNL A   1      44.848  24.355  24.311  1.00  0.00    -0.246 OA
BRANCH  29  31
ATOM     31  C   UNL A   1      43.190  24.982  25.869  1.00  0.00     0.060 A 
ATOM     32  C   UNL A   1      43.840  26.184  26.174  1.00  0.00     0.016 A 
ATOM     33  C   UNL A   1      41.963  24.671  26.455  1.00  0.00     0.016 A 
ATOM     34  C   UNL A   1      43.293  27.055  27.113  1.00  0.00     0.010 A 
ATOM     35  C   UNL A   1      41.419  25.548  27.398  1.00  0.00     0.010 A 
ATOM     36  C   UNL A   1      42.096  26.726  27.761  1.00  0.00    -0.014 A 
BRANCH  36  37
ATOM     37  C   UNL A   1      41.635  27.534  28.919  1.00  0.00     0.031 A 
ATOM     38  C   UNL A   1      42.367  27.422  30.232  1.00  0.00     0.074 A 
ATOM     39  C   UNL A   1      40.597  28.382  28.798  1.00  0.00     0.049 A 
ATOM     40  N   UNL A   1      42.132  28.029  31.367  1.00  0.00    -0.248 NA
ATOM     41  C   UNL A   1      43.507  26.492  30.273  1.00  0.00     0.031 C 
ATOM     42  C   UNL A   1      39.808  28.587  27.584  1.00  0.00     0.029 A 
ATOM     43  N   UNL A   1      40.026  29.229  29.716  1.00  0.00    -0.354 N 
ATOM     44  C   UNL A   1      43.084  27.547  32.258  1.00  0.00     0.074 A 
ATOM     45  C   UNL A   1      43.874  26.568  31.544  1.00  0.00     0.031 C 
ATOM     46  C   UNL A   1      38.857  29.504  27.832  1.00  0.00     0.029 A 
ATOM     47  C   UNL A   1      38.952  29.931  29.227  1.00  0.00     0.049 A 
ATOM     48  H   UNL A   1      40.356  29.324  30.638  1.00  0.00     0.167 HD
ATOM     49  C   UNL A   1      43.294  27.900  33.549  1.00  0.00     0.037 A 
ATOM     50  C   UNL A   1      38.134  30.811  29.837  1.00  0.00     0.037 A 
ATOM     51  C   UNL A   1      42.527  28.894  34.253  1.00  0.00     0.049 A 
ATOM     52  C   UNL A   1      38.379  31.173  31.278  1.00  0.00     0.074 A 
ATOM     53  C   UNL A   1      42.691  29.349  35.550  1.00  0.00     0.029 A 
ATOM     54  N   UNL A   1      41.450  29.585  33.720  1.00  0.00    -0.354 N 
ATOM     55  N   UNL A   1      39.311  30.742  32.094  1.00  0.00    -0.248 NA
ATOM     56  C   UNL A   1      37.465  32.155  31.879  1.00  0.00     0.031 C 
ATOM     57  C   UNL A   1      41.682  30.280  35.818  1.00  0.00     0.029 A 
ATOM     58  C   UNL A   1      40.927  30.448  34.669  1.00  0.00     0.049 A 
ATOM     59  H   UNL A   1      41.108  29.479  32.803  1.00  0.00     0.167 HD
ATOM     60  C   UNL A   1      39.117  31.426  33.289  1.00  0.00     0.074 A 
ATOM     61  C   UNL A   1      37.990  32.310  33.086  1.00  0.00     0.031 C 
ATOM     62  C   UNL A   1      39.812  31.333  34.450  1.00  0.00     0.037 A 
BRANCH  49  63
ATOM     63  C   UNL A   1      44.393  27.198  34.293  1.00  0.00     0.057 A 
ATOM     64  C   UNL A   1      45.721  27.640  34.248  1.00  0.00     0.134 A 
ATOM     65  C   UNL A   1      44.107  26.094  35.108  1.00  0.00     0.134 A 
ATOM     66  F   UNL A   1      46.066  28.683  33.477  1.00  0.00    -0.206 F 
ATOM     67  C   UNL A   1      46.729  26.998  34.971  1.00  0.00     0.040 A 
ATOM     68  C   UNL A   1      45.100  25.463  35.857  1.00  0.00     0.040 A 
ATOM     69  F   UNL A   1      42.855  25.622  35.198  1.00  0.00    -0.206 F 
ATOM     70  C   UNL A   1      46.417  25.912  35.786  1.00  0.00     0.006 A 
ENDBRANCH  49  63
BRANCH  50  71
ATOM     71  C   UNL A   1      36.998  31.415  29.093  1.00  0.00     0.057 A 
ATOM     72  C   UNL A   1      37.042  32.740  28.643  1.00  0.00     0.134 A 
ATOM     73  C   UNL A   1      35.823  30.693  28.852  1.00  0.00     0.134 A 
ATOM     74  F   UNL A   1      38.131  33.492  28.864  1.00  0.00    -0.206 F 
ATOM     75  C   UNL A   1      35.951  33.333  28.005  1.00  0.00     0.040 A 
ATOM     76  C   UNL A   1      34.735  31.264  28.189  1.00  0.00     0.040 A 
ATOM     77  F   UNL A   1      35.717  29.418  29.254  1.00  0.00    -0.206 F 
ATOM     78  C   UNL A   1      34.794  32.592  27.774  1.00  0.00     0.006 A 
ENDBRANCH  50  71
BRANCH  62  79
ATOM     79  C   UNL A   1      39.407  32.247  35.571  1.00  0.00     0.057 A 
ATOM     80  C   UNL A   1      39.891  33.557  35.679  1.00  0.00     0.134 A 
ATOM     81  C   UNL A   1      38.498  31.814  36.546  1.00  0.00     0.134 A 
ATOM     82  F   UNL A   1      40.770  34.033  34.784  1.00  0.00    -0.206 F 
ATOM     83  C   UNL A   1      39.516  34.390  36.735  1.00  0.00     0.040 A 
ATOM     84  C   UNL A   1      38.092  32.647  37.590  1.00  0.00     0.040 A 
ATOM     85  F   UNL A   1      37.984  30.576  36.496  1.00  0.00    -0.206 F 
ATOM     86  C   UNL A   1      38.610  33.936  37.692  1.00  0.00     0.006 A 
ENDBRANCH  62  79
ENDBRANCH  36  37
ENDBRANCH  29  31
ENDBRANCH  28  29
ENDBRANCH  27  28
ENDBRANCH  26  27
ENDBRANCH  25  26
ENDBRANCH  24  25
ENDBRANCH   1  24
TORSDOF 20
ENDMDL
