MODEL 1
REMARK VINA RESULT:     -11.3      0.000      0.000
REMARK SMILES Cn1ncc(C(=O)OCCOCCOC(=O)c2ccc(-c3c4nc(c(-c5c(F)cccc5F)c5ccc([nH]5)c(-c5c(F)cccc5F)c5nc(c(-c6c(F)cccc6F)c6ccc3[nH]6)C=C5)C=C4)cc2)c1C(=O)N1CCN(S(C)(=O)=O)CC1
REMARK SMILES IDX 11 1 10 2 9 3 8 4 6 5 7 6 5 7 1 8 2 9 3 10 71 11 4 12 72 13
REMARK SMILES IDX 73 14 74 15 75 16 83 17 76 18 82 19 77 20 78 21 79 22 80 23
REMARK SMILES IDX 81 24 12 25 13 26 14 27 15 28 16 29 17 30 18 31 70 32 19 33
REMARK SMILES IDX 69 34 20 35 21 36 22 37 63 38 23 39 68 40 62 41 64 42 24 43
REMARK SMILES IDX 67 44 61 45 60 46 25 48 51 49 34 50 50 51 35 52 38 53 49 54
REMARK SMILES IDX 65 55 36 56 37 57 48 59 66 60 39 61 26 62 27 63 32 64 28 65
REMARK SMILES IDX 29 66 31 67 33 68 30 69 52 70 53 71 58 72 54 73 55 74 57 75
REMARK SMILES IDX 59 76 56 77 40 78 41 79 46 80 42 81 43 82 45 83 47 84 44 85
REMARK H PARENT 64 47 38 58
REMARK Flexibility Score: inf
ROOT
ATOM      1  O   UNL A   1      41.604  21.394  26.711  1.00  0.00    -0.374 OA
ENDROOT
BRANCH   1   2
ATOM      2  C   UNL A   1      40.272  20.947  26.446  1.00  0.00     0.202 C 
BRANCH   2   3
ATOM      3  C   UNL A   1      39.273  22.075  26.187  1.00  0.00     0.261 C 
BRANCH   3   4
ATOM      4  O   UNL A   1      38.169  21.555  25.430  1.00  0.00    -0.460 OA
BRANCH   4   5
ATOM      5  C   UNL A   1      36.982  22.188  25.605  1.00  0.00     0.342 C 
ATOM      6  O   UNL A   1      36.852  23.400  25.738  1.00  0.00    -0.246 OA
BRANCH   5   7
ATOM      7  C   UNL A   1      35.834  21.318  25.423  1.00  0.00     0.111 A 
ATOM      8  C   UNL A   1      32.509  20.197  24.699  1.00  0.00     0.174 C 
ATOM      9  N   UNL A   1      33.876  20.406  25.118  1.00  0.00    -0.262 N 
ATOM     10  N   UNL A   1      34.744  19.434  24.780  1.00  0.00    -0.180 NA
ATOM     11  C   UNL A   1      34.471  21.518  25.684  1.00  0.00     0.140 A 
ATOM     12  C   UNL A   1      35.928  20.026  24.873  1.00  0.00     0.151 A 
BRANCH  11  13
ATOM     13  C   UNL A   1      33.861  22.728  26.212  1.00  0.00     0.273 C 
ATOM     14  O   UNL A   1      33.754  22.913  27.425  1.00  0.00    -0.267 OA
ATOM     15  N   UNL A   1      33.508  23.769  25.355  1.00  0.00    -0.335 N 
ATOM     16  C   UNL A   1      33.631  25.117  25.908  1.00  0.00     0.136 C 
ATOM     17  C   UNL A   1      32.512  23.654  24.282  1.00  0.00     0.136 C 
ATOM     18  C   UNL A   1      33.955  26.134  24.818  1.00  0.00     0.123 C 
ATOM     19  C   UNL A   1      32.723  24.703  23.168  1.00  0.00     0.123 C 
ATOM     20  N   UNL A   1      32.973  26.063  23.711  1.00  0.00    -0.199 NA
BRANCH  20  21
ATOM     21  S   UNL A   1      31.849  27.289  23.506  1.00  0.00     0.211 S 
ATOM     22  C   UNL A   1      32.871  28.746  23.446  1.00  0.00     0.176 C 
ATOM     23  O   UNL A   1      31.238  27.125  22.205  1.00  0.00    -0.213 OA
ATOM     24  O   UNL A   1      31.052  27.363  24.710  1.00  0.00    -0.213 OA
ENDBRANCH  20  21
ENDBRANCH  11  13
ENDBRANCH   5   7
ENDBRANCH   4   5
ENDBRANCH   3   4
ENDBRANCH   2   3
ENDBRANCH   1   2
BRANCH   1  25
ATOM     25  C   UNL A   1      42.657  20.708  26.029  1.00  0.00     0.202 C 
BRANCH  25  26
ATOM     26  C   UNL A   1      43.628  21.614  25.267  1.00  0.00     0.261 C 
BRANCH  26  27
ATOM     27  O   UNL A   1      42.974  22.821  24.830  1.00  0.00    -0.460 OA
BRANCH  27  28
ATOM     28  C   UNL A   1      43.716  23.948  24.955  1.00  0.00     0.338 C 
ATOM     29  O   UNL A   1      44.718  24.247  24.329  1.00  0.00    -0.246 OA
BRANCH  28  30
ATOM     30  C   UNL A   1      43.043  24.891  25.871  1.00  0.00     0.060 A 
ATOM     31  C   UNL A   1      43.682  26.114  26.113  1.00  0.00     0.016 A 
ATOM     32  C   UNL A   1      41.849  24.575  26.523  1.00  0.00     0.016 A 
ATOM     33  C   UNL A   1      43.156  27.003  27.048  1.00  0.00     0.010 A 
ATOM     34  C   UNL A   1      41.327  25.464  27.468  1.00  0.00     0.010 A 
ATOM     35  C   UNL A   1      41.998  26.666  27.759  1.00  0.00    -0.014 A 
BRANCH  35  36
ATOM     36  C   UNL A   1      41.579  27.506  28.906  1.00  0.00     0.031 A 
ATOM     37  C   UNL A   1      42.347  27.411  30.196  1.00  0.00     0.074 A 
ATOM     38  C   UNL A   1      40.556  28.370  28.792  1.00  0.00     0.049 A 
ATOM     39  N   UNL A   1      42.153  28.043  31.326  1.00  0.00    -0.248 NA
ATOM     40  C   UNL A   1      43.485  26.478  30.214  1.00  0.00     0.031 C 
ATOM     41  C   UNL A   1      39.759  28.581  27.586  1.00  0.00     0.029 A 
ATOM     42  N   UNL A   1      40.014  29.232  29.712  1.00  0.00    -0.354 N 
ATOM     43  C   UNL A   1      43.143  27.587  32.187  1.00  0.00     0.074 A 
ATOM     44  C   UNL A   1      43.916  26.602  31.461  1.00  0.00     0.031 C 
ATOM     45  C   UNL A   1      38.821  29.511  27.842  1.00  0.00     0.029 A 
ATOM     46  C   UNL A   1      38.940  29.940  29.234  1.00  0.00     0.049 A 
ATOM     47  H   UNL A   1      40.363  29.333  30.627  1.00  0.00     0.167 HD
ATOM     48  C   UNL A   1      43.392  27.962  33.463  1.00  0.00     0.037 A 
ATOM     49  C   UNL A   1      38.135  30.823  29.857  1.00  0.00     0.037 A 
ATOM     50  C   UNL A   1      42.627  28.942  34.186  1.00  0.00     0.049 A 
ATOM     51  C   UNL A   1      38.392  31.173  31.298  1.00  0.00     0.074 A 
ATOM     52  C   UNL A   1      42.816  29.403  35.478  1.00  0.00     0.029 A 
ATOM     53  N   UNL A   1      41.523  29.610  33.681  1.00  0.00    -0.354 N 
ATOM     54  N   UNL A   1      39.344  30.753  32.095  1.00  0.00    -0.248 NA
ATOM     55  C   UNL A   1      37.458  32.121  31.927  1.00  0.00     0.031 C 
ATOM     56  C   UNL A   1      41.801  30.321  35.767  1.00  0.00     0.029 A 
ATOM     57  C   UNL A   1      41.005  30.461  34.642  1.00  0.00     0.049 A 
ATOM     58  H   UNL A   1      41.162  29.497  32.771  1.00  0.00     0.167 HD
ATOM     59  C   UNL A   1      39.141  31.401  33.307  1.00  0.00     0.074 A 
ATOM     60  C   UNL A   1      37.980  32.250  33.139  1.00  0.00     0.031 C 
ATOM     61  C   UNL A   1      39.851  31.302  34.458  1.00  0.00     0.037 A 
BRANCH  48  62
ATOM     62  C   UNL A   1      44.533  27.292  34.167  1.00  0.00     0.057 A 
ATOM     63  C   UNL A   1      44.365  26.087  34.860  1.00  0.00     0.134 A 
ATOM     64  C   UNL A   1      45.819  27.843  34.125  1.00  0.00     0.134 A 
ATOM     65  F   UNL A   1      43.154  25.518  34.950  1.00  0.00    -0.206 F 
ATOM     66  C   UNL A   1      45.435  25.460  35.502  1.00  0.00     0.040 A 
ATOM     67  C   UNL A   1      46.901  27.215  34.744  1.00  0.00     0.040 A 
ATOM     68  F   UNL A   1      46.046  28.995  33.476  1.00  0.00    -0.206 F 
ATOM     69  C   UNL A   1      46.709  26.022  35.438  1.00  0.00     0.006 A 
ENDBRANCH  48  62
BRANCH  49  70
ATOM     70  C   UNL A   1      36.995  31.431  29.128  1.00  0.00     0.057 A 
ATOM     71  C   UNL A   1      37.059  32.744  28.648  1.00  0.00     0.134 A 
ATOM     72  C   UNL A   1      35.805  30.723  28.919  1.00  0.00     0.134 A 
ATOM     73  F   UNL A   1      38.163  33.481  28.842  1.00  0.00    -0.206 F 
ATOM     74  C   UNL A   1      35.974  33.338  28.000  1.00  0.00     0.040 A 
ATOM     75  C   UNL A   1      34.721  31.296  28.253  1.00  0.00     0.040 A 
ATOM     76  F   UNL A   1      35.683  29.461  29.355  1.00  0.00    -0.206 F 
ATOM     77  C   UNL A   1      34.803  32.611  27.798  1.00  0.00     0.006 A 
ENDBRANCH  49  70
BRANCH  61  78
ATOM     78  C   UNL A   1      39.409  32.148  35.614  1.00  0.00     0.057 A 
ATOM     79  C   UNL A   1      39.875  33.457  35.789  1.00  0.00     0.134 A 
ATOM     80  C   UNL A   1      38.474  31.663  36.537  1.00  0.00     0.134 A 
ATOM     81  F   UNL A   1      40.781  33.974  34.946  1.00  0.00    -0.206 F 
ATOM     82  C   UNL A   1      39.439  34.248  36.853  1.00  0.00     0.040 A 
ATOM     83  C   UNL A   1      38.014  32.452  37.592  1.00  0.00     0.040 A 
ATOM     84  F   UNL A   1      37.982  30.420  36.419  1.00  0.00    -0.206 F 
ATOM     85  C   UNL A   1      38.500  33.748  37.753  1.00  0.00     0.006 A 
ENDBRANCH  61  78
ENDBRANCH  35  36
ENDBRANCH  28  30
ENDBRANCH  27  28
ENDBRANCH  26  27
ENDBRANCH  25  26
ENDBRANCH   1  25
TORSDOF 16
ENDMDL
MODEL 2
REMARK VINA RESULT:     -11.2      3.789      6.323
REMARK SMILES Cn1ncc(C(=O)OCCOCCOC(=O)c2ccc(-c3c4nc(c(-c5c(F)cccc5F)c5ccc([nH]5)c(-c5c(F)cccc5F)c5nc(c(-c6c(F)cccc6F)c6ccc3[nH]6)C=C5)C=C4)cc2)c1C(=O)N1CCN(S(C)(=O)=O)CC1
REMARK SMILES IDX 11 1 10 2 9 3 8 4 6 5 7 6 5 7 1 8 2 9 3 10 71 11 4 12 72 13
REMARK SMILES IDX 73 14 74 15 75 16 83 17 76 18 82 19 77 20 78 21 79 22 80 23
REMARK SMILES IDX 81 24 12 25 13 26 14 27 15 28 16 29 17 30 18 31 70 32 19 33
REMARK SMILES IDX 69 34 20 35 21 36 22 37 63 38 23 39 68 40 62 41 64 42 24 43
REMARK SMILES IDX 67 44 61 45 60 46 25 48 51 49 34 50 50 51 35 52 38 53 49 54
REMARK SMILES IDX 65 55 36 56 37 57 48 59 66 60 39 61 26 62 27 63 32 64 28 65
REMARK SMILES IDX 29 66 31 67 33 68 30 69 52 70 53 71 58 72 54 73 55 74 57 75
REMARK SMILES IDX 59 76 56 77 40 78 41 79 46 80 42 81 43 82 45 83 47 84 44 85
REMARK H PARENT 64 47 38 58
REMARK Flexibility Score: inf
ROOT
ATOM      1  O   UNL A   1      35.228  22.113  26.306  1.00  0.00    -0.374 OA
ENDROOT
BRANCH   1   2
ATOM      2  C   UNL A   1      34.269  21.491  27.165  1.00  0.00     0.202 C 
BRANCH   2   3
ATOM      3  C   UNL A   1      33.216  22.449  27.724  1.00  0.00     0.261 C 
BRANCH   3   4
ATOM      4  O   UNL A   1      33.239  23.664  26.961  1.00  0.00    -0.460 OA
BRANCH   4   5
ATOM      5  C   UNL A   1      32.065  24.022  26.382  1.00  0.00     0.342 C 
ATOM      6  O   UNL A   1      31.092  24.452  26.991  1.00  0.00    -0.246 OA
BRANCH   5   7
ATOM      7  C   UNL A   1      32.120  24.039  24.932  1.00  0.00     0.111 A 
ATOM      8  C   UNL A   1      32.909  25.026  21.579  1.00  0.00     0.174 C 
ATOM      9  N   UNL A   1      32.391  24.481  22.812  1.00  0.00    -0.262 N 
ATOM     10  N   UNL A   1      32.278  23.139  22.854  1.00  0.00    -0.180 NA
ATOM     11  C   UNL A   1      32.130  25.103  24.018  1.00  0.00     0.140 A 
ATOM     12  C   UNL A   1      32.212  22.871  24.152  1.00  0.00     0.151 A 
BRANCH  11  13
ATOM     13  C   UNL A   1      32.105  26.521  24.343  1.00  0.00     0.273 C 
ATOM     14  O   UNL A   1      33.033  27.054  24.952  1.00  0.00    -0.267 OA
ATOM     15  N   UNL A   1      31.088  27.336  23.849  1.00  0.00    -0.335 N 
ATOM     16  C   UNL A   1      31.469  28.716  23.549  1.00  0.00     0.136 C 
ATOM     17  C   UNL A   1      29.665  27.168  24.169  1.00  0.00     0.136 C 
ATOM     18  C   UNL A   1      30.632  29.285  22.407  1.00  0.00     0.123 C 
ATOM     19  C   UNL A   1      28.743  27.786  23.095  1.00  0.00     0.123 C 
ATOM     20  N   UNL A   1      29.184  29.144  22.683  1.00  0.00    -0.199 NA
BRANCH  20  21
ATOM     21  S   UNL A   1      28.266  30.495  23.059  1.00  0.00     0.211 S 
ATOM     22  C   UNL A   1      28.030  31.258  21.468  1.00  0.00     0.176 C 
ATOM     23  O   UNL A   1      26.975  30.044  23.529  1.00  0.00    -0.213 OA
ATOM     24  O   UNL A   1      29.090  31.381  23.852  1.00  0.00    -0.213 OA
ENDBRANCH  20  21
ENDBRANCH  11  13
ENDBRANCH   5   7
ENDBRANCH   4   5
ENDBRANCH   3   4
ENDBRANCH   2   3
ENDBRANCH   1   2
BRANCH   1  25
ATOM     25  C   UNL A   1      35.526  21.433  25.083  1.00  0.00     0.202 C 
BRANCH  25  26
ATOM     26  C   UNL A   1      36.809  20.598  25.107  1.00  0.00     0.261 C 
BRANCH  26  27
ATOM     27  O   UNL A   1      37.975  21.439  25.002  1.00  0.00    -0.460 OA
BRANCH  27  28
ATOM     28  C   UNL A   1      38.971  21.142  25.870  1.00  0.00     0.338 C 
ATOM     29  O   UNL A   1      39.504  20.059  26.043  1.00  0.00    -0.246 OA
BRANCH  28  30
ATOM     30  C   UNL A   1      39.471  22.381  26.501  1.00  0.00     0.060 A 
ATOM     31  C   UNL A   1      38.869  23.584  26.114  1.00  0.00     0.016 A 
ATOM     32  C   UNL A   1      40.537  22.379  27.403  1.00  0.00     0.016 A 
ATOM     33  C   UNL A   1      39.365  24.797  26.588  1.00  0.00     0.010 A 
ATOM     34  C   UNL A   1      41.040  23.598  27.872  1.00  0.00     0.010 A 
ATOM     35  C   UNL A   1      40.477  24.813  27.439  1.00  0.00    -0.014 A 
BRANCH  35  36
ATOM     36  C   UNL A   1      41.135  26.104  27.750  1.00  0.00     0.031 A 
ATOM     37  C   UNL A   1      42.546  26.333  27.281  1.00  0.00     0.074 A 
ATOM     38  C   UNL A   1      40.476  27.073  28.407  1.00  0.00     0.049 A 
ATOM     39  N   UNL A   1      43.315  27.379  27.447  1.00  0.00    -0.248 NA
ATOM     40  C   UNL A   1      43.171  25.238  26.523  1.00  0.00     0.031 C 
ATOM     41  C   UNL A   1      39.096  26.986  28.880  1.00  0.00     0.029 A 
ATOM     42  N   UNL A   1      40.887  28.326  28.789  1.00  0.00    -0.354 N 
ATOM     43  C   UNL A   1      44.513  27.069  26.815  1.00  0.00     0.074 A 
ATOM     44  C   UNL A   1      44.380  25.727  26.290  1.00  0.00     0.031 C 
ATOM     45  C   UNL A   1      38.775  28.137  29.498  1.00  0.00     0.029 A 
ATOM     46  C   UNL A   1      39.934  29.028  29.482  1.00  0.00     0.049 A 
ATOM     47  H   UNL A   1      41.780  28.686  28.584  1.00  0.00     0.167 HD
ATOM     48  C   UNL A   1      45.619  27.836  26.675  1.00  0.00     0.037 A 
ATOM     49  C   UNL A   1      39.997  30.248  30.053  1.00  0.00     0.037 A 
ATOM     50  C   UNL A   1      45.753  29.171  27.193  1.00  0.00     0.049 A 
ATOM     51  C   UNL A   1      41.263  31.055  29.941  1.00  0.00     0.074 A 
ATOM     52  C   UNL A   1      46.829  30.035  27.085  1.00  0.00     0.029 A 
ATOM     53  N   UNL A   1      44.779  29.834  27.923  1.00  0.00    -0.354 N 
ATOM     54  N   UNL A   1      42.380  30.761  29.321  1.00  0.00    -0.248 NA
ATOM     55  C   UNL A   1      41.276  32.365  30.612  1.00  0.00     0.031 C 
ATOM     56  C   UNL A   1      46.521  31.207  27.784  1.00  0.00     0.029 A 
ATOM     57  C   UNL A   1      45.238  31.087  28.293  1.00  0.00     0.049 A 
ATOM     58  H   UNL A   1      43.891  29.469  28.145  1.00  0.00     0.167 HD
ATOM     59  C   UNL A   1      43.217  31.854  29.505  1.00  0.00     0.074 A 
ATOM     60  C   UNL A   1      42.476  32.823  30.286  1.00  0.00     0.031 C 
ATOM     61  C   UNL A   1      44.487  32.041  29.067  1.00  0.00     0.037 A 
BRANCH  48  62
ATOM     62  C   UNL A   1      46.783  27.239  25.944  1.00  0.00     0.057 A 
ATOM     63  C   UNL A   1      46.989  27.465  24.577  1.00  0.00     0.134 A 
ATOM     64  C   UNL A   1      47.724  26.455  26.621  1.00  0.00     0.134 A 
ATOM     65  F   UNL A   1      46.113  28.195  23.870  1.00  0.00    -0.206 F 
ATOM     66  C   UNL A   1      48.083  26.918  23.905  1.00  0.00     0.040 A 
ATOM     67  C   UNL A   1      48.834  25.920  25.965  1.00  0.00     0.040 A 
ATOM     68  F   UNL A   1      47.584  26.202  27.931  1.00  0.00    -0.206 F 
ATOM     69  C   UNL A   1      49.013  26.148  24.602  1.00  0.00     0.006 A 
ENDBRANCH  48  62
BRANCH  49  70
ATOM     70  C   UNL A   1      38.830  30.781  30.797  1.00  0.00     0.057 A 
ATOM     71  C   UNL A   1      38.630  30.474  32.148  1.00  0.00     0.134 A 
ATOM     72  C   UNL A   1      37.872  31.585  30.168  1.00  0.00     0.134 A 
ATOM     73  F   UNL A   1      39.499  29.686  32.797  1.00  0.00    -0.206 F 
ATOM     74  C   UNL A   1      37.511  30.935  32.843  1.00  0.00     0.040 A 
ATOM     75  C   UNL A   1      36.761  32.072  30.856  1.00  0.00     0.040 A 
ATOM     76  F   UNL A   1      38.009  31.914  28.875  1.00  0.00    -0.206 F 
ATOM     77  C   UNL A   1      36.574  31.740  32.197  1.00  0.00     0.006 A 
ENDBRANCH  49  70
BRANCH  61  78
ATOM     78  C   UNL A   1      45.144  33.346  29.400  1.00  0.00     0.057 A 
ATOM     79  C   UNL A   1      45.902  33.513  30.566  1.00  0.00     0.134 A 
ATOM     80  C   UNL A   1      45.056  34.434  28.523  1.00  0.00     0.134 A 
ATOM     81  F   UNL A   1      46.014  32.511  31.451  1.00  0.00    -0.206 F 
ATOM     82  C   UNL A   1      46.534  34.723  30.857  1.00  0.00     0.040 A 
ATOM     83  C   UNL A   1      45.701  35.642  28.792  1.00  0.00     0.040 A 
ATOM     84  F   UNL A   1      44.353  34.336  27.384  1.00  0.00    -0.206 F 
ATOM     85  C   UNL A   1      46.440  35.789  29.965  1.00  0.00     0.006 A 
ENDBRANCH  61  78
ENDBRANCH  35  36
ENDBRANCH  28  30
ENDBRANCH  27  28
ENDBRANCH  26  27
ENDBRANCH  25  26
ENDBRANCH   1  25
TORSDOF 16
ENDMDL
MODEL 3
REMARK VINA RESULT:     -11.2      2.806      8.287
REMARK SMILES Cn1ncc(C(=O)OCCOCCOC(=O)c2ccc(-c3c4nc(c(-c5c(F)cccc5F)c5ccc([nH]5)c(-c5c(F)cccc5F)c5nc(c(-c6c(F)cccc6F)c6ccc3[nH]6)C=C5)C=C4)cc2)c1C(=O)N1CCN(S(C)(=O)=O)CC1
REMARK SMILES IDX 11 1 10 2 9 3 8 4 6 5 7 6 5 7 1 8 2 9 3 10 71 11 4 12 72 13
REMARK SMILES IDX 73 14 74 15 75 16 83 17 76 18 82 19 77 20 78 21 79 22 80 23
REMARK SMILES IDX 81 24 12 25 13 26 14 27 15 28 16 29 17 30 18 31 70 32 19 33
REMARK SMILES IDX 69 34 20 35 21 36 22 37 63 38 23 39 68 40 62 41 64 42 24 43
REMARK SMILES IDX 67 44 61 45 60 46 25 48 51 49 34 50 50 51 35 52 38 53 49 54
REMARK SMILES IDX 65 55 36 56 37 57 48 59 66 60 39 61 26 62 27 63 32 64 28 65
REMARK SMILES IDX 29 66 31 67 33 68 30 69 52 70 53 71 58 72 54 73 55 74 57 75
REMARK SMILES IDX 59 76 56 77 40 78 41 79 46 80 42 81 43 82 45 83 47 84 44 85
REMARK H PARENT 64 47 38 58
REMARK Flexibility Score: inf
ROOT
ATOM      1  O   UNL A   1      32.850  31.081  26.933  1.00  0.00    -0.374 OA
ENDROOT
BRANCH   1   2
ATOM      2  C   UNL A   1      32.564  29.712  27.229  1.00  0.00     0.202 C 
BRANCH   2   3
ATOM      3  C   UNL A   1      33.333  28.711  26.366  1.00  0.00     0.261 C 
BRANCH   3   4
ATOM      4  O   UNL A   1      33.180  29.072  24.985  1.00  0.00    -0.460 OA
BRANCH   4   5
ATOM      5  C   UNL A   1      33.145  28.041  24.103  1.00  0.00     0.342 C 
ATOM      6  O   UNL A   1      34.116  27.363  23.787  1.00  0.00    -0.246 OA
BRANCH   5   7
ATOM      7  C   UNL A   1      31.800  27.673  23.702  1.00  0.00     0.111 A 
ATOM      8  C   UNL A   1      28.355  26.704  23.876  1.00  0.00     0.174 C 
ATOM      9  N   UNL A   1      29.727  27.010  23.545  1.00  0.00    -0.262 N 
ATOM     10  N   UNL A   1      29.905  27.786  22.458  1.00  0.00    -0.180 NA
ATOM     11  C   UNL A   1      30.888  26.759  24.250  1.00  0.00     0.140 A 
ATOM     12  C   UNL A   1      31.134  28.263  22.612  1.00  0.00     0.151 A 
BRANCH  11  13
ATOM     13  C   UNL A   1      31.095  25.935  25.431  1.00  0.00     0.273 C 
ATOM     14  O   UNL A   1      30.737  26.314  26.547  1.00  0.00    -0.267 OA
ATOM     15  N   UNL A   1      31.580  24.634  25.303  1.00  0.00    -0.335 N 
ATOM     16  C   UNL A   1      31.082  23.671  26.284  1.00  0.00     0.136 C 
ATOM     17  C   UNL A   1      32.898  24.295  24.752  1.00  0.00     0.136 C 
ATOM     18  C   UNL A   1      31.028  22.263  25.698  1.00  0.00     0.123 C 
ATOM     19  C   UNL A   1      32.953  22.852  24.203  1.00  0.00     0.123 C 
ATOM     20  N   UNL A   1      32.339  21.868  25.132  1.00  0.00    -0.199 NA
BRANCH  20  21
ATOM     21  S   UNL A   1      33.279  20.721  25.911  1.00  0.00     0.211 S 
ATOM     22  C   UNL A   1      34.791  20.757  24.973  1.00  0.00     0.176 C 
ATOM     23  O   UNL A   1      33.573  21.209  27.240  1.00  0.00    -0.213 OA
ATOM     24  O   UNL A   1      32.663  19.430  25.701  1.00  0.00    -0.213 OA
ENDBRANCH  20  21
ENDBRANCH  11  13
ENDBRANCH   5   7
ENDBRANCH   4   5
ENDBRANCH   3   4
ENDBRANCH   2   3
ENDBRANCH   1   2
BRANCH   1  25
ATOM     25  C   UNL A   1      31.731  31.970  26.872  1.00  0.00     0.202 C 
BRANCH  25  26
ATOM     26  C   UNL A   1      32.082  33.455  26.991  1.00  0.00     0.261 C 
BRANCH  26  27
ATOM     27  O   UNL A   1      32.291  33.829  28.367  1.00  0.00    -0.460 OA
BRANCH  27  28
ATOM     28  C   UNL A   1      33.373  34.613  28.586  1.00  0.00     0.338 C 
ATOM     29  O   UNL A   1      33.399  35.828  28.683  1.00  0.00    -0.246 OA
BRANCH  28  30
ATOM     30  C   UNL A   1      34.553  33.771  28.868  1.00  0.00     0.060 A 
ATOM     31  C   UNL A   1      34.323  32.526  29.466  1.00  0.00     0.016 A 
ATOM     32  C   UNL A   1      35.856  34.203  28.610  1.00  0.00     0.016 A 
ATOM     33  C   UNL A   1      35.398  31.729  29.856  1.00  0.00     0.010 A 
ATOM     34  C   UNL A   1      36.935  33.406  29.010  1.00  0.00     0.010 A 
ATOM     35  C   UNL A   1      36.709  32.182  29.666  1.00  0.00    -0.014 A 
BRANCH  35  36
ATOM     36  C   UNL A   1      37.831  31.440  30.288  1.00  0.00     0.031 A 
ATOM     37  C   UNL A   1      38.169  31.707  31.729  1.00  0.00     0.074 A 
ATOM     38  C   UNL A   1      38.515  30.515  29.594  1.00  0.00     0.049 A 
ATOM     39  N   UNL A   1      39.111  31.182  32.471  1.00  0.00    -0.248 NA
ATOM     40  C   UNL A   1      37.334  32.697  32.426  1.00  0.00     0.031 C 
ATOM     41  C   UNL A   1      38.259  30.140  28.205  1.00  0.00     0.029 A 
ATOM     42  N   UNL A   1      39.569  29.722  29.971  1.00  0.00    -0.354 N 
ATOM     43  C   UNL A   1      38.981  31.775  33.720  1.00  0.00     0.074 A 
ATOM     44  C   UNL A   1      37.891  32.723  33.628  1.00  0.00     0.031 C 
ATOM     45  C   UNL A   1      39.141  29.191  27.842  1.00  0.00     0.029 A 
ATOM     46  C   UNL A   1      40.034  28.912  28.965  1.00  0.00     0.049 A 
ATOM     47  H   UNL A   1      39.956  29.732  30.876  1.00  0.00     0.167 HD
ATOM     48  C   UNL A   1      39.698  31.545  34.845  1.00  0.00     0.037 A 
ATOM     49  C   UNL A   1      41.072  28.053  28.950  1.00  0.00     0.037 A 
ATOM     50  C   UNL A   1      40.780  30.603  34.940  1.00  0.00     0.049 A 
ATOM     51  C   UNL A   1      41.897  27.864  30.195  1.00  0.00     0.074 A 
ATOM     52  C   UNL A   1      41.554  30.285  36.044  1.00  0.00     0.029 A 
ATOM     53  N   UNL A   1      41.245  29.828  33.889  1.00  0.00    -0.354 N 
ATOM     54  N   UNL A   1      41.750  28.413  31.376  1.00  0.00    -0.248 NA
ATOM     55  C   UNL A   1      43.035  26.935  30.103  1.00  0.00     0.031 C 
ATOM     56  C   UNL A   1      42.513  29.347  35.649  1.00  0.00     0.029 A 
ATOM     57  C   UNL A   1      42.311  29.051  34.311  1.00  0.00     0.049 A 
ATOM     58  H   UNL A   1      40.872  29.829  32.978  1.00  0.00     0.167 HD
ATOM     59  C   UNL A   1      42.757  27.881  32.172  1.00  0.00     0.074 A 
ATOM     60  C   UNL A   1      43.502  26.957  31.343  1.00  0.00     0.031 C 
ATOM     61  C   UNL A   1      43.040  28.134  33.474  1.00  0.00     0.037 A 
BRANCH  48  62
ATOM     62  C   UNL A   1      39.344  32.343  36.063  1.00  0.00     0.057 A 
ATOM     63  C   UNL A   1      38.414  31.879  37.002  1.00  0.00     0.134 A 
ATOM     64  C   UNL A   1      39.960  33.574  36.314  1.00  0.00     0.134 A 
ATOM     65  F   UNL A   1      37.778  30.714  36.811  1.00  0.00    -0.206 F 
ATOM     66  C   UNL A   1      38.099  32.621  38.142  1.00  0.00     0.040 A 
ATOM     67  C   UNL A   1      39.669  34.315  37.460  1.00  0.00     0.040 A 
ATOM     68  F   UNL A   1      40.860  34.074  35.452  1.00  0.00    -0.206 F 
ATOM     69  C   UNL A   1      38.733  33.839  38.377  1.00  0.00     0.006 A 
ENDBRANCH  48  62
BRANCH  49  70
ATOM     70  C   UNL A   1      41.406  27.313  27.708  1.00  0.00     0.057 A 
ATOM     71  C   UNL A   1      40.934  26.015  27.489  1.00  0.00     0.134 A 
ATOM     72  C   UNL A   1      42.229  27.877  26.726  1.00  0.00     0.134 A 
ATOM     73  F   UNL A   1      40.162  25.412  28.406  1.00  0.00    -0.206 F 
ATOM     74  C   UNL A   1      41.279  25.296  26.343  1.00  0.00     0.040 A 
ATOM     75  C   UNL A   1      42.565  27.179  25.566  1.00  0.00     0.040 A 
ATOM     76  F   UNL A   1      42.714  29.118  26.879  1.00  0.00    -0.206 F 
ATOM     77  C   UNL A   1      42.095  25.880  25.376  1.00  0.00     0.006 A 
ENDBRANCH  49  70
BRANCH  61  78
ATOM     78  C   UNL A   1      44.185  27.386  34.087  1.00  0.00     0.057 A 
ATOM     79  C   UNL A   1      45.483  27.912  34.105  1.00  0.00     0.134 A 
ATOM     80  C   UNL A   1      43.980  26.146  34.705  1.00  0.00     0.134 A 
ATOM     81  F   UNL A   1      45.746  29.089  33.519  1.00  0.00    -0.206 F 
ATOM     82  C   UNL A   1      46.540  27.222  34.700  1.00  0.00     0.040 A 
ATOM     83  C   UNL A   1      45.024  25.457  35.323  1.00  0.00     0.040 A 
ATOM     84  F   UNL A   1      42.758  25.592  34.730  1.00  0.00    -0.206 F 
ATOM     85  C   UNL A   1      46.310  25.994  35.318  1.00  0.00     0.006 A 
ENDBRANCH  61  78
ENDBRANCH  35  36
ENDBRANCH  28  30
ENDBRANCH  27  28
ENDBRANCH  26  27
ENDBRANCH  25  26
ENDBRANCH   1  25
TORSDOF 16
ENDMDL
