MODEL 1
REMARK VINA RESULT:     -11.4      0.000      0.000
REMARK SMILES Cc1cc(C)cc(-c2cccc(Cl)c2C(=O)OCCOCCOC(=O)c2ccc(-c3c4nc(c(-c5c(F)cccc5F)c5ccc([nH]5)c(-c5c(F)cccc5F)c5nc(c(-c6c(F)cccc6F)c6ccc3[nH]6)C=C5)C=C4)cc2)c1
REMARK SMILES IDX 21 1 20 2 19 3 18 4 17 5 15 6 16 7 14 8 8 9 9 10 10 11 12 12
REMARK SMILES IDX 11 13 13 14 7 15 1 16 2 17 3 18 80 19 4 20 5 21 6 22 22 23
REMARK SMILES IDX 23 24 24 25 25 26 26 27 27 28 79 29 28 30 78 31 29 32 30 33
REMARK SMILES IDX 31 34 72 35 32 36 77 37 71 38 73 39 33 40 76 41 70 42 69 43
REMARK SMILES IDX 34 45 60 46 43 47 59 48 44 49 47 50 58 51 74 52 45 53 46 54
REMARK SMILES IDX 57 56 75 57 48 58 35 59 36 60 41 61 37 62 38 63 40 64 42 65
REMARK SMILES IDX 39 66 61 67 62 68 67 69 63 70 64 71 66 72 68 73 65 74 49 75
REMARK SMILES IDX 50 76 55 77 51 78 52 79 54 80 56 81 53 82
REMARK H PARENT 73 44 47 55
REMARK Flexibility Score: inf
ROOT
ATOM      1  C   UNL A   1      31.374  32.352  26.836  1.00  0.00     0.202 C 
ENDROOT
BRANCH   1   2
ATOM      2  O   UNL A   1      31.828  31.114  26.308  1.00  0.00    -0.374 OA
BRANCH   2   3
ATOM      3  C   UNL A   1      32.563  30.256  27.182  1.00  0.00     0.202 C 
BRANCH   3   4
ATOM      4  C   UNL A   1      32.535  28.758  26.876  1.00  0.00     0.261 C 
BRANCH   4   5
ATOM      5  O   UNL A   1      31.890  28.534  25.610  1.00  0.00    -0.460 OA
BRANCH   5   6
ATOM      6  C   UNL A   1      31.443  27.274  25.388  1.00  0.00     0.340 C 
ATOM      7  O   UNL A   1      30.717  26.622  26.117  1.00  0.00    -0.246 OA
BRANCH   6   8
ATOM      8  C   UNL A   1      31.918  26.800  24.068  1.00  0.00     0.086 A 
ATOM      9  C   UNL A   1      31.114  27.007  22.917  1.00  0.00    -0.002 A 
ATOM     10  C   UNL A   1      31.512  26.405  21.708  1.00  0.00     0.010 A 
ATOM     11  C   UNL A   1      32.686  25.660  21.623  1.00  0.00     0.002 A 
ATOM     12  C   UNL A   1      33.117  26.073  23.968  1.00  0.00     0.056 A 
ATOM     13  C   UNL A   1      33.499  25.515  22.744  1.00  0.00     0.021 A 
ATOM     14  Cl  UNL A   1      34.173  25.784  25.310  1.00  0.00    -0.083 Cl
BRANCH   9  15
ATOM     15  C   UNL A   1      29.915  27.866  22.896  1.00  0.00    -0.017 A 
ATOM     16  C   UNL A   1      26.225  27.748  23.865  1.00  0.00     0.044 C 
ATOM     17  C   UNL A   1      27.550  28.239  23.363  1.00  0.00    -0.050 A 
ATOM     18  C   UNL A   1      27.663  29.550  22.886  1.00  0.00     0.006 A 
ATOM     19  C   UNL A   1      28.684  27.413  23.387  1.00  0.00     0.012 A 
ATOM     20  C   UNL A   1      28.872  30.021  22.370  1.00  0.00    -0.050 A 
ATOM     21  C   UNL A   1      28.982  31.450  21.923  1.00  0.00     0.044 C 
ATOM     22  C   UNL A   1      29.974  29.157  22.341  1.00  0.00     0.012 A 
ENDBRANCH   9  15
ENDBRANCH   6   8
ENDBRANCH   5   6
ENDBRANCH   4   5
ENDBRANCH   3   4
ENDBRANCH   2   3
ENDBRANCH   1   2
BRANCH   1  23
ATOM     23  C   UNL A   1      32.371  33.510  26.950  1.00  0.00     0.261 C 
BRANCH  23  24
ATOM     24  O   UNL A   1      32.503  34.017  28.277  1.00  0.00    -0.460 OA
BRANCH  24  25
ATOM     25  C   UNL A   1      33.647  34.712  28.479  1.00  0.00     0.338 C 
ATOM     26  O   UNL A   1      33.799  35.923  28.506  1.00  0.00    -0.246 OA
BRANCH  25  27
ATOM     27  C   UNL A   1      34.707  33.757  28.822  1.00  0.00     0.060 A 
ATOM     28  C   UNL A   1      34.332  32.497  29.308  1.00  0.00     0.016 A 
ATOM     29  C   UNL A   1      36.049  34.114  28.691  1.00  0.00     0.016 A 
ATOM     30  C   UNL A   1      35.310  31.589  29.697  1.00  0.00     0.010 A 
ATOM     31  C   UNL A   1      37.026  33.211  29.098  1.00  0.00     0.010 A 
ATOM     32  C   UNL A   1      36.657  31.963  29.630  1.00  0.00    -0.014 A 
BRANCH  32  33
ATOM     33  C   UNL A   1      37.694  31.143  30.286  1.00  0.00     0.031 A 
ATOM     34  C   UNL A   1      37.989  31.410  31.733  1.00  0.00     0.074 A 
ATOM     35  C   UNL A   1      38.387  30.225  29.594  1.00  0.00     0.049 A 
ATOM     36  N   UNL A   1      38.970  30.972  32.474  1.00  0.00    -0.248 NA
ATOM     37  C   UNL A   1      37.057  32.312  32.430  1.00  0.00     0.031 C 
ATOM     38  C   UNL A   1      38.145  29.855  28.202  1.00  0.00     0.029 A 
ATOM     39  N   UNL A   1      39.460  29.459  29.969  1.00  0.00    -0.354 N 
ATOM     40  C   UNL A   1      38.788  31.562  33.718  1.00  0.00     0.074 A 
ATOM     41  C   UNL A   1      37.620  32.409  33.625  1.00  0.00     0.031 C 
ATOM     42  C   UNL A   1      39.066  28.949  27.828  1.00  0.00     0.029 A 
ATOM     43  C   UNL A   1      39.986  28.720  28.940  1.00  0.00     0.049 A 
ATOM     44  H   UNL A   1      39.818  29.442  30.886  1.00  0.00     0.167 HD
ATOM     45  C   UNL A   1      39.534  31.409  34.835  1.00  0.00     0.037 A 
ATOM     46  C   UNL A   1      41.109  27.977  28.897  1.00  0.00     0.037 A 
ATOM     47  C   UNL A   1      40.696  30.565  34.906  1.00  0.00     0.049 A 
ATOM     48  C   UNL A   1      41.969  27.883  30.130  1.00  0.00     0.074 A 
ATOM     49  C   UNL A   1      41.523  30.324  35.988  1.00  0.00     0.029 A 
ATOM     50  N   UNL A   1      41.198  29.827  33.843  1.00  0.00    -0.354 N 
ATOM     51  N   UNL A   1      41.794  28.437  31.307  1.00  0.00    -0.248 NA
ATOM     52  C   UNL A   1      43.185  27.063  30.031  1.00  0.00     0.031 C 
ATOM     53  C   UNL A   1      42.558  29.487  35.565  1.00  0.00     0.029 A 
ATOM     54  C   UNL A   1      42.336  29.148  34.239  1.00  0.00     0.049 A 
ATOM     55  H   UNL A   1      40.804  29.793  32.943  1.00  0.00     0.167 HD
ATOM     56  C   UNL A   1      42.847  27.995  32.099  1.00  0.00     0.074 A 
ATOM     57  C   UNL A   1      43.661  27.133  31.267  1.00  0.00     0.031 C 
ATOM     58  C   UNL A   1      43.112  28.269  33.399  1.00  0.00     0.037 A 
BRANCH  45  59
ATOM     59  C   UNL A   1      39.138  32.196  36.049  1.00  0.00     0.057 A 
ATOM     60  C   UNL A   1      39.638  33.480  36.300  1.00  0.00     0.134 A 
ATOM     61  C   UNL A   1      38.223  31.668  36.971  1.00  0.00     0.134 A 
ATOM     62  F   UNL A   1      40.530  34.038  35.468  1.00  0.00    -0.206 F 
ATOM     63  C   UNL A   1      39.264  34.201  37.437  1.00  0.00     0.040 A 
ATOM     64  C   UNL A   1      37.819  32.391  38.094  1.00  0.00     0.040 A 
ATOM     65  F   UNL A   1      37.704  30.444  36.792  1.00  0.00    -0.206 F 
ATOM     66  C   UNL A   1      38.346  33.658  38.334  1.00  0.00     0.006 A 
ENDBRANCH  45  59
BRANCH  46  67
ATOM     67  C   UNL A   1      41.494  27.282  27.643  1.00  0.00     0.057 A 
ATOM     68  C   UNL A   1      41.131  25.949  27.417  1.00  0.00     0.134 A 
ATOM     69  C   UNL A   1      42.242  27.923  26.648  1.00  0.00     0.134 A 
ATOM     70  F   UNL A   1      40.431  25.274  28.342  1.00  0.00    -0.206 F 
ATOM     71  C   UNL A   1      41.514  25.273  26.258  1.00  0.00     0.040 A 
ATOM     72  C   UNL A   1      42.608  27.268  25.471  1.00  0.00     0.040 A 
ATOM     73  F   UNL A   1      42.619  29.201  26.800  1.00  0.00    -0.206 F 
ATOM     74  C   UNL A   1      42.250  25.935  25.278  1.00  0.00     0.006 A 
ENDBRANCH  46  67
BRANCH  58  75
ATOM     75  C   UNL A   1      44.279  27.574  34.037  1.00  0.00     0.057 A 
ATOM     76  C   UNL A   1      44.164  26.316  34.637  1.00  0.00     0.134 A 
ATOM     77  C   UNL A   1      45.559  28.143  33.965  1.00  0.00     0.134 A 
ATOM     78  F   UNL A   1      42.966  25.722  34.748  1.00  0.00    -0.206 F 
ATOM     79  C   UNL A   1      45.279  25.651  35.153  1.00  0.00     0.040 A 
ATOM     80  C   UNL A   1      46.683  27.477  34.450  1.00  0.00     0.040 A 
ATOM     81  F   UNL A   1      45.740  29.342  33.391  1.00  0.00    -0.206 F 
ATOM     82  C   UNL A   1      46.544  26.227  35.050  1.00  0.00     0.006 A 
ENDBRANCH  58  75
ENDBRANCH  32  33
ENDBRANCH  25  27
ENDBRANCH  24  25
ENDBRANCH  23  24
ENDBRANCH   1  23
TORSDOF 15
ENDMDL
MODEL 2
REMARK VINA RESULT:     -11.2      5.113      8.840
REMARK SMILES Cc1cc(C)cc(-c2cccc(Cl)c2C(=O)OCCOCCOC(=O)c2ccc(-c3c4nc(c(-c5c(F)cccc5F)c5ccc([nH]5)c(-c5c(F)cccc5F)c5nc(c(-c6c(F)cccc6F)c6ccc3[nH]6)C=C5)C=C4)cc2)c1
REMARK SMILES IDX 21 1 20 2 19 3 18 4 17 5 15 6 16 7 14 8 8 9 9 10 10 11 12 12
REMARK SMILES IDX 11 13 13 14 7 15 1 16 2 17 3 18 80 19 4 20 5 21 6 22 22 23
REMARK SMILES IDX 23 24 24 25 25 26 26 27 27 28 79 29 28 30 78 31 29 32 30 33
REMARK SMILES IDX 31 34 72 35 32 36 77 37 71 38 73 39 33 40 76 41 70 42 69 43
REMARK SMILES IDX 34 45 60 46 43 47 59 48 44 49 47 50 58 51 74 52 45 53 46 54
REMARK SMILES IDX 57 56 75 57 48 58 35 59 36 60 41 61 37 62 38 63 40 64 42 65
REMARK SMILES IDX 39 66 61 67 62 68 67 69 63 70 64 71 66 72 68 73 65 74 49 75
REMARK SMILES IDX 50 76 55 77 51 78 52 79 54 80 56 81 53 82
REMARK H PARENT 73 44 47 55
REMARK Flexibility Score: inf
ROOT
ATOM      1  C   UNL A   1      38.267  19.909  25.006  1.00  0.00     0.202 C 
ENDROOT
BRANCH   1   2
ATOM      2  O   UNL A   1      37.724  21.206  24.800  1.00  0.00    -0.374 OA
BRANCH   2   3
ATOM      3  C   UNL A   1      38.058  22.217  25.751  1.00  0.00     0.202 C 
BRANCH   3   4
ATOM      4  C   UNL A   1      37.357  23.568  25.609  1.00  0.00     0.261 C 
BRANCH   4   5
ATOM      5  O   UNL A   1      35.936  23.396  25.754  1.00  0.00    -0.460 OA
BRANCH   5   6
ATOM      6  C   UNL A   1      35.213  23.454  24.611  1.00  0.00     0.340 C 
ATOM      7  O   UNL A   1      35.641  23.664  23.490  1.00  0.00    -0.246 OA
BRANCH   6   8
ATOM      8  C   UNL A   1      33.792  23.153  24.902  1.00  0.00     0.086 A 
ATOM      9  C   UNL A   1      32.896  24.214  25.192  1.00  0.00    -0.002 A 
ATOM     10  C   UNL A   1      31.594  23.890  25.623  1.00  0.00     0.010 A 
ATOM     11  C   UNL A   1      31.176  22.564  25.724  1.00  0.00     0.002 A 
ATOM     12  C   UNL A   1      33.353  21.820  24.976  1.00  0.00     0.056 A 
ATOM     13  C   UNL A   1      32.044  21.534  25.377  1.00  0.00     0.021 A 
ATOM     14  Cl  UNL A   1      34.366  20.460  24.624  1.00  0.00    -0.083 Cl
BRANCH   9  15
ATOM     15  C   UNL A   1      33.224  25.640  25.012  1.00  0.00    -0.017 A 
ATOM     16  C   UNL A   1      33.755  28.182  22.214  1.00  0.00     0.044 C 
ATOM     17  C   UNL A   1      33.629  27.572  23.578  1.00  0.00    -0.050 A 
ATOM     18  C   UNL A   1      33.802  28.377  24.711  1.00  0.00     0.006 A 
ATOM     19  C   UNL A   1      33.318  26.214  23.737  1.00  0.00     0.012 A 
ATOM     20  C   UNL A   1      33.736  27.828  25.993  1.00  0.00    -0.050 A 
ATOM     21  C   UNL A   1      33.862  28.723  27.191  1.00  0.00     0.044 C 
ATOM     22  C   UNL A   1      33.491  26.455  26.127  1.00  0.00     0.012 A 
ENDBRANCH   9  15
ENDBRANCH   6   8
ENDBRANCH   5   6
ENDBRANCH   4   5
ENDBRANCH   3   4
ENDBRANCH   2   3
ENDBRANCH   1   2
BRANCH   1  23
ATOM     23  C   UNL A   1      39.458  19.756  25.959  1.00  0.00     0.261 C 
BRANCH  23  24
ATOM     24  O   UNL A   1      40.603  19.166  25.347  1.00  0.00    -0.460 OA
BRANCH  24  25
ATOM     25  C   UNL A   1      41.709  19.197  26.126  1.00  0.00     0.338 C 
ATOM     26  O   UNL A   1      42.487  18.288  26.367  1.00  0.00    -0.246 OA
BRANCH  25  27
ATOM     27  C   UNL A   1      41.933  20.584  26.547  1.00  0.00     0.060 A 
ATOM     28  C   UNL A   1      42.233  21.536  25.563  1.00  0.00     0.016 A 
ATOM     29  C   UNL A   1      41.875  20.931  27.897  1.00  0.00     0.016 A 
ATOM     30  C   UNL A   1      42.508  22.847  25.932  1.00  0.00     0.010 A 
ATOM     31  C   UNL A   1      42.167  22.240  28.267  1.00  0.00     0.010 A 
ATOM     32  C   UNL A   1      42.515  23.189  27.289  1.00  0.00    -0.014 A 
BRANCH  32  33
ATOM     33  C   UNL A   1      43.068  24.484  27.731  1.00  0.00     0.031 A 
ATOM     34  C   UNL A   1      42.103  25.551  28.157  1.00  0.00     0.074 A 
ATOM     35  C   UNL A   1      44.391  24.716  27.701  1.00  0.00     0.049 A 
ATOM     36  N   UNL A   1      42.317  26.816  28.398  1.00  0.00    -0.248 NA
ATOM     37  C   UNL A   1      40.699  25.132  28.313  1.00  0.00     0.031 C 
ATOM     38  C   UNL A   1      45.414  23.733  27.352  1.00  0.00     0.029 A 
ATOM     39  N   UNL A   1      45.092  25.868  27.941  1.00  0.00    -0.354 N 
ATOM     40  C   UNL A   1      41.074  27.350  28.710  1.00  0.00     0.074 A 
ATOM     41  C   UNL A   1      40.107  26.280  28.604  1.00  0.00     0.031 C 
ATOM     42  C   UNL A   1      46.616  24.335  27.373  1.00  0.00     0.029 A 
ATOM     43  C   UNL A   1      46.435  25.750  27.686  1.00  0.00     0.049 A 
ATOM     44  H   UNL A   1      44.673  26.699  28.265  1.00  0.00     0.167 HD
ATOM     45  C   UNL A   1      40.772  28.623  29.054  1.00  0.00     0.037 A 
ATOM     46  C   UNL A   1      47.396  26.694  27.668  1.00  0.00     0.037 A 
ATOM     47  C   UNL A   1      41.748  29.674  29.150  1.00  0.00     0.049 A 
ATOM     48  C   UNL A   1      47.024  28.120  27.977  1.00  0.00     0.074 A 
ATOM     49  C   UNL A   1      41.558  30.999  29.499  1.00  0.00     0.029 A 
ATOM     50  N   UNL A   1      43.101  29.516  28.887  1.00  0.00    -0.354 N 
ATOM     51  N   UNL A   1      45.850  28.624  28.277  1.00  0.00    -0.248 NA
ATOM     52  C   UNL A   1      48.107  29.112  27.942  1.00  0.00     0.031 C 
ATOM     53  C   UNL A   1      42.786  31.656  29.392  1.00  0.00     0.029 A 
ATOM     54  C   UNL A   1      43.754  30.726  29.046  1.00  0.00     0.049 A 
ATOM     55  H   UNL A   1      43.532  28.672  28.626  1.00  0.00     0.167 HD
ATOM     56  C   UNL A   1      46.062  29.977  28.513  1.00  0.00     0.074 A 
ATOM     57  C   UNL A   1      47.476  30.218  28.313  1.00  0.00     0.031 C 
ATOM     58  C   UNL A   1      45.171  30.933  28.872  1.00  0.00     0.037 A 
BRANCH  45  59
ATOM     59  C   UNL A   1      39.330  28.949  29.311  1.00  0.00     0.057 A 
ATOM     60  C   UNL A   1      38.742  28.782  30.572  1.00  0.00     0.134 A 
ATOM     61  C   UNL A   1      38.523  29.460  28.285  1.00  0.00     0.134 A 
ATOM     62  F   UNL A   1      39.453  28.282  31.594  1.00  0.00    -0.206 F 
ATOM     63  C   UNL A   1      37.397  29.086  30.796  1.00  0.00     0.040 A 
ATOM     64  C   UNL A   1      37.187  29.796  28.506  1.00  0.00     0.040 A 
ATOM     65  F   UNL A   1      39.022  29.646  27.054  1.00  0.00    -0.206 F 
ATOM     66  C   UNL A   1      36.618  29.602  29.762  1.00  0.00     0.006 A 
ENDBRANCH  45  59
BRANCH  46  67
ATOM     67  C   UNL A   1      48.794  26.325  27.331  1.00  0.00     0.057 A 
ATOM     68  C   UNL A   1      49.686  25.899  28.321  1.00  0.00     0.134 A 
ATOM     69  C   UNL A   1      49.277  26.403  26.018  1.00  0.00     0.134 A 
ATOM     70  F   UNL A   1      49.289  25.823  29.600  1.00  0.00    -0.206 F 
ATOM     71  C   UNL A   1      51.012  25.580  28.022  1.00  0.00     0.040 A 
ATOM     72  C   UNL A   1      50.592  26.061  25.702  1.00  0.00     0.040 A 
ATOM     73  F   UNL A   1      48.473  26.801  25.022  1.00  0.00    -0.206 F 
ATOM     74  C   UNL A   1      51.467  25.656  26.708  1.00  0.00     0.006 A 
ENDBRANCH  46  67
BRANCH  58  75
ATOM     75  C   UNL A   1      45.697  32.309  29.155  1.00  0.00     0.057 A 
ATOM     76  C   UNL A   1      46.186  32.680  30.412  1.00  0.00     0.134 A 
ATOM     77  C   UNL A   1      45.795  33.249  28.119  1.00  0.00     0.134 A 
ATOM     78  F   UNL A   1      46.112  31.831  31.448  1.00  0.00    -0.206 F 
ATOM     79  C   UNL A   1      46.745  33.941  30.632  1.00  0.00     0.040 A 
ATOM     80  C   UNL A   1      46.377  34.500  28.319  1.00  0.00     0.040 A 
ATOM     81  F   UNL A   1      45.355  32.952  26.886  1.00  0.00    -0.206 F 
ATOM     82  C   UNL A   1      46.852  34.850  29.581  1.00  0.00     0.006 A 
ENDBRANCH  58  75
ENDBRANCH  32  33
ENDBRANCH  25  27
ENDBRANCH  24  25
ENDBRANCH  23  24
ENDBRANCH   1  23
TORSDOF 15
ENDMDL
MODEL 3
REMARK VINA RESULT:     -11.2      3.787      5.151
REMARK SMILES Cc1cc(C)cc(-c2cccc(Cl)c2C(=O)OCCOCCOC(=O)c2ccc(-c3c4nc(c(-c5c(F)cccc5F)c5ccc([nH]5)c(-c5c(F)cccc5F)c5nc(c(-c6c(F)cccc6F)c6ccc3[nH]6)C=C5)C=C4)cc2)c1
REMARK SMILES IDX 21 1 20 2 19 3 18 4 17 5 15 6 16 7 14 8 8 9 9 10 10 11 12 12
REMARK SMILES IDX 11 13 13 14 7 15 1 16 2 17 3 18 80 19 4 20 5 21 6 22 22 23
REMARK SMILES IDX 23 24 24 25 25 26 26 27 27 28 79 29 28 30 78 31 29 32 30 33
REMARK SMILES IDX 31 34 72 35 32 36 77 37 71 38 73 39 33 40 76 41 70 42 69 43
REMARK SMILES IDX 34 45 60 46 43 47 59 48 44 49 47 50 58 51 74 52 45 53 46 54
REMARK SMILES IDX 57 56 75 57 48 58 35 59 36 60 41 61 37 62 38 63 40 64 42 65
REMARK SMILES IDX 39 66 61 67 62 68 67 69 63 70 64 71 66 72 68 73 65 74 49 75
REMARK SMILES IDX 50 76 55 77 51 78 52 79 54 80 56 81 53 82
REMARK H PARENT 73 44 47 55
REMARK Flexibility Score: inf
ROOT
ATOM      1  C   UNL A   1      32.776  28.577  27.493  1.00  0.00     0.202 C 
ENDROOT
BRANCH   1   2
ATOM      2  O   UNL A   1      31.506  27.940  27.489  1.00  0.00    -0.374 OA
BRANCH   2   3
ATOM      3  C   UNL A   1      31.032  27.429  26.244  1.00  0.00     0.202 C 
BRANCH   3   4
ATOM      4  C   UNL A   1      30.605  25.960  26.209  1.00  0.00     0.261 C 
BRANCH   4   5
ATOM      5  O   UNL A   1      31.683  25.131  26.676  1.00  0.00    -0.460 OA
BRANCH   5   6
ATOM      6  C   UNL A   1      31.997  24.072  25.893  1.00  0.00     0.340 C 
ATOM      7  O   UNL A   1      31.231  23.431  25.196  1.00  0.00    -0.246 OA
BRANCH   6   8
ATOM      8  C   UNL A   1      33.456  23.824  25.948  1.00  0.00     0.086 A 
ATOM      9  C   UNL A   1      34.299  24.376  24.949  1.00  0.00    -0.002 A 
ATOM     10  C   UNL A   1      35.654  23.992  24.932  1.00  0.00     0.010 A 
ATOM     11  C   UNL A   1      36.172  23.127  25.894  1.00  0.00     0.002 A 
ATOM     12  C   UNL A   1      33.992  22.976  26.932  1.00  0.00     0.056 A 
ATOM     13  C   UNL A   1      35.350  22.640  26.905  1.00  0.00     0.021 A 
ATOM     14  Cl  UNL A   1      33.049  22.269  28.201  1.00  0.00    -0.083 Cl
BRANCH   9  15
ATOM     15  C   UNL A   1      33.856  25.376  23.960  1.00  0.00    -0.017 A 
ATOM     16  C   UNL A   1      32.584  25.562  20.367  1.00  0.00     0.044 C 
ATOM     17  C   UNL A   1      33.012  25.960  21.747  1.00  0.00    -0.050 A 
ATOM     18  C   UNL A   1      32.969  27.309  22.119  1.00  0.00     0.006 A 
ATOM     19  C   UNL A   1      33.433  25.000  22.679  1.00  0.00     0.012 A 
ATOM     20  C   UNL A   1      33.405  27.715  23.382  1.00  0.00    -0.050 A 
ATOM     21  C   UNL A   1      33.288  29.159  23.778  1.00  0.00     0.044 C 
ATOM     22  C   UNL A   1      33.885  26.748  24.273  1.00  0.00     0.012 A 
ENDBRANCH   9  15
ENDBRANCH   6   8
ENDBRANCH   5   6
ENDBRANCH   4   5
ENDBRANCH   3   4
ENDBRANCH   2   3
ENDBRANCH   1   2
BRANCH   1  23
ATOM     23  C   UNL A   1      32.837  30.090  27.258  1.00  0.00     0.261 C 
BRANCH  23  24
ATOM     24  O   UNL A   1      34.160  30.579  27.044  1.00  0.00    -0.460 OA
BRANCH  24  25
ATOM     25  C   UNL A   1      34.750  31.051  28.167  1.00  0.00     0.338 C 
ATOM     26  O   UNL A   1      34.296  31.835  28.985  1.00  0.00    -0.246 OA
BRANCH  25  27
ATOM     27  C   UNL A   1      36.021  30.341  28.349  1.00  0.00     0.060 A 
ATOM     28  C   UNL A   1      36.280  29.754  29.595  1.00  0.00     0.016 A 
ATOM     29  C   UNL A   1      36.951  30.281  27.311  1.00  0.00     0.016 A 
ATOM     30  C   UNL A   1      37.498  29.124  29.821  1.00  0.00     0.010 A 
ATOM     31  C   UNL A   1      38.177  29.665  27.544  1.00  0.00     0.010 A 
ATOM     32  C   UNL A   1      38.463  29.115  28.807  1.00  0.00    -0.014 A 
BRANCH  32  33
ATOM     33  C   UNL A   1      39.851  28.707  29.098  1.00  0.00     0.031 A 
ATOM     34  C   UNL A   1      40.772  29.727  29.697  1.00  0.00     0.074 A 
ATOM     35  C   UNL A   1      40.286  27.475  28.787  1.00  0.00     0.049 A 
ATOM     36  N   UNL A   1      42.066  29.681  29.864  1.00  0.00    -0.248 NA
ATOM     37  C   UNL A   1      40.146  30.980  30.153  1.00  0.00     0.031 C 
ATOM     38  C   UNL A   1      39.461  26.396  28.250  1.00  0.00     0.029 A 
ATOM     39  N   UNL A   1      41.546  26.940  28.853  1.00  0.00    -0.354 N 
ATOM     40  C   UNL A   1      42.413  30.905  30.420  1.00  0.00     0.074 A 
ATOM     41  C   UNL A   1      41.200  31.683  30.540  1.00  0.00     0.031 C 
ATOM     42  C   UNL A   1      40.245  25.332  28.006  1.00  0.00     0.029 A 
ATOM     43  C   UNL A   1      41.629  25.677  28.324  1.00  0.00     0.049 A 
ATOM     44  H   UNL A   1      42.316  27.416  29.241  1.00  0.00     0.167 HD
ATOM     45  C   UNL A   1      43.639  31.338  30.795  1.00  0.00     0.037 A 
ATOM     46  C   UNL A   1      42.711  24.910  28.086  1.00  0.00     0.037 A 
ATOM     47  C   UNL A   1      44.834  30.551  30.664  1.00  0.00     0.049 A 
ATOM     48  C   UNL A   1      44.074  25.442  28.439  1.00  0.00     0.074 A 
ATOM     49  C   UNL A   1      46.129  30.882  31.020  1.00  0.00     0.029 A 
ATOM     50  N   UNL A   1      44.879  29.272  30.126  1.00  0.00    -0.354 N 
ATOM     51  N   UNL A   1      44.401  26.597  28.969  1.00  0.00    -0.248 NA
ATOM     52  C   UNL A   1      45.222  24.568  28.158  1.00  0.00     0.031 C 
ATOM     53  C   UNL A   1      46.966  29.828  30.645  1.00  0.00     0.029 A 
ATOM     54  C   UNL A   1      46.183  28.810  30.121  1.00  0.00     0.049 A 
ATOM     55  H   UNL A   1      44.100  28.770  29.796  1.00  0.00     0.167 HD
ATOM     56  C   UNL A   1      45.781  26.568  29.130  1.00  0.00     0.074 A 
ATOM     57  C   UNL A   1      46.232  25.284  28.633  1.00  0.00     0.031 C 
ATOM     58  C   UNL A   1      46.602  27.514  29.650  1.00  0.00     0.037 A 
BRANCH  45  59
ATOM     59  C   UNL A   1      43.746  32.730  31.343  1.00  0.00     0.057 A 
ATOM     60  C   UNL A   1      43.919  33.846  30.513  1.00  0.00     0.134 A 
ATOM     61  C   UNL A   1      43.654  32.961  32.722  1.00  0.00     0.134 A 
ATOM     62  F   UNL A   1      44.032  33.695  29.185  1.00  0.00    -0.206 F 
ATOM     63  C   UNL A   1      44.023  35.137  31.036  1.00  0.00     0.040 A 
ATOM     64  C   UNL A   1      43.725  34.249  33.254  1.00  0.00     0.040 A 
ATOM     65  F   UNL A   1      43.487  31.938  33.575  1.00  0.00    -0.206 F 
ATOM     66  C   UNL A   1      43.918  35.341  32.411  1.00  0.00     0.006 A 
ENDBRANCH  45  59
BRANCH  46  67
ATOM     67  C   UNL A   1      42.550  23.569  27.470  1.00  0.00     0.057 A 
ATOM     68  C   UNL A   1      42.604  23.403  26.081  1.00  0.00     0.134 A 
ATOM     69  C   UNL A   1      42.325  22.426  28.247  1.00  0.00     0.134 A 
ATOM     70  F   UNL A   1      42.796  24.462  25.282  1.00  0.00    -0.206 F 
ATOM     71  C   UNL A   1      42.421  22.153  25.487  1.00  0.00     0.040 A 
ATOM     72  C   UNL A   1      42.168  21.166  27.667  1.00  0.00     0.040 A 
ATOM     73  F   UNL A   1      42.266  22.515  29.584  1.00  0.00    -0.206 F 
ATOM     74  C   UNL A   1      42.208  21.029  26.281  1.00  0.00     0.006 A 
ENDBRANCH  46  67
BRANCH  58  75
ATOM     75  C   UNL A   1      48.057  27.176  29.790  1.00  0.00     0.057 A 
ATOM     76  C   UNL A   1      48.562  26.480  30.893  1.00  0.00     0.134 A 
ATOM     77  C   UNL A   1      48.950  27.480  28.752  1.00  0.00     0.134 A 
ATOM     78  F   UNL A   1      47.762  26.168  31.924  1.00  0.00    -0.206 F 
ATOM     79  C   UNL A   1      49.905  26.106  30.966  1.00  0.00     0.040 A 
ATOM     80  C   UNL A   1      50.287  27.087  28.799  1.00  0.00     0.040 A 
ATOM     81  F   UNL A   1      48.528  28.136  27.660  1.00  0.00    -0.206 F 
ATOM     82  C   UNL A   1      50.769  26.399  29.911  1.00  0.00     0.006 A 
ENDBRANCH  58  75
ENDBRANCH  32  33
ENDBRANCH  25  27
ENDBRANCH  24  25
ENDBRANCH  23  24
ENDBRANCH   1  23
TORSDOF 15
ENDMDL
