MODEL 1
REMARK VINA RESULT:     -12.3      0.000      0.000
REMARK SMILES Cc1cc(C(=O)N[C@@H]2C(=O)N3C(C(=O)OCCOCCOC(=O)c4ccc(-c5c6nc(c(-c7c(F)cccc7F)c7ccc([nH]7)c(-c7c(F)cccc7F)c7nc(c(-c8c(F)cccc8F)c8ccc5[nH]8)C=C7)C=C6)cc4)=C(CSc4nnc(C)s4)CS[C@H]23)n(C)n1
REMARK SMILES IDX 17 1 16 2 15 3 13 4 14 5 12 6 8 7 9 8 89 9 10 10 11 11 88 12
REMARK SMILES IDX 87 13 78 14 7 15 5 16 6 17 4 19 1 20 2 21 3 22 92 23 90 24
REMARK SMILES IDX 91 25 79 26 80 27 81 28 82 29 86 30 83 31 84 32 85 33 18 34
REMARK SMILES IDX 19 35 20 36 21 37 22 38 23 39 24 40 25 41 77 42 26 43 76 44
REMARK SMILES IDX 27 45 28 46 29 47 70 48 30 49 75 50 69 51 71 52 31 53 74 54
REMARK SMILES IDX 68 55 67 56 32 58 58 59 41 60 57 61 42 62 45 63 56 64 72 65
REMARK SMILES IDX 43 66 44 67 55 69 73 70 46 71 33 72 34 73 39 74 35 75 36 76
REMARK SMILES IDX 38 77 40 78 37 79 59 80 60 81 65 82 61 83 62 84 64 85 66 86
REMARK SMILES IDX 63 87 47 88 48 89 53 90 49 91 50 92 52 93 54 94 51 95
REMARK H PARENT 7 18 71 57 45 68
REMARK Flexibility Score: inf
ROOT
ATOM      1  C   UNL A   1      33.671  29.686  26.729  1.00  0.00     0.202 C 
ENDROOT
BRANCH   1   2
ATOM      2  C   UNL A   1      33.445  28.557  25.729  1.00  0.00     0.261 C 
BRANCH   2   3
ATOM      3  O   UNL A   1      33.173  27.323  26.417  1.00  0.00    -0.459 OA
BRANCH   3   4
ATOM      4  C   UNL A   1      31.868  26.990  26.482  1.00  0.00     0.355 C 
ATOM      5  O   UNL A   1      31.077  27.366  27.339  1.00  0.00    -0.244 OA
BRANCH   4   6
ATOM      6  C   UNL A   1      31.420  26.101  25.361  1.00  0.00     0.132 C 
ATOM      7  C   UNL A   1      32.491  22.866  25.507  1.00  0.00     0.206 C 
ATOM      8  C   UNL A   1      31.758  23.848  26.476  1.00  0.00     0.253 C 
ATOM      9  C   UNL A   1      32.206  23.964  24.437  1.00  0.00     0.181 C 
ATOM     10  O   UNL A   1      31.306  23.818  27.593  1.00  0.00    -0.272 OA
ATOM     11  N   UNL A   1      31.803  24.806  25.519  1.00  0.00    -0.289 N 
ATOM     12  S   UNL A   1      30.758  23.798  23.370  1.00  0.00    -0.129 SA
ATOM     13  C   UNL A   1      30.776  25.563  22.968  1.00  0.00     0.106 C 
ATOM     14  C   UNL A   1      30.865  26.494  24.183  1.00  0.00    -0.019 C 
BRANCH   7  15
ATOM     15  N   UNL A   1      31.979  21.498  25.256  1.00  0.00    -0.336 N 
ATOM     16  C   UNL A   1      32.711  20.321  25.225  1.00  0.00     0.270 C 
ATOM     17  O   UNL A   1      32.103  19.277  24.999  1.00  0.00    -0.268 OA
ATOM     18  H   UNL A   1      31.013  21.416  25.091  1.00  0.00     0.164 HD
BRANCH  16  19
ATOM     19  C   UNL A   1      34.153  20.391  25.381  1.00  0.00     0.126 A 
ATOM     20  C   UNL A   1      37.343  22.150  25.287  1.00  0.00     0.069 C 
ATOM     21  C   UNL A   1      36.230  21.173  25.367  1.00  0.00     0.060 A 
ATOM     22  C   UNL A   1      34.970  21.341  25.980  1.00  0.00     0.059 A 
ATOM     23  N   UNL A   1      36.299  20.001  24.737  1.00  0.00    -0.178 NA
ATOM     24  N   UNL A   1      35.058  19.481  24.881  1.00  0.00    -0.263 N 
ATOM     25  C   UNL A   1      34.859  18.107  24.486  1.00  0.00     0.174 C 
ENDBRANCH  16  19
ENDBRANCH   7  15
BRANCH  14  26
ATOM     26  C   UNL A   1      30.375  27.881  23.851  1.00  0.00     0.111 C 
BRANCH  26  27
ATOM     27  S   UNL A   1      28.712  28.010  23.146  1.00  0.00    -0.089 SA
BRANCH  27  28
ATOM     28  C   UNL A   1      28.285  29.700  23.028  1.00  0.00     0.174 A 
ATOM     29  N   UNL A   1      27.194  30.238  23.516  1.00  0.00    -0.132 NA
ATOM     30  S   UNL A   1      29.334  30.861  22.322  1.00  0.00    -0.091 S 
ATOM     31  N   UNL A   1      27.216  31.620  23.493  1.00  0.00    -0.143 NA
ATOM     32  C   UNL A   1      28.338  32.080  22.988  1.00  0.00     0.115 A 
ATOM     33  C   UNL A   1      28.769  33.501  22.995  1.00  0.00     0.081 C 
ENDBRANCH  27  28
ENDBRANCH  26  27
ENDBRANCH  14  26
ENDBRANCH   4   6
ENDBRANCH   3   4
ENDBRANCH   2   3
ENDBRANCH   1   2
BRANCH   1  34
ATOM     34  O   UNL A   1      32.526  30.293  27.322  1.00  0.00    -0.374 OA
BRANCH  34  35
ATOM     35  C   UNL A   1      31.780  31.230  26.550  1.00  0.00     0.202 C 
BRANCH  35  36
ATOM     36  C   UNL A   1      31.814  32.708  26.968  1.00  0.00     0.261 C 
BRANCH  36  37
ATOM     37  O   UNL A   1      33.136  33.224  27.186  1.00  0.00    -0.460 OA
BRANCH  37  38
ATOM     38  C   UNL A   1      33.243  34.096  28.220  1.00  0.00     0.338 C 
ATOM     39  O   UNL A   1      32.499  35.016  28.504  1.00  0.00    -0.246 OA
BRANCH  38  40
ATOM     40  C   UNL A   1      34.369  33.679  29.074  1.00  0.00     0.060 A 
ATOM     41  C   UNL A   1      35.631  34.243  28.871  1.00  0.00     0.016 A 
ATOM     42  C   UNL A   1      34.186  32.693  30.038  1.00  0.00     0.016 A 
ATOM     43  C   UNL A   1      36.716  33.805  29.629  1.00  0.00     0.010 A 
ATOM     44  C   UNL A   1      35.255  32.295  30.838  1.00  0.00     0.010 A 
ATOM     45  C   UNL A   1      36.539  32.809  30.602  1.00  0.00    -0.014 A 
BRANCH  45  46
ATOM     46  C   UNL A   1      37.711  32.168  31.249  1.00  0.00     0.031 A 
ATOM     47  C   UNL A   1      38.460  31.100  30.498  1.00  0.00     0.074 A 
ATOM     48  C   UNL A   1      38.100  32.527  32.485  1.00  0.00     0.049 A 
ATOM     49  N   UNL A   1      39.471  30.363  30.885  1.00  0.00    -0.248 NA
ATOM     50  C   UNL A   1      37.996  30.807  29.131  1.00  0.00     0.031 C 
ATOM     51  C   UNL A   1      37.459  33.548  33.313  1.00  0.00     0.029 A 
ATOM     52  N   UNL A   1      39.130  32.062  33.263  1.00  0.00    -0.354 N 
ATOM     53  C   UNL A   1      39.744  29.512  29.820  1.00  0.00     0.074 A 
ATOM     54  C   UNL A   1      38.761  29.780  28.796  1.00  0.00     0.031 C 
ATOM     55  C   UNL A   1      38.118  33.639  34.481  1.00  0.00     0.029 A 
ATOM     56  C   UNL A   1      39.200  32.658  34.499  1.00  0.00     0.049 A 
ATOM     57  H   UNL A   1      39.760  31.368  32.964  1.00  0.00     0.167 HD
ATOM     58  C   UNL A   1      40.741  28.603  29.696  1.00  0.00     0.037 A 
ATOM     59  C   UNL A   1      40.032  32.423  35.530  1.00  0.00     0.037 A 
ATOM     60  C   UNL A   1      41.730  28.353  30.709  1.00  0.00     0.049 A 
ATOM     61  C   UNL A   1      41.105  31.375  35.389  1.00  0.00     0.074 A 
ATOM     62  C   UNL A   1      42.806  27.485  30.667  1.00  0.00     0.029 A 
ATOM     63  N   UNL A   1      41.758  28.969  31.951  1.00  0.00    -0.354 N 
ATOM     64  N   UNL A   1      41.383  30.607  34.361  1.00  0.00    -0.248 NA
ATOM     65  C   UNL A   1      41.981  31.162  36.548  1.00  0.00     0.031 C 
ATOM     66  C   UNL A   1      43.451  27.531  31.907  1.00  0.00     0.029 A 
ATOM     67  C   UNL A   1      42.817  28.477  32.697  1.00  0.00     0.049 A 
ATOM     68  H   UNL A   1      41.121  29.653  32.257  1.00  0.00     0.167 HD
ATOM     69  C   UNL A   1      42.484  29.848  34.738  1.00  0.00     0.074 A 
ATOM     70  C   UNL A   1      42.830  30.256  36.084  1.00  0.00     0.031 C 
ATOM     71  C   UNL A   1      43.151  28.900  34.034  1.00  0.00     0.037 A 
BRANCH  58  72
ATOM     72  C   UNL A   1      40.796  27.804  28.423  1.00  0.00     0.057 A 
ATOM     73  C   UNL A   1      40.119  26.586  28.277  1.00  0.00     0.134 A 
ATOM     74  C   UNL A   1      41.522  28.272  27.321  1.00  0.00     0.134 A 
ATOM     75  F   UNL A   1      39.415  26.072  29.299  1.00  0.00    -0.206 F 
ATOM     76  C   UNL A   1      40.189  25.847  27.095  1.00  0.00     0.040 A 
ATOM     77  C   UNL A   1      41.572  27.558  26.121  1.00  0.00     0.040 A 
ATOM     78  F   UNL A   1      42.191  29.432  27.387  1.00  0.00    -0.206 F 
ATOM     79  C   UNL A   1      40.912  26.337  26.009  1.00  0.00     0.006 A 
ENDBRANCH  58  72
BRANCH  59  80
ATOM     80  C   UNL A   1      39.893  33.200  36.790  1.00  0.00     0.057 A 
ATOM     81  C   UNL A   1      38.991  32.809  37.787  1.00  0.00     0.134 A 
ATOM     82  C   UNL A   1      40.650  34.356  37.023  1.00  0.00     0.134 A 
ATOM     83  F   UNL A   1      38.224  31.724  37.614  1.00  0.00    -0.206 F 
ATOM     84  C   UNL A   1      38.832  33.548  38.960  1.00  0.00     0.040 A 
ATOM     85  C   UNL A   1      40.521  35.088  38.205  1.00  0.00     0.040 A 
ATOM     86  F   UNL A   1      41.535  34.782  36.111  1.00  0.00    -0.206 F 
ATOM     87  C   UNL A   1      39.604  34.688  39.175  1.00  0.00     0.006 A 
ENDBRANCH  59  80
BRANCH  71  88
ATOM     88  C   UNL A   1      44.348  28.267  34.686  1.00  0.00     0.057 A 
ATOM     89  C   UNL A   1      44.248  27.098  35.451  1.00  0.00     0.134 A 
ATOM     90  C   UNL A   1      45.627  28.813  34.506  1.00  0.00     0.134 A 
ATOM     91  F   UNL A   1      43.053  26.530  35.672  1.00  0.00    -0.206 F 
ATOM     92  C   UNL A   1      45.371  26.510  36.035  1.00  0.00     0.040 A 
ATOM     93  C   UNL A   1      46.761  28.217  35.058  1.00  0.00     0.040 A 
ATOM     94  F   UNL A   1      45.796  29.925  33.775  1.00  0.00    -0.206 F 
ATOM     95  C   UNL A   1      46.633  27.066  35.832  1.00  0.00     0.006 A 
ENDBRANCH  71  88
ENDBRANCH  45  46
ENDBRANCH  38  40
ENDBRANCH  37  38
ENDBRANCH  36  37
ENDBRANCH  35  36
ENDBRANCH  34  35
ENDBRANCH   1  34
TORSDOF 19
ENDMDL
MODEL 2
REMARK VINA RESULT:     -12.1      0.799      5.871
REMARK SMILES Cc1cc(C(=O)N[C@@H]2C(=O)N3C(C(=O)OCCOCCOC(=O)c4ccc(-c5c6nc(c(-c7c(F)cccc7F)c7ccc([nH]7)c(-c7c(F)cccc7F)c7nc(c(-c8c(F)cccc8F)c8ccc5[nH]8)C=C7)C=C6)cc4)=C(CSc4nnc(C)s4)CS[C@H]23)n(C)n1
REMARK SMILES IDX 17 1 16 2 15 3 13 4 14 5 12 6 8 7 9 8 89 9 10 10 11 11 88 12
REMARK SMILES IDX 87 13 78 14 7 15 5 16 6 17 4 19 1 20 2 21 3 22 92 23 90 24
REMARK SMILES IDX 91 25 79 26 80 27 81 28 82 29 86 30 83 31 84 32 85 33 18 34
REMARK SMILES IDX 19 35 20 36 21 37 22 38 23 39 24 40 25 41 77 42 26 43 76 44
REMARK SMILES IDX 27 45 28 46 29 47 70 48 30 49 75 50 69 51 71 52 31 53 74 54
REMARK SMILES IDX 68 55 67 56 32 58 58 59 41 60 57 61 42 62 45 63 56 64 72 65
REMARK SMILES IDX 43 66 44 67 55 69 73 70 46 71 33 72 34 73 39 74 35 75 36 76
REMARK SMILES IDX 38 77 40 78 37 79 59 80 60 81 65 82 61 83 62 84 64 85 66 86
REMARK SMILES IDX 63 87 47 88 48 89 53 90 49 91 50 92 52 93 54 94 51 95
REMARK H PARENT 7 18 71 57 45 68
REMARK Flexibility Score: inf
ROOT
ATOM      1  C   UNL A   1      33.683  30.028  26.994  1.00  0.00     0.202 C 
ENDROOT
BRANCH   1   2
ATOM      2  C   UNL A   1      33.580  28.802  26.092  1.00  0.00     0.261 C 
BRANCH   2   3
ATOM      3  O   UNL A   1      33.230  27.639  26.864  1.00  0.00    -0.459 OA
BRANCH   3   4
ATOM      4  C   UNL A   1      31.958  27.219  26.702  1.00  0.00     0.355 C 
ATOM      5  O   UNL A   1      31.016  27.495  27.436  1.00  0.00    -0.244 OA
BRANCH   4   6
ATOM      6  C   UNL A   1      31.760  26.364  25.487  1.00  0.00     0.132 C 
ATOM      7  C   UNL A   1      33.282  23.312  25.548  1.00  0.00     0.206 C 
ATOM      8  C   UNL A   1      32.320  24.103  26.491  1.00  0.00     0.253 C 
ATOM      9  C   UNL A   1      32.943  24.437  24.523  1.00  0.00     0.181 C 
ATOM     10  O   UNL A   1      31.770  23.924  27.548  1.00  0.00    -0.272 OA
ATOM     11  N   UNL A   1      32.315  25.128  25.605  1.00  0.00    -0.289 N 
ATOM     12  S   UNL A   1      31.647  24.150  23.298  1.00  0.00    -0.129 SA
ATOM     13  C   UNL A   1      31.441  25.925  23.010  1.00  0.00     0.106 C 
ATOM     14  C   UNL A   1      31.271  26.763  24.283  1.00  0.00    -0.019 C 
BRANCH   7  15
ATOM     15  N   UNL A   1      33.008  21.909  25.159  1.00  0.00    -0.336 N 
ATOM     16  C   UNL A   1      33.932  20.947  24.780  1.00  0.00     0.270 C 
ATOM     17  O   UNL A   1      33.507  19.831  24.491  1.00  0.00    -0.268 OA
ATOM     18  H   UNL A   1      32.065  21.629  25.170  1.00  0.00     0.164 HD
BRANCH  16  19
ATOM     19  C   UNL A   1      35.329  21.327  24.669  1.00  0.00     0.126 A 
ATOM     20  C   UNL A   1      38.583  22.168  26.079  1.00  0.00     0.069 C 
ATOM     21  C   UNL A   1      37.393  21.921  25.228  1.00  0.00     0.060 A 
ATOM     22  C   UNL A   1      36.465  20.862  25.318  1.00  0.00     0.059 A 
ATOM     23  N   UNL A   1      37.022  22.798  24.296  1.00  0.00    -0.178 NA
ATOM     24  N   UNL A   1      35.824  22.335  23.871  1.00  0.00    -0.263 N 
ATOM     25  C   UNL A   1      35.245  22.952  22.702  1.00  0.00     0.174 C 
ENDBRANCH  16  19
ENDBRANCH   7  15
BRANCH  14  26
ATOM     26  C   UNL A   1      30.614  28.088  23.986  1.00  0.00     0.111 C 
BRANCH  26  27
ATOM     27  S   UNL A   1      29.013  28.032  23.142  1.00  0.00    -0.089 SA
BRANCH  27  28
ATOM     28  C   UNL A   1      28.403  29.662  22.992  1.00  0.00     0.174 A 
ATOM     29  N   UNL A   1      27.293  30.104  23.531  1.00  0.00    -0.132 NA
ATOM     30  S   UNL A   1      29.278  30.895  22.180  1.00  0.00    -0.091 S 
ATOM     31  N   UNL A   1      27.166  31.479  23.458  1.00  0.00    -0.143 NA
ATOM     32  C   UNL A   1      28.200  32.032  22.866  1.00  0.00     0.115 A 
ATOM     33  C   UNL A   1      28.477  33.489  22.795  1.00  0.00     0.081 C 
ENDBRANCH  27  28
ENDBRANCH  26  27
ENDBRANCH  14  26
ENDBRANCH   4   6
ENDBRANCH   3   4
ENDBRANCH   2   3
ENDBRANCH   1   2
BRANCH   1  34
ATOM     34  O   UNL A   1      32.472  30.625  27.452  1.00  0.00    -0.374 OA
BRANCH  34  35
ATOM     35  C   UNL A   1      31.786  31.519  26.579  1.00  0.00     0.202 C 
BRANCH  35  36
ATOM     36  C   UNL A   1      31.786  33.015  26.924  1.00  0.00     0.261 C 
BRANCH  36  37
ATOM     37  O   UNL A   1      33.096  33.573  27.106  1.00  0.00    -0.460 OA
BRANCH  37  38
ATOM     38  C   UNL A   1      33.256  34.290  28.248  1.00  0.00     0.338 C 
ATOM     39  O   UNL A   1      32.546  35.178  28.680  1.00  0.00    -0.246 OA
BRANCH  38  40
ATOM     40  C   UNL A   1      34.393  33.731  29.001  1.00  0.00     0.060 A 
ATOM     41  C   UNL A   1      35.678  34.232  28.776  1.00  0.00     0.016 A 
ATOM     42  C   UNL A   1      34.193  32.678  29.887  1.00  0.00     0.016 A 
ATOM     43  C   UNL A   1      36.768  33.663  29.433  1.00  0.00     0.010 A 
ATOM     44  C   UNL A   1      35.272  32.146  30.590  1.00  0.00     0.010 A 
ATOM     45  C   UNL A   1      36.575  32.599  30.328  1.00  0.00    -0.014 A 
BRANCH  45  46
ATOM     46  C   UNL A   1      37.732  31.833  30.853  1.00  0.00     0.031 A 
ATOM     47  C   UNL A   1      38.233  32.137  32.241  1.00  0.00     0.074 A 
ATOM     48  C   UNL A   1      38.330  30.886  30.109  1.00  0.00     0.049 A 
ATOM     49  N   UNL A   1      39.261  31.640  32.882  1.00  0.00    -0.248 NA
ATOM     50  C   UNL A   1      37.487  33.153  33.003  1.00  0.00     0.031 C 
ATOM     51  C   UNL A   1      37.937  30.498  28.754  1.00  0.00     0.029 A 
ATOM     52  N   UNL A   1      39.404  30.081  30.390  1.00  0.00    -0.354 N 
ATOM     53  C   UNL A   1      39.293  32.298  34.106  1.00  0.00     0.074 A 
ATOM     54  C   UNL A   1      38.221  33.267  34.098  1.00  0.00     0.031 C 
ATOM     55  C   UNL A   1      38.754  29.522  28.326  1.00  0.00     0.029 A 
ATOM     56  C   UNL A   1      39.750  29.243  29.358  1.00  0.00     0.049 A 
ATOM     57  H   UNL A   1      39.882  30.101  31.251  1.00  0.00     0.167 HD
ATOM     58  C   UNL A   1      40.125  32.096  35.155  1.00  0.00     0.037 A 
ATOM     59  C   UNL A   1      40.766  28.365  29.255  1.00  0.00     0.037 A 
ATOM     60  C   UNL A   1      41.178  31.116  35.168  1.00  0.00     0.049 A 
ATOM     61  C   UNL A   1      41.710  28.190  30.417  1.00  0.00     0.074 A 
ATOM     62  C   UNL A   1      42.050  30.802  36.194  1.00  0.00     0.029 A 
ATOM     63  N   UNL A   1      41.503  30.296  34.098  1.00  0.00    -0.354 N 
ATOM     64  N   UNL A   1      41.703  28.784  31.586  1.00  0.00    -0.248 NA
ATOM     65  C   UNL A   1      42.799  27.220  30.244  1.00  0.00     0.031 C 
ATOM     66  C   UNL A   1      42.944  29.833  35.725  1.00  0.00     0.029 A 
ATOM     67  C   UNL A   1      42.585  29.497  34.429  1.00  0.00     0.049 A 
ATOM     68  H   UNL A   1      41.035  30.284  33.232  1.00  0.00     0.167 HD
ATOM     69  C   UNL A   1      42.763  28.236  32.299  1.00  0.00     0.074 A 
ATOM     70  C   UNL A   1      43.382  27.253  31.434  1.00  0.00     0.031 C 
ATOM     71  C   UNL A   1      43.185  28.518  33.557  1.00  0.00     0.037 A 
BRANCH  58  72
ATOM     72  C   UNL A   1      39.936  32.965  36.368  1.00  0.00     0.057 A 
ATOM     73  C   UNL A   1      39.022  32.643  37.380  1.00  0.00     0.134 A 
ATOM     74  C   UNL A   1      40.694  34.130  36.534  1.00  0.00     0.134 A 
ATOM     75  F   UNL A   1      38.252  31.547  37.279  1.00  0.00    -0.206 F 
ATOM     76  C   UNL A   1      38.845  33.464  38.495  1.00  0.00     0.040 A 
ATOM     77  C   UNL A   1      40.551  34.943  37.661  1.00  0.00     0.040 A 
ATOM     78  F   UNL A   1      41.591  34.498  35.607  1.00  0.00    -0.206 F 
ATOM     79  C   UNL A   1      39.617  34.615  38.641  1.00  0.00     0.006 A 
ENDBRANCH  58  72
BRANCH  59  80
ATOM     80  C   UNL A   1      40.943  27.576  28.008  1.00  0.00     0.057 A 
ATOM     81  C   UNL A   1      41.709  28.065  26.944  1.00  0.00     0.134 A 
ATOM     82  C   UNL A   1      40.344  26.320  27.847  1.00  0.00     0.134 A 
ATOM     83  F   UNL A   1      42.291  29.270  27.029  1.00  0.00    -0.206 F 
ATOM     84  C   UNL A   1      41.858  27.345  25.757  1.00  0.00     0.040 A 
ATOM     85  C   UNL A   1      40.508  25.576  26.677  1.00  0.00     0.040 A 
ATOM     86  F   UNL A   1      39.602  25.792  28.831  1.00  0.00    -0.206 F 
ATOM     87  C   UNL A   1      41.261  26.093  25.624  1.00  0.00     0.006 A 
ENDBRANCH  59  80
BRANCH  71  88
ATOM     88  C   UNL A   1      44.345  27.727  34.092  1.00  0.00     0.057 A 
ATOM     89  C   UNL A   1      44.176  26.482  34.709  1.00  0.00     0.134 A 
ATOM     90  C   UNL A   1      45.656  28.202  33.945  1.00  0.00     0.134 A 
ATOM     91  F   UNL A   1      42.947  25.974  34.890  1.00  0.00    -0.206 F 
ATOM     92  C   UNL A   1      45.264  25.749  35.184  1.00  0.00     0.040 A 
ATOM     93  C   UNL A   1      46.755  27.463  34.386  1.00  0.00     0.040 A 
ATOM     94  F   UNL A   1      45.892  29.382  33.352  1.00  0.00    -0.206 F 
ATOM     95  C   UNL A   1      46.559  26.236  35.016  1.00  0.00     0.006 A 
ENDBRANCH  71  88
ENDBRANCH  45  46
ENDBRANCH  38  40
ENDBRANCH  37  38
ENDBRANCH  36  37
ENDBRANCH  35  36
ENDBRANCH  34  35
ENDBRANCH   1  34
TORSDOF 19
ENDMDL
MODEL 3
REMARK VINA RESULT:     -11.0      4.703      8.065
REMARK SMILES Cc1cc(C(=O)N[C@@H]2C(=O)N3C(C(=O)OCCOCCOC(=O)c4ccc(-c5c6nc(c(-c7c(F)cccc7F)c7ccc([nH]7)c(-c7c(F)cccc7F)c7nc(c(-c8c(F)cccc8F)c8ccc5[nH]8)C=C7)C=C6)cc4)=C(CSc4nnc(C)s4)CS[C@H]23)n(C)n1
REMARK SMILES IDX 17 1 16 2 15 3 13 4 14 5 12 6 8 7 9 8 89 9 10 10 11 11 88 12
REMARK SMILES IDX 87 13 78 14 7 15 5 16 6 17 4 19 1 20 2 21 3 22 92 23 90 24
REMARK SMILES IDX 91 25 79 26 80 27 81 28 82 29 86 30 83 31 84 32 85 33 18 34
REMARK SMILES IDX 19 35 20 36 21 37 22 38 23 39 24 40 25 41 77 42 26 43 76 44
REMARK SMILES IDX 27 45 28 46 29 47 70 48 30 49 75 50 69 51 71 52 31 53 74 54
REMARK SMILES IDX 68 55 67 56 32 58 58 59 41 60 57 61 42 62 45 63 56 64 72 65
REMARK SMILES IDX 43 66 44 67 55 69 73 70 46 71 33 72 34 73 39 74 35 75 36 76
REMARK SMILES IDX 38 77 40 78 37 79 59 80 60 81 65 82 61 83 62 84 64 85 66 86
REMARK SMILES IDX 63 87 47 88 48 89 53 90 49 91 50 92 52 93 54 94 51 95
REMARK H PARENT 7 18 71 57 45 68
REMARK Flexibility Score: inf
ROOT
ATOM      1  C   UNL A   1      33.728  29.105  27.313  1.00  0.00     0.202 C 
ENDROOT
BRANCH   1   2
ATOM      2  C   UNL A   1      32.426  28.352  27.053  1.00  0.00     0.261 C 
BRANCH   2   3
ATOM      3  O   UNL A   1      32.702  27.013  26.605  1.00  0.00    -0.459 OA
BRANCH   3   4
ATOM      4  C   UNL A   1      31.608  26.287  26.297  1.00  0.00     0.355 C 
ATOM      5  O   UNL A   1      30.528  26.344  26.874  1.00  0.00    -0.244 OA
BRANCH   4   6
ATOM      6  C   UNL A   1      31.806  25.373  25.125  1.00  0.00     0.132 C 
ATOM      7  C   UNL A   1      33.996  22.801  25.594  1.00  0.00     0.206 C 
ATOM      8  C   UNL A   1      32.742  23.355  26.343  1.00  0.00     0.253 C 
ATOM      9  C   UNL A   1      33.549  23.774  24.461  1.00  0.00     0.181 C 
ATOM     10  O   UNL A   1      32.102  23.076  27.325  1.00  0.00    -0.272 OA
ATOM     11  N   UNL A   1      32.619  24.319  25.399  1.00  0.00    -0.289 N 
ATOM     12  S   UNL A   1      32.559  23.136  23.092  1.00  0.00    -0.129 SA
ATOM     13  C   UNL A   1      31.973  24.794  22.663  1.00  0.00     0.106 C 
ATOM     14  C   UNL A   1      31.418  25.601  23.842  1.00  0.00    -0.019 C 
BRANCH   7  15
ATOM     15  N   UNL A   1      34.131  21.363  25.265  1.00  0.00    -0.336 N 
ATOM     16  C   UNL A   1      35.306  20.656  25.056  1.00  0.00     0.270 C 
ATOM     17  O   UNL A   1      35.213  19.460  24.791  1.00  0.00    -0.268 OA
ATOM     18  H   UNL A   1      33.294  20.853  25.184  1.00  0.00     0.164 HD
BRANCH  16  19
ATOM     19  C   UNL A   1      36.567  21.375  25.085  1.00  0.00     0.126 A 
ATOM     20  C   UNL A   1      39.254  23.143  26.798  1.00  0.00     0.069 C 
ATOM     21  C   UNL A   1      38.309  22.528  25.834  1.00  0.00     0.060 A 
ATOM     22  C   UNL A   1      37.666  21.275  25.928  1.00  0.00     0.059 A 
ATOM     23  N   UNL A   1      37.885  23.200  24.765  1.00  0.00    -0.178 NA
ATOM     24  N   UNL A   1      36.918  22.409  24.245  1.00  0.00    -0.263 N 
ATOM     25  C   UNL A   1      36.397  22.757  22.945  1.00  0.00     0.174 C 
ENDBRANCH  16  19
ENDBRANCH   7  15
BRANCH  14  26
ATOM     26  C   UNL A   1      30.511  26.710  23.372  1.00  0.00     0.111 C 
BRANCH  26  27
ATOM     27  S   UNL A   1      31.277  28.032  22.400  1.00  0.00    -0.089 SA
BRANCH  27  28
ATOM     28  C   UNL A   1      30.196  29.404  22.374  1.00  0.00     0.174 A 
ATOM     29  N   UNL A   1      29.571  29.853  21.313  1.00  0.00    -0.132 NA
ATOM     30  S   UNL A   1      29.770  30.259  23.801  1.00  0.00    -0.091 S 
ATOM     31  N   UNL A   1      28.603  30.793  21.612  1.00  0.00    -0.143 NA
ATOM     32  C   UNL A   1      28.528  31.019  22.904  1.00  0.00     0.115 A 
ATOM     33  C   UNL A   1      27.474  31.817  23.581  1.00  0.00     0.081 C 
ENDBRANCH  27  28
ENDBRANCH  26  27
ENDBRANCH  14  26
ENDBRANCH   4   6
ENDBRANCH   3   4
ENDBRANCH   2   3
ENDBRANCH   1   2
BRANCH   1  34
ATOM     34  O   UNL A   1      33.871  30.406  26.750  1.00  0.00    -0.374 OA
BRANCH  34  35
ATOM     35  C   UNL A   1      33.877  31.527  27.630  1.00  0.00     0.202 C 
BRANCH  35  36
ATOM     36  C   UNL A   1      34.485  31.352  29.028  1.00  0.00     0.261 C 
BRANCH  36  37
ATOM     37  O   UNL A   1      35.920  31.309  29.041  1.00  0.00    -0.460 OA
BRANCH  37  38
ATOM     38  C   UNL A   1      36.456  30.423  29.918  1.00  0.00     0.338 C 
ATOM     39  O   UNL A   1      35.891  29.814  30.807  1.00  0.00    -0.246 OA
BRANCH  38  40
ATOM     40  C   UNL A   1      37.863  30.186  29.548  1.00  0.00     0.060 A 
ATOM     41  C   UNL A   1      38.205  30.056  28.199  1.00  0.00     0.016 A 
ATOM     42  C   UNL A   1      38.829  30.039  30.537  1.00  0.00     0.016 A 
ATOM     43  C   UNL A   1      39.522  29.763  27.844  1.00  0.00     0.010 A 
ATOM     44  C   UNL A   1      40.157  29.805  30.183  1.00  0.00     0.010 A 
ATOM     45  C   UNL A   1      40.502  29.611  28.837  1.00  0.00    -0.014 A 
BRANCH  45  46
ATOM     46  C   UNL A   1      41.843  29.074  28.499  1.00  0.00     0.031 A 
ATOM     47  C   UNL A   1      43.017  30.018  28.470  1.00  0.00     0.074 A 
ATOM     48  C   UNL A   1      42.016  27.770  28.218  1.00  0.00     0.049 A 
ATOM     49  N   UNL A   1      44.264  29.786  28.144  1.00  0.00    -0.248 NA
ATOM     50  C   UNL A   1      42.745  31.417  28.840  1.00  0.00     0.031 C 
ATOM     51  C   UNL A   1      40.960  26.757  28.215  1.00  0.00     0.029 A 
ATOM     52  N   UNL A   1      43.148  27.077  27.874  1.00  0.00    -0.354 N 
ATOM     53  C   UNL A   1      44.913  31.011  28.250  1.00  0.00     0.074 A 
ATOM     54  C   UNL A   1      43.916  31.992  28.612  1.00  0.00     0.031 C 
ATOM     55  C   UNL A   1      41.498  25.569  27.893  1.00  0.00     0.029 A 
ATOM     56  C   UNL A   1      42.925  25.743  27.630  1.00  0.00     0.049 A 
ATOM     57  H   UNL A   1      44.037  27.495  27.808  1.00  0.00     0.167 HD
ATOM     58  C   UNL A   1      46.227  31.291  28.084  1.00  0.00     0.037 A 
ATOM     59  C   UNL A   1      43.774  24.780  27.225  1.00  0.00     0.037 A 
ATOM     60  C   UNL A   1      47.220  30.308  27.743  1.00  0.00     0.049 A 
ATOM     61  C   UNL A   1      45.224  25.123  27.001  1.00  0.00     0.074 A 
ATOM     62  C   UNL A   1      48.585  30.477  27.593  1.00  0.00     0.029 A 
ATOM     63  N   UNL A   1      46.951  28.970  27.493  1.00  0.00    -0.354 N 
ATOM     64  N   UNL A   1      45.836  26.274  27.148  1.00  0.00    -0.248 NA
ATOM     65  C   UNL A   1      46.101  24.031  26.557  1.00  0.00     0.031 C 
ATOM     66  C   UNL A   1      49.134  29.255  27.192  1.00  0.00     0.029 A 
ATOM     67  C   UNL A   1      48.122  28.309  27.159  1.00  0.00     0.049 A 
ATOM     68  H   UNL A   1      46.062  28.553  27.546  1.00  0.00     0.167 HD
ATOM     69  C   UNL A   1      47.172  26.037  26.848  1.00  0.00     0.074 A 
ATOM     70  C   UNL A   1      47.284  24.630  26.524  1.00  0.00     0.031 C 
ATOM     71  C   UNL A   1      48.215  26.905  26.845  1.00  0.00     0.037 A 
BRANCH  58  72
ATOM     72  C   UNL A   1      46.659  32.721  28.255  1.00  0.00     0.057 A 
ATOM     73  C   UNL A   1      46.550  33.661  27.221  1.00  0.00     0.134 A 
ATOM     74  C   UNL A   1      47.173  33.167  29.478  1.00  0.00     0.134 A 
ATOM     75  F   UNL A   1      46.079  33.298  26.017  1.00  0.00    -0.206 F 
ATOM     76  C   UNL A   1      46.967  34.983  27.388  1.00  0.00     0.040 A 
ATOM     77  C   UNL A   1      47.562  34.495  29.668  1.00  0.00     0.040 A 
ATOM     78  F   UNL A   1      47.301  32.323  30.513  1.00  0.00    -0.206 F 
ATOM     79  C   UNL A   1      47.468  35.405  28.618  1.00  0.00     0.006 A 
ENDBRANCH  58  72
BRANCH  59  80
ATOM     80  C   UNL A   1      43.280  23.395  27.012  1.00  0.00     0.057 A 
ATOM     81  C   UNL A   1      43.035  22.904  25.724  1.00  0.00     0.134 A 
ATOM     82  C   UNL A   1      43.032  22.533  28.088  1.00  0.00     0.134 A 
ATOM     83  F   UNL A   1      43.234  23.686  24.654  1.00  0.00    -0.206 F 
ATOM     84  C   UNL A   1      42.543  21.614  25.513  1.00  0.00     0.040 A 
ATOM     85  C   UNL A   1      42.568  21.232  27.890  1.00  0.00     0.040 A 
ATOM     86  F   UNL A   1      43.251  22.940  29.346  1.00  0.00    -0.206 F 
ATOM     87  C   UNL A   1      42.314  20.771  26.599  1.00  0.00     0.006 A 
ENDBRANCH  59  80
BRANCH  71  88
ATOM     88  C   UNL A   1      49.574  26.353  26.520  1.00  0.00     0.057 A 
ATOM     89  C   UNL A   1      50.142  26.472  25.246  1.00  0.00     0.134 A 
ATOM     90  C   UNL A   1      50.344  25.731  27.513  1.00  0.00     0.134 A 
ATOM     91  F   UNL A   1      49.455  27.047  24.247  1.00  0.00    -0.206 F 
ATOM     92  C   UNL A   1      51.414  25.972  24.963  1.00  0.00     0.040 A 
ATOM     93  C   UNL A   1      51.629  25.256  27.252  1.00  0.00     0.040 A 
ATOM     94  F   UNL A   1      49.866  25.593  28.760  1.00  0.00    -0.206 F 
ATOM     95  C   UNL A   1      52.164  25.368  25.971  1.00  0.00     0.006 A 
ENDBRANCH  71  88
ENDBRANCH  45  46
ENDBRANCH  38  40
ENDBRANCH  37  38
ENDBRANCH  36  37
ENDBRANCH  35  36
ENDBRANCH  34  35
ENDBRANCH   1  34
TORSDOF 19
ENDMDL
