MODEL 1
REMARK VINA RESULT:     -12.2      0.000      0.000
REMARK SMILES O=C(OCCOCCOC(=O)[C@H]1[C@H]2CC[C@H](CC2)[C@@H]1C(=O)Nc1ccc(Cc2ccncc2)cc1)c1ccc(-c2c3nc(c(-c4c(F)cccc4F)c4ccc([nH]4)c(-c4c(F)cccc4F)c4nc(c(-c5c(F)cccc5F)c5ccc2[nH]5)C=C4)C=C3)cc1
REMARK SMILES IDX 7 1 6 2 5 3 4 4 3 5 2 6 1 7 36 8 37 9 89 10 38 11 88 12
REMARK SMILES IDX 39 13 40 14 41 15 82 16 42 17 87 18 81 19 83 20 43 21 86 22
REMARK SMILES IDX 80 23 79 24 44 26 70 27 53 28 69 29 54 30 57 31 68 32 84 33
REMARK SMILES IDX 55 34 56 35 67 37 85 38 58 39 45 40 46 41 51 42 47 43 48 44
REMARK SMILES IDX 50 45 52 46 49 47 71 48 72 49 77 50 73 51 74 52 76 53 78 54
REMARK SMILES IDX 75 55 59 56 60 57 65 58 61 59 62 60 64 61 66 62 63 63 8 64
REMARK SMILES IDX 9 65 10 66 11 67 12 68 13 69 19 70 18 71 14 72 16 73 17 74
REMARK SMILES IDX 15 75 20 76 21 77 22 78 23 80 24 81 35 82 25 83 34 84 26 85
REMARK SMILES IDX 27 86 28 87 29 88 33 89 30 90 32 91 31 92
REMARK H PARENT 83 25 57 36 22 79
REMARK Flexibility Score: inf
ROOT
ATOM      1  C   UNL A   1      38.281  22.205  25.735  1.00  0.00     0.202 C 
ENDROOT
BRANCH   1   2
ATOM      2  O   UNL A   1      37.743  21.294  24.780  1.00  0.00    -0.374 OA
BRANCH   2   3
ATOM      3  C   UNL A   1      38.139  19.923  24.808  1.00  0.00     0.202 C 
BRANCH   3   4
ATOM      4  C   UNL A   1      39.038  19.483  25.967  1.00  0.00     0.261 C 
BRANCH   4   5
ATOM      5  O   UNL A   1      40.281  18.937  25.505  1.00  0.00    -0.460 OA
BRANCH   5   6
ATOM      6  C   UNL A   1      41.516  19.282  25.950  1.00  0.00     0.338 C 
ATOM      7  O   UNL A   1      42.402  18.432  25.983  1.00  0.00    -0.246 OA
BRANCH   6   8
ATOM      8  C   UNL A   1      41.844  20.659  26.430  1.00  0.00     0.060 A 
ATOM      9  C   UNL A   1      41.972  21.766  25.596  1.00  0.00     0.016 A 
ATOM     10  C   UNL A   1      41.948  20.875  27.809  1.00  0.00     0.016 A 
ATOM     11  C   UNL A   1      42.189  23.033  26.057  1.00  0.00     0.010 A 
ATOM     12  C   UNL A   1      42.172  22.164  28.307  1.00  0.00     0.010 A 
ATOM     13  C   UNL A   1      42.282  23.238  27.417  1.00  0.00    -0.014 A 
BRANCH  13  14
ATOM     14  C   UNL A   1      42.677  24.594  27.784  1.00  0.00     0.031 A 
ATOM     15  C   UNL A   1      44.101  24.966  27.558  1.00  0.00     0.074 A 
ATOM     16  C   UNL A   1      41.715  25.499  28.029  1.00  0.00     0.049 A 
ATOM     17  N   UNL A   1      44.712  26.082  27.828  1.00  0.00    -0.248 NA
ATOM     18  C   UNL A   1      44.953  23.946  26.914  1.00  0.00     0.031 C 
ATOM     19  C   UNL A   1      40.271  25.227  28.010  1.00  0.00     0.029 A 
ATOM     20  N   UNL A   1      41.797  26.835  28.285  1.00  0.00    -0.354 N 
ATOM     21  C   UNL A   1      46.029  25.880  27.448  1.00  0.00     0.074 A 
ATOM     22  C   UNL A   1      46.131  24.547  26.905  1.00  0.00     0.031 C 
ATOM     23  C   UNL A   1      39.607  26.368  28.243  1.00  0.00     0.029 A 
ATOM     24  C   UNL A   1      40.575  27.418  28.518  1.00  0.00     0.049 A 
ATOM     25  H   UNL A   1      42.646  27.334  28.300  1.00  0.00     0.167 HD
ATOM     26  C   UNL A   1      47.058  26.745  27.582  1.00  0.00     0.037 A 
ATOM     27  C   UNL A   1      40.300  28.652  28.972  1.00  0.00     0.037 A 
ATOM     28  C   UNL A   1      46.883  28.061  28.128  1.00  0.00     0.049 A 
ATOM     29  C   UNL A   1      41.474  29.551  29.241  1.00  0.00     0.074 A 
ATOM     30  C   UNL A   1      47.834  29.017  28.415  1.00  0.00     0.029 A 
ATOM     31  N   UNL A   1      45.645  28.600  28.472  1.00  0.00    -0.354 N 
ATOM     32  N   UNL A   1      42.750  29.329  29.016  1.00  0.00    -0.248 NA
ATOM     33  C   UNL A   1      41.184  30.852  29.847  1.00  0.00     0.031 C 
ATOM     34  C   UNL A   1      47.177  30.115  28.982  1.00  0.00     0.029 A 
ATOM     35  C   UNL A   1      45.810  29.869  28.991  1.00  0.00     0.049 A 
ATOM     36  H   UNL A   1      44.780  28.144  28.361  1.00  0.00     0.167 HD
ATOM     37  C   UNL A   1      43.417  30.468  29.437  1.00  0.00     0.074 A 
ATOM     38  C   UNL A   1      42.397  31.385  29.913  1.00  0.00     0.031 C 
ATOM     39  C   UNL A   1      44.747  30.738  29.440  1.00  0.00     0.037 A 
BRANCH  26  40
ATOM     40  C   UNL A   1      48.423  26.226  27.251  1.00  0.00     0.057 A 
ATOM     41  C   UNL A   1      49.208  25.515  28.168  1.00  0.00     0.134 A 
ATOM     42  C   UNL A   1      48.996  26.523  26.007  1.00  0.00     0.134 A 
ATOM     43  F   UNL A   1      48.736  25.236  29.393  1.00  0.00    -0.206 F 
ATOM     44  C   UNL A   1      50.522  25.144  27.872  1.00  0.00     0.040 A 
ATOM     45  C   UNL A   1      50.299  26.136  25.690  1.00  0.00     0.040 A 
ATOM     46  F   UNL A   1      48.309  27.220  25.089  1.00  0.00    -0.206 F 
ATOM     47  C   UNL A   1      51.069  25.453  26.628  1.00  0.00     0.006 A 
ENDBRANCH  26  40
BRANCH  27  48
ATOM     48  C   UNL A   1      38.903  29.049  29.287  1.00  0.00     0.057 A 
ATOM     49  C   UNL A   1      38.372  28.914  30.573  1.00  0.00     0.134 A 
ATOM     50  C   UNL A   1      38.056  29.569  28.296  1.00  0.00     0.134 A 
ATOM     51  F   UNL A   1      39.123  28.411  31.563  1.00  0.00    -0.206 F 
ATOM     52  C   UNL A   1      37.049  29.261  30.859  1.00  0.00     0.040 A 
ATOM     53  C   UNL A   1      36.741  29.947  28.575  1.00  0.00     0.040 A 
ATOM     54  F   UNL A   1      38.497  29.730  27.039  1.00  0.00    -0.206 F 
ATOM     55  C   UNL A   1      36.231  29.783  29.859  1.00  0.00     0.006 A 
ENDBRANCH  27  48
BRANCH  39  56
ATOM     56  C   UNL A   1      45.150  32.091  29.936  1.00  0.00     0.057 A 
ATOM     57  C   UNL A   1      45.207  33.203  29.088  1.00  0.00     0.134 A 
ATOM     58  C   UNL A   1      45.430  32.286  31.294  1.00  0.00     0.134 A 
ATOM     59  F   UNL A   1      44.964  33.070  27.775  1.00  0.00    -0.206 F 
ATOM     60  C   UNL A   1      45.548  34.463  29.573  1.00  0.00     0.040 A 
ATOM     61  C   UNL A   1      45.739  33.548  31.796  1.00  0.00     0.040 A 
ATOM     62  F   UNL A   1      45.380  31.258  32.156  1.00  0.00    -0.206 F 
ATOM     63  C   UNL A   1      45.804  34.640  30.932  1.00  0.00     0.006 A 
ENDBRANCH  39  56
ENDBRANCH  13  14
ENDBRANCH   6   8
ENDBRANCH   5   6
ENDBRANCH   4   5
ENDBRANCH   3   4
ENDBRANCH   2   3
ENDBRANCH   1   2
BRANCH   1  64
ATOM     64  C   UNL A   1      37.364  23.426  25.800  1.00  0.00     0.261 C 
BRANCH  64  65
ATOM     65  O   UNL A   1      36.606  23.459  24.588  1.00  0.00    -0.463 OA
BRANCH  65  66
ATOM     66  C   UNL A   1      35.307  23.811  24.736  1.00  0.00     0.310 C 
ATOM     67  O   UNL A   1      34.898  24.937  25.017  1.00  0.00    -0.252 OA
BRANCH  66  68
ATOM     68  C   UNL A   1      34.396  22.628  24.581  1.00  0.00     0.115 C 
ATOM     69  C   UNL A   1      34.457  21.544  25.697  1.00  0.00     0.004 C 
ATOM     70  C   UNL A   1      32.974  23.185  24.440  1.00  0.00     0.096 C 
ATOM     71  C   UNL A   1      33.905  22.030  27.043  1.00  0.00     0.005 C 
ATOM     72  C   UNL A   1      33.569  20.382  25.225  1.00  0.00     0.005 C 
ATOM     73  C   UNL A   1      32.035  22.387  25.385  1.00  0.00     0.002 C 
ATOM     74  C   UNL A   1      32.522  22.649  26.835  1.00  0.00     0.005 C 
ATOM     75  C   UNL A   1      32.119  20.864  25.142  1.00  0.00     0.005 C 
BRANCH  70  76
ATOM     76  C   UNL A   1      32.584  23.149  22.964  1.00  0.00     0.228 C 
ATOM     77  O   UNL A   1      32.807  22.156  22.267  1.00  0.00    -0.274 OA
ATOM     78  N   UNL A   1      31.923  24.201  22.392  1.00  0.00    -0.326 N 
ATOM     79  H   UNL A   1      31.630  24.049  21.464  1.00  0.00     0.169 HD
BRANCH  78  80
ATOM     80  C   UNL A   1      31.594  25.460  22.912  1.00  0.00     0.041 A 
ATOM     81  C   UNL A   1      32.496  26.495  22.705  1.00  0.00     0.026 A 
ATOM     82  C   UNL A   1      30.446  25.707  23.663  1.00  0.00     0.026 A 
ATOM     83  C   UNL A   1      32.184  27.790  23.122  1.00  0.00     0.006 A 
ATOM     84  C   UNL A   1      30.144  26.996  24.115  1.00  0.00     0.006 A 
ATOM     85  C   UNL A   1      31.001  28.060  23.825  1.00  0.00    -0.043 A 
BRANCH  85  86
ATOM     86  C   UNL A   1      30.674  29.467  24.280  1.00  0.00     0.071 C 
BRANCH  86  87
ATOM     87  C   UNL A   1      29.673  30.187  23.408  1.00  0.00    -0.041 A 
ATOM     88  C   UNL A   1      29.407  29.755  22.104  1.00  0.00     0.024 A 
ATOM     89  C   UNL A   1      28.971  31.298  23.885  1.00  0.00     0.024 A 
ATOM     90  C   UNL A   1      28.488  30.453  21.337  1.00  0.00     0.111 A 
ATOM     91  C   UNL A   1      28.058  31.920  23.044  1.00  0.00     0.111 A 
ATOM     92  N   UNL A   1      27.804  31.525  21.779  1.00  0.00    -0.265 NA
ENDBRANCH  86  87
ENDBRANCH  85  86
ENDBRANCH  78  80
ENDBRANCH  70  76
ENDBRANCH  66  68
ENDBRANCH  65  66
ENDBRANCH  64  65
ENDBRANCH   1  64
TORSDOF 18
ENDMDL
MODEL 2
REMARK VINA RESULT:     -12.0      4.254      8.175
REMARK SMILES O=C(OCCOCCOC(=O)[C@H]1[C@H]2CC[C@H](CC2)[C@@H]1C(=O)Nc1ccc(Cc2ccncc2)cc1)c1ccc(-c2c3nc(c(-c4c(F)cccc4F)c4ccc([nH]4)c(-c4c(F)cccc4F)c4nc(c(-c5c(F)cccc5F)c5ccc2[nH]5)C=C4)C=C3)cc1
REMARK SMILES IDX 7 1 6 2 5 3 4 4 3 5 2 6 1 7 36 8 37 9 89 10 38 11 88 12
REMARK SMILES IDX 39 13 40 14 41 15 82 16 42 17 87 18 81 19 83 20 43 21 86 22
REMARK SMILES IDX 80 23 79 24 44 26 70 27 53 28 69 29 54 30 57 31 68 32 84 33
REMARK SMILES IDX 55 34 56 35 67 37 85 38 58 39 45 40 46 41 51 42 47 43 48 44
REMARK SMILES IDX 50 45 52 46 49 47 71 48 72 49 77 50 73 51 74 52 76 53 78 54
REMARK SMILES IDX 75 55 59 56 60 57 65 58 61 59 62 60 64 61 66 62 63 63 8 64
REMARK SMILES IDX 9 65 10 66 11 67 12 68 13 69 19 70 18 71 14 72 16 73 17 74
REMARK SMILES IDX 15 75 20 76 21 77 22 78 23 80 24 81 35 82 25 83 34 84 26 85
REMARK SMILES IDX 27 86 28 87 29 88 33 89 30 90 32 91 31 92
REMARK H PARENT 83 25 57 36 22 79
REMARK Flexibility Score: inf
ROOT
ATOM      1  C   UNL A   1      32.637  29.452  26.601  1.00  0.00     0.202 C 
ENDROOT
BRANCH   1   2
ATOM      2  O   UNL A   1      31.601  30.240  26.022  1.00  0.00    -0.374 OA
BRANCH   2   3
ATOM      3  C   UNL A   1      31.391  31.578  26.473  1.00  0.00     0.202 C 
BRANCH   3   4
ATOM      4  C   UNL A   1      32.618  32.338  26.985  1.00  0.00     0.261 C 
BRANCH   4   5
ATOM      5  O   UNL A   1      32.260  33.582  27.604  1.00  0.00    -0.460 OA
BRANCH   5   6
ATOM      6  C   UNL A   1      33.026  34.287  28.474  1.00  0.00     0.338 C 
ATOM      7  O   UNL A   1      32.697  35.432  28.772  1.00  0.00    -0.246 OA
BRANCH   6   8
ATOM      8  C   UNL A   1      34.280  33.737  29.073  1.00  0.00     0.060 A 
ATOM      9  C   UNL A   1      34.310  32.712  30.015  1.00  0.00     0.016 A 
ATOM     10  C   UNL A   1      35.507  34.217  28.603  1.00  0.00     0.016 A 
ATOM     11  C   UNL A   1      35.467  32.163  30.491  1.00  0.00     0.010 A 
ATOM     12  C   UNL A   1      36.707  33.672  29.076  1.00  0.00     0.010 A 
ATOM     13  C   UNL A   1      36.671  32.636  30.017  1.00  0.00    -0.014 A 
BRANCH  13  14
ATOM     14  C   UNL A   1      37.833  32.095  30.713  1.00  0.00     0.031 A 
ATOM     15  C   UNL A   1      38.596  31.020  30.019  1.00  0.00     0.074 A 
ATOM     16  C   UNL A   1      38.313  32.763  31.775  1.00  0.00     0.049 A 
ATOM     17  N   UNL A   1      39.633  30.353  30.430  1.00  0.00    -0.248 NA
ATOM     18  C   UNL A   1      38.139  30.662  28.661  1.00  0.00     0.031 C 
ATOM     19  C   UNL A   1      37.729  33.987  32.341  1.00  0.00     0.029 A 
ATOM     20  N   UNL A   1      39.426  32.546  32.532  1.00  0.00    -0.354 N 
ATOM     21  C   UNL A   1      39.917  29.455  29.413  1.00  0.00     0.074 A 
ATOM     22  C   UNL A   1      38.962  29.674  28.353  1.00  0.00     0.031 C 
ATOM     23  C   UNL A   1      38.497  34.410  33.356  1.00  0.00     0.029 A 
ATOM     24  C   UNL A   1      39.560  33.440  33.566  1.00  0.00     0.049 A 
ATOM     25  H   UNL A   1      40.069  31.822  32.356  1.00  0.00     0.167 HD
ATOM     26  C   UNL A   1      40.884  28.513  29.403  1.00  0.00     0.037 A 
ATOM     27  C   UNL A   1      40.419  33.415  34.599  1.00  0.00     0.037 A 
ATOM     28  C   UNL A   1      41.805  28.353  30.494  1.00  0.00     0.049 A 
ATOM     29  C   UNL A   1      41.401  32.278  34.635  1.00  0.00     0.074 A 
ATOM     30  C   UNL A   1      42.776  27.392  30.678  1.00  0.00     0.029 A 
ATOM     31  N   UNL A   1      41.855  29.201  31.597  1.00  0.00    -0.354 N 
ATOM     32  N   UNL A   1      41.597  31.331  33.745  1.00  0.00    -0.248 NA
ATOM     33  C   UNL A   1      42.257  32.182  35.819  1.00  0.00     0.031 C 
ATOM     34  C   UNL A   1      43.379  27.628  31.920  1.00  0.00     0.029 A 
ATOM     35  C   UNL A   1      42.826  28.772  32.481  1.00  0.00     0.049 A 
ATOM     36  H   UNL A   1      41.283  29.991  31.729  1.00  0.00     0.167 HD
ATOM     37  C   UNL A   1      42.611  30.533  34.250  1.00  0.00     0.074 A 
ATOM     38  C   UNL A   1      42.999  31.124  35.519  1.00  0.00     0.031 C 
ATOM     39  C   UNL A   1      43.171  29.413  33.727  1.00  0.00     0.037 A 
BRANCH  26  40
ATOM     40  C   UNL A   1      40.879  27.551  28.256  1.00  0.00     0.057 A 
ATOM     41  C   UNL A   1      41.607  27.769  27.079  1.00  0.00     0.134 A 
ATOM     42  C   UNL A   1      40.053  26.420  28.302  1.00  0.00     0.134 A 
ATOM     43  F   UNL A   1      42.383  28.857  26.951  1.00  0.00    -0.206 F 
ATOM     44  C   UNL A   1      41.492  26.913  25.981  1.00  0.00     0.040 A 
ATOM     45  C   UNL A   1      39.950  25.544  27.221  1.00  0.00     0.040 A 
ATOM     46  F   UNL A   1      39.312  26.161  29.390  1.00  0.00    -0.206 F 
ATOM     47  C   UNL A   1      40.663  25.796  26.051  1.00  0.00     0.006 A 
ENDBRANCH  26  40
BRANCH  27  48
ATOM     48  C   UNL A   1      40.315  34.414  35.694  1.00  0.00     0.057 A 
ATOM     49  C   UNL A   1      39.516  34.191  36.819  1.00  0.00     0.134 A 
ATOM     50  C   UNL A   1      41.012  35.631  35.635  1.00  0.00     0.134 A 
ATOM     51  F   UNL A   1      38.812  33.055  36.932  1.00  0.00    -0.206 F 
ATOM     52  C   UNL A   1      39.397  35.144  37.833  1.00  0.00     0.040 A 
ATOM     53  C   UNL A   1      40.926  36.579  36.656  1.00  0.00     0.040 A 
ATOM     54  F   UNL A   1      41.801  35.913  34.588  1.00  0.00    -0.206 F 
ATOM     55  C   UNL A   1      40.106  36.341  37.756  1.00  0.00     0.006 A 
ENDBRANCH  27  48
BRANCH  39  56
ATOM     56  C   UNL A   1      44.284  28.796  34.515  1.00  0.00     0.057 A 
ATOM     57  C   UNL A   1      44.055  27.769  35.439  1.00  0.00     0.134 A 
ATOM     58  C   UNL A   1      45.606  29.203  34.300  1.00  0.00     0.134 A 
ATOM     59  F   UNL A   1      42.806  27.351  35.695  1.00  0.00    -0.206 F 
ATOM     60  C   UNL A   1      45.105  27.179  36.137  1.00  0.00     0.040 A 
ATOM     61  C   UNL A   1      46.667  28.597  34.969  1.00  0.00     0.040 A 
ATOM     62  F   UNL A   1      45.886  30.176  33.419  1.00  0.00    -0.206 F 
ATOM     63  C   UNL A   1      46.417  27.586  35.894  1.00  0.00     0.006 A 
ENDBRANCH  39  56
ENDBRANCH  13  14
ENDBRANCH   6   8
ENDBRANCH   5   6
ENDBRANCH   4   5
ENDBRANCH   3   4
ENDBRANCH   2   3
ENDBRANCH   1   2
BRANCH   1  64
ATOM     64  C   UNL A   1      32.972  28.316  25.635  1.00  0.00     0.261 C 
BRANCH  64  65
ATOM     65  O   UNL A   1      33.388  27.195  26.419  1.00  0.00    -0.463 OA
BRANCH  65  66
ATOM     66  C   UNL A   1      32.605  26.096  26.305  1.00  0.00     0.310 C 
ATOM     67  O   UNL A   1      31.432  26.012  26.665  1.00  0.00    -0.252 OA
BRANCH  66  68
ATOM     68  C   UNL A   1      33.367  24.936  25.732  1.00  0.00     0.115 C 
ATOM     69  C   UNL A   1      33.697  23.765  26.704  1.00  0.00     0.004 C 
ATOM     70  C   UNL A   1      32.562  24.434  24.527  1.00  0.00     0.096 C 
ATOM     71  C   UNL A   1      32.456  22.976  27.143  1.00  0.00     0.005 C 
ATOM     72  C   UNL A   1      34.608  22.800  25.931  1.00  0.00     0.005 C 
ATOM     73  C   UNL A   1      32.446  22.889  24.620  1.00  0.00     0.002 C 
ATOM     74  C   UNL A   1      31.646  22.570  25.911  1.00  0.00     0.005 C 
ATOM     75  C   UNL A   1      33.826  22.207  24.756  1.00  0.00     0.005 C 
BRANCH  70  76
ATOM     76  C   UNL A   1      33.222  24.955  23.253  1.00  0.00     0.228 C 
ATOM     77  O   UNL A   1      34.291  24.490  22.850  1.00  0.00    -0.274 OA
ATOM     78  N   UNL A   1      32.611  25.916  22.494  1.00  0.00    -0.326 N 
ATOM     79  H   UNL A   1      33.065  26.120  21.644  1.00  0.00     0.169 HD
BRANCH  78  80
ATOM     80  C   UNL A   1      31.445  26.655  22.730  1.00  0.00     0.041 A 
ATOM     81  C   UNL A   1      31.464  28.004  22.400  1.00  0.00     0.026 A 
ATOM     82  C   UNL A   1      30.301  26.122  23.320  1.00  0.00     0.026 A 
ATOM     83  C   UNL A   1      30.305  28.773  22.529  1.00  0.00     0.006 A 
ATOM     84  C   UNL A   1      29.147  26.896  23.485  1.00  0.00     0.006 A 
ATOM     85  C   UNL A   1      29.129  28.228  23.066  1.00  0.00    -0.043 A 
BRANCH  85  86
ATOM     86  C   UNL A   1      27.880  29.071  23.208  1.00  0.00     0.071 C 
BRANCH  86  87
ATOM     87  C   UNL A   1      28.021  30.485  22.696  1.00  0.00    -0.041 A 
ATOM     88  C   UNL A   1      27.902  30.775  21.333  1.00  0.00     0.024 A 
ATOM     89  C   UNL A   1      28.258  31.548  23.573  1.00  0.00     0.024 A 
ATOM     90  C   UNL A   1      28.049  32.086  20.907  1.00  0.00     0.111 A 
ATOM     91  C   UNL A   1      28.374  32.829  23.051  1.00  0.00     0.111 A 
ATOM     92  N   UNL A   1      28.278  33.122  21.737  1.00  0.00    -0.265 NA
ENDBRANCH  86  87
ENDBRANCH  85  86
ENDBRANCH  78  80
ENDBRANCH  70  76
ENDBRANCH  66  68
ENDBRANCH  65  66
ENDBRANCH  64  65
ENDBRANCH   1  64
TORSDOF 18
ENDMDL
MODEL 3
REMARK VINA RESULT:     -12.0      4.267      8.973
REMARK SMILES O=C(OCCOCCOC(=O)[C@H]1[C@H]2CC[C@H](CC2)[C@@H]1C(=O)Nc1ccc(Cc2ccncc2)cc1)c1ccc(-c2c3nc(c(-c4c(F)cccc4F)c4ccc([nH]4)c(-c4c(F)cccc4F)c4nc(c(-c5c(F)cccc5F)c5ccc2[nH]5)C=C4)C=C3)cc1
REMARK SMILES IDX 7 1 6 2 5 3 4 4 3 5 2 6 1 7 36 8 37 9 89 10 38 11 88 12
REMARK SMILES IDX 39 13 40 14 41 15 82 16 42 17 87 18 81 19 83 20 43 21 86 22
REMARK SMILES IDX 80 23 79 24 44 26 70 27 53 28 69 29 54 30 57 31 68 32 84 33
REMARK SMILES IDX 55 34 56 35 67 37 85 38 58 39 45 40 46 41 51 42 47 43 48 44
REMARK SMILES IDX 50 45 52 46 49 47 71 48 72 49 77 50 73 51 74 52 76 53 78 54
REMARK SMILES IDX 75 55 59 56 60 57 65 58 61 59 62 60 64 61 66 62 63 63 8 64
REMARK SMILES IDX 9 65 10 66 11 67 12 68 13 69 19 70 18 71 14 72 16 73 17 74
REMARK SMILES IDX 15 75 20 76 21 77 22 78 23 80 24 81 35 82 25 83 34 84 26 85
REMARK SMILES IDX 27 86 28 87 29 88 33 89 30 90 32 91 31 92
REMARK H PARENT 83 25 57 36 22 79
REMARK Flexibility Score: inf
ROOT
ATOM      1  C   UNL A   1      32.043  29.340  26.669  1.00  0.00     0.202 C 
ENDROOT
BRANCH   1   2
ATOM      2  O   UNL A   1      31.496  30.413  25.908  1.00  0.00    -0.374 OA
BRANCH   2   3
ATOM      3  C   UNL A   1      31.335  31.698  26.509  1.00  0.00     0.202 C 
BRANCH   3   4
ATOM      4  C   UNL A   1      32.613  32.464  26.863  1.00  0.00     0.261 C 
BRANCH   4   5
ATOM      5  O   UNL A   1      32.336  33.647  27.626  1.00  0.00    -0.460 OA
BRANCH   5   6
ATOM      6  C   UNL A   1      33.177  34.235  28.513  1.00  0.00     0.338 C 
ATOM      7  O   UNL A   1      32.939  35.377  28.899  1.00  0.00    -0.246 OA
BRANCH   6   8
ATOM      8  C   UNL A   1      34.406  33.560  29.030  1.00  0.00     0.060 A 
ATOM      9  C   UNL A   1      34.402  32.342  29.702  1.00  0.00     0.016 A 
ATOM     10  C   UNL A   1      35.649  34.140  28.752  1.00  0.00     0.016 A 
ATOM     11  C   UNL A   1      35.540  31.696  30.095  1.00  0.00     0.010 A 
ATOM     12  C   UNL A   1      36.830  33.499  29.145  1.00  0.00     0.010 A 
ATOM     13  C   UNL A   1      36.760  32.270  29.810  1.00  0.00    -0.014 A 
BRANCH  13  14
ATOM     14  C   UNL A   1      37.893  31.580  30.418  1.00  0.00     0.031 A 
ATOM     15  C   UNL A   1      38.103  31.784  31.879  1.00  0.00     0.074 A 
ATOM     16  C   UNL A   1      38.500  30.604  29.722  1.00  0.00     0.049 A 
ATOM     17  N   UNL A   1      39.045  31.320  32.646  1.00  0.00    -0.248 NA
ATOM     18  C   UNL A   1      37.096  32.606  32.578  1.00  0.00     0.031 C 
ATOM     19  C   UNL A   1      38.149  30.196  28.354  1.00  0.00     0.029 A 
ATOM     20  N   UNL A   1      39.493  29.743  30.080  1.00  0.00    -0.354 N 
ATOM     21  C   UNL A   1      38.783  31.843  33.903  1.00  0.00     0.074 A 
ATOM     22  C   UNL A   1      37.583  32.638  33.808  1.00  0.00     0.031 C 
ATOM     23  C   UNL A   1      38.919  29.159  27.995  1.00  0.00     0.029 A 
ATOM     24  C   UNL A   1      39.870  28.899  29.064  1.00  0.00     0.049 A 
ATOM     25  H   UNL A   1      39.900  29.726  30.976  1.00  0.00     0.167 HD
ATOM     26  C   UNL A   1      39.520  31.679  35.022  1.00  0.00     0.037 A 
ATOM     27  C   UNL A   1      40.920  28.062  29.006  1.00  0.00     0.037 A 
ATOM     28  C   UNL A   1      40.704  30.868  35.046  1.00  0.00     0.049 A 
ATOM     29  C   UNL A   1      41.803  28.000  30.221  1.00  0.00     0.074 A 
ATOM     30  C   UNL A   1      41.608  30.678  36.070  1.00  0.00     0.029 A 
ATOM     31  N   UNL A   1      41.143  30.104  33.967  1.00  0.00    -0.354 N 
ATOM     32  N   UNL A   1      41.650  28.596  31.382  1.00  0.00    -0.248 NA
ATOM     33  C   UNL A   1      43.013  27.181  30.117  1.00  0.00     0.031 C 
ATOM     34  C   UNL A   1      42.623  29.840  35.592  1.00  0.00     0.029 A 
ATOM     35  C   UNL A   1      42.319  29.458  34.292  1.00  0.00     0.049 A 
ATOM     36  H   UNL A   1      40.682  30.034  33.100  1.00  0.00     0.167 HD
ATOM     37  C   UNL A   1      42.733  28.213  32.156  1.00  0.00     0.074 A 
ATOM     38  C   UNL A   1      43.525  27.316  31.333  1.00  0.00     0.031 C 
ATOM     39  C   UNL A   1      43.056  28.568  33.426  1.00  0.00     0.037 A 
BRANCH  26  40
ATOM     40  C   UNL A   1      39.119  32.488  36.218  1.00  0.00     0.057 A 
ATOM     41  C   UNL A   1      39.629  33.767  36.474  1.00  0.00     0.134 A 
ATOM     42  C   UNL A   1      38.266  31.930  37.179  1.00  0.00     0.134 A 
ATOM     43  F   UNL A   1      40.487  34.342  35.617  1.00  0.00    -0.206 F 
ATOM     44  C   UNL A   1      39.327  34.450  37.655  1.00  0.00     0.040 A 
ATOM     45  C   UNL A   1      37.937  32.613  38.350  1.00  0.00     0.040 A 
ATOM     46  F   UNL A   1      37.758  30.700  37.008  1.00  0.00    -0.206 F 
ATOM     47  C   UNL A   1      38.476  33.873  38.596  1.00  0.00     0.006 A 
ENDBRANCH  26  40
BRANCH  27  48
ATOM     48  C   UNL A   1      41.233  27.326  27.755  1.00  0.00     0.057 A 
ATOM     49  C   UNL A   1      40.819  26.006  27.556  1.00  0.00     0.134 A 
ATOM     50  C   UNL A   1      41.970  27.927  26.723  1.00  0.00     0.134 A 
ATOM     51  F   UNL A   1      40.123  25.366  28.507  1.00  0.00    -0.206 F 
ATOM     52  C   UNL A   1      41.140  25.305  26.390  1.00  0.00     0.040 A 
ATOM     53  C   UNL A   1      42.273  27.249  25.541  1.00  0.00     0.040 A 
ATOM     54  F   UNL A   1      42.400  29.192  26.842  1.00  0.00    -0.206 F 
ATOM     55  C   UNL A   1      41.866  25.928  25.376  1.00  0.00     0.006 A 
ENDBRANCH  27  48
BRANCH  39  56
ATOM     56  C   UNL A   1      44.292  27.946  33.996  1.00  0.00     0.057 A 
ATOM     57  C   UNL A   1      44.266  26.701  34.635  1.00  0.00     0.134 A 
ATOM     58  C   UNL A   1      45.530  28.584  33.850  1.00  0.00     0.134 A 
ATOM     59  F   UNL A   1      43.106  26.053  34.817  1.00  0.00    -0.206 F 
ATOM     60  C   UNL A   1      45.432  26.119  35.128  1.00  0.00     0.040 A 
ATOM     61  C   UNL A   1      46.706  27.995  34.309  1.00  0.00     0.040 A 
ATOM     62  F   UNL A   1      45.616  29.774  33.236  1.00  0.00    -0.206 F 
ATOM     63  C   UNL A   1      46.657  26.762  34.955  1.00  0.00     0.006 A 
ENDBRANCH  39  56
ENDBRANCH  13  14
ENDBRANCH   6   8
ENDBRANCH   5   6
ENDBRANCH   4   5
ENDBRANCH   3   4
ENDBRANCH   2   3
ENDBRANCH   1   2
BRANCH   1  64
ATOM     64  C   UNL A   1      32.640  28.320  25.700  1.00  0.00     0.261 C 
BRANCH  64  65
ATOM     65  O   UNL A   1      33.088  27.204  26.473  1.00  0.00    -0.463 OA
BRANCH  65  66
ATOM     66  C   UNL A   1      32.335  26.086  26.351  1.00  0.00     0.310 C 
ATOM     67  O   UNL A   1      31.154  25.979  26.676  1.00  0.00    -0.252 OA
BRANCH  66  68
ATOM     68  C   UNL A   1      33.141  24.936  25.820  1.00  0.00     0.115 C 
ATOM     69  C   UNL A   1      33.443  23.774  26.812  1.00  0.00     0.004 C 
ATOM     70  C   UNL A   1      32.402  24.417  24.581  1.00  0.00     0.096 C 
ATOM     71  C   UNL A   1      32.196  22.967  27.195  1.00  0.00     0.005 C 
ATOM     72  C   UNL A   1      34.406  22.821  26.086  1.00  0.00     0.005 C 
ATOM     73  C   UNL A   1      32.307  22.870  24.674  1.00  0.00     0.002 C 
ATOM     74  C   UNL A   1      31.451  22.543  25.928  1.00  0.00     0.005 C 
ATOM     75  C   UNL A   1      33.689  22.211  24.879  1.00  0.00     0.005 C 
BRANCH  70  76
ATOM     76  C   UNL A   1      33.113  24.944  23.336  1.00  0.00     0.228 C 
ATOM     77  O   UNL A   1      34.192  24.472  22.969  1.00  0.00    -0.274 OA
ATOM     78  N   UNL A   1      32.539  25.917  22.565  1.00  0.00    -0.326 N 
ATOM     79  H   UNL A   1      33.026  26.124  21.734  1.00  0.00     0.169 HD
BRANCH  78  80
ATOM     80  C   UNL A   1      31.371  26.664  22.764  1.00  0.00     0.041 A 
ATOM     81  C   UNL A   1      31.390  27.997  22.377  1.00  0.00     0.026 A 
ATOM     82  C   UNL A   1      30.225  26.155  23.372  1.00  0.00     0.026 A 
ATOM     83  C   UNL A   1      30.230  28.769  22.468  1.00  0.00     0.006 A 
ATOM     84  C   UNL A   1      29.070  26.934  23.501  1.00  0.00     0.006 A 
ATOM     85  C   UNL A   1      29.053  28.247  23.024  1.00  0.00    -0.043 A 
BRANCH  85  86
ATOM     86  C   UNL A   1      27.802  29.094  23.126  1.00  0.00     0.071 C 
BRANCH  86  87
ATOM     87  C   UNL A   1      27.973  30.517  22.649  1.00  0.00    -0.041 A 
ATOM     88  C   UNL A   1      28.266  31.549  23.547  1.00  0.00     0.024 A 
ATOM     89  C   UNL A   1      27.858  30.841  21.294  1.00  0.00     0.024 A 
ATOM     90  C   UNL A   1      28.404  32.842  23.066  1.00  0.00     0.111 A 
ATOM     91  C   UNL A   1      28.028  32.164  20.909  1.00  0.00     0.111 A 
ATOM     92  N   UNL A   1      28.296  33.172  21.765  1.00  0.00    -0.265 NA
ENDBRANCH  86  87
ENDBRANCH  85  86
ENDBRANCH  78  80
ENDBRANCH  70  76
ENDBRANCH  66  68
ENDBRANCH  65  66
ENDBRANCH  64  65
ENDBRANCH   1  64
TORSDOF 18
ENDMDL
