MODEL 1
REMARK VINA RESULT:     -10.6      0.000      0.000
REMARK SMILES CN(CC(N)=O)c1ccc(S(N)(=O)=O)cc1C(=O)OCCOCCOC(=O)c1ccc(-c2c3nc(c(-c4c(F)cccc4F)c4ccc([nH]4)c(-c4c(F)cccc4F)c4nc(c(-c5c(F)cccc5F)c5ccc2[nH]5)C=C4)C=C3)cc1
REMARK SMILES IDX 21 1 20 2 19 3 17 4 18 5 16 6 7 7 8 8 9 9 15 10 10 11 2 12
REMARK SMILES IDX 1 13 3 14 4 15 5 16 6 17 11 20 13 21 14 22 12 23 22 26 23 27
REMARK SMILES IDX 24 28 25 29 26 30 27 31 28 32 29 33 81 34 30 35 80 36 31 37
REMARK SMILES IDX 32 38 33 39 74 40 34 41 79 42 73 43 75 44 35 45 78 46 72 47
REMARK SMILES IDX 71 48 36 50 62 51 45 52 61 53 46 54 49 55 60 56 76 57 47 58
REMARK SMILES IDX 48 59 59 61 77 62 50 63 37 64 38 65 43 66 39 67 40 68 42 69
REMARK SMILES IDX 44 70 41 71 63 72 64 73 69 74 65 75 66 76 68 77 70 78 67 79
REMARK SMILES IDX 51 80 52 81 57 82 53 83 54 84 56 85 58 86 55 87
REMARK H PARENT 5 18 5 19 12 24 12 25 75 49 49 60
REMARK Flexibility Score: inf
ROOT
ATOM      1  C   UNL A   1      31.929  29.411  26.642  1.00  0.00     0.202 C 
ENDROOT
BRANCH   1   2
ATOM      2  C   UNL A   1      32.942  28.723  25.723  1.00  0.00     0.261 C 
BRANCH   2   3
ATOM      3  O   UNL A   1      33.129  29.449  24.497  1.00  0.00    -0.460 OA
BRANCH   3   4
ATOM      4  C   UNL A   1      32.798  28.764  23.375  1.00  0.00     0.340 C 
ATOM      5  O   UNL A   1      33.577  28.288  22.562  1.00  0.00    -0.246 OA
BRANCH   4   6
ATOM      6  C   UNL A   1      31.345  28.487  23.307  1.00  0.00     0.084 A 
ATOM      7  C   UNL A   1      30.763  27.213  23.487  1.00  0.00     0.052 A 
ATOM      8  C   UNL A   1      29.351  27.162  23.473  1.00  0.00     0.028 A 
ATOM      9  C   UNL A   1      28.557  28.290  23.238  1.00  0.00     0.024 A 
ATOM     10  C   UNL A   1      30.552  29.625  23.047  1.00  0.00     0.039 A 
ATOM     11  C   UNL A   1      29.165  29.515  23.003  1.00  0.00     0.083 A 
BRANCH   7  12
ATOM     12  N   UNL A   1      31.496  26.048  23.685  1.00  0.00    -0.365 N 
ATOM     13  C   UNL A   1      31.781  25.631  25.056  1.00  0.00     0.144 C 
BRANCH  12  14
ATOM     14  C   UNL A   1      31.554  25.009  22.640  1.00  0.00     0.215 C 
BRANCH  14  15
ATOM     15  C   UNL A   1      32.491  25.359  21.476  1.00  0.00     0.236 C 
ATOM     16  N   UNL A   1      31.881  25.814  20.336  1.00  0.00    -0.368 N 
ATOM     17  O   UNL A   1      33.714  25.247  21.513  1.00  0.00    -0.273 OA
ATOM     18  H   UNL A   1      30.901  25.904  20.305  1.00  0.00     0.159 HD
ATOM     19  H   UNL A   1      32.423  26.051  19.549  1.00  0.00     0.159 HD
ENDBRANCH  14  15
ENDBRANCH  12  14
ENDBRANCH   7  12
BRANCH  11  20
ATOM     20  S   UNL A   1      28.178  30.931  22.633  1.00  0.00     0.238 S 
ATOM     21  O   UNL A   1      27.044  30.948  23.532  1.00  0.00    -0.207 OA
ATOM     22  O   UNL A   1      29.038  32.066  22.423  1.00  0.00    -0.207 OA
BRANCH  20  23
ATOM     23  N   UNL A   1      27.558  30.569  21.110  1.00  0.00    -0.225 NA
ATOM     24  H   UNL A   1      26.595  30.247  21.202  1.00  0.00     0.137 HD
ATOM     25  H   UNL A   1      28.122  29.835  20.679  1.00  0.00     0.137 HD
ENDBRANCH  20  23
ENDBRANCH  11  20
ENDBRANCH   4   6
ENDBRANCH   3   4
ENDBRANCH   2   3
ENDBRANCH   1   2
BRANCH   1  26
ATOM     26  O   UNL A   1      32.341  30.620  27.277  1.00  0.00    -0.374 OA
BRANCH  26  27
ATOM     27  C   UNL A   1      31.682  31.829  26.910  1.00  0.00     0.202 C 
BRANCH  27  28
ATOM     28  C   UNL A   1      32.517  33.117  26.893  1.00  0.00     0.261 C 
BRANCH  28  29
ATOM     29  O   UNL A   1      32.178  34.057  27.930  1.00  0.00    -0.460 OA
BRANCH  29  30
ATOM     30  C   UNL A   1      33.240  34.719  28.450  1.00  0.00     0.338 C 
ATOM     31  O   UNL A   1      33.294  35.892  28.781  1.00  0.00    -0.246 OA
BRANCH  30  32
ATOM     32  C   UNL A   1      34.366  33.800  28.700  1.00  0.00     0.060 A 
ATOM     33  C   UNL A   1      34.105  32.639  29.437  1.00  0.00     0.016 A 
ATOM     34  C   UNL A   1      35.676  34.162  28.382  1.00  0.00     0.016 A 
ATOM     35  C   UNL A   1      35.162  31.868  29.918  1.00  0.00     0.010 A 
ATOM     36  C   UNL A   1      36.737  33.388  28.870  1.00  0.00     0.010 A 
ATOM     37  C   UNL A   1      36.485  32.265  29.681  1.00  0.00    -0.014 A 
BRANCH  37  38
ATOM     38  C   UNL A   1      37.579  31.611  30.442  1.00  0.00     0.031 A 
ATOM     39  C   UNL A   1      38.438  30.584  29.751  1.00  0.00     0.074 A 
ATOM     40  C   UNL A   1      37.857  31.978  31.706  1.00  0.00     0.049 A 
ATOM     41  N   UNL A   1      39.462  29.909  30.212  1.00  0.00    -0.248 NA
ATOM     42  C   UNL A   1      38.100  30.278  28.352  1.00  0.00     0.031 C 
ATOM     43  C   UNL A   1      37.131  32.989  32.472  1.00  0.00     0.029 A 
ATOM     44  N   UNL A   1      38.835  31.542  32.564  1.00  0.00    -0.354 N 
ATOM     45  C   UNL A   1      39.894  29.113  29.159  1.00  0.00     0.074 A 
ATOM     46  C   UNL A   1      38.996  29.351  28.050  1.00  0.00     0.031 C 
ATOM     47  C   UNL A   1      37.692  33.097  33.689  1.00  0.00     0.029 A 
ATOM     48  C   UNL A   1      38.802  32.153  33.793  1.00  0.00     0.049 A 
ATOM     49  H   UNL A   1      39.500  30.858  32.320  1.00  0.00     0.167 HD
ATOM     50  C   UNL A   1      40.955  28.271  29.110  1.00  0.00     0.037 A 
ATOM     51  C   UNL A   1      39.577  31.964  34.879  1.00  0.00     0.037 A 
ATOM     52  C   UNL A   1      41.849  28.023  30.211  1.00  0.00     0.049 A 
ATOM     53  C   UNL A   1      40.708  30.971  34.819  1.00  0.00     0.074 A 
ATOM     54  C   UNL A   1      42.933  27.163  30.269  1.00  0.00     0.029 A 
ATOM     55  N   UNL A   1      41.764  28.642  31.448  1.00  0.00    -0.354 N 
ATOM     56  N   UNL A   1      41.106  30.225  33.817  1.00  0.00    -0.248 NA
ATOM     57  C   UNL A   1      41.506  30.804  36.043  1.00  0.00     0.031 C 
ATOM     58  C   UNL A   1      43.488  27.243  31.551  1.00  0.00     0.029 A 
ATOM     59  C   UNL A   1      42.774  28.182  32.277  1.00  0.00     0.049 A 
ATOM     60  H   UNL A   1      41.087  29.310  31.700  1.00  0.00     0.167 HD
ATOM     61  C   UNL A   1      42.221  29.534  34.277  1.00  0.00     0.074 A 
ATOM     62  C   UNL A   1      42.441  29.957  35.644  1.00  0.00     0.031 C 
ATOM     63  C   UNL A   1      42.995  28.631  33.626  1.00  0.00     0.037 A 
BRANCH  50  64
ATOM     64  C   UNL A   1      41.200  27.547  27.818  1.00  0.00     0.057 A 
ATOM     65  C   UNL A   1      42.000  28.101  26.809  1.00  0.00     0.134 A 
ATOM     66  C   UNL A   1      40.660  26.277  27.590  1.00  0.00     0.134 A 
ATOM     67  F   UNL A   1      42.535  29.323  26.959  1.00  0.00    -0.206 F 
ATOM     68  C   UNL A   1      42.237  27.424  25.612  1.00  0.00     0.040 A 
ATOM     69  C   UNL A   1      40.909  25.579  26.407  1.00  0.00     0.040 A 
ATOM     70  F   UNL A   1      39.888  25.689  28.517  1.00  0.00    -0.206 F 
ATOM     71  C   UNL A   1      41.696  26.156  25.412  1.00  0.00     0.006 A 
ENDBRANCH  50  64
BRANCH  51  72
ATOM     72  C   UNL A   1      39.323  32.730  36.124  1.00  0.00     0.057 A 
ATOM     73  C   UNL A   1      38.496  32.222  37.133  1.00  0.00     0.134 A 
ATOM     74  C   UNL A   1      39.856  34.011  36.311  1.00  0.00     0.134 A 
ATOM     75  F   UNL A   1      37.936  31.011  37.001  1.00  0.00    -0.206 F 
ATOM     76  C   UNL A   1      38.186  32.971  38.270  1.00  0.00     0.040 A 
ATOM     77  C   UNL A   1      39.575  34.761  37.454  1.00  0.00     0.040 A 
ATOM     78  F   UNL A   1      40.655  34.554  35.380  1.00  0.00    -0.206 F 
ATOM     79  C   UNL A   1      38.728  34.244  38.433  1.00  0.00     0.006 A 
ENDBRANCH  51  72
BRANCH  63  80
ATOM     80  C   UNL A   1      44.184  28.090  34.366  1.00  0.00     0.057 A 
ATOM     81  C   UNL A   1      44.116  26.918  35.129  1.00  0.00     0.134 A 
ATOM     82  C   UNL A   1      45.419  28.748  34.301  1.00  0.00     0.134 A 
ATOM     83  F   UNL A   1      42.960  26.246  35.241  1.00  0.00    -0.206 F 
ATOM     84  C   UNL A   1      45.225  26.438  35.829  1.00  0.00     0.040 A 
ATOM     85  C   UNL A   1      46.541  28.265  34.975  1.00  0.00     0.040 A 
ATOM     86  F   UNL A   1      45.556  29.871  33.580  1.00  0.00    -0.206 F 
ATOM     87  C   UNL A   1      46.442  27.111  35.751  1.00  0.00     0.006 A 
ENDBRANCH  63  80
ENDBRANCH  37  38
ENDBRANCH  30  32
ENDBRANCH  29  30
ENDBRANCH  28  29
ENDBRANCH  27  28
ENDBRANCH  26  27
ENDBRANCH   1  26
TORSDOF 19
ENDMDL
MODEL 2
REMARK VINA RESULT:     -10.4      4.560      6.846
REMARK SMILES CN(CC(N)=O)c1ccc(S(N)(=O)=O)cc1C(=O)OCCOCCOC(=O)c1ccc(-c2c3nc(c(-c4c(F)cccc4F)c4ccc([nH]4)c(-c4c(F)cccc4F)c4nc(c(-c5c(F)cccc5F)c5ccc2[nH]5)C=C4)C=C3)cc1
REMARK SMILES IDX 21 1 20 2 19 3 17 4 18 5 16 6 7 7 8 8 9 9 15 10 10 11 2 12
REMARK SMILES IDX 1 13 3 14 4 15 5 16 6 17 11 20 13 21 14 22 12 23 22 26 23 27
REMARK SMILES IDX 24 28 25 29 26 30 27 31 28 32 29 33 81 34 30 35 80 36 31 37
REMARK SMILES IDX 32 38 33 39 74 40 34 41 79 42 73 43 75 44 35 45 78 46 72 47
REMARK SMILES IDX 71 48 36 50 62 51 45 52 61 53 46 54 49 55 60 56 76 57 47 58
REMARK SMILES IDX 48 59 59 61 77 62 50 63 37 64 38 65 43 66 39 67 40 68 42 69
REMARK SMILES IDX 44 70 41 71 63 72 64 73 69 74 65 75 66 76 68 77 70 78 67 79
REMARK SMILES IDX 51 80 52 81 57 82 53 83 54 84 56 85 58 86 55 87
REMARK H PARENT 5 18 5 19 12 24 12 25 75 49 49 60
REMARK Flexibility Score: inf
ROOT
ATOM      1  C   UNL A   1      32.933  30.134  26.408  1.00  0.00     0.202 C 
ENDROOT
BRANCH   1   2
ATOM      2  C   UNL A   1      33.650  28.782  26.443  1.00  0.00     0.261 C 
BRANCH   2   3
ATOM      3  O   UNL A   1      32.772  27.704  26.083  1.00  0.00    -0.460 OA
BRANCH   3   4
ATOM      4  C   UNL A   1      32.682  27.464  24.752  1.00  0.00     0.340 C 
ATOM      5  O   UNL A   1      33.614  27.256  23.989  1.00  0.00    -0.246 OA
BRANCH   4   6
ATOM      6  C   UNL A   1      31.276  27.304  24.315  1.00  0.00     0.084 A 
ATOM      7  C   UNL A   1      30.542  26.099  24.403  1.00  0.00     0.052 A 
ATOM      8  C   UNL A   1      29.185  26.164  24.018  1.00  0.00     0.028 A 
ATOM      9  C   UNL A   1      28.595  27.331  23.520  1.00  0.00     0.024 A 
ATOM     10  C   UNL A   1      30.694  28.479  23.794  1.00  0.00     0.039 A 
ATOM     11  C   UNL A   1      29.363  28.480  23.390  1.00  0.00     0.083 A 
BRANCH   7  12
ATOM     12  N   UNL A   1      31.079  24.897  24.850  1.00  0.00    -0.365 N 
ATOM     13  C   UNL A   1      31.775  24.046  23.888  1.00  0.00     0.144 C 
BRANCH  12  14
ATOM     14  C   UNL A   1      31.400  24.701  26.277  1.00  0.00     0.215 C 
BRANCH  14  15
ATOM     15  C   UNL A   1      30.786  23.428  26.876  1.00  0.00     0.236 C 
ATOM     16  N   UNL A   1      31.588  22.316  26.861  1.00  0.00    -0.368 N 
ATOM     17  O   UNL A   1      29.652  23.359  27.341  1.00  0.00    -0.273 OA
ATOM     18  H   UNL A   1      32.497  22.371  26.488  1.00  0.00     0.159 HD
ATOM     19  H   UNL A   1      31.254  21.464  27.224  1.00  0.00     0.159 HD
ENDBRANCH  14  15
ENDBRANCH  12  14
ENDBRANCH   7  12
BRANCH  11  20
ATOM     20  S   UNL A   1      28.652  29.939  22.696  1.00  0.00     0.238 S 
ATOM     21  O   UNL A   1      29.065  30.039  21.313  1.00  0.00    -0.207 OA
ATOM     22  O   UNL A   1      27.281  30.047  23.121  1.00  0.00    -0.207 OA
BRANCH  20  23
ATOM     23  N   UNL A   1      29.456  31.173  23.511  1.00  0.00    -0.225 NA
ATOM     24  H   UNL A   1      30.335  31.379  23.035  1.00  0.00     0.137 HD
ATOM     25  H   UNL A   1      29.649  30.879  24.469  1.00  0.00     0.137 HD
ENDBRANCH  20  23
ENDBRANCH  11  20
ENDBRANCH   4   6
ENDBRANCH   3   4
ENDBRANCH   2   3
ENDBRANCH   1   2
BRANCH   1  26
ATOM     26  O   UNL A   1      33.107  30.994  27.532  1.00  0.00    -0.374 OA
BRANCH  26  27
ATOM     27  C   UNL A   1      34.358  31.661  27.680  1.00  0.00     0.202 C 
BRANCH  27  28
ATOM     28  C   UNL A   1      34.763  32.107  29.092  1.00  0.00     0.261 C 
BRANCH  28  29
ATOM     29  O   UNL A   1      36.167  31.963  29.380  1.00  0.00    -0.460 OA
BRANCH  29  30
ATOM     30  C   UNL A   1      36.449  31.026  30.318  1.00  0.00     0.338 C 
ATOM     31  O   UNL A   1      35.842  30.805  31.352  1.00  0.00    -0.246 OA
BRANCH  30  32
ATOM     32  C   UNL A   1      37.568  30.167  29.888  1.00  0.00     0.060 A 
ATOM     33  C   UNL A   1      38.377  29.609  30.885  1.00  0.00     0.016 A 
ATOM     34  C   UNL A   1      37.925  30.066  28.543  1.00  0.00     0.016 A 
ATOM     35  C   UNL A   1      39.585  29.004  30.543  1.00  0.00     0.010 A 
ATOM     36  C   UNL A   1      39.142  29.462  28.201  1.00  0.00     0.010 A 
ATOM     37  C   UNL A   1      39.999  28.972  29.205  1.00  0.00    -0.014 A 
BRANCH  37  38
ATOM     38  C   UNL A   1      41.403  28.600  28.895  1.00  0.00     0.031 A 
ATOM     39  C   UNL A   1      41.711  27.183  28.488  1.00  0.00     0.074 A 
ATOM     40  C   UNL A   1      42.380  29.525  28.901  1.00  0.00     0.049 A 
ATOM     41  N   UNL A   1      42.856  26.645  28.148  1.00  0.00    -0.248 NA
ATOM     42  C   UNL A   1      40.577  26.246  28.457  1.00  0.00     0.031 C 
ATOM     43  C   UNL A   1      42.207  30.937  29.234  1.00  0.00     0.029 A 
ATOM     44  N   UNL A   1      43.716  29.408  28.608  1.00  0.00    -0.354 N 
ATOM     45  C   UNL A   1      42.577  25.316  27.852  1.00  0.00     0.074 A 
ATOM     46  C   UNL A   1      41.165  25.116  28.096  1.00  0.00     0.031 C 
ATOM     47  C   UNL A   1      43.393  31.559  29.124  1.00  0.00     0.029 A 
ATOM     48  C   UNL A   1      44.411  30.586  28.732  1.00  0.00     0.049 A 
ATOM     49  H   UNL A   1      44.136  28.562  28.333  1.00  0.00     0.167 HD
ATOM     50  C   UNL A   1      43.414  24.352  27.400  1.00  0.00     0.037 A 
ATOM     51  C   UNL A   1      45.721  30.845  28.555  1.00  0.00     0.037 A 
ATOM     52  C   UNL A   1      44.821  24.541  27.161  1.00  0.00     0.049 A 
ATOM     53  C   UNL A   1      46.643  29.736  28.117  1.00  0.00     0.074 A 
ATOM     54  C   UNL A   1      45.758  23.617  26.732  1.00  0.00     0.029 A 
ATOM     55  N   UNL A   1      45.491  25.744  27.324  1.00  0.00    -0.354 N 
ATOM     56  N   UNL A   1      46.366  28.486  27.840  1.00  0.00    -0.248 NA
ATOM     57  C   UNL A   1      48.063  30.085  27.956  1.00  0.00     0.031 C 
ATOM     58  C   UNL A   1      47.003  24.254  26.663  1.00  0.00     0.029 A 
ATOM     59  C   UNL A   1      46.831  25.584  27.008  1.00  0.00     0.049 A 
ATOM     60  H   UNL A   1      45.078  26.585  27.621  1.00  0.00     0.167 HD
ATOM     61  C   UNL A   1      47.564  27.911  27.435  1.00  0.00     0.074 A 
ATOM     62  C   UNL A   1      48.569  28.952  27.492  1.00  0.00     0.031 C 
ATOM     63  C   UNL A   1      47.812  26.636  27.047  1.00  0.00     0.037 A 
BRANCH  50  64
ATOM     64  C   UNL A   1      42.826  22.996  27.140  1.00  0.00     0.057 A 
ATOM     65  C   UNL A   1      42.572  22.544  25.837  1.00  0.00     0.134 A 
ATOM     66  C   UNL A   1      42.536  22.122  28.195  1.00  0.00     0.134 A 
ATOM     67  F   UNL A   1      42.813  23.339  24.784  1.00  0.00    -0.206 F 
ATOM     68  C   UNL A   1      42.035  21.279  25.596  1.00  0.00     0.040 A 
ATOM     69  C   UNL A   1      42.021  20.846  27.965  1.00  0.00     0.040 A 
ATOM     70  F   UNL A   1      42.758  22.492  29.466  1.00  0.00    -0.206 F 
ATOM     71  C   UNL A   1      41.764  20.423  26.661  1.00  0.00     0.006 A 
ENDBRANCH  50  64
BRANCH  51  72
ATOM     72  C   UNL A   1      46.254  32.210  28.785  1.00  0.00     0.057 A 
ATOM     73  C   UNL A   1      46.263  33.168  27.764  1.00  0.00     0.134 A 
ATOM     74  C   UNL A   1      46.817  32.573  30.014  1.00  0.00     0.134 A 
ATOM     75  F   UNL A   1      45.760  32.871  26.557  1.00  0.00    -0.206 F 
ATOM     76  C   UNL A   1      46.838  34.427  27.947  1.00  0.00     0.040 A 
ATOM     77  C   UNL A   1      47.372  33.837  30.220  1.00  0.00     0.040 A 
ATOM     78  F   UNL A   1      46.840  31.700  31.032  1.00  0.00    -0.206 F 
ATOM     79  C   UNL A   1      47.393  34.764  29.179  1.00  0.00     0.006 A 
ENDBRANCH  51  72
BRANCH  63  80
ATOM     80  C   UNL A   1      49.209  26.316  26.598  1.00  0.00     0.057 A 
ATOM     81  C   UNL A   1      50.145  25.715  27.449  1.00  0.00     0.134 A 
ATOM     82  C   UNL A   1      49.617  26.605  25.289  1.00  0.00     0.134 A 
ATOM     83  F   UNL A   1      49.822  25.424  28.719  1.00  0.00    -0.206 F 
ATOM     84  C   UNL A   1      51.447  25.444  27.024  1.00  0.00     0.040 A 
ATOM     85  C   UNL A   1      50.907  26.314  24.845  1.00  0.00     0.040 A 
ATOM     86  F   UNL A   1      48.766  27.171  24.420  1.00  0.00    -0.206 F 
ATOM     87  C   UNL A   1      51.830  25.741  25.718  1.00  0.00     0.006 A 
ENDBRANCH  63  80
ENDBRANCH  37  38
ENDBRANCH  30  32
ENDBRANCH  29  30
ENDBRANCH  28  29
ENDBRANCH  27  28
ENDBRANCH  26  27
ENDBRANCH   1  26
TORSDOF 19
ENDMDL
MODEL 3
REMARK VINA RESULT:     -10.3      1.952      6.774
REMARK SMILES CN(CC(N)=O)c1ccc(S(N)(=O)=O)cc1C(=O)OCCOCCOC(=O)c1ccc(-c2c3nc(c(-c4c(F)cccc4F)c4ccc([nH]4)c(-c4c(F)cccc4F)c4nc(c(-c5c(F)cccc5F)c5ccc2[nH]5)C=C4)C=C3)cc1
REMARK SMILES IDX 21 1 20 2 19 3 17 4 18 5 16 6 7 7 8 8 9 9 15 10 10 11 2 12
REMARK SMILES IDX 1 13 3 14 4 15 5 16 6 17 11 20 13 21 14 22 12 23 22 26 23 27
REMARK SMILES IDX 24 28 25 29 26 30 27 31 28 32 29 33 81 34 30 35 80 36 31 37
REMARK SMILES IDX 32 38 33 39 74 40 34 41 79 42 73 43 75 44 35 45 78 46 72 47
REMARK SMILES IDX 71 48 36 50 62 51 45 52 61 53 46 54 49 55 60 56 76 57 47 58
REMARK SMILES IDX 48 59 59 61 77 62 50 63 37 64 38 65 43 66 39 67 40 68 42 69
REMARK SMILES IDX 44 70 41 71 63 72 64 73 69 74 65 75 66 76 68 77 70 78 67 79
REMARK SMILES IDX 51 80 52 81 57 82 53 83 54 84 56 85 58 86 55 87
REMARK H PARENT 5 18 5 19 12 24 12 25 75 49 49 60
REMARK Flexibility Score: inf
ROOT
ATOM      1  C   UNL A   1      33.365  30.235  26.467  1.00  0.00     0.202 C 
ENDROOT
BRANCH   1   2
ATOM      2  C   UNL A   1      33.795  28.767  26.395  1.00  0.00     0.261 C 
BRANCH   2   3
ATOM      3  O   UNL A   1      32.761  27.936  25.842  1.00  0.00    -0.460 OA
BRANCH   3   4
ATOM      4  C   UNL A   1      33.127  27.228  24.746  1.00  0.00     0.340 C 
ATOM      5  O   UNL A   1      34.128  27.411  24.066  1.00  0.00    -0.246 OA
BRANCH   4   6
ATOM      6  C   UNL A   1      32.254  26.052  24.532  1.00  0.00     0.084 A 
ATOM      7  C   UNL A   1      31.458  25.843  23.383  1.00  0.00     0.052 A 
ATOM      8  C   UNL A   1      30.759  24.618  23.321  1.00  0.00     0.028 A 
ATOM      9  C   UNL A   1      30.792  23.675  24.354  1.00  0.00     0.024 A 
ATOM     10  C   UNL A   1      32.275  25.116  25.587  1.00  0.00     0.039 A 
ATOM     11  C   UNL A   1      31.535  23.941  25.495  1.00  0.00     0.083 A 
BRANCH   7  12
ATOM     12  N   UNL A   1      31.350  26.757  22.340  1.00  0.00    -0.365 N 
ATOM     13  C   UNL A   1      32.002  26.443  21.071  1.00  0.00     0.144 C 
BRANCH  12  14
ATOM     14  C   UNL A   1      30.241  27.730  22.304  1.00  0.00     0.215 C 
BRANCH  14  15
ATOM     15  C   UNL A   1      30.661  29.155  22.690  1.00  0.00     0.236 C 
ATOM     16  N   UNL A   1      31.031  29.968  21.651  1.00  0.00    -0.368 N 
ATOM     17  O   UNL A   1      30.689  29.581  23.841  1.00  0.00    -0.273 OA
ATOM     18  H   UNL A   1      31.010  29.627  20.727  1.00  0.00     0.159 HD
ATOM     19  H   UNL A   1      31.318  30.894  21.828  1.00  0.00     0.159 HD
ENDBRANCH  14  15
ENDBRANCH  12  14
ENDBRANCH   7  12
BRANCH  11  20
ATOM     20  S   UNL A   1      31.529  22.794  26.837  1.00  0.00     0.238 S 
ATOM     21  O   UNL A   1      32.825  22.829  27.478  1.00  0.00    -0.207 OA
ATOM     22  O   UNL A   1      30.288  22.914  27.557  1.00  0.00    -0.207 OA
BRANCH  20  23
ATOM     23  N   UNL A   1      31.436  21.305  26.058  1.00  0.00    -0.225 NA
ATOM     24  H   UNL A   1      31.982  20.615  26.575  1.00  0.00     0.137 HD
ATOM     25  H   UNL A   1      31.809  21.392  25.112  1.00  0.00     0.137 HD
ENDBRANCH  20  23
ENDBRANCH  11  20
ENDBRANCH   4   6
ENDBRANCH   3   4
ENDBRANCH   2   3
ENDBRANCH   1   2
BRANCH   1  26
ATOM     26  O   UNL A   1      31.998  30.500  26.774  1.00  0.00    -0.374 OA
BRANCH  26  27
ATOM     27  C   UNL A   1      31.452  31.756  26.378  1.00  0.00     0.202 C 
BRANCH  27  28
ATOM     28  C   UNL A   1      31.479  32.897  27.405  1.00  0.00     0.261 C 
BRANCH  28  29
ATOM     29  O   UNL A   1      32.618  33.771  27.291  1.00  0.00    -0.460 OA
BRANCH  29  30
ATOM     30  C   UNL A   1      33.257  34.009  28.462  1.00  0.00     0.338 C 
ATOM     31  O   UNL A   1      32.864  34.687  29.397  1.00  0.00    -0.246 OA
BRANCH  30  32
ATOM     32  C   UNL A   1      34.505  33.230  28.552  1.00  0.00     0.060 A 
ATOM     33  C   UNL A   1      34.416  31.912  29.014  1.00  0.00     0.016 A 
ATOM     34  C   UNL A   1      35.749  33.837  28.367  1.00  0.00     0.016 A 
ATOM     35  C   UNL A   1      35.573  31.216  29.358  1.00  0.00     0.010 A 
ATOM     36  C   UNL A   1      36.911  33.137  28.718  1.00  0.00     0.010 A 
ATOM     37  C   UNL A   1      36.823  31.841  29.261  1.00  0.00    -0.014 A 
BRANCH  37  38
ATOM     38  C   UNL A   1      37.999  31.202  29.905  1.00  0.00     0.031 A 
ATOM     39  C   UNL A   1      38.307  31.520  31.345  1.00  0.00     0.074 A 
ATOM     40  C   UNL A   1      38.738  30.292  29.246  1.00  0.00     0.049 A 
ATOM     41  N   UNL A   1      39.262  31.059  32.114  1.00  0.00    -0.248 NA
ATOM     42  C   UNL A   1      37.418  32.486  32.009  1.00  0.00     0.031 C 
ATOM     43  C   UNL A   1      38.519  29.863  27.866  1.00  0.00     0.029 A 
ATOM     44  N   UNL A   1      39.822  29.559  29.659  1.00  0.00    -0.354 N 
ATOM     45  C   UNL A   1      39.080  31.667  33.349  1.00  0.00     0.074 A 
ATOM     46  C   UNL A   1      37.954  32.566  33.218  1.00  0.00     0.031 C 
ATOM     47  C   UNL A   1      39.440  28.938  27.547  1.00  0.00     0.029 A 
ATOM     48  C   UNL A   1      40.323  28.724  28.691  1.00  0.00     0.049 A 
ATOM     49  H   UNL A   1      40.203  29.624  30.564  1.00  0.00     0.167 HD
ATOM     50  C   UNL A   1      39.775  31.484  34.498  1.00  0.00     0.037 A 
ATOM     51  C   UNL A   1      41.379  27.888  28.726  1.00  0.00     0.037 A 
ATOM     52  C   UNL A   1      40.901  30.597  34.635  1.00  0.00     0.049 A 
ATOM     53  C   UNL A   1      42.177  27.754  29.997  1.00  0.00     0.074 A 
ATOM     54  C   UNL A   1      41.690  30.366  35.749  1.00  0.00     0.029 A 
ATOM     55  N   UNL A   1      41.394  29.789  33.622  1.00  0.00    -0.354 N 
ATOM     56  N   UNL A   1      41.994  28.334  31.158  1.00  0.00    -0.248 NA
ATOM     57  C   UNL A   1      43.324  26.834  29.962  1.00  0.00     0.031 C 
ATOM     58  C   UNL A   1      42.678  29.437  35.402  1.00  0.00     0.029 A 
ATOM     59  C   UNL A   1      42.478  29.060  34.085  1.00  0.00     0.049 A 
ATOM     60  H   UNL A   1      41.028  29.740  32.710  1.00  0.00     0.167 HD
ATOM     61  C   UNL A   1      42.974  27.821  31.998  1.00  0.00     0.074 A 
ATOM     62  C   UNL A   1      43.743  26.875  31.217  1.00  0.00     0.031 C 
ATOM     63  C   UNL A   1      43.217  28.105  33.302  1.00  0.00     0.037 A 
BRANCH  50  64
ATOM     64  C   UNL A   1      39.337  32.267  35.700  1.00  0.00     0.057 A 
ATOM     65  C   UNL A   1      39.822  33.559  35.950  1.00  0.00     0.134 A 
ATOM     66  C   UNL A   1      38.404  31.742  36.601  1.00  0.00     0.134 A 
ATOM     67  F   UNL A   1      40.731  34.113  35.133  1.00  0.00    -0.206 F 
ATOM     68  C   UNL A   1      39.406  34.292  37.063  1.00  0.00     0.040 A 
ATOM     69  C   UNL A   1      37.962  32.474  37.705  1.00  0.00     0.040 A 
ATOM     70  F   UNL A   1      37.898  30.512  36.418  1.00  0.00    -0.206 F 
ATOM     71  C   UNL A   1      38.468  33.752  37.940  1.00  0.00     0.006 A 
ENDBRANCH  50  64
BRANCH  51  72
ATOM     72  C   UNL A   1      41.753  27.102  27.525  1.00  0.00     0.057 A 
ATOM     73  C   UNL A   1      41.231  25.822  27.303  1.00  0.00     0.134 A 
ATOM     74  C   UNL A   1      42.684  27.588  26.599  1.00  0.00     0.134 A 
ATOM     75  F   UNL A   1      40.354  25.292  28.167  1.00  0.00    -0.206 F 
ATOM     76  C   UNL A   1      41.641  25.043  26.219  1.00  0.00     0.040 A 
ATOM     77  C   UNL A   1      43.084  26.830  25.497  1.00  0.00     0.040 A 
ATOM     78  F   UNL A   1      43.222  28.807  26.756  1.00  0.00    -0.206 F 
ATOM     79  C   UNL A   1      42.570  25.548  25.312  1.00  0.00     0.006 A 
ENDBRANCH  51  72
BRANCH  63  80
ATOM     80  C   UNL A   1      44.318  27.339  33.976  1.00  0.00     0.057 A 
ATOM     81  C   UNL A   1      44.092  26.106  34.600  1.00  0.00     0.134 A 
ATOM     82  C   UNL A   1      45.626  27.841  33.989  1.00  0.00     0.134 A 
ATOM     83  F   UNL A   1      42.860  25.575  34.633  1.00  0.00    -0.206 F 
ATOM     84  C   UNL A   1      45.122  25.415  35.243  1.00  0.00     0.040 A 
ATOM     85  C   UNL A   1      46.668  27.148  34.605  1.00  0.00     0.040 A 
ATOM     86  F   UNL A   1      45.912  29.012  33.401  1.00  0.00    -0.206 F 
ATOM     87  C   UNL A   1      46.415  25.935  35.243  1.00  0.00     0.006 A 
ENDBRANCH  63  80
ENDBRANCH  37  38
ENDBRANCH  30  32
ENDBRANCH  29  30
ENDBRANCH  28  29
ENDBRANCH  27  28
ENDBRANCH  26  27
ENDBRANCH   1  26
TORSDOF 19
ENDMDL
