MODEL 1
REMARK VINA RESULT:     -11.4      0.000      0.000
REMARK SMILES CCC[NH+]1CCN(C(=O)N[C@H]2C=C[C@@H](C(=O)OCCOCCOC(=O)c3ccc(-c4c5nc(c(-c6c(F)cccc6F)c6ccc([nH]6)c(-c6c(F)cccc6F)c6nc(c(-c7c(F)cccc7F)c7ccc4[nH]7)C=C6)C=C5)cc3)C2)CC1
REMARK SMILES IDX 19 1 18 2 17 3 15 4 16 5 14 6 11 7 12 8 80 9 13 10 10 11
REMARK SMILES IDX 4 12 5 13 82 14 6 16 81 17 7 18 8 19 9 20 3 22 2 23 1 24
REMARK SMILES IDX 20 25 21 26 22 27 23 28 24 29 25 30 26 31 27 32 79 33 28 34
REMARK SMILES IDX 78 35 29 36 30 37 31 38 72 39 32 40 77 41 71 42 73 43 33 44
REMARK SMILES IDX 76 45 70 46 69 47 34 49 60 50 43 51 59 52 44 53 47 54 58 55
REMARK SMILES IDX 74 56 45 57 46 58 57 60 75 61 48 62 35 63 36 64 41 65 37 66
REMARK SMILES IDX 38 67 40 68 42 69 39 70 61 71 62 72 67 73 63 74 64 75 66 76
REMARK SMILES IDX 68 77 65 78 49 79 50 80 55 81 51 82 52 83 54 84 56 85 53 86
REMARK H PARENT 4 15 10 21 73 48 47 59
REMARK Flexibility Score: inf
ROOT
ATOM      1  C   UNL A   1      40.162  21.824  27.130  1.00  0.00     0.202 C 
ENDROOT
BRANCH   1   2
ATOM      2  C   UNL A   1      39.478  21.514  25.797  1.00  0.00     0.261 C 
BRANCH   2   3
ATOM      3  O   UNL A   1      38.102  21.938  25.802  1.00  0.00    -0.463 OA
BRANCH   3   4
ATOM      4  C   UNL A   1      37.238  21.164  25.093  1.00  0.00     0.312 C 
ATOM      5  O   UNL A   1      37.374  19.962  24.898  1.00  0.00    -0.252 OA
BRANCH   4   6
ATOM      6  C   UNL A   1      36.081  21.953  24.496  1.00  0.00     0.124 C 
ATOM      7  C   UNL A   1      33.917  22.986  24.929  1.00  0.00     0.107 C 
ATOM      8  C   UNL A   1      35.033  23.984  25.013  1.00  0.00    -0.006 C 
ATOM      9  C   UNL A   1      34.678  21.658  25.043  1.00  0.00     0.048 C 
ATOM     10  C   UNL A   1      36.221  23.422  24.756  1.00  0.00    -0.014 C 
BRANCH   7  11
ATOM     11  N   UNL A   1      33.014  23.181  26.032  1.00  0.00    -0.332 N 
ATOM     12  N   UNL A   1      31.182  27.331  24.013  1.00  0.00    -0.332 N 
ATOM     13  C   UNL A   1      30.836  27.108  25.445  1.00  0.00     0.284 C 
ATOM     14  C   UNL A   1      32.065  26.227  23.553  1.00  0.00     0.284 C 
ATOM     15  H   UNL A   1      31.680  28.217  23.928  1.00  0.00     0.348 HD
ATOM     16  C   UNL A   1      30.334  25.682  25.784  1.00  0.00     0.183 C 
ATOM     17  C   UNL A   1      31.542  24.812  23.879  1.00  0.00     0.183 C 
ATOM     18  N   UNL A   1      31.304  24.685  25.316  1.00  0.00    -0.314 N 
ATOM     19  C   UNL A   1      31.908  23.906  26.255  1.00  0.00     0.318 C 
ATOM     20  O   UNL A   1      31.475  23.839  27.412  1.00  0.00    -0.249 OA
ATOM     21  H   UNL A   1      33.273  22.649  26.819  1.00  0.00     0.165 HD
BRANCH  12  22
ATOM     22  C   UNL A   1      29.983  27.460  23.167  1.00  0.00     0.262 C 
BRANCH  22  23
ATOM     23  C   UNL A   1      29.791  28.881  22.611  1.00  0.00     0.058 C 
ATOM     24  C   UNL A   1      28.326  29.285  22.513  1.00  0.00     0.010 C 
ENDBRANCH  22  23
ENDBRANCH  12  22
ENDBRANCH   7  11
ENDBRANCH   4   6
ENDBRANCH   3   4
ENDBRANCH   2   3
ENDBRANCH   1   2
BRANCH   1  25
ATOM     25  O   UNL A   1      41.477  21.294  27.292  1.00  0.00    -0.374 OA
BRANCH  25  26
ATOM     26  C   UNL A   1      42.163  20.879  26.111  1.00  0.00     0.202 C 
BRANCH  26  27
ATOM     27  C   UNL A   1      43.364  21.733  25.688  1.00  0.00     0.261 C 
BRANCH  27  28
ATOM     28  O   UNL A   1      42.982  22.823  24.829  1.00  0.00    -0.460 OA
BRANCH  28  29
ATOM     29  C   UNL A   1      43.726  23.945  24.970  1.00  0.00     0.338 C 
ATOM     30  O   UNL A   1      44.760  24.226  24.375  1.00  0.00    -0.246 OA
BRANCH  29  31
ATOM     31  C   UNL A   1      43.036  24.916  25.836  1.00  0.00     0.060 A 
ATOM     32  C   UNL A   1      43.715  26.103  26.141  1.00  0.00     0.016 A 
ATOM     33  C   UNL A   1      41.792  24.645  26.411  1.00  0.00     0.016 A 
ATOM     34  C   UNL A   1      43.182  26.996  27.067  1.00  0.00     0.010 A 
ATOM     35  C   UNL A   1      41.262  25.540  27.349  1.00  0.00     0.010 A 
ATOM     36  C   UNL A   1      41.973  26.699  27.709  1.00  0.00    -0.014 A 
BRANCH  36  37
ATOM     37  C   UNL A   1      41.541  27.525  28.862  1.00  0.00     0.031 A 
ATOM     38  C   UNL A   1      42.307  27.431  30.155  1.00  0.00     0.074 A 
ATOM     39  C   UNL A   1      40.514  28.385  28.751  1.00  0.00     0.049 A 
ATOM     40  N   UNL A   1      42.107  28.058  31.287  1.00  0.00    -0.248 NA
ATOM     41  C   UNL A   1      43.452  26.508  30.171  1.00  0.00     0.031 C 
ATOM     42  C   UNL A   1      39.720  28.601  27.542  1.00  0.00     0.029 A 
ATOM     43  N   UNL A   1      39.963  29.237  29.674  1.00  0.00    -0.354 N 
ATOM     44  C   UNL A   1      43.099  27.605  32.148  1.00  0.00     0.074 A 
ATOM     45  C   UNL A   1      43.879  26.628  31.419  1.00  0.00     0.031 C 
ATOM     46  C   UNL A   1      38.779  29.526  27.801  1.00  0.00     0.029 A 
ATOM     47  C   UNL A   1      38.887  29.944  29.197  1.00  0.00     0.049 A 
ATOM     48  H   UNL A   1      40.306  29.333  30.592  1.00  0.00     0.167 HD
ATOM     49  C   UNL A   1      43.345  27.978  33.427  1.00  0.00     0.037 A 
ATOM     50  C   UNL A   1      38.073  30.817  29.822  1.00  0.00     0.037 A 
ATOM     51  C   UNL A   1      42.569  28.946  34.155  1.00  0.00     0.049 A 
ATOM     52  C   UNL A   1      38.319  31.156  31.269  1.00  0.00     0.074 A 
ATOM     53  C   UNL A   1      42.746  29.396  35.452  1.00  0.00     0.029 A 
ATOM     54  N   UNL A   1      41.460  29.609  33.650  1.00  0.00    -0.354 N 
ATOM     55  N   UNL A   1      39.273  30.739  32.066  1.00  0.00    -0.248 NA
ATOM     56  C   UNL A   1      37.376  32.090  31.900  1.00  0.00     0.031 C 
ATOM     57  C   UNL A   1      41.719  30.299  35.745  1.00  0.00     0.029 A 
ATOM     58  C   UNL A   1      40.930  30.447  34.616  1.00  0.00     0.049 A 
ATOM     59  H   UNL A   1      41.104  29.498  32.738  1.00  0.00     0.167 HD
ATOM     60  C   UNL A   1      39.063  31.383  33.280  1.00  0.00     0.074 A 
ATOM     61  C   UNL A   1      37.897  32.223  33.111  1.00  0.00     0.031 C 
ATOM     62  C   UNL A   1      39.774  31.286  34.430  1.00  0.00     0.037 A 
BRANCH  49  63
ATOM     63  C   UNL A   1      44.494  27.312  34.127  1.00  0.00     0.057 A 
ATOM     64  C   UNL A   1      44.341  26.099  34.810  1.00  0.00     0.134 A 
ATOM     65  C   UNL A   1      45.773  27.881  34.099  1.00  0.00     0.134 A 
ATOM     66  F   UNL A   1      43.138  25.508  34.886  1.00  0.00    -0.206 F 
ATOM     67  C   UNL A   1      45.414  25.487  35.460  1.00  0.00     0.040 A 
ATOM     68  C   UNL A   1      46.859  27.267  34.724  1.00  0.00     0.040 A 
ATOM     69  F   UNL A   1      45.990  29.041  33.458  1.00  0.00    -0.206 F 
ATOM     70  C   UNL A   1      46.680  26.069  35.413  1.00  0.00     0.006 A 
ENDBRANCH  49  63
BRANCH  50  71
ATOM     71  C   UNL A   1      36.940  31.433  29.088  1.00  0.00     0.057 A 
ATOM     72  C   UNL A   1      37.001  32.757  28.638  1.00  0.00     0.134 A 
ATOM     73  C   UNL A   1      35.760  30.721  28.841  1.00  0.00     0.134 A 
ATOM     74  F   UNL A   1      38.096  33.497  28.869  1.00  0.00    -0.206 F 
ATOM     75  C   UNL A   1      35.925  33.357  27.983  1.00  0.00     0.040 A 
ATOM     76  C   UNL A   1      34.685  31.301  28.166  1.00  0.00     0.040 A 
ATOM     77  F   UNL A   1      35.638  29.450  29.248  1.00  0.00    -0.206 F 
ATOM     78  C   UNL A   1      34.763  32.625  27.742  1.00  0.00     0.006 A 
ENDBRANCH  50  71
BRANCH  62  79
ATOM     79  C   UNL A   1      39.336  32.142  35.584  1.00  0.00     0.057 A 
ATOM     80  C   UNL A   1      39.765  33.467  35.727  1.00  0.00     0.134 A 
ATOM     81  C   UNL A   1      38.444  31.642  36.541  1.00  0.00     0.134 A 
ATOM     82  F   UNL A   1      40.629  34.002  34.852  1.00  0.00    -0.206 F 
ATOM     83  C   UNL A   1      39.339  34.258  36.797  1.00  0.00     0.040 A 
ATOM     84  C   UNL A   1      37.992  32.432  37.600  1.00  0.00     0.040 A 
ATOM     85  F   UNL A   1      37.988  30.384  36.457  1.00  0.00    -0.206 F 
ATOM     86  C   UNL A   1      38.445  33.742  37.734  1.00  0.00     0.006 A 
ENDBRANCH  62  79
ENDBRANCH  36  37
ENDBRANCH  29  31
ENDBRANCH  28  29
ENDBRANCH  27  28
ENDBRANCH  26  27
ENDBRANCH  25  26
ENDBRANCH   1  25
TORSDOF 17
ENDMDL
MODEL 2
REMARK VINA RESULT:     -11.2      4.652      9.802
REMARK SMILES CCC[NH+]1CCN(C(=O)N[C@H]2C=C[C@@H](C(=O)OCCOCCOC(=O)c3ccc(-c4c5nc(c(-c6c(F)cccc6F)c6ccc([nH]6)c(-c6c(F)cccc6F)c6nc(c(-c7c(F)cccc7F)c7ccc4[nH]7)C=C6)C=C5)cc3)C2)CC1
REMARK SMILES IDX 19 1 18 2 17 3 15 4 16 5 14 6 11 7 12 8 80 9 13 10 10 11
REMARK SMILES IDX 4 12 5 13 82 14 6 16 81 17 7 18 8 19 9 20 3 22 2 23 1 24
REMARK SMILES IDX 20 25 21 26 22 27 23 28 24 29 25 30 26 31 27 32 79 33 28 34
REMARK SMILES IDX 78 35 29 36 30 37 31 38 72 39 32 40 77 41 71 42 73 43 33 44
REMARK SMILES IDX 76 45 70 46 69 47 34 49 60 50 43 51 59 52 44 53 47 54 58 55
REMARK SMILES IDX 74 56 45 57 46 58 57 60 75 61 48 62 35 63 36 64 41 65 37 66
REMARK SMILES IDX 38 67 40 68 42 69 39 70 61 71 62 72 67 73 63 74 64 75 66 76
REMARK SMILES IDX 68 77 65 78 49 79 50 80 55 81 51 82 52 83 54 84 56 85 53 86
REMARK H PARENT 4 15 10 21 73 48 47 59
REMARK Flexibility Score: inf
ROOT
ATOM      1  C   UNL A   1      34.174  33.295  28.238  1.00  0.00     0.202 C 
ENDROOT
BRANCH   1   2
ATOM      2  C   UNL A   1      34.405  31.784  28.290  1.00  0.00     0.261 C 
BRANCH   2   3
ATOM      3  O   UNL A   1      34.006  31.149  27.061  1.00  0.00    -0.463 OA
BRANCH   3   4
ATOM      4  C   UNL A   1      32.807  30.508  27.084  1.00  0.00     0.312 C 
ATOM      5  O   UNL A   1      31.716  31.061  27.002  1.00  0.00    -0.252 OA
BRANCH   4   6
ATOM      6  C   UNL A   1      32.937  29.004  27.282  1.00  0.00     0.124 C 
ATOM      7  C   UNL A   1      32.224  26.806  26.511  1.00  0.00     0.107 C 
ATOM      8  C   UNL A   1      33.534  27.208  25.902  1.00  0.00    -0.006 C 
ATOM      9  C   UNL A   1      31.689  28.154  27.014  1.00  0.00     0.048 C 
ATOM     10  C   UNL A   1      33.937  28.408  26.339  1.00  0.00    -0.014 C 
BRANCH   7  11
ATOM     11  N   UNL A   1      31.376  26.240  25.496  1.00  0.00    -0.332 N 
ATOM     12  N   UNL A   1      34.275  22.232  25.075  1.00  0.00    -0.332 N 
ATOM     13  C   UNL A   1      33.276  22.417  23.986  1.00  0.00     0.284 C 
ATOM     14  C   UNL A   1      34.171  23.372  26.023  1.00  0.00     0.284 C 
ATOM     15  H   UNL A   1      35.210  22.218  24.667  1.00  0.00     0.348 HD
ATOM     16  C   UNL A   1      31.839  22.745  24.462  1.00  0.00     0.183 C 
ATOM     17  C   UNL A   1      32.737  23.674  26.506  1.00  0.00     0.183 C 
ATOM     18  N   UNL A   1      31.861  23.907  25.359  1.00  0.00    -0.314 N 
ATOM     19  C   UNL A   1      31.198  25.026  24.954  1.00  0.00     0.318 C 
ATOM     20  O   UNL A   1      30.390  24.994  24.019  1.00  0.00    -0.249 OA
ATOM     21  H   UNL A   1      30.775  26.912  25.100  1.00  0.00     0.165 HD
BRANCH  12  22
ATOM     22  C   UNL A   1      34.116  20.936  25.759  1.00  0.00     0.262 C 
BRANCH  22  23
ATOM     23  C   UNL A   1      33.980  19.756  24.784  1.00  0.00     0.058 C 
ATOM     24  C   UNL A   1      32.714  18.941  25.013  1.00  0.00     0.010 C 
ENDBRANCH  22  23
ENDBRANCH  12  22
ENDBRANCH   7  11
ENDBRANCH   4   6
ENDBRANCH   3   4
ENDBRANCH   2   3
ENDBRANCH   1   2
BRANCH   1  25
ATOM     25  O   UNL A   1      33.699  33.894  29.443  1.00  0.00    -0.374 OA
BRANCH  25  26
ATOM     26  C   UNL A   1      34.673  34.231  30.430  1.00  0.00     0.202 C 
BRANCH  26  27
ATOM     27  C   UNL A   1      34.398  33.732  31.854  1.00  0.00     0.261 C 
BRANCH  27  28
ATOM     28  O   UNL A   1      34.762  32.350  32.026  1.00  0.00    -0.460 OA
BRANCH  28  29
ATOM     29  C   UNL A   1      35.874  32.145  32.770  1.00  0.00     0.338 C 
ATOM     30  O   UNL A   1      36.038  32.432  33.950  1.00  0.00    -0.246 OA
BRANCH  29  31
ATOM     31  C   UNL A   1      36.858  31.347  32.017  1.00  0.00     0.060 A 
ATOM     32  C   UNL A   1      37.946  30.826  32.731  1.00  0.00     0.016 A 
ATOM     33  C   UNL A   1      36.775  31.180  30.633  1.00  0.00     0.016 A 
ATOM     34  C   UNL A   1      38.983  30.188  32.057  1.00  0.00     0.010 A 
ATOM     35  C   UNL A   1      37.823  30.546  29.956  1.00  0.00     0.010 A 
ATOM     36  C   UNL A   1      38.949  30.081  30.661  1.00  0.00    -0.014 A 
BRANCH  36  37
ATOM     37  C   UNL A   1      40.162  29.626  29.938  1.00  0.00     0.031 A 
ATOM     38  C   UNL A   1      41.303  30.589  29.749  1.00  0.00     0.074 A 
ATOM     39  C   UNL A   1      40.269  28.361  29.496  1.00  0.00     0.049 A 
ATOM     40  N   UNL A   1      42.454  30.407  29.151  1.00  0.00    -0.248 NA
ATOM     41  C   UNL A   1      41.124  31.935  30.313  1.00  0.00     0.031 C 
ATOM     42  C   UNL A   1      39.253  27.322  29.655  1.00  0.00     0.029 A 
ATOM     43  N   UNL A   1      41.289  27.737  28.823  1.00  0.00    -0.354 N 
ATOM     44  C   UNL A   1      43.133  31.613  29.265  1.00  0.00     0.074 A 
ATOM     45  C   UNL A   1      42.254  32.529  29.961  1.00  0.00     0.031 C 
ATOM     46  C   UNL A   1      39.701  26.188  29.089  1.00  0.00     0.029 A 
ATOM     47  C   UNL A   1      41.019  26.430  28.506  1.00  0.00     0.049 A 
ATOM     48  H   UNL A   1      42.134  28.185  28.589  1.00  0.00     0.167 HD
ATOM     49  C   UNL A   1      44.380  31.928  28.840  1.00  0.00     0.037 A 
ATOM     50  C   UNL A   1      41.748  25.535  27.810  1.00  0.00     0.037 A 
ATOM     51  C   UNL A   1      45.253  31.020  28.144  1.00  0.00     0.049 A 
ATOM     52  C   UNL A   1      43.099  25.932  27.278  1.00  0.00     0.074 A 
ATOM     53  C   UNL A   1      46.538  31.243  27.680  1.00  0.00     0.029 A 
ATOM     54  N   UNL A   1      44.926  29.716  27.804  1.00  0.00    -0.354 N 
ATOM     55  N   UNL A   1      43.741  27.068  27.412  1.00  0.00    -0.248 NA
ATOM     56  C   UNL A   1      43.828  24.921  26.500  1.00  0.00     0.031 C 
ATOM     57  C   UNL A   1      46.972  30.088  27.022  1.00  0.00     0.029 A 
ATOM     58  C   UNL A   1      45.976  29.129  27.117  1.00  0.00     0.049 A 
ATOM     59  H   UNL A   1      44.073  29.274  28.019  1.00  0.00     0.167 HD
ATOM     60  C   UNL A   1      44.959  26.897  26.763  1.00  0.00     0.074 A 
ATOM     61  C   UNL A   1      44.969  25.546  26.245  1.00  0.00     0.031 C 
ATOM     62  C   UNL A   1      45.976  27.780  26.615  1.00  0.00     0.037 A 
BRANCH  49  63
ATOM     63  C   UNL A   1      44.862  33.325  29.098  1.00  0.00     0.057 A 
ATOM     64  C   UNL A   1      45.591  33.654  30.249  1.00  0.00     0.134 A 
ATOM     65  C   UNL A   1      44.613  34.349  28.176  1.00  0.00     0.134 A 
ATOM     66  F   UNL A   1      45.851  32.722  31.179  1.00  0.00    -0.206 F 
ATOM     67  C   UNL A   1      46.035  34.956  30.484  1.00  0.00     0.040 A 
ATOM     68  C   UNL A   1      45.073  35.650  28.388  1.00  0.00     0.040 A 
ATOM     69  F   UNL A   1      43.925  34.100  27.051  1.00  0.00    -0.206 F 
ATOM     70  C   UNL A   1      45.780  35.958  29.548  1.00  0.00     0.006 A 
ENDBRANCH  49  63
BRANCH  50  71
ATOM     71  C   UNL A   1      41.216  24.171  27.567  1.00  0.00     0.057 A 
ATOM     72  C   UNL A   1      40.198  23.945  26.634  1.00  0.00     0.134 A 
ATOM     73  C   UNL A   1      41.697  23.065  28.279  1.00  0.00     0.134 A 
ATOM     74  F   UNL A   1      39.680  24.970  25.940  1.00  0.00    -0.206 F 
ATOM     75  C   UNL A   1      39.664  22.672  26.428  1.00  0.00     0.040 A 
ATOM     76  C   UNL A   1      41.188  21.783  28.066  1.00  0.00     0.040 A 
ATOM     77  F   UNL A   1      42.670  23.215  29.188  1.00  0.00    -0.206 F 
ATOM     78  C   UNL A   1      40.164  21.585  27.144  1.00  0.00     0.006 A 
ENDBRANCH  50  71
BRANCH  62  79
ATOM     79  C   UNL A   1      47.204  27.299  25.896  1.00  0.00     0.057 A 
ATOM     80  C   UNL A   1      48.230  26.615  26.559  1.00  0.00     0.134 A 
ATOM     81  C   UNL A   1      47.341  27.492  24.515  1.00  0.00     0.134 A 
ATOM     82  F   UNL A   1      48.166  26.408  27.883  1.00  0.00    -0.206 F 
ATOM     83  C   UNL A   1      49.361  26.160  25.878  1.00  0.00     0.040 A 
ATOM     84  C   UNL A   1      48.455  27.019  23.819  1.00  0.00     0.040 A 
ATOM     85  F   UNL A   1      46.391  28.132  23.819  1.00  0.00    -0.206 F 
ATOM     86  C   UNL A   1      49.472  26.356  24.502  1.00  0.00     0.006 A 
ENDBRANCH  62  79
ENDBRANCH  36  37
ENDBRANCH  29  31
ENDBRANCH  28  29
ENDBRANCH  27  28
ENDBRANCH  26  27
ENDBRANCH  25  26
ENDBRANCH   1  25
TORSDOF 17
ENDMDL
MODEL 3
REMARK VINA RESULT:     -11.1      1.148      1.991
REMARK SMILES CCC[NH+]1CCN(C(=O)N[C@H]2C=C[C@@H](C(=O)OCCOCCOC(=O)c3ccc(-c4c5nc(c(-c6c(F)cccc6F)c6ccc([nH]6)c(-c6c(F)cccc6F)c6nc(c(-c7c(F)cccc7F)c7ccc4[nH]7)C=C6)C=C5)cc3)C2)CC1
REMARK SMILES IDX 19 1 18 2 17 3 15 4 16 5 14 6 11 7 12 8 80 9 13 10 10 11
REMARK SMILES IDX 4 12 5 13 82 14 6 16 81 17 7 18 8 19 9 20 3 22 2 23 1 24
REMARK SMILES IDX 20 25 21 26 22 27 23 28 24 29 25 30 26 31 27 32 79 33 28 34
REMARK SMILES IDX 78 35 29 36 30 37 31 38 72 39 32 40 77 41 71 42 73 43 33 44
REMARK SMILES IDX 76 45 70 46 69 47 34 49 60 50 43 51 59 52 44 53 47 54 58 55
REMARK SMILES IDX 74 56 45 57 46 58 57 60 75 61 48 62 35 63 36 64 41 65 37 66
REMARK SMILES IDX 38 67 40 68 42 69 39 70 61 71 62 72 67 73 63 74 64 75 66 76
REMARK SMILES IDX 68 77 65 78 49 79 50 80 55 81 51 82 52 83 54 84 56 85 53 86
REMARK H PARENT 4 15 10 21 73 48 47 59
REMARK Flexibility Score: inf
ROOT
ATOM      1  C   UNL A   1      42.957  19.203  25.774  1.00  0.00     0.202 C 
ENDROOT
BRANCH   1   2
ATOM      2  C   UNL A   1      41.830  19.557  26.745  1.00  0.00     0.261 C 
BRANCH   2   3
ATOM      3  O   UNL A   1      40.705  20.132  26.056  1.00  0.00    -0.463 OA
BRANCH   3   4
ATOM      4  C   UNL A   1      40.175  21.253  26.612  1.00  0.00     0.312 C 
ATOM      5  O   UNL A   1      40.481  21.701  27.712  1.00  0.00    -0.252 OA
BRANCH   4   6
ATOM      6  C   UNL A   1      39.096  21.897  25.751  1.00  0.00     0.124 C 
ATOM      7  C   UNL A   1      36.706  22.056  25.310  1.00  0.00     0.107 C 
ATOM      8  C   UNL A   1      37.181  23.172  26.192  1.00  0.00    -0.006 C 
ATOM      9  C   UNL A   1      37.858  21.050  25.434  1.00  0.00     0.048 C 
ATOM     10  C   UNL A   1      38.499  23.096  26.420  1.00  0.00    -0.014 C 
BRANCH   7  11
ATOM     11  N   UNL A   1      35.474  21.525  25.828  1.00  0.00    -0.332 N 
ATOM     12  N   UNL A   1      33.077  25.785  24.953  1.00  0.00    -0.332 N 
ATOM     13  C   UNL A   1      32.365  24.818  25.836  1.00  0.00     0.284 C 
ATOM     14  C   UNL A   1      34.400  25.216  24.585  1.00  0.00     0.284 C 
ATOM     15  H   UNL A   1      33.216  26.657  25.463  1.00  0.00     0.348 HD
ATOM     16  C   UNL A   1      32.331  23.359  25.319  1.00  0.00     0.183 C 
ATOM     17  C   UNL A   1      34.348  23.769  24.050  1.00  0.00     0.183 C 
ATOM     18  N   UNL A   1      33.694  22.899  25.026  1.00  0.00    -0.314 N 
ATOM     19  C   UNL A   1      34.176  21.856  25.758  1.00  0.00     0.318 C 
ATOM     20  O   UNL A   1      33.427  21.148  26.442  1.00  0.00    -0.249 OA
ATOM     21  H   UNL A   1      35.619  20.716  26.370  1.00  0.00     0.165 HD
BRANCH  12  22
ATOM     22  C   UNL A   1      32.283  26.136  23.763  1.00  0.00     0.262 C 
BRANCH  22  23
ATOM     23  C   UNL A   1      30.969  26.855  24.108  1.00  0.00     0.058 C 
ATOM     24  C   UNL A   1      31.190  28.211  24.765  1.00  0.00     0.010 C 
ENDBRANCH  22  23
ENDBRANCH  12  22
ENDBRANCH   7  11
ENDBRANCH   4   6
ENDBRANCH   3   4
ENDBRANCH   2   3
ENDBRANCH   1   2
BRANCH   1  25
ATOM     25  O   UNL A   1      43.436  20.274  24.960  1.00  0.00    -0.374 OA
BRANCH  25  26
ATOM     26  C   UNL A   1      44.811  20.632  25.098  1.00  0.00     0.202 C 
BRANCH  26  27
ATOM     27  C   UNL A   1      45.096  21.995  25.741  1.00  0.00     0.261 C 
BRANCH  27  28
ATOM     28  O   UNL A   1      44.013  22.923  25.551  1.00  0.00    -0.460 OA
BRANCH  28  29
ATOM     29  C   UNL A   1      44.391  24.215  25.410  1.00  0.00     0.338 C 
ATOM     30  O   UNL A   1      45.194  24.667  24.603  1.00  0.00    -0.246 OA
BRANCH  29  31
ATOM     31  C   UNL A   1      43.567  25.090  26.263  1.00  0.00     0.060 A 
ATOM     32  C   UNL A   1      43.969  26.425  26.394  1.00  0.00     0.016 A 
ATOM     33  C   UNL A   1      42.478  24.604  26.991  1.00  0.00     0.016 A 
ATOM     34  C   UNL A   1      43.321  27.266  27.296  1.00  0.00     0.010 A 
ATOM     35  C   UNL A   1      41.834  25.448  27.903  1.00  0.00     0.010 A 
ATOM     36  C   UNL A   1      42.277  26.771  28.087  1.00  0.00    -0.014 A 
BRANCH  36  37
ATOM     37  C   UNL A   1      41.764  27.594  29.209  1.00  0.00     0.031 A 
ATOM     38  C   UNL A   1      42.466  27.536  30.538  1.00  0.00     0.074 A 
ATOM     39  C   UNL A   1      40.716  28.419  29.037  1.00  0.00     0.049 A 
ATOM     40  N   UNL A   1      42.191  28.167  31.652  1.00  0.00    -0.248 NA
ATOM     41  C   UNL A   1      43.637  26.650  30.622  1.00  0.00     0.031 C 
ATOM     42  C   UNL A   1      39.978  28.599  27.788  1.00  0.00     0.029 A 
ATOM     43  N   UNL A   1      40.094  29.263  29.922  1.00  0.00    -0.354 N 
ATOM     44  C   UNL A   1      43.152  27.754  32.567  1.00  0.00     0.074 A 
ATOM     45  C   UNL A   1      43.997  26.794  31.888  1.00  0.00     0.031 C 
ATOM     46  C   UNL A   1      38.997  29.496  27.989  1.00  0.00     0.029 A 
ATOM     47  C   UNL A   1      39.022  29.930  29.385  1.00  0.00     0.049 A 
ATOM     48  H   UNL A   1      40.388  29.378  30.855  1.00  0.00     0.167 HD
ATOM     49  C   UNL A   1      43.323  28.146  33.852  1.00  0.00     0.037 A 
ATOM     50  C   UNL A   1      38.151  30.783  29.959  1.00  0.00     0.037 A 
ATOM     51  C   UNL A   1      42.481  29.096  34.530  1.00  0.00     0.049 A 
ATOM     52  C   UNL A   1      38.314  31.143  31.412  1.00  0.00     0.074 A 
ATOM     53  C   UNL A   1      42.579  29.564  35.829  1.00  0.00     0.029 A 
ATOM     54  N   UNL A   1      41.379  29.719  33.963  1.00  0.00    -0.354 N 
ATOM     55  N   UNL A   1      39.239  30.765  32.260  1.00  0.00    -0.248 NA
ATOM     56  C   UNL A   1      37.312  32.053  31.985  1.00  0.00     0.031 C 
ATOM     57  C   UNL A   1      41.512  30.437  36.061  1.00  0.00     0.029 A 
ATOM     58  C   UNL A   1      40.775  30.549  34.892  1.00  0.00     0.049 A 
ATOM     59  H   UNL A   1      41.072  29.588  33.036  1.00  0.00     0.167 HD
ATOM     60  C   UNL A   1      38.949  31.413  33.455  1.00  0.00     0.074 A 
ATOM     61  C   UNL A   1      37.768  32.215  33.219  1.00  0.00     0.031 C 
ATOM     62  C   UNL A   1      39.605  31.350  34.640  1.00  0.00     0.037 A 
BRANCH  49  63
ATOM     63  C   UNL A   1      44.455  27.524  34.615  1.00  0.00     0.057 A 
ATOM     64  C   UNL A   1      44.323  26.284  35.254  1.00  0.00     0.134 A 
ATOM     65  C   UNL A   1      45.699  28.162  34.694  1.00  0.00     0.134 A 
ATOM     66  F   UNL A   1      43.153  25.627  35.229  1.00  0.00    -0.206 F 
ATOM     67  C   UNL A   1      45.381  25.713  35.964  1.00  0.00     0.040 A 
ATOM     68  C   UNL A   1      46.771  27.590  35.380  1.00  0.00     0.040 A 
ATOM     69  F   UNL A   1      45.894  29.350  34.100  1.00  0.00    -0.206 F 
ATOM     70  C   UNL A   1      46.611  26.364  36.023  1.00  0.00     0.006 A 
ENDBRANCH  49  63
BRANCH  50  71
ATOM     71  C   UNL A   1      37.038  31.356  29.163  1.00  0.00     0.057 A 
ATOM     72  C   UNL A   1      37.076  32.679  28.710  1.00  0.00     0.134 A 
ATOM     73  C   UNL A   1      35.898  30.602  28.858  1.00  0.00     0.134 A 
ATOM     74  F   UNL A   1      38.130  33.459  28.993  1.00  0.00    -0.206 F 
ATOM     75  C   UNL A   1      36.015  33.239  27.995  1.00  0.00     0.040 A 
ATOM     76  C   UNL A   1      34.841  31.141  28.123  1.00  0.00     0.040 A 
ATOM     77  F   UNL A   1      35.799  29.328  29.264  1.00  0.00    -0.206 F 
ATOM     78  C   UNL A   1      34.895  32.466  27.697  1.00  0.00     0.006 A 
ENDBRANCH  50  71
BRANCH  62  79
ATOM     79  C   UNL A   1      39.084  32.202  35.761  1.00  0.00     0.057 A 
ATOM     80  C   UNL A   1      38.212  31.696  36.733  1.00  0.00     0.134 A 
ATOM     81  C   UNL A   1      39.491  33.536  35.888  1.00  0.00     0.134 A 
ATOM     82  F   UNL A   1      37.774  30.430  36.661  1.00  0.00    -0.206 F 
ATOM     83  C   UNL A   1      37.745  32.494  37.779  1.00  0.00     0.040 A 
ATOM     84  C   UNL A   1      39.052  34.337  36.944  1.00  0.00     0.040 A 
ATOM     85  F   UNL A   1      40.332  34.080  34.997  1.00  0.00    -0.206 F 
ATOM     86  C   UNL A   1      38.170  33.818  37.890  1.00  0.00     0.006 A 
ENDBRANCH  62  79
ENDBRANCH  36  37
ENDBRANCH  29  31
ENDBRANCH  28  29
ENDBRANCH  27  28
ENDBRANCH  26  27
ENDBRANCH  25  26
ENDBRANCH   1  25
TORSDOF 17
ENDMDL
