MODEL 1
REMARK VINA RESULT:     -11.1      0.000      0.000
REMARK SMILES COc1ccc([C@@H](CC(=O)OCCOCCOC(=O)c2ccc(-c3c4nc(c(-c5c(F)cccc5F)c5ccc([nH]5)c(-c5c(F)cccc5F)c5nc(c(-c6c(F)cccc6F)c6ccc3[nH]6)C=C5)C=C4)cc2)C2CCCCC2)cc1Cl
REMARK SMILES IDX 13 1 12 2 11 3 9 4 10 5 8 6 7 7 6 8 3 9 4 10 81 11 5 12
REMARK SMILES IDX 80 13 82 14 2 15 1 16 74 17 75 18 79 19 76 20 78 21 77 22
REMARK SMILES IDX 14 23 15 24 16 25 17 26 18 27 19 28 20 29 21 30 73 31 22 32
REMARK SMILES IDX 72 33 23 34 24 35 25 36 66 37 26 38 71 39 65 40 67 41 27 42
REMARK SMILES IDX 70 43 64 44 63 45 28 47 54 48 37 49 53 50 38 51 41 52 52 53
REMARK SMILES IDX 68 54 39 55 40 56 51 58 69 59 42 60 29 61 30 62 35 63 31 64
REMARK SMILES IDX 32 65 34 66 36 67 33 68 55 69 56 70 61 71 57 72 58 73 60 74
REMARK SMILES IDX 62 75 59 76 43 77 44 78 49 79 45 80 46 81 48 82 50 83 47 84
REMARK H PARENT 67 46 41 57
REMARK Flexibility Score: inf
ROOT
ATOM      1  C   UNL A   1      34.359  22.895  24.307  1.00  0.00     0.202 C 
ENDROOT
BRANCH   1   2
ATOM      2  C   UNL A   1      34.287  24.081  23.340  1.00  0.00     0.261 C 
BRANCH   2   3
ATOM      3  O   UNL A   1      33.000  24.206  22.692  1.00  0.00    -0.463 OA
BRANCH   3   4
ATOM      4  C   UNL A   1      32.751  25.356  22.027  1.00  0.00     0.306 C 
ATOM      5  O   UNL A   1      33.538  25.885  21.248  1.00  0.00    -0.252 OA
BRANCH   4   6
ATOM      6  C   UNL A   1      31.483  26.057  22.466  1.00  0.00     0.131 C 
BRANCH   6   7
ATOM      7  C   UNL A   1      31.355  27.572  22.738  1.00  0.00     0.033 C 
BRANCH   7   8
ATOM      8  C   UNL A   1      32.049  28.074  24.000  1.00  0.00    -0.042 A 
ATOM      9  C   UNL A   1      33.261  28.933  26.401  1.00  0.00     0.137 A 
ATOM     10  C   UNL A   1      33.855  29.211  25.174  1.00  0.00     0.048 A 
ATOM     11  C   UNL A   1      32.043  28.256  26.443  1.00  0.00     0.083 A 
ATOM     12  C   UNL A   1      33.265  28.765  23.987  1.00  0.00     0.008 A 
ATOM     13  C   UNL A   1      31.446  27.832  25.251  1.00  0.00     0.028 A 
ATOM     14  Cl  UNL A   1      31.233  27.930  27.930  1.00  0.00    -0.080 Cl
BRANCH   9  15
ATOM     15  O   UNL A   1      33.881  29.411  27.523  1.00  0.00    -0.495 OA
ATOM     16  C   UNL A   1      34.268  30.775  27.346  1.00  0.00     0.278 C 
ENDBRANCH   9  15
ENDBRANCH   7   8
BRANCH   7  17
ATOM     17  C   UNL A   1      29.984  28.236  22.378  1.00  0.00    -0.003 C 
ATOM     18  C   UNL A   1      28.844  28.001  23.371  1.00  0.00     0.004 C 
ATOM     19  C   UNL A   1      30.162  29.753  22.128  1.00  0.00     0.004 C 
ATOM     20  C   UNL A   1      27.546  28.692  22.948  1.00  0.00     0.000 C 
ATOM     21  C   UNL A   1      28.860  30.438  21.716  1.00  0.00     0.000 C 
ATOM     22  C   UNL A   1      27.756  30.186  22.733  1.00  0.00     0.000 C 
ENDBRANCH   7  17
ENDBRANCH   6   7
ENDBRANCH   4   6
ENDBRANCH   3   4
ENDBRANCH   2   3
ENDBRANCH   1   2
BRANCH   1  23
ATOM     23  O   UNL A   1      35.635  22.255  24.373  1.00  0.00    -0.374 OA
BRANCH  23  24
ATOM     24  C   UNL A   1      35.733  21.118  25.231  1.00  0.00     0.202 C 
BRANCH  24  25
ATOM     25  C   UNL A   1      37.039  20.341  25.055  1.00  0.00     0.261 C 
BRANCH  25  26
ATOM     26  O   UNL A   1      38.147  21.255  25.053  1.00  0.00    -0.460 OA
BRANCH  26  27
ATOM     27  C   UNL A   1      39.153  20.914  25.879  1.00  0.00     0.338 C 
ATOM     28  O   UNL A   1      39.709  19.826  25.970  1.00  0.00    -0.246 OA
BRANCH  27  29
ATOM     29  C   UNL A   1      39.608  22.128  26.567  1.00  0.00     0.060 A 
ATOM     30  C   UNL A   1      39.027  23.345  26.201  1.00  0.00     0.016 A 
ATOM     31  C   UNL A   1      40.643  22.082  27.502  1.00  0.00     0.016 A 
ATOM     32  C   UNL A   1      39.526  24.535  26.731  1.00  0.00     0.010 A 
ATOM     33  C   UNL A   1      41.127  23.279  28.046  1.00  0.00     0.010 A 
ATOM     34  C   UNL A   1      40.600  24.516  27.634  1.00  0.00    -0.014 A 
BRANCH  34  35
ATOM     35  C   UNL A   1      41.243  25.801  28.020  1.00  0.00     0.031 A 
ATOM     36  C   UNL A   1      42.646  26.098  27.554  1.00  0.00     0.074 A 
ATOM     37  C   UNL A   1      40.567  26.739  28.710  1.00  0.00     0.049 A 
ATOM     38  N   UNL A   1      43.343  27.200  27.674  1.00  0.00    -0.248 NA
ATOM     39  C   UNL A   1      43.357  25.011  26.865  1.00  0.00     0.031 C 
ATOM     40  C   UNL A   1      39.208  26.596  29.229  1.00  0.00     0.029 A 
ATOM     41  N   UNL A   1      40.934  28.012  29.077  1.00  0.00    -0.354 N 
ATOM     42  C   UNL A   1      44.566  26.942  27.069  1.00  0.00     0.074 A 
ATOM     43  C   UNL A   1      44.537  25.565  26.629  1.00  0.00     0.031 C 
ATOM     44  C   UNL A   1      38.846  27.745  29.827  1.00  0.00     0.029 A 
ATOM     45  C   UNL A   1      39.949  28.701  29.741  1.00  0.00     0.049 A 
ATOM     46  H   UNL A   1      41.820  28.394  28.881  1.00  0.00     0.167 HD
ATOM     47  C   UNL A   1      45.612  27.778  26.871  1.00  0.00     0.037 A 
ATOM     48  C   UNL A   1      39.932  29.962  30.216  1.00  0.00     0.037 A 
ATOM     49  C   UNL A   1      45.654  29.154  27.283  1.00  0.00     0.049 A 
ATOM     50  C   UNL A   1      41.122  30.860  30.018  1.00  0.00     0.074 A 
ATOM     51  C   UNL A   1      46.660  30.085  27.080  1.00  0.00     0.029 A 
ATOM     52  N   UNL A   1      44.651  29.799  27.987  1.00  0.00    -0.354 N 
ATOM     53  N   UNL A   1      42.245  30.621  29.384  1.00  0.00    -0.248 NA
ATOM     54  C   UNL A   1      41.038  32.212  30.596  1.00  0.00     0.031 C 
ATOM     55  C   UNL A   1      46.281  31.282  27.693  1.00  0.00     0.029 A 
ATOM     56  C   UNL A   1      45.024  31.107  28.249  1.00  0.00     0.049 A 
ATOM     57  H   UNL A   1      43.799  29.388  28.261  1.00  0.00     0.167 HD
ATOM     58  C   UNL A   1      42.985  31.796  29.465  1.00  0.00     0.074 A 
ATOM     59  C   UNL A   1      42.183  32.750  30.199  1.00  0.00     0.031 C 
ATOM     60  C   UNL A   1      44.220  32.056  28.972  1.00  0.00     0.037 A 
BRANCH  47  61
ATOM     61  C   UNL A   1      46.809  27.220  26.161  1.00  0.00     0.057 A 
ATOM     62  C   UNL A   1      47.817  26.539  26.852  1.00  0.00     0.134 A 
ATOM     63  C   UNL A   1      46.934  27.335  24.773  1.00  0.00     0.134 A 
ATOM     64  F   UNL A   1      47.759  26.408  28.186  1.00  0.00    -0.206 F 
ATOM     65  C   UNL A   1      48.921  26.004  26.187  1.00  0.00     0.040 A 
ATOM     66  C   UNL A   1      48.022  26.788  24.093  1.00  0.00     0.040 A 
ATOM     67  F   UNL A   1      45.998  27.975  24.054  1.00  0.00    -0.206 F 
ATOM     68  C   UNL A   1      49.022  26.123  24.802  1.00  0.00     0.006 A 
ENDBRANCH  47  61
BRANCH  48  69
ATOM     69  C   UNL A   1      38.728  30.474  30.918  1.00  0.00     0.057 A 
ATOM     70  C   UNL A   1      38.545  30.260  32.289  1.00  0.00     0.134 A 
ATOM     71  C   UNL A   1      37.719  31.151  30.226  1.00  0.00     0.134 A 
ATOM     72  F   UNL A   1      39.467  29.593  32.997  1.00  0.00    -0.206 F 
ATOM     73  C   UNL A   1      37.390  30.690  32.946  1.00  0.00     0.040 A 
ATOM     74  C   UNL A   1      36.569  31.604  30.875  1.00  0.00     0.040 A 
ATOM     75  F   UNL A   1      37.836  31.379  28.910  1.00  0.00    -0.206 F 
ATOM     76  C   UNL A   1      36.399  31.366  32.237  1.00  0.00     0.006 A 
ENDBRANCH  48  69
BRANCH  60  77
ATOM     77  C   UNL A   1      44.776  33.432  29.185  1.00  0.00     0.057 A 
ATOM     78  C   UNL A   1      44.515  34.478  28.293  1.00  0.00     0.134 A 
ATOM     79  C   UNL A   1      45.543  33.725  30.320  1.00  0.00     0.134 A 
ATOM     80  F   UNL A   1      43.796  34.259  27.181  1.00  0.00    -0.206 F 
ATOM     81  C   UNL A   1      45.008  35.766  28.512  1.00  0.00     0.040 A 
ATOM     82  C   UNL A   1      46.025  35.013  30.562  1.00  0.00     0.040 A 
ATOM     83  F   UNL A   1      45.823  32.771  31.219  1.00  0.00    -0.206 F 
ATOM     84  C   UNL A   1      45.761  36.037  29.654  1.00  0.00     0.006 A 
ENDBRANCH  60  77
ENDBRANCH  34  35
ENDBRANCH  27  29
ENDBRANCH  26  27
ENDBRANCH  25  26
ENDBRANCH  24  25
ENDBRANCH  23  24
ENDBRANCH   1  23
TORSDOF 18
ENDMDL
MODEL 2
REMARK VINA RESULT:     -11.0      2.708      8.039
REMARK SMILES COc1ccc([C@@H](CC(=O)OCCOCCOC(=O)c2ccc(-c3c4nc(c(-c5c(F)cccc5F)c5ccc([nH]5)c(-c5c(F)cccc5F)c5nc(c(-c6c(F)cccc6F)c6ccc3[nH]6)C=C5)C=C4)cc2)C2CCCCC2)cc1Cl
REMARK SMILES IDX 13 1 12 2 11 3 9 4 10 5 8 6 7 7 6 8 3 9 4 10 81 11 5 12
REMARK SMILES IDX 80 13 82 14 2 15 1 16 74 17 75 18 79 19 76 20 78 21 77 22
REMARK SMILES IDX 14 23 15 24 16 25 17 26 18 27 19 28 20 29 21 30 73 31 22 32
REMARK SMILES IDX 72 33 23 34 24 35 25 36 66 37 26 38 71 39 65 40 67 41 27 42
REMARK SMILES IDX 70 43 64 44 63 45 28 47 54 48 37 49 53 50 38 51 41 52 52 53
REMARK SMILES IDX 68 54 39 55 40 56 51 58 69 59 42 60 29 61 30 62 35 63 31 64
REMARK SMILES IDX 32 65 34 66 36 67 33 68 55 69 56 70 61 71 57 72 58 73 60 74
REMARK SMILES IDX 62 75 59 76 43 77 44 78 49 79 45 80 46 81 48 82 50 83 47 84
REMARK H PARENT 67 46 41 57
REMARK Flexibility Score: inf
ROOT
ATOM      1  C   UNL A   1      34.310  32.797  29.021  1.00  0.00     0.202 C 
ENDROOT
BRANCH   1   2
ATOM      2  C   UNL A   1      34.666  31.548  28.209  1.00  0.00     0.261 C 
BRANCH   2   3
ATOM      3  O   UNL A   1      33.509  30.886  27.649  1.00  0.00    -0.463 OA
BRANCH   3   4
ATOM      4  C   UNL A   1      33.706  29.687  27.057  1.00  0.00     0.306 C 
ATOM      5  O   UNL A   1      34.808  29.251  26.736  1.00  0.00    -0.252 OA
BRANCH   4   6
ATOM      6  C   UNL A   1      32.429  28.991  26.640  1.00  0.00     0.131 C 
BRANCH   6   7
ATOM      7  C   UNL A   1      32.221  28.244  25.304  1.00  0.00     0.033 C 
BRANCH   7   8
ATOM      8  C   UNL A   1      31.020  28.696  24.479  1.00  0.00    -0.042 A 
ATOM      9  C   UNL A   1      28.831  29.645  22.969  1.00  0.00     0.137 A 
ATOM     10  C   UNL A   1      29.169  28.296  22.947  1.00  0.00     0.048 A 
ATOM     11  C   UNL A   1      29.557  30.527  23.768  1.00  0.00     0.083 A 
ATOM     12  C   UNL A   1      30.267  27.831  23.677  1.00  0.00     0.008 A 
ATOM     13  C   UNL A   1      30.641  30.053  24.515  1.00  0.00     0.028 A 
ATOM     14  Cl  UNL A   1      29.152  32.200  23.878  1.00  0.00    -0.080 Cl
BRANCH   9  15
ATOM     15  O   UNL A   1      27.736  30.032  22.245  1.00  0.00    -0.495 OA
ATOM     16  C   UNL A   1      28.129  30.564  20.978  1.00  0.00     0.278 C 
ENDBRANCH   9  15
ENDBRANCH   7   8
BRANCH   7  17
ATOM     17  C   UNL A   1      32.541  26.712  25.298  1.00  0.00    -0.003 C 
ATOM     18  C   UNL A   1      34.023  26.336  25.247  1.00  0.00     0.004 C 
ATOM     19  C   UNL A   1      31.859  26.008  26.496  1.00  0.00     0.004 C 
ATOM     20  C   UNL A   1      34.246  24.823  25.254  1.00  0.00     0.000 C 
ATOM     21  C   UNL A   1      32.094  24.499  26.502  1.00  0.00     0.000 C 
ATOM     22  C   UNL A   1      33.580  24.168  26.459  1.00  0.00     0.000 C 
ENDBRANCH   7  17
ENDBRANCH   6   7
ENDBRANCH   4   6
ENDBRANCH   3   4
ENDBRANCH   2   3
ENDBRANCH   1   2
BRANCH   1  23
ATOM     23  O   UNL A   1      34.402  32.634  30.437  1.00  0.00    -0.374 OA
BRANCH  23  24
ATOM     24  C   UNL A   1      34.409  33.830  31.216  1.00  0.00     0.202 C 
BRANCH  24  25
ATOM     25  C   UNL A   1      35.330  33.751  32.435  1.00  0.00     0.261 C 
BRANCH  25  26
ATOM     26  O   UNL A   1      35.465  32.382  32.849  1.00  0.00    -0.460 OA
BRANCH  26  27
ATOM     27  C   UNL A   1      36.621  32.101  33.478  1.00  0.00     0.338 C 
ATOM     28  O   UNL A   1      36.887  32.268  34.662  1.00  0.00    -0.246 OA
BRANCH  27  29
ATOM     29  C   UNL A   1      37.491  31.389  32.534  1.00  0.00     0.060 A 
ATOM     30  C   UNL A   1      38.599  30.710  33.049  1.00  0.00     0.016 A 
ATOM     31  C   UNL A   1      37.266  31.451  31.159  1.00  0.00     0.016 A 
ATOM     32  C   UNL A   1      39.524  30.136  32.177  1.00  0.00     0.010 A 
ATOM     33  C   UNL A   1      38.189  30.856  30.287  1.00  0.00     0.010 A 
ATOM     34  C   UNL A   1      39.345  30.231  30.788  1.00  0.00    -0.014 A 
BRANCH  34  35
ATOM     35  C   UNL A   1      40.445  29.796  29.885  1.00  0.00     0.031 A 
ATOM     36  C   UNL A   1      41.579  30.744  29.588  1.00  0.00     0.074 A 
ATOM     37  C   UNL A   1      40.487  28.544  29.393  1.00  0.00     0.049 A 
ATOM     38  N   UNL A   1      42.690  30.526  28.931  1.00  0.00    -0.248 NA
ATOM     39  C   UNL A   1      41.443  32.117  30.097  1.00  0.00     0.031 C 
ATOM     40  C   UNL A   1      39.465  27.518  29.592  1.00  0.00     0.029 A 
ATOM     41  N   UNL A   1      41.448  27.918  28.635  1.00  0.00    -0.354 N 
ATOM     42  C   UNL A   1      43.386  31.727  28.955  1.00  0.00     0.074 A 
ATOM     43  C   UNL A   1      42.552  32.685  29.646  1.00  0.00     0.031 C 
ATOM     44  C   UNL A   1      39.864  26.383  28.990  1.00  0.00     0.029 A 
ATOM     45  C   UNL A   1      41.163  26.603  28.358  1.00  0.00     0.049 A 
ATOM     46  H   UNL A   1      42.264  28.370  28.320  1.00  0.00     0.167 HD
ATOM     47  C   UNL A   1      44.619  32.007  28.472  1.00  0.00     0.037 A 
ATOM     48  C   UNL A   1      41.873  25.677  27.683  1.00  0.00     0.037 A 
ATOM     49  C   UNL A   1      45.472  31.066  27.799  1.00  0.00     0.049 A 
ATOM     50  C   UNL A   1      43.225  26.024  27.121  1.00  0.00     0.074 A 
ATOM     51  C   UNL A   1      46.757  31.258  27.318  1.00  0.00     0.029 A 
ATOM     52  N   UNL A   1      45.128  29.757  27.506  1.00  0.00    -0.354 N 
ATOM     53  N   UNL A   1      43.897  27.146  27.212  1.00  0.00    -0.248 NA
ATOM     54  C   UNL A   1      43.922  24.969  26.368  1.00  0.00     0.031 C 
ATOM     55  C   UNL A   1      47.176  30.075  26.701  1.00  0.00     0.029 A 
ATOM     56  C   UNL A   1      46.165  29.137  26.828  1.00  0.00     0.049 A 
ATOM     57  H   UNL A   1      44.273  29.331  27.745  1.00  0.00     0.167 HD
ATOM     58  C   UNL A   1      45.101  26.922  26.552  1.00  0.00     0.074 A 
ATOM     59  C   UNL A   1      45.074  25.557  26.076  1.00  0.00     0.031 C 
ATOM     60  C   UNL A   1      46.137  27.776  26.363  1.00  0.00     0.037 A 
BRANCH  47  61
ATOM     61  C   UNL A   1      45.128  33.404  28.663  1.00  0.00     0.057 A 
ATOM     62  C   UNL A   1      45.897  33.756  29.779  1.00  0.00     0.134 A 
ATOM     63  C   UNL A   1      44.877  34.393  27.706  1.00  0.00     0.134 A 
ATOM     64  F   UNL A   1      46.159  32.854  30.737  1.00  0.00    -0.206 F 
ATOM     65  C   UNL A   1      46.386  35.052  29.945  1.00  0.00     0.040 A 
ATOM     66  C   UNL A   1      45.377  35.688  27.851  1.00  0.00     0.040 A 
ATOM     67  F   UNL A   1      44.149  34.116  26.614  1.00  0.00    -0.206 F 
ATOM     68  C   UNL A   1      46.130  36.020  28.975  1.00  0.00     0.006 A 
ENDBRANCH  47  61
BRANCH  48  69
ATOM     69  C   UNL A   1      41.331  24.306  27.511  1.00  0.00     0.057 A 
ATOM     70  C   UNL A   1      40.293  24.047  26.610  1.00  0.00     0.134 A 
ATOM     71  C   UNL A   1      41.812  23.236  28.274  1.00  0.00     0.134 A 
ATOM     72  F   UNL A   1      39.775  25.040  25.874  1.00  0.00    -0.206 F 
ATOM     73  C   UNL A   1      39.739  22.772  26.483  1.00  0.00     0.040 A 
ATOM     74  C   UNL A   1      41.281  21.952  28.141  1.00  0.00     0.040 A 
ATOM     75  F   UNL A   1      42.801  23.426  29.159  1.00  0.00    -0.206 F 
ATOM     76  C   UNL A   1      40.237  21.720  27.249  1.00  0.00     0.006 A 
ENDBRANCH  48  69
BRANCH  60  77
ATOM     77  C   UNL A   1      47.337  27.258  25.629  1.00  0.00     0.057 A 
ATOM     78  C   UNL A   1      47.494  27.442  24.251  1.00  0.00     0.134 A 
ATOM     79  C   UNL A   1      48.370  26.608  26.317  1.00  0.00     0.134 A 
ATOM     80  F   UNL A   1      46.535  28.046  23.532  1.00  0.00    -0.206 F 
ATOM     81  C   UNL A   1      48.629  26.985  23.578  1.00  0.00     0.040 A 
ATOM     82  C   UNL A   1      49.520  26.166  25.660  1.00  0.00     0.040 A 
ATOM     83  F   UNL A   1      48.287  26.408  27.641  1.00  0.00    -0.206 F 
ATOM     84  C   UNL A   1      49.650  26.351  24.285  1.00  0.00     0.006 A 
ENDBRANCH  60  77
ENDBRANCH  34  35
ENDBRANCH  27  29
ENDBRANCH  26  27
ENDBRANCH  25  26
ENDBRANCH  24  25
ENDBRANCH  23  24
ENDBRANCH   1  23
TORSDOF 18
ENDMDL
MODEL 3
REMARK VINA RESULT:     -10.8      2.724      7.832
REMARK SMILES COc1ccc([C@@H](CC(=O)OCCOCCOC(=O)c2ccc(-c3c4nc(c(-c5c(F)cccc5F)c5ccc([nH]5)c(-c5c(F)cccc5F)c5nc(c(-c6c(F)cccc6F)c6ccc3[nH]6)C=C5)C=C4)cc2)C2CCCCC2)cc1Cl
REMARK SMILES IDX 13 1 12 2 11 3 9 4 10 5 8 6 7 7 6 8 3 9 4 10 81 11 5 12
REMARK SMILES IDX 80 13 82 14 2 15 1 16 74 17 75 18 79 19 76 20 78 21 77 22
REMARK SMILES IDX 14 23 15 24 16 25 17 26 18 27 19 28 20 29 21 30 73 31 22 32
REMARK SMILES IDX 72 33 23 34 24 35 25 36 66 37 26 38 71 39 65 40 67 41 27 42
REMARK SMILES IDX 70 43 64 44 63 45 28 47 54 48 37 49 53 50 38 51 41 52 52 53
REMARK SMILES IDX 68 54 39 55 40 56 51 58 69 59 42 60 29 61 30 62 35 63 31 64
REMARK SMILES IDX 32 65 34 66 36 67 33 68 55 69 56 70 61 71 57 72 58 73 60 74
REMARK SMILES IDX 62 75 59 76 43 77 44 78 49 79 45 80 46 81 48 82 50 83 47 84
REMARK H PARENT 67 46 41 57
REMARK Flexibility Score: inf
ROOT
ATOM      1  C   UNL A   1      33.887  31.828  27.897  1.00  0.00     0.202 C 
ENDROOT
BRANCH   1   2
ATOM      2  C   UNL A   1      32.897  30.849  27.258  1.00  0.00     0.261 C 
BRANCH   2   3
ATOM      3  O   UNL A   1      33.545  29.726  26.618  1.00  0.00    -0.463 OA
BRANCH   3   4
ATOM      4  C   UNL A   1      33.001  28.504  26.814  1.00  0.00     0.306 C 
ATOM      5  O   UNL A   1      32.090  28.274  27.604  1.00  0.00    -0.252 OA
BRANCH   4   6
ATOM      6  C   UNL A   1      33.741  27.384  26.115  1.00  0.00     0.131 C 
BRANCH   6   7
ATOM      7  C   UNL A   1      33.424  26.861  24.696  1.00  0.00     0.033 C 
BRANCH   7   8
ATOM      8  C   UNL A   1      32.215  27.495  24.018  1.00  0.00    -0.042 A 
ATOM      9  C   UNL A   1      29.904  28.603  22.833  1.00  0.00     0.137 A 
ATOM     10  C   UNL A   1      31.152  29.175  22.610  1.00  0.00     0.048 A 
ATOM     11  C   UNL A   1      29.798  27.456  23.617  1.00  0.00     0.083 A 
ATOM     12  C   UNL A   1      32.292  28.639  23.216  1.00  0.00     0.008 A 
ATOM     13  C   UNL A   1      30.946  26.910  24.203  1.00  0.00     0.028 A 
ATOM     14  Cl  UNL A   1      28.286  26.671  23.885  1.00  0.00    -0.080 Cl
BRANCH   9  15
ATOM     15  O   UNL A   1      28.830  29.166  22.197  1.00  0.00    -0.495 OA
ATOM     16  C   UNL A   1      29.179  30.437  21.644  1.00  0.00     0.278 C 
ENDBRANCH   9  15
ENDBRANCH   7   8
BRANCH   7  17
ATOM     17  C   UNL A   1      33.651  25.333  24.443  1.00  0.00    -0.003 C 
ATOM     18  C   UNL A   1      33.688  24.893  22.978  1.00  0.00     0.004 C 
ATOM     19  C   UNL A   1      34.923  24.841  25.175  1.00  0.00     0.004 C 
ATOM     20  C   UNL A   1      33.921  23.390  22.822  1.00  0.00     0.000 C 
ATOM     21  C   UNL A   1      35.155  23.341  25.006  1.00  0.00     0.000 C 
ATOM     22  C   UNL A   1      35.194  22.948  23.536  1.00  0.00     0.000 C 
ENDBRANCH   7  17
ENDBRANCH   6   7
ENDBRANCH   4   6
ENDBRANCH   3   4
ENDBRANCH   2   3
ENDBRANCH   1   2
BRANCH   1  23
ATOM     23  O   UNL A   1      33.426  33.178  27.976  1.00  0.00    -0.374 OA
BRANCH  23  24
ATOM     24  C   UNL A   1      34.281  34.105  28.645  1.00  0.00     0.202 C 
BRANCH  24  25
ATOM     25  C   UNL A   1      34.370  33.863  30.153  1.00  0.00     0.261 C 
BRANCH  25  26
ATOM     26  O   UNL A   1      35.713  33.491  30.503  1.00  0.00    -0.460 OA
BRANCH  26  27
ATOM     27  C   UNL A   1      35.805  32.378  31.253  1.00  0.00     0.338 C 
ATOM     28  O   UNL A   1      35.014  31.979  32.100  1.00  0.00    -0.246 OA
BRANCH  27  29
ATOM     29  C   UNL A   1      36.954  31.600  30.774  1.00  0.00     0.060 A 
ATOM     30  C   UNL A   1      37.862  31.120  31.724  1.00  0.00     0.016 A 
ATOM     31  C   UNL A   1      37.178  31.410  29.411  1.00  0.00     0.016 A 
ATOM     32  C   UNL A   1      39.035  30.496  31.302  1.00  0.00     0.010 A 
ATOM     33  C   UNL A   1      38.350  30.764  28.994  1.00  0.00     0.010 A 
ATOM     34  C   UNL A   1      39.306  30.339  29.934  1.00  0.00    -0.014 A 
BRANCH  34  35
ATOM     35  C   UNL A   1      40.650  29.862  29.512  1.00  0.00     0.031 A 
ATOM     36  C   UNL A   1      40.820  28.437  29.049  1.00  0.00     0.074 A 
ATOM     37  C   UNL A   1      41.702  30.700  29.460  1.00  0.00     0.049 A 
ATOM     38  N   UNL A   1      41.870  27.855  28.527  1.00  0.00    -0.248 NA
ATOM     39  C   UNL A   1      39.654  27.552  29.193  1.00  0.00     0.031 C 
ATOM     40  C   UNL A   1      41.693  32.101  29.876  1.00  0.00     0.029 A 
ATOM     41  N   UNL A   1      42.986  30.492  29.012  1.00  0.00    -0.354 N 
ATOM     42  C   UNL A   1      41.490  26.544  28.274  1.00  0.00     0.074 A 
ATOM     43  C   UNL A   1      40.131  26.400  28.745  1.00  0.00     0.031 C 
ATOM     44  C   UNL A   1      42.905  32.634  29.643  1.00  0.00     0.029 A 
ATOM     45  C   UNL A   1      43.779  31.612  29.070  1.00  0.00     0.049 A 
ATOM     46  H   UNL A   1      43.305  29.622  28.682  1.00  0.00     0.167 HD
ATOM     47  C   UNL A   1      42.194  25.552  27.679  1.00  0.00     0.037 A 
ATOM     48  C   UNL A   1      45.059  31.796  28.692  1.00  0.00     0.037 A 
ATOM     49  C   UNL A   1      43.538  25.679  27.186  1.00  0.00     0.049 A 
ATOM     50  C   UNL A   1      45.834  30.667  28.069  1.00  0.00     0.074 A 
ATOM     51  C   UNL A   1      44.308  24.734  26.528  1.00  0.00     0.029 A 
ATOM     52  N   UNL A   1      44.317  26.819  27.300  1.00  0.00    -0.354 N 
ATOM     53  N   UNL A   1      45.437  29.452  27.776  1.00  0.00    -0.248 NA
ATOM     54  C   UNL A   1      47.237  30.939  27.715  1.00  0.00     0.031 C 
ATOM     55  C   UNL A   1      45.566  25.290  26.277  1.00  0.00     0.029 A 
ATOM     56  C   UNL A   1      45.567  26.592  26.748  1.00  0.00     0.049 A 
ATOM     57  H   UNL A   1      44.024  27.664  27.712  1.00  0.00     0.167 HD
ATOM     58  C   UNL A   1      46.529  28.829  27.182  1.00  0.00     0.074 A 
ATOM     59  C   UNL A   1      47.601  29.798  27.147  1.00  0.00     0.031 C 
ATOM     60  C   UNL A   1      46.629  27.563  26.708  1.00  0.00     0.037 A 
BRANCH  47  61
ATOM     61  C   UNL A   1      41.510  24.228  27.520  1.00  0.00     0.057 A 
ATOM     62  C   UNL A   1      41.825  23.138  28.340  1.00  0.00     0.134 A 
ATOM     63  C   UNL A   1      40.503  24.054  26.564  1.00  0.00     0.134 A 
ATOM     64  F   UNL A   1      42.791  23.241  29.266  1.00  0.00    -0.206 F 
ATOM     65  C   UNL A   1      41.174  21.912  28.203  1.00  0.00     0.040 A 
ATOM     66  C   UNL A   1      39.830  22.839  26.430  1.00  0.00     0.040 A 
ATOM     67  F   UNL A   1      40.153  25.062  25.750  1.00  0.00    -0.206 F 
ATOM     68  C   UNL A   1      40.169  21.763  27.249  1.00  0.00     0.006 A 
ENDBRANCH  47  61
BRANCH  48  69
ATOM     69  C   UNL A   1      45.702  33.122  28.872  1.00  0.00     0.057 A 
ATOM     70  C   UNL A   1      46.378  33.444  30.054  1.00  0.00     0.134 A 
ATOM     71  C   UNL A   1      45.618  34.108  27.883  1.00  0.00     0.134 A 
ATOM     72  F   UNL A   1      46.466  32.547  31.047  1.00  0.00    -0.206 F 
ATOM     73  C   UNL A   1      46.937  34.707  30.253  1.00  0.00     0.040 A 
ATOM     74  C   UNL A   1      46.190  35.368  28.062  1.00  0.00     0.040 A 
ATOM     75  F   UNL A   1      44.976  33.860  26.732  1.00  0.00    -0.206 F 
ATOM     76  C   UNL A   1      46.845  35.673  29.253  1.00  0.00     0.006 A 
ENDBRANCH  48  69
BRANCH  60  77
ATOM     77  C   UNL A   1      47.932  27.155  26.088  1.00  0.00     0.057 A 
ATOM     78  C   UNL A   1      48.954  26.569  26.843  1.00  0.00     0.134 A 
ATOM     79  C   UNL A   1      48.148  27.309  24.713  1.00  0.00     0.134 A 
ATOM     80  F   UNL A   1      48.813  26.404  28.167  1.00  0.00    -0.206 F 
ATOM     81  C   UNL A   1      50.154  26.161  26.255  1.00  0.00     0.040 A 
ATOM     82  C   UNL A   1      49.334  26.886  24.109  1.00  0.00     0.040 A 
ATOM     83  F   UNL A   1      47.206  27.856  23.931  1.00  0.00    -0.206 F 
ATOM     84  C   UNL A   1      50.343  26.314  24.882  1.00  0.00     0.006 A 
ENDBRANCH  60  77
ENDBRANCH  34  35
ENDBRANCH  27  29
ENDBRANCH  26  27
ENDBRANCH  25  26
ENDBRANCH  24  25
ENDBRANCH  23  24
ENDBRANCH   1  23
TORSDOF 18
ENDMDL
