MODEL 1
REMARK VINA RESULT:     -11.5      0.000      0.000
REMARK SMILES Cc1cc(Cl)c(C)c2c1O[C@H](C(F)(F)F)C(C(=O)OCCOCCOC(=O)c1ccc(-c3c4nc(c(-c5c(F)cccc5F)c5ccc([nH]5)c(-c5c(F)cccc5F)c5nc(c(-c6c(F)cccc6F)c6ccc3[nH]6)C=C5)C=C4)cc1)=C2
REMARK SMILES IDX 23 1 22 2 21 3 20 4 19 5 17 6 18 7 16 8 1 9 2 10 3 11 9 12
REMARK SMILES IDX 4 13 8 14 10 15 5 16 6 17 82 18 11 19 7 20 12 21 13 22 14 23
REMARK SMILES IDX 15 24 24 25 25 26 26 27 27 28 28 29 29 30 81 31 30 32 80 33
REMARK SMILES IDX 31 34 32 35 33 36 74 37 34 38 79 39 73 40 75 41 35 42 78 43
REMARK SMILES IDX 72 44 71 45 36 47 62 48 45 49 61 50 46 51 49 52 60 53 76 54
REMARK SMILES IDX 47 55 48 56 59 58 77 59 50 60 37 61 38 62 43 63 39 64 40 65
REMARK SMILES IDX 42 66 44 67 41 68 63 69 64 70 69 71 65 72 66 73 68 74 70 75
REMARK SMILES IDX 67 76 51 77 52 78 57 79 53 80 54 81 56 82 58 83 55 84
REMARK H PARENT 75 46 49 57
REMARK Flexibility Score: inf
ROOT
ATOM      1  C   UNL A   1      31.381  31.780  26.528  1.00  0.00     0.202 C 
ENDROOT
BRANCH   1   2
ATOM      2  O   UNL A   1      32.362  30.753  26.374  1.00  0.00    -0.374 OA
BRANCH   2   3
ATOM      3  C   UNL A   1      32.190  29.553  27.127  1.00  0.00     0.202 C 
BRANCH   3   4
ATOM      4  C   UNL A   1      31.752  28.312  26.344  1.00  0.00     0.261 C 
BRANCH   4   5
ATOM      5  O   UNL A   1      32.678  27.227  26.520  1.00  0.00    -0.460 OA
BRANCH   5   6
ATOM      6  C   UNL A   1      33.250  26.784  25.378  1.00  0.00     0.338 C 
ATOM      7  O   UNL A   1      33.755  27.466  24.498  1.00  0.00    -0.246 OA
BRANCH   6   8
ATOM      8  C   UNL A   1      33.301  25.310  25.381  1.00  0.00     0.087 C 
ATOM      9  C   UNL A   1      32.391  20.303  24.733  1.00  0.00     0.048 C 
ATOM     10  C   UNL A   1      33.599  21.177  24.924  1.00  0.00    -0.007 A 
ATOM     11  C   UNL A   1      34.866  20.584  24.848  1.00  0.00     0.028 A 
ATOM     12  C   UNL A   1      33.510  22.553  25.173  1.00  0.00     0.131 A 
ATOM     13  C   UNL A   1      36.027  21.339  25.033  1.00  0.00     0.045 A 
ATOM     14  C   UNL A   1      34.676  23.329  25.317  1.00  0.00     0.022 A 
ATOM     15  O   UNL A   1      32.248  23.069  25.285  1.00  0.00    -0.475 OA
ATOM     16  Cl  UNL A   1      37.530  20.487  24.917  1.00  0.00    -0.084 Cl
ATOM     17  C   UNL A   1      35.956  22.719  25.284  1.00  0.00    -0.021 A 
ATOM     18  C   UNL A   1      34.527  24.776  25.437  1.00  0.00     0.027 C 
ATOM     19  C   UNL A   1      32.044  24.505  25.299  1.00  0.00     0.316 C 
ATOM     20  C   UNL A   1      37.198  23.545  25.520  1.00  0.00     0.047 C 
BRANCH  19  21
ATOM     21  C   UNL A   1      31.172  24.882  24.093  1.00  0.00     0.430 C 
ATOM     22  F   UNL A   1      30.382  23.845  23.717  1.00  0.00    -0.167 F 
ATOM     23  F   UNL A   1      30.342  25.913  24.376  1.00  0.00    -0.167 F 
ATOM     24  F   UNL A   1      31.912  25.237  23.019  1.00  0.00    -0.167 F 
ENDBRANCH  19  21
ENDBRANCH   6   8
ENDBRANCH   5   6
ENDBRANCH   4   5
ENDBRANCH   3   4
ENDBRANCH   2   3
ENDBRANCH   1   2
BRANCH   1  25
ATOM     25  C   UNL A   1      31.898  33.206  26.752  1.00  0.00     0.261 C 
BRANCH  25  26
ATOM     26  O   UNL A   1      32.282  33.430  28.121  1.00  0.00    -0.460 OA
BRANCH  26  27
ATOM     27  C   UNL A   1      33.363  34.230  28.282  1.00  0.00     0.338 C 
ATOM     28  O   UNL A   1      33.378  35.447  28.392  1.00  0.00    -0.246 OA
BRANCH  27  29
ATOM     29  C   UNL A   1      34.571  33.412  28.493  1.00  0.00     0.060 A 
ATOM     30  C   UNL A   1      34.390  32.092  28.925  1.00  0.00     0.016 A 
ATOM     31  C   UNL A   1      35.851  33.958  28.380  1.00  0.00     0.016 A 
ATOM     32  C   UNL A   1      35.490  31.327  29.303  1.00  0.00     0.010 A 
ATOM     33  C   UNL A   1      36.953  33.193  28.774  1.00  0.00     0.010 A 
ATOM     34  C   UNL A   1      36.772  31.892  29.277  1.00  0.00    -0.014 A 
BRANCH  34  35
ATOM     35  C   UNL A   1      37.886  31.186  29.953  1.00  0.00     0.031 A 
ATOM     36  C   UNL A   1      38.154  31.483  31.402  1.00  0.00     0.074 A 
ATOM     37  C   UNL A   1      38.613  30.259  29.306  1.00  0.00     0.049 A 
ATOM     38  N   UNL A   1      39.088  31.011  32.187  1.00  0.00    -0.248 NA
ATOM     39  C   UNL A   1      37.244  32.438  32.057  1.00  0.00     0.031 C 
ATOM     40  C   UNL A   1      38.406  29.838  27.922  1.00  0.00     0.029 A 
ATOM     41  N   UNL A   1      39.671  29.501  29.737  1.00  0.00    -0.354 N 
ATOM     42  C   UNL A   1      38.875  31.605  33.425  1.00  0.00     0.074 A 
ATOM     43  C   UNL A   1      37.744  32.496  33.282  1.00  0.00     0.031 C 
ATOM     44  C   UNL A   1      39.314  28.895  27.615  1.00  0.00     0.029 A 
ATOM     45  C   UNL A   1      40.183  28.672  28.769  1.00  0.00     0.049 A 
ATOM     46  H   UNL A   1      40.030  29.547  30.653  1.00  0.00     0.167 HD
ATOM     47  C   UNL A   1      39.554  31.416  34.581  1.00  0.00     0.037 A 
ATOM     48  C   UNL A   1      41.243  27.842  28.810  1.00  0.00     0.037 A 
ATOM     49  C   UNL A   1      40.680  30.533  34.723  1.00  0.00     0.049 A 
ATOM     50  C   UNL A   1      42.044  27.724  30.079  1.00  0.00     0.074 A 
ATOM     51  C   UNL A   1      41.441  30.281  35.852  1.00  0.00     0.029 A 
ATOM     52  N   UNL A   1      41.209  29.762  33.701  1.00  0.00    -0.354 N 
ATOM     53  N   UNL A   1      41.842  28.297  31.241  1.00  0.00    -0.248 NA
ATOM     54  C   UNL A   1      43.224  26.847  30.041  1.00  0.00     0.031 C 
ATOM     55  C   UNL A   1      42.456  29.386  35.502  1.00  0.00     0.029 A 
ATOM     56  C   UNL A   1      42.301  29.048  34.167  1.00  0.00     0.049 A 
ATOM     57  H   UNL A   1      40.862  29.725  32.781  1.00  0.00     0.167 HD
ATOM     58  C   UNL A   1      42.854  27.839  32.074  1.00  0.00     0.074 A 
ATOM     59  C   UNL A   1      43.661  26.928  31.290  1.00  0.00     0.031 C 
ATOM     60  C   UNL A   1      43.095  28.146  33.373  1.00  0.00     0.037 A 
BRANCH  47  61
ATOM     61  C   UNL A   1      39.103  32.191  35.782  1.00  0.00     0.057 A 
ATOM     62  C   UNL A   1      38.243  31.634  36.736  1.00  0.00     0.134 A 
ATOM     63  C   UNL A   1      39.573  33.490  36.011  1.00  0.00     0.134 A 
ATOM     64  F   UNL A   1      37.747  30.399  36.565  1.00  0.00    -0.206 F 
ATOM     65  C   UNL A   1      37.855  32.348  37.872  1.00  0.00     0.040 A 
ATOM     66  C   UNL A   1      39.208  34.205  37.153  1.00  0.00     0.040 A 
ATOM     67  F   UNL A   1      40.399  34.080  35.136  1.00  0.00    -0.206 F 
ATOM     68  C   UNL A   1      38.346  33.634  38.086  1.00  0.00     0.006 A 
ENDBRANCH  47  61
BRANCH  48  69
ATOM     69  C   UNL A   1      41.618  27.062  27.605  1.00  0.00     0.057 A 
ATOM     70  C   UNL A   1      41.161  25.752  27.419  1.00  0.00     0.134 A 
ATOM     71  C   UNL A   1      42.448  27.602  26.614  1.00  0.00     0.134 A 
ATOM     72  F   UNL A   1      40.384  25.171  28.345  1.00  0.00    -0.206 F 
ATOM     73  C   UNL A   1      41.521  25.005  26.296  1.00  0.00     0.040 A 
ATOM     74  C   UNL A   1      42.797  26.874  25.476  1.00  0.00     0.040 A 
ATOM     75  F   UNL A   1      42.921  28.852  26.736  1.00  0.00    -0.206 F 
ATOM     76  C   UNL A   1      42.337  25.570  25.318  1.00  0.00     0.006 A 
ENDBRANCH  48  69
BRANCH  60  77
ATOM     77  C   UNL A   1      44.266  27.484  34.036  1.00  0.00     0.057 A 
ATOM     78  C   UNL A   1      45.525  28.096  34.085  1.00  0.00     0.134 A 
ATOM     79  C   UNL A   1      44.118  26.253  34.688  1.00  0.00     0.134 A 
ATOM     80  F   UNL A   1      45.734  29.271  33.470  1.00  0.00    -0.206 F 
ATOM     81  C   UNL A   1      46.599  27.500  34.747  1.00  0.00     0.040 A 
ATOM     82  C   UNL A   1      45.178  25.659  35.373  1.00  0.00     0.040 A 
ATOM     83  F   UNL A   1      42.936  25.620  34.688  1.00  0.00    -0.206 F 
ATOM     84  C   UNL A   1      46.424  26.282  35.402  1.00  0.00     0.006 A 
ENDBRANCH  60  77
ENDBRANCH  34  35
ENDBRANCH  27  29
ENDBRANCH  26  27
ENDBRANCH  25  26
ENDBRANCH   1  25
TORSDOF 15
ENDMDL
MODEL 2
REMARK VINA RESULT:     -11.3      0.479      6.138
REMARK SMILES Cc1cc(Cl)c(C)c2c1O[C@H](C(F)(F)F)C(C(=O)OCCOCCOC(=O)c1ccc(-c3c4nc(c(-c5c(F)cccc5F)c5ccc([nH]5)c(-c5c(F)cccc5F)c5nc(c(-c6c(F)cccc6F)c6ccc3[nH]6)C=C5)C=C4)cc1)=C2
REMARK SMILES IDX 23 1 22 2 21 3 20 4 19 5 17 6 18 7 16 8 1 9 2 10 3 11 9 12
REMARK SMILES IDX 4 13 8 14 10 15 5 16 6 17 82 18 11 19 7 20 12 21 13 22 14 23
REMARK SMILES IDX 15 24 24 25 25 26 26 27 27 28 28 29 29 30 81 31 30 32 80 33
REMARK SMILES IDX 31 34 32 35 33 36 74 37 34 38 79 39 73 40 75 41 35 42 78 43
REMARK SMILES IDX 72 44 71 45 36 47 62 48 45 49 61 50 46 51 49 52 60 53 76 54
REMARK SMILES IDX 47 55 48 56 59 58 77 59 50 60 37 61 38 62 43 63 39 64 40 65
REMARK SMILES IDX 42 66 44 67 41 68 63 69 64 70 69 71 65 72 66 73 68 74 70 75
REMARK SMILES IDX 67 76 51 77 52 78 57 79 53 80 54 81 56 82 58 83 55 84
REMARK H PARENT 75 46 49 57
REMARK Flexibility Score: inf
ROOT
ATOM      1  C   UNL A   1      31.409  31.742  26.506  1.00  0.00     0.202 C 
ENDROOT
BRANCH   1   2
ATOM      2  O   UNL A   1      32.428  30.746  26.391  1.00  0.00    -0.374 OA
BRANCH   2   3
ATOM      3  C   UNL A   1      32.262  29.539  27.132  1.00  0.00     0.202 C 
BRANCH   3   4
ATOM      4  C   UNL A   1      31.811  28.308  26.340  1.00  0.00     0.261 C 
BRANCH   4   5
ATOM      5  O   UNL A   1      32.731  27.216  26.499  1.00  0.00    -0.460 OA
BRANCH   5   6
ATOM      6  C   UNL A   1      33.283  26.774  25.347  1.00  0.00     0.338 C 
ATOM      7  O   UNL A   1      33.740  27.458  24.443  1.00  0.00    -0.246 OA
BRANCH   6   8
ATOM      8  C   UNL A   1      33.383  25.303  25.370  1.00  0.00     0.087 C 
ATOM      9  C   UNL A   1      32.643  20.260  24.782  1.00  0.00     0.048 C 
ATOM     10  C   UNL A   1      33.821  21.175  24.971  1.00  0.00    -0.007 A 
ATOM     11  C   UNL A   1      35.106  20.624  24.914  1.00  0.00     0.028 A 
ATOM     12  C   UNL A   1      33.685  22.551  25.200  1.00  0.00     0.131 A 
ATOM     13  C   UNL A   1      36.241  21.419  25.098  1.00  0.00     0.045 A 
ATOM     14  C   UNL A   1      34.823  23.367  25.344  1.00  0.00     0.022 A 
ATOM     15  O   UNL A   1      32.404  23.026  25.295  1.00  0.00    -0.475 OA
ATOM     16  Cl  UNL A   1      37.772  20.616  25.006  1.00  0.00    -0.084 Cl
ATOM     17  C   UNL A   1      36.123  22.799  25.330  1.00  0.00    -0.021 A 
ATOM     18  C   UNL A   1      34.625  24.810  25.443  1.00  0.00     0.027 C 
ATOM     19  C   UNL A   1      32.153  24.455  25.288  1.00  0.00     0.316 C 
ATOM     20  C   UNL A   1      37.335  23.669  25.565  1.00  0.00     0.047 C 
BRANCH  19  21
ATOM     21  C   UNL A   1      31.280  24.787  24.070  1.00  0.00     0.430 C 
ATOM     22  F   UNL A   1      30.502  23.732  23.724  1.00  0.00    -0.167 F 
ATOM     23  F   UNL A   1      30.440  25.818  24.321  1.00  0.00    -0.167 F 
ATOM     24  F   UNL A   1      32.019  25.118  22.988  1.00  0.00    -0.167 F 
ENDBRANCH  19  21
ENDBRANCH   6   8
ENDBRANCH   5   6
ENDBRANCH   4   5
ENDBRANCH   3   4
ENDBRANCH   2   3
ENDBRANCH   1   2
BRANCH   1  25
ATOM     25  C   UNL A   1      31.873  33.190  26.700  1.00  0.00     0.261 C 
BRANCH  25  26
ATOM     26  O   UNL A   1      32.122  33.495  28.084  1.00  0.00    -0.460 OA
BRANCH  26  27
ATOM     27  C   UNL A   1      33.158  34.340  28.300  1.00  0.00     0.338 C 
ATOM     28  O   UNL A   1      33.119  35.560  28.374  1.00  0.00    -0.246 OA
BRANCH  27  29
ATOM     29  C   UNL A   1      34.376  33.578  28.624  1.00  0.00     0.060 A 
ATOM     30  C   UNL A   1      34.211  32.279  29.122  1.00  0.00     0.016 A 
ATOM     31  C   UNL A   1      35.643  34.159  28.548  1.00  0.00     0.016 A 
ATOM     32  C   UNL A   1      35.311  31.574  29.604  1.00  0.00     0.010 A 
ATOM     33  C   UNL A   1      36.744  33.454  29.047  1.00  0.00     0.010 A 
ATOM     34  C   UNL A   1      36.574  32.179  29.614  1.00  0.00    -0.014 A 
BRANCH  34  35
ATOM     35  C   UNL A   1      37.670  31.550  30.390  1.00  0.00     0.031 A 
ATOM     36  C   UNL A   1      38.538  30.527  29.711  1.00  0.00     0.074 A 
ATOM     37  C   UNL A   1      37.923  31.919  31.657  1.00  0.00     0.049 A 
ATOM     38  N   UNL A   1      39.531  29.827  30.196  1.00  0.00    -0.248 NA
ATOM     39  C   UNL A   1      38.251  30.260  28.291  1.00  0.00     0.031 C 
ATOM     40  C   UNL A   1      37.193  32.944  32.400  1.00  0.00     0.029 A 
ATOM     41  N   UNL A   1      38.871  31.470  32.540  1.00  0.00    -0.354 N 
ATOM     42  C   UNL A   1      39.989  29.044  29.145  1.00  0.00     0.074 A 
ATOM     43  C   UNL A   1      39.148  29.328  28.003  1.00  0.00     0.031 C 
ATOM     44  C   UNL A   1      37.722  33.046  33.632  1.00  0.00     0.029 A 
ATOM     45  C   UNL A   1      38.802  32.071  33.773  1.00  0.00     0.049 A 
ATOM     46  H   UNL A   1      39.539  30.783  32.312  1.00  0.00     0.167 HD
ATOM     47  C   UNL A   1      41.026  28.174  29.129  1.00  0.00     0.037 A 
ATOM     48  C   UNL A   1      39.520  31.844  34.890  1.00  0.00     0.037 A 
ATOM     49  C   UNL A   1      41.860  27.887  30.265  1.00  0.00     0.049 A 
ATOM     50  C   UNL A   1      40.603  30.799  34.876  1.00  0.00     0.074 A 
ATOM     51  C   UNL A   1      42.930  27.014  30.350  1.00  0.00     0.029 A 
ATOM     52  N   UNL A   1      41.715  28.468  31.514  1.00  0.00    -0.354 N 
ATOM     53  N   UNL A   1      41.022  30.055  33.880  1.00  0.00    -0.248 NA
ATOM     54  C   UNL A   1      41.310  30.557  36.142  1.00  0.00     0.031 C 
ATOM     55  C   UNL A   1      43.407  27.035  31.664  1.00  0.00     0.029 A 
ATOM     56  C   UNL A   1      42.662  27.955  32.385  1.00  0.00     0.049 A 
ATOM     57  H   UNL A   1      41.039  29.144  31.749  1.00  0.00     0.167 HD
ATOM     58  C   UNL A   1      42.049  29.274  34.394  1.00  0.00     0.074 A 
ATOM     59  C   UNL A   1      42.201  29.643  35.785  1.00  0.00     0.031 C 
ATOM     60  C   UNL A   1      42.799  28.333  33.768  1.00  0.00     0.037 A 
BRANCH  47  61
ATOM     61  C   UNL A   1      41.307  27.457  27.843  1.00  0.00     0.057 A 
ATOM     62  C   UNL A   1      40.726  26.217  27.550  1.00  0.00     0.134 A 
ATOM     63  C   UNL A   1      42.131  28.035  26.868  1.00  0.00     0.134 A 
ATOM     64  F   UNL A   1      39.941  25.605  28.450  1.00  0.00    -0.206 F 
ATOM     65  C   UNL A   1      40.963  25.571  26.335  1.00  0.00     0.040 A 
ATOM     66  C   UNL A   1      42.358  27.407  25.643  1.00  0.00     0.040 A 
ATOM     67  F   UNL A   1      42.717  29.220  27.087  1.00  0.00    -0.206 F 
ATOM     68  C   UNL A   1      41.775  26.171  25.374  1.00  0.00     0.006 A 
ENDBRANCH  47  61
BRANCH  48  69
ATOM     69  C   UNL A   1      39.231  32.616  36.124  1.00  0.00     0.057 A 
ATOM     70  C   UNL A   1      38.372  32.113  37.108  1.00  0.00     0.134 A 
ATOM     71  C   UNL A   1      39.800  33.877  36.346  1.00  0.00     0.134 A 
ATOM     72  F   UNL A   1      37.778  30.923  36.940  1.00  0.00    -0.206 F 
ATOM     73  C   UNL A   1      38.083  32.838  38.264  1.00  0.00     0.040 A 
ATOM     74  C   UNL A   1      39.537  34.603  37.509  1.00  0.00     0.040 A 
ATOM     75  F   UNL A   1      40.630  34.414  35.439  1.00  0.00    -0.206 F 
ATOM     76  C   UNL A   1      38.672  34.085  38.469  1.00  0.00     0.006 A 
ENDBRANCH  48  69
BRANCH  60  77
ATOM     77  C   UNL A   1      43.861  27.645  34.574  1.00  0.00     0.057 A 
ATOM     78  C   UNL A   1      43.613  26.439  35.240  1.00  0.00     0.134 A 
ATOM     79  C   UNL A   1      45.163  28.161  34.630  1.00  0.00     0.134 A 
ATOM     80  F   UNL A   1      42.384  25.900  35.233  1.00  0.00    -0.206 F 
ATOM     81  C   UNL A   1      44.618  25.777  35.946  1.00  0.00     0.040 A 
ATOM     82  C   UNL A   1      46.181  27.495  35.312  1.00  0.00     0.040 A 
ATOM     83  F   UNL A   1      45.470  29.306  34.003  1.00  0.00    -0.206 F 
ATOM     84  C   UNL A   1      45.909  26.300  35.976  1.00  0.00     0.006 A 
ENDBRANCH  60  77
ENDBRANCH  34  35
ENDBRANCH  27  29
ENDBRANCH  26  27
ENDBRANCH  25  26
ENDBRANCH   1  25
TORSDOF 15
ENDMDL
MODEL 3
REMARK VINA RESULT:     -11.3      1.221      6.339
REMARK SMILES Cc1cc(Cl)c(C)c2c1O[C@H](C(F)(F)F)C(C(=O)OCCOCCOC(=O)c1ccc(-c3c4nc(c(-c5c(F)cccc5F)c5ccc([nH]5)c(-c5c(F)cccc5F)c5nc(c(-c6c(F)cccc6F)c6ccc3[nH]6)C=C5)C=C4)cc1)=C2
REMARK SMILES IDX 23 1 22 2 21 3 20 4 19 5 17 6 18 7 16 8 1 9 2 10 3 11 9 12
REMARK SMILES IDX 4 13 8 14 10 15 5 16 6 17 82 18 11 19 7 20 12 21 13 22 14 23
REMARK SMILES IDX 15 24 24 25 25 26 26 27 27 28 28 29 29 30 81 31 30 32 80 33
REMARK SMILES IDX 31 34 32 35 33 36 74 37 34 38 79 39 73 40 75 41 35 42 78 43
REMARK SMILES IDX 72 44 71 45 36 47 62 48 45 49 61 50 46 51 49 52 60 53 76 54
REMARK SMILES IDX 47 55 48 56 59 58 77 59 50 60 37 61 38 62 43 63 39 64 40 65
REMARK SMILES IDX 42 66 44 67 41 68 63 69 64 70 69 71 65 72 66 73 68 74 70 75
REMARK SMILES IDX 67 76 51 77 52 78 57 79 53 80 54 81 56 82 58 83 55 84
REMARK H PARENT 75 46 49 57
REMARK Flexibility Score: inf
ROOT
ATOM      1  C   UNL A   1      31.636  29.230  25.201  1.00  0.00     0.202 C 
ENDROOT
BRANCH   1   2
ATOM      2  O   UNL A   1      31.697  28.110  26.087  1.00  0.00    -0.374 OA
BRANCH   2   3
ATOM      3  C   UNL A   1      30.991  26.928  25.712  1.00  0.00     0.202 C 
BRANCH   3   4
ATOM      4  C   UNL A   1      31.673  25.595  26.035  1.00  0.00     0.261 C 
BRANCH   4   5
ATOM      5  O   UNL A   1      33.103  25.727  26.047  1.00  0.00    -0.460 OA
BRANCH   5   6
ATOM      6  C   UNL A   1      33.709  25.385  24.887  1.00  0.00     0.338 C 
ATOM      7  O   UNL A   1      33.807  26.070  23.880  1.00  0.00    -0.246 OA
BRANCH   6   8
ATOM      8  C   UNL A   1      34.371  24.075  25.035  1.00  0.00     0.087 C 
ATOM      9  C   UNL A   1      35.861  19.184  24.621  1.00  0.00     0.048 C 
ATOM     10  C   UNL A   1      36.489  20.483  25.041  1.00  0.00    -0.007 A 
ATOM     11  C   UNL A   1      37.854  20.492  25.352  1.00  0.00     0.028 A 
ATOM     12  C   UNL A   1      35.766  21.680  25.135  1.00  0.00     0.131 A 
ATOM     13  C   UNL A   1      38.493  21.665  25.764  1.00  0.00     0.045 A 
ATOM     14  C   UNL A   1      36.410  22.875  25.508  1.00  0.00     0.022 A 
ATOM     15  O   UNL A   1      34.426  21.602  24.868  1.00  0.00    -0.475 OA
ATOM     16  Cl  UNL A   1      40.182  21.541  26.120  1.00  0.00    -0.084 Cl
ATOM     17  C   UNL A   1      37.783  22.873  25.864  1.00  0.00    -0.021 A 
ATOM     18  C   UNL A   1      35.641  24.115  25.455  1.00  0.00     0.027 C 
ATOM     19  C   UNL A   1      33.643  22.812  24.700  1.00  0.00     0.316 C 
ATOM     20  C   UNL A   1      38.447  24.143  26.342  1.00  0.00     0.047 C 
BRANCH  19  21
ATOM     21  C   UNL A   1      33.060  22.818  23.280  1.00  0.00     0.430 C 
ATOM     22  F   UNL A   1      32.707  21.568  22.890  1.00  0.00    -0.167 F 
ATOM     23  F   UNL A   1      31.941  23.576  23.200  1.00  0.00    -0.167 F 
ATOM     24  F   UNL A   1      33.939  23.293  22.370  1.00  0.00    -0.167 F 
ENDBRANCH  19  21
ENDBRANCH   6   8
ENDBRANCH   5   6
ENDBRANCH   4   5
ENDBRANCH   3   4
ENDBRANCH   2   3
ENDBRANCH   1   2
BRANCH   1  25
ATOM     25  C   UNL A   1      31.572  30.620  25.845  1.00  0.00     0.261 C 
BRANCH  25  26
ATOM     26  O   UNL A   1      32.269  30.664  27.103  1.00  0.00    -0.460 OA
BRANCH  26  27
ATOM     27  C   UNL A   1      33.037  31.765  27.286  1.00  0.00     0.338 C 
ATOM     28  O   UNL A   1      32.679  32.933  27.259  1.00  0.00    -0.246 OA
BRANCH  27  29
ATOM     29  C   UNL A   1      34.391  31.373  27.714  1.00  0.00     0.060 A 
ATOM     30  C   UNL A   1      34.609  30.022  28.011  1.00  0.00     0.016 A 
ATOM     31  C   UNL A   1      35.392  32.323  27.928  1.00  0.00     0.016 A 
ATOM     32  C   UNL A   1      35.814  29.620  28.580  1.00  0.00     0.010 A 
ATOM     33  C   UNL A   1      36.596  31.919  28.514  1.00  0.00     0.010 A 
ATOM     34  C   UNL A   1      36.794  30.576  28.881  1.00  0.00    -0.014 A 
BRANCH  34  35
ATOM     35  C   UNL A   1      37.934  30.194  29.746  1.00  0.00     0.031 A 
ATOM     36  C   UNL A   1      38.981  29.267  29.192  1.00  0.00     0.074 A 
ATOM     37  C   UNL A   1      38.067  30.701  30.984  1.00  0.00     0.049 A 
ATOM     38  N   UNL A   1      40.045  28.774  29.771  1.00  0.00    -0.248 NA
ATOM     39  C   UNL A   1      38.806  28.841  27.793  1.00  0.00     0.031 C 
ATOM     40  C   UNL A   1      37.155  31.657  31.607  1.00  0.00     0.029 A 
ATOM     41  N   UNL A   1      39.030  30.482  31.934  1.00  0.00    -0.354 N 
ATOM     42  C   UNL A   1      40.667  27.988  28.810  1.00  0.00     0.074 A 
ATOM     43  C   UNL A   1      39.848  28.041  27.619  1.00  0.00     0.031 C 
ATOM     44  C   UNL A   1      37.602  31.942  32.842  1.00  0.00     0.029 A 
ATOM     45  C   UNL A   1      38.811  31.164  33.106  1.00  0.00     0.049 A 
ATOM     46  H   UNL A   1      39.805  29.891  31.792  1.00  0.00     0.167 HD
ATOM     47  C   UNL A   1      41.826  27.294  28.907  1.00  0.00     0.037 A 
ATOM     48  C   UNL A   1      39.501  31.147  34.262  1.00  0.00     0.037 A 
ATOM     49  C   UNL A   1      42.639  27.237  30.092  1.00  0.00     0.049 A 
ATOM     50  C   UNL A   1      40.731  30.287  34.379  1.00  0.00     0.074 A 
ATOM     51  C   UNL A   1      43.825  26.552  30.291  1.00  0.00     0.029 A 
ATOM     52  N   UNL A   1      42.347  27.889  31.279  1.00  0.00    -0.354 N 
ATOM     53  N   UNL A   1      41.307  29.538  33.469  1.00  0.00    -0.248 NA
ATOM     54  C   UNL A   1      41.406  30.265  35.685  1.00  0.00     0.031 C 
ATOM     55  C   UNL A   1      44.230  26.757  31.613  1.00  0.00     0.029 A 
ATOM     56  C   UNL A   1      43.319  27.605  32.223  1.00  0.00     0.049 A 
ATOM     57  H   UNL A   1      41.565  28.468  31.429  1.00  0.00     0.167 HD
ATOM     58  C   UNL A   1      42.416  28.973  34.084  1.00  0.00     0.074 A 
ATOM     59  C   UNL A   1      42.443  29.476  35.441  1.00  0.00     0.031 C 
ATOM     60  C   UNL A   1      43.330  28.113  33.571  1.00  0.00     0.037 A 
BRANCH  47  61
ATOM     61  C   UNL A   1      42.274  26.525  27.701  1.00  0.00     0.057 A 
ATOM     62  C   UNL A   1      41.873  25.202  27.480  1.00  0.00     0.134 A 
ATOM     63  C   UNL A   1      43.077  27.132  26.726  1.00  0.00     0.134 A 
ATOM     64  F   UNL A   1      41.117  24.562  28.385  1.00  0.00    -0.206 F 
ATOM     65  C   UNL A   1      42.265  24.504  26.337  1.00  0.00     0.040 A 
ATOM     66  C   UNL A   1      43.458  26.450  25.570  1.00  0.00     0.040 A 
ATOM     67  F   UNL A   1      43.495  28.396  26.878  1.00  0.00    -0.206 F 
ATOM     68  C   UNL A   1      43.052  25.131  25.374  1.00  0.00     0.006 A 
ENDBRANCH  47  61
BRANCH  48  69
ATOM     69  C   UNL A   1      39.039  31.963  35.412  1.00  0.00     0.057 A 
ATOM     70  C   UNL A   1      38.222  31.415  36.407  1.00  0.00     0.134 A 
ATOM     71  C   UNL A   1      39.396  33.312  35.540  1.00  0.00     0.134 A 
ATOM     72  F   UNL A   1      37.826  30.136  36.326  1.00  0.00    -0.206 F 
ATOM     73  C   UNL A   1      37.770  32.179  37.484  1.00  0.00     0.040 A 
ATOM     74  C   UNL A   1      38.969  34.081  36.624  1.00  0.00     0.040 A 
ATOM     75  F   UNL A   1      40.175  33.896  34.617  1.00  0.00    -0.206 F 
ATOM     76  C   UNL A   1      38.150  33.515  37.597  1.00  0.00     0.006 A 
ENDBRANCH  48  69
BRANCH  60  77
ATOM     77  C   UNL A   1      44.446  27.670  34.471  1.00  0.00     0.057 A 
ATOM     78  C   UNL A   1      44.369  26.480  35.205  1.00  0.00     0.134 A 
ATOM     79  C   UNL A   1      45.635  28.407  34.553  1.00  0.00     0.134 A 
ATOM     80  F   UNL A   1      43.254  25.735  35.177  1.00  0.00    -0.206 F 
ATOM     81  C   UNL A   1      45.430  26.046  36.001  1.00  0.00     0.040 A 
ATOM     82  C   UNL A   1      46.711  27.971  35.326  1.00  0.00     0.040 A 
ATOM     83  F   UNL A   1      45.776  29.550  33.865  1.00  0.00    -0.206 F 
ATOM     84  C   UNL A   1      46.609  26.788  36.056  1.00  0.00     0.006 A 
ENDBRANCH  60  77
ENDBRANCH  34  35
ENDBRANCH  27  29
ENDBRANCH  26  27
ENDBRANCH  25  26
ENDBRANCH   1  25
TORSDOF 15
ENDMDL
