MODEL 1
REMARK VINA RESULT:     -12.2      0.000      0.000
REMARK SMILES Cc1ccc(-c2nn(-c3ccccc3)cc2[C@@H]2[NH2+][C@H](C(=O)OCCOCCOC(=O)c3ccc(-c4c5nc(c(-c6c(F)cccc6F)c6ccc([nH]6)c(-c6c(F)cccc6F)c6nc(c(-c7c(F)cccc7F)c7ccc4[nH]7)C=C6)C=C5)cc3)CS2)cc1
REMARK SMILES IDX 25 1 24 2 23 3 22 4 20 5 21 6 19 7 17 8 18 9 86 10 85 13
REMARK SMILES IDX 16 14 6 15 7 16 8 17 15 18 5 19 1 20 2 21 3 22 88 23 4 24
REMARK SMILES IDX 87 25 9 26 10 27 14 28 11 29 13 30 12 31 26 32 27 33 28 34
REMARK SMILES IDX 29 35 30 36 31 37 32 38 84 39 33 40 83 41 34 42 35 43 36 44
REMARK SMILES IDX 77 45 37 46 82 47 76 48 78 49 38 50 81 51 75 52 74 53 39 55
REMARK SMILES IDX 65 56 48 57 64 58 49 59 52 60 63 61 79 62 50 63 51 64 62 66
REMARK SMILES IDX 80 67 53 68 40 69 41 70 46 71 42 72 43 73 45 74 47 75 44 76
REMARK SMILES IDX 66 77 67 78 72 79 68 80 69 81 71 82 73 83 70 84 54 85 55 86
REMARK SMILES IDX 60 87 56 88 57 89 59 90 61 91 58 92
REMARK H PARENT 18 11 18 12 78 54 52 65
REMARK Flexibility Score: inf
ROOT
ATOM      1  O   UNL A   1      35.846  22.029  25.800  1.00  0.00    -0.374 OA
ENDROOT
BRANCH   1   2
ATOM      2  C   UNL A   1      34.578  21.667  26.285  1.00  0.00     0.202 C 
BRANCH   2   3
ATOM      3  C   UNL A   1      33.924  22.980  26.324  1.00  0.00     0.261 C 
BRANCH   3   4
ATOM      4  O   UNL A   1      32.685  22.940  25.690  1.00  0.00    -0.459 OA
BRANCH   4   5
ATOM      5  C   UNL A   1      31.703  23.448  26.463  1.00  0.00     0.365 C 
ATOM      6  O   UNL A   1      31.694  23.538  27.678  1.00  0.00    -0.245 OA
BRANCH   5   7
ATOM      7  C   UNL A   1      30.641  23.883  25.496  1.00  0.00     0.304 C 
ATOM      8  C   UNL A   1      30.470  26.305  25.188  1.00  0.00     0.278 C 
ATOM      9  N   UNL A   1      30.036  25.170  26.008  1.00  0.00    -0.319 N 
ATOM     10  S   UNL A   1      31.090  25.698  23.608  1.00  0.00    -0.087 SA
ATOM     11  H   UNL A   1      29.019  25.101  25.971  1.00  0.00     0.348 HD
ATOM     12  H   UNL A   1      30.346  25.321  26.968  1.00  0.00     0.348 HD
ATOM     13  C   UNL A   1      31.344  24.008  24.156  1.00  0.00     0.153 C 
BRANCH   8  14
ATOM     14  C   UNL A   1      31.323  27.457  25.802  1.00  0.00     0.067 A 
ATOM     15  C   UNL A   1      31.745  28.921  24.627  1.00  0.00     0.103 A 
ATOM     16  N   UNL A   1      33.022  29.900  25.192  1.00  0.00    -0.167 NA
ATOM     17  N   UNL A   1      33.563  29.310  26.895  1.00  0.00    -0.240 N 
ATOM     18  C   UNL A   1      32.369  27.697  27.253  1.00  0.00     0.126 A 
BRANCH  15  19
ATOM     19  C   UNL A   1      30.680  29.463  23.740  1.00  0.00     0.003 A 
ATOM     20  C   UNL A   1      27.812  31.382  21.127  1.00  0.00     0.044 C 
ATOM     21  C   UNL A   1      28.798  30.711  22.038  1.00  0.00    -0.051 A 
ATOM     22  C   UNL A   1      28.910  31.124  23.365  1.00  0.00     0.004 A 
ATOM     23  C   UNL A   1      29.641  29.689  21.573  1.00  0.00     0.004 A 
ATOM     24  C   UNL A   1      29.843  30.508  24.204  1.00  0.00     0.011 A 
ATOM     25  C   UNL A   1      30.582  29.076  22.414  1.00  0.00     0.011 A 
ENDBRANCH  15  19
BRANCH  17  26
ATOM     26  C   UNL A   1      34.715  30.171  27.478  1.00  0.00     0.065 A 
ATOM     27  C   UNL A   1      34.460  31.490  27.911  1.00  0.00     0.028 A 
ATOM     28  C   UNL A   1      35.805  29.494  28.050  1.00  0.00     0.028 A 
ATOM     29  C   UNL A   1      34.963  31.919  29.151  1.00  0.00     0.002 A 
ATOM     30  C   UNL A   1      36.310  29.930  29.284  1.00  0.00     0.002 A 
ATOM     31  C   UNL A   1      35.822  31.096  29.874  1.00  0.00     0.000 A 
ENDBRANCH  17  26
ENDBRANCH   8  14
ENDBRANCH   5   7
ENDBRANCH   4   5
ENDBRANCH   3   4
ENDBRANCH   2   3
ENDBRANCH   1   2
BRANCH   1  32
ATOM     32  C   UNL A   1      36.203  23.324  26.187  1.00  0.00     0.202 C 
BRANCH  32  33
ATOM     33  C   UNL A   1      37.520  23.737  25.510  1.00  0.00     0.261 C 
BRANCH  33  34
ATOM     34  O   UNL A   1      38.549  23.906  26.539  1.00  0.00    -0.460 OA
BRANCH  34  35
ATOM     35  C   UNL A   1      39.535  22.960  26.677  1.00  0.00     0.338 C 
ATOM     36  O   UNL A   1      39.336  21.769  26.854  1.00  0.00    -0.246 OA
BRANCH  35  37
ATOM     37  C   UNL A   1      40.886  23.623  26.916  1.00  0.00     0.060 A 
ATOM     38  C   UNL A   1      41.615  23.437  28.108  1.00  0.00     0.016 A 
ATOM     39  C   UNL A   1      41.195  24.738  26.166  1.00  0.00     0.016 A 
ATOM     40  C   UNL A   1      42.381  24.500  28.686  1.00  0.00     0.010 A 
ATOM     41  C   UNL A   1      41.825  25.805  26.802  1.00  0.00     0.010 A 
ATOM     42  C   UNL A   1      42.304  25.766  28.135  1.00  0.00    -0.014 A 
BRANCH  42  43
ATOM     43  C   UNL A   1      42.658  27.110  28.764  1.00  0.00     0.031 A 
ATOM     44  C   UNL A   1      41.442  27.914  28.965  1.00  0.00     0.074 A 
ATOM     45  C   UNL A   1      43.863  27.592  29.269  1.00  0.00     0.049 A 
ATOM     46  N   UNL A   1      41.388  29.188  28.791  1.00  0.00    -0.248 NA
ATOM     47  C   UNL A   1      40.102  27.335  29.191  1.00  0.00     0.031 C 
ATOM     48  C   UNL A   1      44.179  28.593  30.309  1.00  0.00     0.029 A 
ATOM     49  N   UNL A   1      45.169  27.160  29.036  1.00  0.00    -0.354 N 
ATOM     50  C   UNL A   1      40.238  29.540  29.453  1.00  0.00     0.074 A 
ATOM     51  C   UNL A   1      39.357  28.435  29.272  1.00  0.00     0.031 C 
ATOM     52  C   UNL A   1      45.515  28.864  30.357  1.00  0.00     0.029 A 
ATOM     53  C   UNL A   1      46.177  28.083  29.326  1.00  0.00     0.049 A 
ATOM     54  H   UNL A   1      45.368  26.260  28.689  1.00  0.00     0.167 HD
ATOM     55  C   UNL A   1      40.324  30.470  30.444  1.00  0.00     0.037 A 
ATOM     56  C   UNL A   1      47.154  28.372  28.411  1.00  0.00     0.037 A 
ATOM     57  C   UNL A   1      41.665  31.103  30.461  1.00  0.00     0.049 A 
ATOM     58  C   UNL A   1      46.715  29.756  27.914  1.00  0.00     0.074 A 
ATOM     59  C   UNL A   1      42.645  31.287  31.421  1.00  0.00     0.029 A 
ATOM     60  N   UNL A   1      42.289  31.421  29.247  1.00  0.00    -0.354 N 
ATOM     61  N   UNL A   1      45.583  30.297  28.285  1.00  0.00    -0.248 NA
ATOM     62  C   UNL A   1      47.467  30.656  27.055  1.00  0.00     0.031 C 
ATOM     63  C   UNL A   1      43.842  31.730  30.762  1.00  0.00     0.029 A 
ATOM     64  C   UNL A   1      43.600  31.821  29.399  1.00  0.00     0.049 A 
ATOM     65  H   UNL A   1      41.837  31.365  28.374  1.00  0.00     0.167 HD
ATOM     66  C   UNL A   1      45.455  31.574  27.851  1.00  0.00     0.074 A 
ATOM     67  C   UNL A   1      46.664  31.742  27.051  1.00  0.00     0.031 C 
ATOM     68  C   UNL A   1      44.361  32.317  28.228  1.00  0.00     0.037 A 
BRANCH  55  69
ATOM     69  C   UNL A   1      39.267  30.650  31.529  1.00  0.00     0.057 A 
ATOM     70  C   UNL A   1      38.702  31.922  31.714  1.00  0.00     0.134 A 
ATOM     71  C   UNL A   1      38.760  29.674  32.425  1.00  0.00     0.134 A 
ATOM     72  F   UNL A   1      39.082  32.965  30.964  1.00  0.00    -0.206 F 
ATOM     73  C   UNL A   1      37.712  32.194  32.671  1.00  0.00     0.040 A 
ATOM     74  C   UNL A   1      37.732  29.921  33.348  1.00  0.00     0.040 A 
ATOM     75  F   UNL A   1      39.246  28.431  32.519  1.00  0.00    -0.206 F 
ATOM     76  C   UNL A   1      37.203  31.188  33.477  1.00  0.00     0.006 A 
ENDBRANCH  55  69
BRANCH  56  77
ATOM     77  C   UNL A   1      47.477  27.136  27.521  1.00  0.00     0.057 A 
ATOM     78  C   UNL A   1      46.721  26.773  25.926  1.00  0.00     0.134 A 
ATOM     79  C   UNL A   1      49.151  26.792  27.634  1.00  0.00     0.134 A 
ATOM     80  F   UNL A   1      45.391  27.096  25.895  1.00  0.00    -0.206 F 
ATOM     81  C   UNL A   1      48.005  26.144  24.382  1.00  0.00     0.040 A 
ATOM     82  C   UNL A   1      50.171  26.255  26.354  1.00  0.00     0.040 A 
ATOM     83  F   UNL A   1      49.752  26.997  28.821  1.00  0.00    -0.206 F 
ATOM     84  C   UNL A   1      49.700  25.951  24.756  1.00  0.00     0.006 A 
ENDBRANCH  56  77
BRANCH  68  85
ATOM     85  C   UNL A   1      43.890  33.627  27.613  1.00  0.00     0.057 A 
ATOM     86  C   UNL A   1      43.676  33.854  26.251  1.00  0.00     0.134 A 
ATOM     87  C   UNL A   1      43.548  34.737  28.434  1.00  0.00     0.134 A 
ATOM     88  F   UNL A   1      43.804  32.898  25.330  1.00  0.00    -0.206 F 
ATOM     89  C   UNL A   1      43.253  35.089  25.742  1.00  0.00     0.040 A 
ATOM     90  C   UNL A   1      43.048  35.943  27.945  1.00  0.00     0.040 A 
ATOM     91  F   UNL A   1      43.656  34.727  29.768  1.00  0.00    -0.206 F 
ATOM     92  C   UNL A   1      42.928  36.136  26.587  1.00  0.00     0.006 A 
ENDBRANCH  68  85
ENDBRANCH  42  43
ENDBRANCH  35  37
ENDBRANCH  34  35
ENDBRANCH  33  34
ENDBRANCH  32  33
ENDBRANCH   1  32
TORSDOF 17
ENDMDL
MODEL 2
REMARK VINA RESULT:     -11.6      1.873      2.511
REMARK SMILES Cc1ccc(-c2nn(-c3ccccc3)cc2[C@@H]2[NH2+][C@H](C(=O)OCCOCCOC(=O)c3ccc(-c4c5nc(c(-c6c(F)cccc6F)c6ccc([nH]6)c(-c6c(F)cccc6F)c6nc(c(-c7c(F)cccc7F)c7ccc4[nH]7)C=C6)C=C5)cc3)CS2)cc1
REMARK SMILES IDX 25 1 24 2 23 3 22 4 20 5 21 6 19 7 17 8 18 9 86 10 85 13
REMARK SMILES IDX 16 14 6 15 7 16 8 17 15 18 5 19 1 20 2 21 3 22 88 23 4 24
REMARK SMILES IDX 87 25 9 26 10 27 14 28 11 29 13 30 12 31 26 32 27 33 28 34
REMARK SMILES IDX 29 35 30 36 31 37 32 38 84 39 33 40 83 41 34 42 35 43 36 44
REMARK SMILES IDX 77 45 37 46 82 47 76 48 78 49 38 50 81 51 75 52 74 53 39 55
REMARK SMILES IDX 65 56 48 57 64 58 49 59 52 60 63 61 79 62 50 63 51 64 62 66
REMARK SMILES IDX 80 67 53 68 40 69 41 70 46 71 42 72 43 73 45 74 47 75 44 76
REMARK SMILES IDX 66 77 67 78 72 79 68 80 69 81 71 82 73 83 70 84 54 85 55 86
REMARK SMILES IDX 60 87 56 88 57 89 59 90 61 91 58 92
REMARK H PARENT 18 11 18 12 78 54 52 65
REMARK Flexibility Score: inf
ROOT
ATOM      1  O   UNL A   1      36.038  21.566  24.427  1.00  0.00    -0.374 OA
ENDROOT
BRANCH   1   2
ATOM      2  C   UNL A   1      35.573  21.167  25.690  1.00  0.00     0.202 C 
BRANCH   2   3
ATOM      3  C   UNL A   1      34.123  21.211  25.466  1.00  0.00     0.261 C 
BRANCH   3   4
ATOM      4  O   UNL A   1      33.741  22.424  24.900  1.00  0.00    -0.459 OA
BRANCH   4   5
ATOM      5  C   UNL A   1      33.521  23.372  25.835  1.00  0.00     0.365 C 
ATOM      6  O   UNL A   1      34.343  24.127  26.325  1.00  0.00    -0.245 OA
BRANCH   5   7
ATOM      7  C   UNL A   1      32.050  23.295  26.121  1.00  0.00     0.304 C 
ATOM      8  C   UNL A   1      30.974  25.456  26.525  1.00  0.00     0.278 C 
ATOM      9  N   UNL A   1      31.714  24.353  27.146  1.00  0.00    -0.319 N 
ATOM     10  S   UNL A   1      30.286  24.903  24.954  1.00  0.00    -0.087 SA
ATOM     11  H   UNL A   1      31.140  23.938  27.880  1.00  0.00     0.348 HD
ATOM     12  H   UNL A   1      32.581  24.719  27.539  1.00  0.00     0.348 HD
ATOM     13  C   UNL A   1      31.369  23.482  24.777  1.00  0.00     0.153 C 
BRANCH   8  14
ATOM     14  C   UNL A   1      31.568  26.897  26.483  1.00  0.00     0.067 A 
ATOM     15  C   UNL A   1      32.960  27.205  25.192  1.00  0.00     0.103 A 
ATOM     16  N   UNL A   1      33.863  28.621  25.490  1.00  0.00    -0.167 NA
ATOM     17  N   UNL A   1      33.129  29.539  26.958  1.00  0.00    -0.240 N 
ATOM     18  C   UNL A   1      31.584  28.350  27.554  1.00  0.00     0.126 A 
BRANCH  15  19
ATOM     19  C   UNL A   1      32.802  26.656  23.818  1.00  0.00     0.003 A 
ATOM     20  C   UNL A   1      32.502  25.413  19.682  1.00  0.00     0.044 C 
ATOM     21  C   UNL A   1      32.597  25.838  21.119  1.00  0.00    -0.051 A 
ATOM     22  C   UNL A   1      31.706  26.784  21.623  1.00  0.00     0.004 A 
ATOM     23  C   UNL A   1      33.591  25.323  21.966  1.00  0.00     0.004 A 
ATOM     24  C   UNL A   1      31.811  27.190  22.956  1.00  0.00     0.011 A 
ATOM     25  C   UNL A   1      33.700  25.736  23.303  1.00  0.00     0.011 A 
ENDBRANCH  15  19
BRANCH  17  26
ATOM     26  C   UNL A   1      33.895  30.851  27.276  1.00  0.00     0.065 A 
ATOM     27  C   UNL A   1      33.214  32.088  27.260  1.00  0.00     0.028 A 
ATOM     28  C   UNL A   1      35.052  30.751  28.067  1.00  0.00     0.028 A 
ATOM     29  C   UNL A   1      33.406  32.994  28.316  1.00  0.00     0.002 A 
ATOM     30  C   UNL A   1      35.244  31.665  29.115  1.00  0.00     0.002 A 
ATOM     31  C   UNL A   1      34.366  32.734  29.290  1.00  0.00     0.000 A 
ENDBRANCH  17  26
ENDBRANCH   8  14
ENDBRANCH   5   7
ENDBRANCH   4   5
ENDBRANCH   3   4
ENDBRANCH   2   3
ENDBRANCH   1   2
BRANCH   1  32
ATOM     32  C   UNL A   1      37.366  22.003  24.474  1.00  0.00     0.202 C 
BRANCH  32  33
ATOM     33  C   UNL A   1      38.052  21.478  25.745  1.00  0.00     0.261 C 
BRANCH  33  34
ATOM     34  O   UNL A   1      39.450  21.917  25.745  1.00  0.00    -0.460 OA
BRANCH  34  35
ATOM     35  C   UNL A   1      39.982  22.496  26.872  1.00  0.00     0.338 C 
ATOM     36  O   UNL A   1      40.429  21.879  27.826  1.00  0.00    -0.246 OA
BRANCH  35  37
ATOM     37  C   UNL A   1      39.640  23.979  26.927  1.00  0.00     0.060 A 
ATOM     38  C   UNL A   1      40.289  24.931  26.116  1.00  0.00     0.016 A 
ATOM     39  C   UNL A   1      39.015  24.451  28.062  1.00  0.00     0.016 A 
ATOM     40  C   UNL A   1      40.583  26.247  26.601  1.00  0.00     0.010 A 
ATOM     41  C   UNL A   1      39.425  25.680  28.576  1.00  0.00     0.010 A 
ATOM     42  C   UNL A   1      40.338  26.548  27.929  1.00  0.00    -0.014 A 
BRANCH  42  43
ATOM     43  C   UNL A   1      40.917  27.674  28.779  1.00  0.00     0.031 A 
ATOM     44  C   UNL A   1      39.959  28.788  28.868  1.00  0.00     0.074 A 
ATOM     45  C   UNL A   1      42.078  27.735  29.546  1.00  0.00     0.049 A 
ATOM     46  N   UNL A   1      40.301  30.030  28.854  1.00  0.00    -0.248 NA
ATOM     47  C   UNL A   1      38.494  28.622  28.778  1.00  0.00     0.031 C 
ATOM     48  C   UNL A   1      42.441  28.517  30.746  1.00  0.00     0.029 A 
ATOM     49  N   UNL A   1      43.230  26.950  29.490  1.00  0.00    -0.354 N 
ATOM     50  C   UNL A   1      39.185  30.660  29.346  1.00  0.00     0.074 A 
ATOM     51  C   UNL A   1      38.086  29.886  28.871  1.00  0.00     0.031 C 
ATOM     52  C   UNL A   1      43.760  28.371  31.061  1.00  0.00     0.029 A 
ATOM     53  C   UNL A   1      44.374  27.505  30.069  1.00  0.00     0.049 A 
ATOM     54  H   UNL A   1      43.236  26.060  29.069  1.00  0.00     0.167 HD
ATOM     55  C   UNL A   1      39.322  31.446  30.449  1.00  0.00     0.037 A 
ATOM     56  C   UNL A   1      45.559  27.554  29.385  1.00  0.00     0.037 A 
ATOM     57  C   UNL A   1      40.753  31.646  30.782  1.00  0.00     0.049 A 
ATOM     58  C   UNL A   1      45.635  29.039  29.003  1.00  0.00     0.074 A 
ATOM     59  C   UNL A   1      41.526  31.457  31.914  1.00  0.00     0.029 A 
ATOM     60  N   UNL A   1      41.676  31.851  29.747  1.00  0.00    -0.354 N 
ATOM     61  N   UNL A   1      44.649  29.866  29.237  1.00  0.00    -0.248 NA
ATOM     62  C   UNL A   1      46.769  29.733  28.413  1.00  0.00     0.031 C 
ATOM     63  C   UNL A   1      42.908  31.569  31.538  1.00  0.00     0.029 A 
ATOM     64  C   UNL A   1      42.986  31.827  30.178  1.00  0.00     0.049 A 
ATOM     65  H   UNL A   1      41.415  31.997  28.809  1.00  0.00     0.167 HD
ATOM     66  C   UNL A   1      44.975  31.150  28.958  1.00  0.00     0.074 A 
ATOM     67  C   UNL A   1      46.319  31.007  28.411  1.00  0.00     0.031 C 
ATOM     68  C   UNL A   1      44.079  32.157  29.232  1.00  0.00     0.037 A 
BRANCH  55  69
ATOM     69  C   UNL A   1      38.158  31.854  31.347  1.00  0.00     0.057 A 
ATOM     70  C   UNL A   1      37.773  33.204  31.378  1.00  0.00     0.134 A 
ATOM     71  C   UNL A   1      37.382  31.029  32.201  1.00  0.00     0.134 A 
ATOM     72  F   UNL A   1      38.412  34.125  30.644  1.00  0.00    -0.206 F 
ATOM     73  C   UNL A   1      36.707  33.685  32.155  1.00  0.00     0.040 A 
ATOM     74  C   UNL A   1      36.281  31.487  32.941  1.00  0.00     0.040 A 
ATOM     75  F   UNL A   1      37.654  29.740  32.431  1.00  0.00    -0.206 F 
ATOM     76  C   UNL A   1      35.938  32.824  32.921  1.00  0.00     0.006 A 
ENDBRANCH  55  69
BRANCH  56  77
ATOM     77  C   UNL A   1      45.698  26.347  28.411  1.00  0.00     0.057 A 
ATOM     78  C   UNL A   1      45.114  26.307  26.708  1.00  0.00     0.134 A 
ATOM     79  C   UNL A   1      47.207  25.584  28.686  1.00  0.00     0.134 A 
ATOM     80  F   UNL A   1      43.919  26.958  26.553  1.00  0.00    -0.206 F 
ATOM     81  C   UNL A   1      46.416  25.492  25.270  1.00  0.00     0.040 A 
ATOM     82  C   UNL A   1      48.241  24.904  27.488  1.00  0.00     0.040 A 
ATOM     83  F   UNL A   1      47.664  25.541  29.952  1.00  0.00    -0.206 F 
ATOM     84  C   UNL A   1      47.944  24.850  25.821  1.00  0.00     0.006 A 
ENDBRANCH  56  77
BRANCH  68  85
ATOM     85  C   UNL A   1      44.130  33.589  28.720  1.00  0.00     0.057 A 
ATOM     86  C   UNL A   1      44.305  34.728  29.512  1.00  0.00     0.134 A 
ATOM     87  C   UNL A   1      44.077  33.869  27.327  1.00  0.00     0.134 A 
ATOM     88  F   UNL A   1      44.514  34.669  30.827  1.00  0.00    -0.206 F 
ATOM     89  C   UNL A   1      44.331  36.026  28.983  1.00  0.00     0.040 A 
ATOM     90  C   UNL A   1      44.186  35.149  26.784  1.00  0.00     0.040 A 
ATOM     91  F   UNL A   1      43.936  32.923  26.391  1.00  0.00    -0.206 F 
ATOM     92  C   UNL A   1      44.282  36.241  27.617  1.00  0.00     0.006 A 
ENDBRANCH  68  85
ENDBRANCH  42  43
ENDBRANCH  35  37
ENDBRANCH  34  35
ENDBRANCH  33  34
ENDBRANCH  32  33
ENDBRANCH   1  32
TORSDOF 17
ENDMDL
MODEL 3
REMARK VINA RESULT:     -11.4      3.525      9.628
REMARK SMILES Cc1ccc(-c2nn(-c3ccccc3)cc2[C@@H]2[NH2+][C@H](C(=O)OCCOCCOC(=O)c3ccc(-c4c5nc(c(-c6c(F)cccc6F)c6ccc([nH]6)c(-c6c(F)cccc6F)c6nc(c(-c7c(F)cccc7F)c7ccc4[nH]7)C=C6)C=C5)cc3)CS2)cc1
REMARK SMILES IDX 25 1 24 2 23 3 22 4 20 5 21 6 19 7 17 8 18 9 86 10 85 13
REMARK SMILES IDX 16 14 6 15 7 16 8 17 15 18 5 19 1 20 2 21 3 22 88 23 4 24
REMARK SMILES IDX 87 25 9 26 10 27 14 28 11 29 13 30 12 31 26 32 27 33 28 34
REMARK SMILES IDX 29 35 30 36 31 37 32 38 84 39 33 40 83 41 34 42 35 43 36 44
REMARK SMILES IDX 77 45 37 46 82 47 76 48 78 49 38 50 81 51 75 52 74 53 39 55
REMARK SMILES IDX 65 56 48 57 64 58 49 59 52 60 63 61 79 62 50 63 51 64 62 66
REMARK SMILES IDX 80 67 53 68 40 69 41 70 46 71 42 72 43 73 45 74 47 75 44 76
REMARK SMILES IDX 66 77 67 78 72 79 68 80 69 81 71 82 73 83 70 84 54 85 55 86
REMARK SMILES IDX 60 87 56 88 57 89 59 90 61 91 58 92
REMARK H PARENT 18 11 18 12 78 54 52 65
REMARK Flexibility Score: inf
ROOT
ATOM      1  O   UNL A   1      31.488  29.577  27.518  1.00  0.00    -0.374 OA
ENDROOT
BRANCH   1   2
ATOM      2  C   UNL A   1      31.795  28.212  27.642  1.00  0.00     0.202 C 
BRANCH   2   3
ATOM      3  C   UNL A   1      31.031  27.664  26.515  1.00  0.00     0.261 C 
BRANCH   3   4
ATOM      4  O   UNL A   1      31.046  26.272  26.531  1.00  0.00    -0.459 OA
BRANCH   4   5
ATOM      5  C   UNL A   1      31.232  25.752  25.300  1.00  0.00     0.365 C 
ATOM      6  O   UNL A   1      30.439  25.092  24.652  1.00  0.00    -0.245 OA
BRANCH   5   7
ATOM      7  C   UNL A   1      32.618  26.176  24.911  1.00  0.00     0.304 C 
ATOM      8  C   UNL A   1      34.243  24.351  24.772  1.00  0.00     0.278 C 
ATOM      9  N   UNL A   1      33.604  25.318  25.669  1.00  0.00    -0.319 N 
ATOM     10  S   UNL A   1      34.035  24.892  23.065  1.00  0.00    -0.087 SA
ATOM     11  H   UNL A   1      34.320  25.915  26.082  1.00  0.00     0.348 HD
ATOM     12  H   UNL A   1      33.105  24.809  26.399  1.00  0.00     0.348 HD
ATOM     13  C   UNL A   1      32.678  26.018  23.401  1.00  0.00     0.153 C 
BRANCH   8  14
ATOM     14  C   UNL A   1      34.050  22.818  24.977  1.00  0.00     0.067 A 
ATOM     15  C   UNL A   1      35.612  21.723  24.729  1.00  0.00     0.103 A 
ATOM     16  N   UNL A   1      35.258  20.068  24.521  1.00  0.00    -0.167 NA
ATOM     17  N   UNL A   1      33.409  19.789  24.723  1.00  0.00    -0.240 N 
ATOM     18  C   UNL A   1      32.668  21.660  25.055  1.00  0.00     0.126 A 
BRANCH  15  19
ATOM     19  C   UNL A   1      36.909  22.177  25.303  1.00  0.00     0.003 A 
ATOM     20  C   UNL A   1      40.498  23.474  27.345  1.00  0.00     0.044 C 
ATOM     21  C   UNL A   1      39.256  23.030  26.628  1.00  0.00    -0.051 A 
ATOM     22  C   UNL A   1      38.182  23.907  26.494  1.00  0.00     0.004 A 
ATOM     23  C   UNL A   1      39.139  21.729  26.112  1.00  0.00     0.004 A 
ATOM     24  C   UNL A   1      37.020  23.483  25.842  1.00  0.00     0.011 A 
ATOM     25  C   UNL A   1      37.971  21.302  25.463  1.00  0.00     0.011 A 
ENDBRANCH  15  19
BRANCH  17  26
ATOM     26  C   UNL A   1      33.017  18.297  24.563  1.00  0.00     0.065 A 
ATOM     27  C   UNL A   1      33.298  17.619  23.356  1.00  0.00     0.028 A 
ATOM     28  C   UNL A   1      32.898  17.528  25.733  1.00  0.00     0.028 A 
ATOM     29  C   UNL A   1      33.880  16.341  23.402  1.00  0.00     0.002 A 
ATOM     30  C   UNL A   1      33.474  16.248  25.771  1.00  0.00     0.002 A 
ATOM     31  C   UNL A   1      34.044  15.696  24.625  1.00  0.00     0.000 A 
ENDBRANCH  17  26
ENDBRANCH   8  14
ENDBRANCH   5   7
ENDBRANCH   4   5
ENDBRANCH   3   4
ENDBRANCH   2   3
ENDBRANCH   1   2
BRANCH   1  32
ATOM     32  C   UNL A   1      32.038  30.133  26.359  1.00  0.00     0.202 C 
BRANCH  32  33
ATOM     33  C   UNL A   1      33.515  30.490  26.592  1.00  0.00     0.261 C 
BRANCH  33  34
ATOM     34  O   UNL A   1      33.596  31.527  27.623  1.00  0.00    -0.460 OA
BRANCH  34  35
ATOM     35  C   UNL A   1      34.818  31.873  28.147  1.00  0.00     0.338 C 
ATOM     36  O   UNL A   1      35.217  33.019  28.283  1.00  0.00    -0.246 OA
BRANCH  35  37
ATOM     37  C   UNL A   1      35.734  30.659  28.221  1.00  0.00     0.060 A 
ATOM     38  C   UNL A   1      35.738  29.786  29.327  1.00  0.00     0.016 A 
ATOM     39  C   UNL A   1      36.856  30.653  27.419  1.00  0.00     0.016 A 
ATOM     40  C   UNL A   1      36.950  29.183  29.796  1.00  0.00     0.010 A 
ATOM     41  C   UNL A   1      38.049  30.177  27.961  1.00  0.00     0.010 A 
ATOM     42  C   UNL A   1      38.156  29.561  29.232  1.00  0.00    -0.014 A 
BRANCH  42  43
ATOM     43  C   UNL A   1      39.567  29.409  29.792  1.00  0.00     0.031 A 
ATOM     44  C   UNL A   1      40.202  28.199  29.246  1.00  0.00     0.074 A 
ATOM     45  C   UNL A   1      40.334  30.266  30.576  1.00  0.00     0.049 A 
ATOM     46  N   UNL A   1      40.970  27.423  29.929  1.00  0.00    -0.248 NA
ATOM     47  C   UNL A   1      39.877  27.623  27.926  1.00  0.00     0.031 C 
ATOM     48  C   UNL A   1      41.794  30.447  30.720  1.00  0.00     0.029 A 
ATOM     49  N   UNL A   1      39.943  31.334  31.382  1.00  0.00    -0.354 N 
ATOM     50  C   UNL A   1      41.620  26.702  28.958  1.00  0.00     0.074 A 
ATOM     51  C   UNL A   1      40.663  26.549  27.913  1.00  0.00     0.031 C 
ATOM     52  C   UNL A   1      42.097  31.302  31.738  1.00  0.00     0.029 A 
ATOM     53  C   UNL A   1      40.856  31.723  32.366  1.00  0.00     0.049 A 
ATOM     54  H   UNL A   1      39.076  31.787  31.265  1.00  0.00     0.167 HD
ATOM     55  C   UNL A   1      42.981  26.731  28.936  1.00  0.00     0.037 A 
ATOM     56  C   UNL A   1      40.467  31.874  33.670  1.00  0.00     0.037 A 
ATOM     57  C   UNL A   1      43.516  27.389  30.152  1.00  0.00     0.049 A 
ATOM     58  C   UNL A   1      41.061  30.616  34.318  1.00  0.00     0.074 A 
ATOM     59  C   UNL A   1      44.384  28.440  30.390  1.00  0.00     0.029 A 
ATOM     60  N   UNL A   1      42.915  27.132  31.392  1.00  0.00    -0.354 N 
ATOM     61  N   UNL A   1      41.637  29.678  33.610  1.00  0.00    -0.248 NA
ATOM     62  C   UNL A   1      41.128  30.312  35.739  1.00  0.00     0.031 C 
ATOM     63  C   UNL A   1      44.299  28.786  31.782  1.00  0.00     0.029 A 
ATOM     64  C   UNL A   1      43.381  27.950  32.400  1.00  0.00     0.049 A 
ATOM     65  H   UNL A   1      42.230  26.438  31.528  1.00  0.00     0.167 HD
ATOM     66  C   UNL A   1      42.218  28.731  34.384  1.00  0.00     0.074 A 
ATOM     67  C   UNL A   1      41.840  29.164  35.725  1.00  0.00     0.031 C 
ATOM     68  C   UNL A   1      42.943  27.720  33.797  1.00  0.00     0.037 A 
BRANCH  55  69
ATOM     69  C   UNL A   1      43.814  26.357  27.714  1.00  0.00     0.057 A 
ATOM     70  C   UNL A   1      44.114  27.354  26.772  1.00  0.00     0.134 A 
ATOM     71  C   UNL A   1      44.343  25.085  27.373  1.00  0.00     0.134 A 
ATOM     72  F   UNL A   1      43.675  28.610  26.929  1.00  0.00    -0.206 F 
ATOM     73  C   UNL A   1      44.885  27.123  25.623  1.00  0.00     0.040 A 
ATOM     74  C   UNL A   1      45.161  24.853  26.256  1.00  0.00     0.040 A 
ATOM     75  F   UNL A   1      44.073  23.965  28.053  1.00  0.00    -0.206 F 
ATOM     76  C   UNL A   1      45.435  25.876  25.372  1.00  0.00     0.006 A 
ENDBRANCH  55  69
BRANCH  56  77
ATOM     77  C   UNL A   1      38.987  32.346  33.767  1.00  0.00     0.057 A 
ATOM     78  C   UNL A   1      38.358  33.935  33.197  1.00  0.00     0.134 A 
ATOM     79  C   UNL A   1      37.957  31.006  33.483  1.00  0.00     0.134 A 
ATOM     80  F   UNL A   1      39.240  34.957  33.430  1.00  0.00    -0.206 F 
ATOM     81  C   UNL A   1      36.549  33.918  32.122  1.00  0.00     0.040 A 
ATOM     82  C   UNL A   1      36.468  31.029  32.617  1.00  0.00     0.040 A 
ATOM     83  F   UNL A   1      38.358  29.804  33.936  1.00  0.00    -0.206 F 
ATOM     84  C   UNL A   1      35.741  32.384  31.907  1.00  0.00     0.006 A 
ENDBRANCH  56  77
BRANCH  68  85
ATOM     85  C   UNL A   1      43.399  26.424  34.452  1.00  0.00     0.057 A 
ATOM     86  C   UNL A   1      44.725  25.994  34.563  1.00  0.00     0.134 A 
ATOM     87  C   UNL A   1      42.467  25.563  35.092  1.00  0.00     0.134 A 
ATOM     88  F   UNL A   1      45.759  26.726  34.151  1.00  0.00    -0.206 F 
ATOM     89  C   UNL A   1      45.083  24.781  35.168  1.00  0.00     0.040 A 
ATOM     90  C   UNL A   1      42.821  24.396  35.768  1.00  0.00     0.040 A 
ATOM     91  F   UNL A   1      41.150  25.797  35.125  1.00  0.00    -0.206 F 
ATOM     92  C   UNL A   1      44.134  23.982  35.781  1.00  0.00     0.006 A 
ENDBRANCH  68  85
ENDBRANCH  42  43
ENDBRANCH  35  37
ENDBRANCH  34  35
ENDBRANCH  33  34
ENDBRANCH  32  33
ENDBRANCH   1  32
TORSDOF 17
ENDMDL
