MODEL 1
REMARK VINA RESULT:     -10.7      0.000      0.000
REMARK SMILES CCN(C(=O)c1ccc(C)cc1F)[C@@H]1COC[C@@H]1C(=O)OCCOCCOC(=O)c1ccc(-c2c3nc(c(-c4c(F)cccc4F)c4ccc([nH]4)c(-c4c(F)cccc4F)c4nc(c(-c5c(F)cccc5F)c5ccc2[nH]5)C=C4)C=C3)cc1
REMARK SMILES IDX 23 1 22 2 21 3 19 4 20 5 18 6 14 7 15 8 16 9 17 10 3 11 2 12
REMARK SMILES IDX 1 13 4 14 5 15 6 16 7 17 12 18 8 19 11 20 13 21 9 22 10 23
REMARK SMILES IDX 24 24 25 25 26 26 27 27 28 28 29 29 30 30 31 31 83 32 32 33
REMARK SMILES IDX 82 34 33 35 34 36 35 37 76 38 36 39 81 40 75 41 77 42 37 43
REMARK SMILES IDX 80 44 74 45 73 46 38 48 64 49 47 50 63 51 48 52 51 53 62 54
REMARK SMILES IDX 78 55 49 56 50 57 61 59 79 60 52 61 39 62 40 63 45 64 41 65
REMARK SMILES IDX 42 66 44 67 46 68 43 69 65 70 66 71 71 72 67 73 68 74 70 75
REMARK SMILES IDX 72 76 69 77 53 78 54 79 59 80 55 81 56 82 58 83 60 84 57 85
REMARK H PARENT 77 47 51 58
REMARK Flexibility Score: inf
ROOT
ATOM      1  C   UNL A   1      34.666  23.408  25.897  1.00  0.00     0.202 C 
ENDROOT
BRANCH   1   2
ATOM      2  C   UNL A   1      34.389  24.819  25.380  1.00  0.00     0.261 C 
BRANCH   2   3
ATOM      3  O   UNL A   1      33.231  25.422  26.002  1.00  0.00    -0.463 OA
BRANCH   3   4
ATOM      4  C   UNL A   1      33.259  26.775  26.059  1.00  0.00     0.313 C 
ATOM      5  O   UNL A   1      34.278  27.409  26.326  1.00  0.00    -0.252 OA
BRANCH   4   6
ATOM      6  C   UNL A   1      31.917  27.467  25.907  1.00  0.00     0.150 C 
ATOM      7  C   UNL A   1      31.565  28.503  24.837  1.00  0.00     0.127 C 
ATOM      8  C   UNL A   1      31.967  29.825  25.472  1.00  0.00     0.186 C 
ATOM      9  O   UNL A   1      31.719  29.688  26.871  1.00  0.00    -0.378 OA
ATOM     10  C   UNL A   1      31.707  28.287  27.194  1.00  0.00     0.177 C 
BRANCH   7  11
ATOM     11  N   UNL A   1      31.933  28.283  23.428  1.00  0.00    -0.333 N 
BRANCH  11  12
ATOM     12  C   UNL A   1      33.015  29.064  22.831  1.00  0.00     0.117 C 
ATOM     13  C   UNL A   1      34.404  28.493  23.082  1.00  0.00     0.027 C 
ENDBRANCH  11  12
BRANCH  11  14
ATOM     14  C   UNL A   1      31.160  27.382  22.678  1.00  0.00     0.257 C 
ATOM     15  O   UNL A   1      30.188  27.711  22.005  1.00  0.00    -0.269 OA
BRANCH  14  16
ATOM     16  C   UNL A   1      31.483  25.945  22.748  1.00  0.00     0.075 A 
ATOM     17  C   UNL A   1      30.739  25.127  23.600  1.00  0.00     0.017 A 
ATOM     18  C   UNL A   1      32.507  25.402  21.975  1.00  0.00     0.136 A 
ATOM     19  C   UNL A   1      31.048  23.769  23.696  1.00  0.00     0.004 A 
ATOM     20  C   UNL A   1      32.826  24.048  22.083  1.00  0.00     0.043 A 
ATOM     21  F   UNL A   1      33.230  26.171  21.150  1.00  0.00    -0.206 F 
ATOM     22  C   UNL A   1      32.106  23.220  22.956  1.00  0.00    -0.048 A 
ATOM     23  C   UNL A   1      32.467  21.768  23.092  1.00  0.00     0.044 C 
ENDBRANCH  14  16
ENDBRANCH  11  14
ENDBRANCH   7  11
ENDBRANCH   4   6
ENDBRANCH   3   4
ENDBRANCH   2   3
ENDBRANCH   1   2
BRANCH   1  24
ATOM     24  O   UNL A   1      35.407  22.547  25.036  1.00  0.00    -0.374 OA
BRANCH  24  25
ATOM     25  C   UNL A   1      35.297  21.145  25.270  1.00  0.00     0.202 C 
BRANCH  25  26
ATOM     26  C   UNL A   1      36.570  20.317  25.009  1.00  0.00     0.261 C 
BRANCH  26  27
ATOM     27  O   UNL A   1      37.757  21.135  24.898  1.00  0.00    -0.460 OA
BRANCH  27  28
ATOM     28  C   UNL A   1      38.777  20.818  25.732  1.00  0.00     0.338 C 
ATOM     29  O   UNL A   1      39.300  19.721  25.870  1.00  0.00    -0.246 OA
BRANCH  28  30
ATOM     30  C   UNL A   1      39.336  22.047  26.341  1.00  0.00     0.060 A 
ATOM     31  C   UNL A   1      38.742  23.272  26.012  1.00  0.00     0.016 A 
ATOM     32  C   UNL A   1      40.442  22.023  27.188  1.00  0.00     0.016 A 
ATOM     33  C   UNL A   1      39.272  24.474  26.497  1.00  0.00     0.010 A 
ATOM     34  C   UNL A   1      40.966  23.232  27.671  1.00  0.00     0.010 A 
ATOM     35  C   UNL A   1      40.410  24.478  27.316  1.00  0.00    -0.014 A 
BRANCH  35  36
ATOM     36  C   UNL A   1      41.065  25.773  27.698  1.00  0.00     0.031 A 
ATOM     37  C   UNL A   1      42.480  26.068  27.248  1.00  0.00     0.074 A 
ATOM     38  C   UNL A   1      40.422  26.711  28.426  1.00  0.00     0.049 A 
ATOM     39  N   UNL A   1      43.213  27.135  27.456  1.00  0.00    -0.248 NA
ATOM     40  C   UNL A   1      43.167  25.014  26.488  1.00  0.00     0.031 C 
ATOM     41  C   UNL A   1      39.073  26.587  28.975  1.00  0.00     0.029 A 
ATOM     42  N   UNL A   1      40.828  27.965  28.832  1.00  0.00    -0.354 N 
ATOM     43  C   UNL A   1      44.444  26.875  26.865  1.00  0.00     0.074 A 
ATOM     44  C   UNL A   1      44.383  25.522  26.355  1.00  0.00     0.031 C 
ATOM     45  C   UNL A   1      38.756  27.721  29.625  1.00  0.00     0.029 A 
ATOM     46  C   UNL A   1      39.881  28.653  29.555  1.00  0.00     0.049 A 
ATOM     47  H   UNL A   1      41.717  28.334  28.623  1.00  0.00     0.167 HD
ATOM     48  C   UNL A   1      45.520  27.687  26.715  1.00  0.00     0.037 A 
ATOM     49  C   UNL A   1      39.904  29.890  30.094  1.00  0.00     0.037 A 
ATOM     50  C   UNL A   1      45.594  29.052  27.165  1.00  0.00     0.049 A 
ATOM     51  C   UNL A   1      41.115  30.776  29.925  1.00  0.00     0.074 A 
ATOM     52  C   UNL A   1      46.623  29.962  26.982  1.00  0.00     0.029 A 
ATOM     53  N   UNL A   1      44.609  29.706  27.885  1.00  0.00    -0.354 N 
ATOM     54  N   UNL A   1      42.233  30.538  29.286  1.00  0.00    -0.248 NA
ATOM     55  C   UNL A   1      41.057  32.110  30.547  1.00  0.00     0.031 C 
ATOM     56  C   UNL A   1      46.280  31.152  27.632  1.00  0.00     0.029 A 
ATOM     57  C   UNL A   1      45.015  30.999  28.173  1.00  0.00     0.049 A 
ATOM     58  H   UNL A   1      43.747  29.311  28.150  1.00  0.00     0.167 HD
ATOM     59  C   UNL A   1      42.991  31.701  29.397  1.00  0.00     0.074 A 
ATOM     60  C   UNL A   1      42.204  32.648  30.154  1.00  0.00     0.031 C 
ATOM     61  C   UNL A   1      44.229  31.956  28.909  1.00  0.00     0.037 A 
BRANCH  48  62
ATOM     62  C   UNL A   1      46.720  27.118  26.012  1.00  0.00     0.057 A 
ATOM     63  C   UNL A   1      47.672  26.341  26.686  1.00  0.00     0.134 A 
ATOM     64  C   UNL A   1      46.905  27.318  24.638  1.00  0.00     0.134 A 
ATOM     65  F   UNL A   1      47.557  26.118  28.005  1.00  0.00    -0.206 F 
ATOM     66  C   UNL A   1      48.783  25.814  26.027  1.00  0.00     0.040 A 
ATOM     67  C   UNL A   1      47.995  26.768  23.962  1.00  0.00     0.040 A 
ATOM     68  F   UNL A   1      46.025  28.041  23.929  1.00  0.00    -0.206 F 
ATOM     69  C   UNL A   1      48.944  26.022  24.660  1.00  0.00     0.006 A 
ENDBRANCH  48  62
BRANCH  49  70
ATOM     70  C   UNL A   1      38.726  30.404  30.842  1.00  0.00     0.057 A 
ATOM     71  C   UNL A   1      38.532  30.090  32.194  1.00  0.00     0.134 A 
ATOM     72  C   UNL A   1      37.735  31.164  30.210  1.00  0.00     0.134 A 
ATOM     73  F   UNL A   1      39.431  29.338  32.846  1.00  0.00    -0.206 F 
ATOM     74  C   UNL A   1      37.387  30.492  32.882  1.00  0.00     0.040 A 
ATOM     75  C   UNL A   1      36.597  31.596  30.894  1.00  0.00     0.040 A 
ATOM     76  F   UNL A   1      37.861  31.497  28.917  1.00  0.00    -0.206 F 
ATOM     77  C   UNL A   1      36.416  31.252  32.232  1.00  0.00     0.006 A 
ENDBRANCH  49  70
BRANCH  61  78
ATOM     78  C   UNL A   1      44.808  33.326  29.128  1.00  0.00     0.057 A 
ATOM     79  C   UNL A   1      44.566  34.387  28.246  1.00  0.00     0.134 A 
ATOM     80  C   UNL A   1      45.574  33.602  30.270  1.00  0.00     0.134 A 
ATOM     81  F   UNL A   1      43.850  34.192  27.129  1.00  0.00    -0.206 F 
ATOM     82  C   UNL A   1      45.078  35.666  28.483  1.00  0.00     0.040 A 
ATOM     83  C   UNL A   1      46.068  34.881  30.531  1.00  0.00     0.040 A 
ATOM     84  F   UNL A   1      45.838  32.635  31.163  1.00  0.00    -0.206 F 
ATOM     85  C   UNL A   1      45.825  35.917  29.632  1.00  0.00     0.006 A 
ENDBRANCH  61  78
ENDBRANCH  35  36
ENDBRANCH  28  30
ENDBRANCH  27  28
ENDBRANCH  26  27
ENDBRANCH  25  26
ENDBRANCH  24  25
ENDBRANCH   1  24
TORSDOF 18
ENDMDL
MODEL 2
REMARK VINA RESULT:     -10.6      3.650      8.758
REMARK SMILES CCN(C(=O)c1ccc(C)cc1F)[C@@H]1COC[C@@H]1C(=O)OCCOCCOC(=O)c1ccc(-c2c3nc(c(-c4c(F)cccc4F)c4ccc([nH]4)c(-c4c(F)cccc4F)c4nc(c(-c5c(F)cccc5F)c5ccc2[nH]5)C=C4)C=C3)cc1
REMARK SMILES IDX 23 1 22 2 21 3 19 4 20 5 18 6 14 7 15 8 16 9 17 10 3 11 2 12
REMARK SMILES IDX 1 13 4 14 5 15 6 16 7 17 12 18 8 19 11 20 13 21 9 22 10 23
REMARK SMILES IDX 24 24 25 25 26 26 27 27 28 28 29 29 30 30 31 31 83 32 32 33
REMARK SMILES IDX 82 34 33 35 34 36 35 37 76 38 36 39 81 40 75 41 77 42 37 43
REMARK SMILES IDX 80 44 74 45 73 46 38 48 64 49 47 50 63 51 48 52 51 53 62 54
REMARK SMILES IDX 78 55 49 56 50 57 61 59 79 60 52 61 39 62 40 63 45 64 41 65
REMARK SMILES IDX 42 66 44 67 46 68 43 69 65 70 66 71 71 72 67 73 68 74 70 75
REMARK SMILES IDX 72 76 69 77 53 78 54 79 59 80 55 81 56 82 58 83 60 84 57 85
REMARK H PARENT 77 47 51 58
REMARK Flexibility Score: inf
ROOT
ATOM      1  C   UNL A   1      30.542  28.496  23.229  1.00  0.00     0.202 C 
ENDROOT
BRANCH   1   2
ATOM      2  C   UNL A   1      30.457  26.990  22.985  1.00  0.00     0.261 C 
BRANCH   2   3
ATOM      3  O   UNL A   1      30.685  26.218  24.186  1.00  0.00    -0.463 OA
BRANCH   3   4
ATOM      4  C   UNL A   1      31.528  25.169  24.032  1.00  0.00     0.313 C 
ATOM      5  O   UNL A   1      31.509  24.439  23.043  1.00  0.00    -0.252 OA
BRANCH   4   6
ATOM      6  C   UNL A   1      32.414  24.857  25.225  1.00  0.00     0.150 C 
ATOM      7  C   UNL A   1      32.895  23.463  25.635  1.00  0.00     0.127 C 
ATOM      8  C   UNL A   1      31.794  22.961  26.556  1.00  0.00     0.186 C 
ATOM      9  O   UNL A   1      31.297  24.107  27.247  1.00  0.00    -0.378 OA
ATOM     10  C   UNL A   1      31.618  25.276  26.475  1.00  0.00     0.177 C 
BRANCH   7  11
ATOM     11  N   UNL A   1      33.426  22.525  24.632  1.00  0.00    -0.333 N 
BRANCH  11  12
ATOM     12  C   UNL A   1      32.800  21.215  24.462  1.00  0.00     0.117 C 
ATOM     13  C   UNL A   1      32.161  21.005  23.097  1.00  0.00     0.027 C 
ENDBRANCH  11  12
BRANCH  11  14
ATOM     14  C   UNL A   1      34.584  22.897  23.930  1.00  0.00     0.257 C 
ATOM     15  O   UNL A   1      34.576  23.351  22.790  1.00  0.00    -0.269 OA
BRANCH  14  16
ATOM     16  C   UNL A   1      35.897  22.676  24.564  1.00  0.00     0.075 A 
ATOM     17  C   UNL A   1      36.532  21.445  24.387  1.00  0.00     0.017 A 
ATOM     18  C   UNL A   1      36.505  23.673  25.321  1.00  0.00     0.136 A 
ATOM     19  C   UNL A   1      37.764  21.210  25.000  1.00  0.00     0.004 A 
ATOM     20  C   UNL A   1      37.729  23.434  25.947  1.00  0.00     0.043 A 
ATOM     21  F   UNL A   1      35.912  24.862  25.500  1.00  0.00    -0.206 F 
ATOM     22  C   UNL A   1      38.364  22.192  25.802  1.00  0.00    -0.048 A 
ATOM     23  C   UNL A   1      39.669  21.924  26.498  1.00  0.00     0.044 C 
ENDBRANCH  14  16
ENDBRANCH  11  14
ENDBRANCH   7  11
ENDBRANCH   4   6
ENDBRANCH   3   4
ENDBRANCH   2   3
ENDBRANCH   1   2
BRANCH   1  24
ATOM     24  O   UNL A   1      31.788  28.996  23.709  1.00  0.00    -0.374 OA
BRANCH  24  25
ATOM     25  C   UNL A   1      31.941  29.109  25.122  1.00  0.00     0.202 C 
BRANCH  25  26
ATOM     26  C   UNL A   1      31.723  30.516  25.711  1.00  0.00     0.261 C 
BRANCH  26  27
ATOM     27  O   UNL A   1      32.271  30.657  27.041  1.00  0.00    -0.460 OA
BRANCH  27  28
ATOM     28  C   UNL A   1      33.023  31.763  27.260  1.00  0.00     0.338 C 
ATOM     29  O   UNL A   1      32.647  32.926  27.227  1.00  0.00    -0.246 OA
BRANCH  28  30
ATOM     30  C   UNL A   1      34.365  31.376  27.752  1.00  0.00     0.060 A 
ATOM     31  C   UNL A   1      34.608  30.019  28.000  1.00  0.00     0.016 A 
ATOM     32  C   UNL A   1      35.364  32.312  28.008  1.00  0.00     0.016 A 
ATOM     33  C   UNL A   1      35.832  29.601  28.538  1.00  0.00     0.010 A 
ATOM     34  C   UNL A   1      36.589  31.884  28.544  1.00  0.00     0.010 A 
ATOM     35  C   UNL A   1      36.837  30.529  28.843  1.00  0.00    -0.014 A 
BRANCH  35  36
ATOM     36  C   UNL A   1      38.078  30.094  29.565  1.00  0.00     0.031 A 
ATOM     37  C   UNL A   1      38.327  30.550  30.986  1.00  0.00     0.074 A 
ATOM     38  C   UNL A   1      38.990  29.280  28.991  1.00  0.00     0.049 A 
ATOM     39  N   UNL A   1      39.326  30.267  31.788  1.00  0.00    -0.248 NA
ATOM     40  C   UNL A   1      37.336  31.464  31.572  1.00  0.00     0.031 C 
ATOM     41  C   UNL A   1      38.935  28.770  27.622  1.00  0.00     0.029 A 
ATOM     42  N   UNL A   1      40.151  28.737  29.497  1.00  0.00    -0.354 N 
ATOM     43  C   UNL A   1      39.088  30.976  32.961  1.00  0.00     0.074 A 
ATOM     44  C   UNL A   1      37.891  31.757  32.739  1.00  0.00     0.031 C 
ATOM     45  C   UNL A   1      39.998  27.976  27.405  1.00  0.00     0.029 A 
ATOM     46  C   UNL A   1      40.823  27.926  28.611  1.00  0.00     0.049 A 
ATOM     47  H   UNL A   1      40.472  28.914  30.412  1.00  0.00     0.167 HD
ATOM     48  C   UNL A   1      39.769  30.957  34.133  1.00  0.00     0.037 A 
ATOM     49  C   UNL A   1      41.964  27.218  28.748  1.00  0.00     0.037 A 
ATOM     50  C   UNL A   1      40.932  30.154  34.402  1.00  0.00     0.049 A 
ATOM     51  C   UNL A   1      42.712  27.218  30.058  1.00  0.00     0.074 A 
ATOM     52  C   UNL A   1      41.631  30.025  35.592  1.00  0.00     0.029 A 
ATOM     53  N   UNL A   1      41.570  29.345  33.477  1.00  0.00    -0.354 N 
ATOM     54  N   UNL A   1      42.419  27.827  31.181  1.00  0.00    -0.248 NA
ATOM     55  C   UNL A   1      43.948  26.419  30.121  1.00  0.00     0.031 C 
ATOM     56  C   UNL A   1      42.720  29.174  35.373  1.00  0.00     0.029 A 
ATOM     57  C   UNL A   1      42.667  28.733  34.063  1.00  0.00     0.049 A 
ATOM     58  H   UNL A   1      41.285  29.221  32.543  1.00  0.00     0.167 HD
ATOM     59  C   UNL A   1      43.407  27.454  32.087  1.00  0.00     0.074 A 
ATOM     60  C   UNL A   1      44.304  26.559  31.390  1.00  0.00     0.031 C 
ATOM     61  C   UNL A   1      43.553  27.823  33.383  1.00  0.00     0.037 A 
BRANCH  48  62
ATOM     62  C   UNL A   1      39.256  31.835  35.241  1.00  0.00     0.057 A 
ATOM     63  C   UNL A   1      38.395  31.347  36.232  1.00  0.00     0.134 A 
ATOM     64  C   UNL A   1      39.659  33.173  35.336  1.00  0.00     0.134 A 
ATOM     65  F   UNL A   1      37.965  30.076  36.193  1.00  0.00    -0.206 F 
ATOM     66  C   UNL A   1      37.924  32.167  37.258  1.00  0.00     0.040 A 
ATOM     67  C   UNL A   1      39.221  33.994  36.377  1.00  0.00     0.040 A 
ATOM     68  F   UNL A   1      40.494  33.702  34.428  1.00  0.00    -0.206 F 
ATOM     69  C   UNL A   1      38.342  33.492  37.336  1.00  0.00     0.006 A 
ENDBRANCH  48  62
BRANCH  49  70
ATOM     70  C   UNL A   1      42.483  26.408  27.613  1.00  0.00     0.057 A 
ATOM     71  C   UNL A   1      43.315  26.976  26.639  1.00  0.00     0.134 A 
ATOM     72  C   UNL A   1      42.112  25.070  27.441  1.00  0.00     0.134 A 
ATOM     73  F   UNL A   1      43.680  28.263  26.733  1.00  0.00    -0.206 F 
ATOM     74  C   UNL A   1      43.738  26.252  25.524  1.00  0.00     0.040 A 
ATOM     75  C   UNL A   1      42.549  24.325  26.344  1.00  0.00     0.040 A 
ATOM     76  F   UNL A   1      41.316  24.468  28.338  1.00  0.00    -0.206 F 
ATOM     77  C   UNL A   1      43.356  24.919  25.376  1.00  0.00     0.006 A 
ENDBRANCH  49  70
BRANCH  61  78
ATOM     78  C   UNL A   1      44.694  27.232  34.164  1.00  0.00     0.057 A 
ATOM     79  C   UNL A   1      44.584  26.004  34.828  1.00  0.00     0.134 A 
ATOM     80  C   UNL A   1      45.939  27.876  34.204  1.00  0.00     0.134 A 
ATOM     81  F   UNL A   1      43.419  25.339  34.839  1.00  0.00    -0.206 F 
ATOM     82  C   UNL A   1      45.665  25.447  35.518  1.00  0.00     0.040 A 
ATOM     83  C   UNL A   1      47.032  27.316  34.868  1.00  0.00     0.040 A 
ATOM     84  F   UNL A   1      46.119  29.051  33.583  1.00  0.00    -0.206 F 
ATOM     85  C   UNL A   1      46.895  26.100  35.532  1.00  0.00     0.006 A 
ENDBRANCH  61  78
ENDBRANCH  35  36
ENDBRANCH  28  30
ENDBRANCH  27  28
ENDBRANCH  26  27
ENDBRANCH  25  26
ENDBRANCH  24  25
ENDBRANCH   1  24
TORSDOF 18
ENDMDL
MODEL 3
REMARK VINA RESULT:     -10.4      4.015      8.817
REMARK SMILES CCN(C(=O)c1ccc(C)cc1F)[C@@H]1COC[C@@H]1C(=O)OCCOCCOC(=O)c1ccc(-c2c3nc(c(-c4c(F)cccc4F)c4ccc([nH]4)c(-c4c(F)cccc4F)c4nc(c(-c5c(F)cccc5F)c5ccc2[nH]5)C=C4)C=C3)cc1
REMARK SMILES IDX 23 1 22 2 21 3 19 4 20 5 18 6 14 7 15 8 16 9 17 10 3 11 2 12
REMARK SMILES IDX 1 13 4 14 5 15 6 16 7 17 12 18 8 19 11 20 13 21 9 22 10 23
REMARK SMILES IDX 24 24 25 25 26 26 27 27 28 28 29 29 30 30 31 31 83 32 32 33
REMARK SMILES IDX 82 34 33 35 34 36 35 37 76 38 36 39 81 40 75 41 77 42 37 43
REMARK SMILES IDX 80 44 74 45 73 46 38 48 64 49 47 50 63 51 48 52 51 53 62 54
REMARK SMILES IDX 78 55 49 56 50 57 61 59 79 60 52 61 39 62 40 63 45 64 41 65
REMARK SMILES IDX 42 66 44 67 46 68 43 69 65 70 66 71 71 72 67 73 68 74 70 75
REMARK SMILES IDX 72 76 69 77 53 78 54 79 59 80 55 81 56 82 58 83 60 84 57 85
REMARK H PARENT 77 47 51 58
REMARK Flexibility Score: inf
ROOT
ATOM      1  C   UNL A   1      32.204  26.915  25.815  1.00  0.00     0.202 C 
ENDROOT
BRANCH   1   2
ATOM      2  C   UNL A   1      30.802  26.490  26.252  1.00  0.00     0.261 C 
BRANCH   2   3
ATOM      3  O   UNL A   1      30.318  25.337  25.525  1.00  0.00    -0.463 OA
BRANCH   3   4
ATOM      4  C   UNL A   1      30.801  24.150  25.962  1.00  0.00     0.313 C 
ATOM      5  O   UNL A   1      30.891  23.866  27.155  1.00  0.00    -0.252 OA
BRANCH   4   6
ATOM      6  C   UNL A   1      31.358  23.231  24.890  1.00  0.00     0.150 C 
ATOM      7  C   UNL A   1      32.842  23.040  24.566  1.00  0.00     0.127 C 
ATOM      8  C   UNL A   1      33.123  24.116  23.529  1.00  0.00     0.186 C 
ATOM      9  O   UNL A   1      31.927  24.255  22.763  1.00  0.00    -0.378 OA
ATOM     10  C   UNL A   1      30.827  23.764  23.546  1.00  0.00     0.177 C 
BRANCH   7  11
ATOM     11  N   UNL A   1      33.830  22.854  25.642  1.00  0.00    -0.333 N 
BRANCH  11  12
ATOM     12  C   UNL A   1      34.815  23.900  25.909  1.00  0.00     0.117 C 
ATOM     13  C   UNL A   1      36.256  23.468  25.678  1.00  0.00     0.027 C 
ENDBRANCH  11  12
BRANCH  11  14
ATOM     14  C   UNL A   1      33.842  21.624  26.320  1.00  0.00     0.257 C 
ATOM     15  O   UNL A   1      33.890  21.518  27.541  1.00  0.00    -0.269 OA
BRANCH  14  16
ATOM     16  C   UNL A   1      33.863  20.381  25.528  1.00  0.00     0.075 A 
ATOM     17  C   UNL A   1      32.652  19.759  25.216  1.00  0.00     0.017 A 
ATOM     18  C   UNL A   1      35.064  19.832  25.087  1.00  0.00     0.136 A 
ATOM     19  C   UNL A   1      32.656  18.568  24.488  1.00  0.00     0.004 A 
ATOM     20  C   UNL A   1      35.069  18.633  24.374  1.00  0.00     0.043 A 
ATOM     21  F   UNL A   1      36.236  20.415  25.375  1.00  0.00    -0.206 F 
ATOM     22  C   UNL A   1      33.863  17.983  24.078  1.00  0.00    -0.048 A 
ATOM     23  C   UNL A   1      33.869  16.677  23.333  1.00  0.00     0.044 C 
ENDBRANCH  14  16
ENDBRANCH  11  14
ENDBRANCH   7  11
ENDBRANCH   4   6
ENDBRANCH   3   4
ENDBRANCH   2   3
ENDBRANCH   1   2
BRANCH   1  24
ATOM     24  O   UNL A   1      32.744  28.076  26.441  1.00  0.00    -0.374 OA
BRANCH  24  25
ATOM     25  C   UNL A   1      31.838  28.899  27.172  1.00  0.00     0.202 C 
BRANCH  25  26
ATOM     26  C   UNL A   1      31.871  30.402  26.833  1.00  0.00     0.261 C 
BRANCH  26  27
ATOM     27  O   UNL A   1      33.200  30.876  26.520  1.00  0.00    -0.460 OA
BRANCH  27  28
ATOM     28  C   UNL A   1      33.685  31.856  27.320  1.00  0.00     0.338 C 
ATOM     29  O   UNL A   1      33.099  32.867  27.683  1.00  0.00    -0.246 OA
BRANCH  28  30
ATOM     30  C   UNL A   1      34.993  31.452  27.884  1.00  0.00     0.060 A 
ATOM     31  C   UNL A   1      35.178  30.102  28.210  1.00  0.00     0.016 A 
ATOM     32  C   UNL A   1      36.014  32.366  28.131  1.00  0.00     0.016 A 
ATOM     33  C   UNL A   1      36.366  29.671  28.816  1.00  0.00     0.010 A 
ATOM     34  C   UNL A   1      37.202  31.926  28.736  1.00  0.00     0.010 A 
ATOM     35  C   UNL A   1      37.391  30.581  29.113  1.00  0.00    -0.014 A 
BRANCH  35  36
ATOM     36  C   UNL A   1      38.588  30.143  29.904  1.00  0.00     0.031 A 
ATOM     37  C   UNL A   1      38.765  30.611  31.332  1.00  0.00     0.074 A 
ATOM     38  C   UNL A   1      39.522  29.316  29.387  1.00  0.00     0.049 A 
ATOM     39  N   UNL A   1      39.717  30.329  32.189  1.00  0.00    -0.248 NA
ATOM     40  C   UNL A   1      37.752  31.539  31.856  1.00  0.00     0.031 C 
ATOM     41  C   UNL A   1      39.536  28.793  28.022  1.00  0.00     0.029 A 
ATOM     42  N   UNL A   1      40.650  28.768  29.961  1.00  0.00    -0.354 N 
ATOM     43  C   UNL A   1      39.423  31.050  33.340  1.00  0.00     0.074 A 
ATOM     44  C   UNL A   1      38.246  31.839  33.048  1.00  0.00     0.031 C 
ATOM     45  C   UNL A   1      40.602  27.988  27.870  1.00  0.00     0.029 A 
ATOM     46  C   UNL A   1      41.362  27.944  29.119  1.00  0.00     0.049 A 
ATOM     47  H   UNL A   1      40.923  28.952  30.889  1.00  0.00     0.167 HD
ATOM     48  C   UNL A   1      40.040  31.039  34.548  1.00  0.00     0.037 A 
ATOM     49  C   UNL A   1      42.487  27.227  29.323  1.00  0.00     0.037 A 
ATOM     50  C   UNL A   1      41.181  30.229  34.886  1.00  0.00     0.049 A 
ATOM     51  C   UNL A   1      43.164  27.235  30.672  1.00  0.00     0.074 A 
ATOM     52  C   UNL A   1      41.814  30.106  36.112  1.00  0.00     0.029 A 
ATOM     53  N   UNL A   1      41.859  29.405  34.004  1.00  0.00    -0.354 N 
ATOM     54  N   UNL A   1      42.817  27.857  31.771  1.00  0.00    -0.248 NA
ATOM     55  C   UNL A   1      44.389  26.427  30.809  1.00  0.00     0.031 C 
ATOM     56  C   UNL A   1      42.905  29.244  35.961  1.00  0.00     0.029 A 
ATOM     57  C   UNL A   1      42.919  28.790  34.654  1.00  0.00     0.049 A 
ATOM     58  H   UNL A   1      41.624  29.275  33.057  1.00  0.00     0.167 HD
ATOM     59  C   UNL A   1      43.753  27.486  32.733  1.00  0.00     0.074 A 
ATOM     60  C   UNL A   1      44.678  26.577  32.094  1.00  0.00     0.031 C 
ATOM     61  C   UNL A   1      43.832  27.867  34.031  1.00  0.00     0.037 A 
BRANCH  48  62
ATOM     62  C   UNL A   1      39.477  31.932  35.618  1.00  0.00     0.057 A 
ATOM     63  C   UNL A   1      38.501  31.483  36.517  1.00  0.00     0.134 A 
ATOM     64  C   UNL A   1      39.944  33.243  35.773  1.00  0.00     0.134 A 
ATOM     65  F   UNL A   1      38.005  30.239  36.417  1.00  0.00    -0.206 F 
ATOM     66  C   UNL A   1      37.983  32.316  37.508  1.00  0.00     0.040 A 
ATOM     67  C   UNL A   1      39.458  34.075  36.783  1.00  0.00     0.040 A 
ATOM     68  F   UNL A   1      40.888  33.733  34.955  1.00  0.00    -0.206 F 
ATOM     69  C   UNL A   1      38.466  33.614  37.647  1.00  0.00     0.006 A 
ENDBRANCH  48  62
BRANCH  49  70
ATOM     70  C   UNL A   1      43.059  26.403  28.226  1.00  0.00     0.057 A 
ATOM     71  C   UNL A   1      42.692  25.060  28.062  1.00  0.00     0.134 A 
ATOM     72  C   UNL A   1      44.030  26.914  27.358  1.00  0.00     0.134 A 
ATOM     73  F   UNL A   1      41.789  24.504  28.883  1.00  0.00    -0.206 F 
ATOM     74  C   UNL A   1      43.286  24.252  27.092  1.00  0.00     0.040 A 
ATOM     75  C   UNL A   1      44.613  26.124  26.366  1.00  0.00     0.040 A 
ATOM     76  F   UNL A   1      44.426  28.192  27.464  1.00  0.00    -0.206 F 
ATOM     77  C   UNL A   1      44.249  24.786  26.237  1.00  0.00     0.006 A 
ENDBRANCH  49  70
BRANCH  61  78
ATOM     78  C   UNL A   1      44.924  27.275  34.877  1.00  0.00     0.057 A 
ATOM     79  C   UNL A   1      46.161  27.910  35.049  1.00  0.00     0.134 A 
ATOM     80  C   UNL A   1      44.714  26.078  35.576  1.00  0.00     0.134 A 
ATOM     81  F   UNL A   1      46.434  29.053  34.402  1.00  0.00    -0.206 F 
ATOM     82  C   UNL A   1      47.153  27.367  35.871  1.00  0.00     0.040 A 
ATOM     83  C   UNL A   1      45.687  25.540  36.421  1.00  0.00     0.040 A 
ATOM     84  F   UNL A   1      43.549  25.420  35.466  1.00  0.00    -0.206 F 
ATOM     85  C   UNL A   1      46.914  26.184  36.565  1.00  0.00     0.006 A 
ENDBRANCH  61  78
ENDBRANCH  35  36
ENDBRANCH  28  30
ENDBRANCH  27  28
ENDBRANCH  26  27
ENDBRANCH  25  26
ENDBRANCH  24  25
ENDBRANCH   1  24
TORSDOF 18
ENDMDL
