MODEL 1
REMARK VINA RESULT:     -11.6      0.000      0.000
REMARK SMILES O=C(OCCOCCOC(=O)[C@H]1CC[C@H](CN2C(=O)c3cccnc3C2=O)O1)c1ccc(-c2c3nc(c(-c4c(F)cccc4F)c4ccc([nH]4)c(-c4c(F)cccc4F)c4nc(c(-c5c(F)cccc5F)c5ccc2[nH]5)C=C4)C=C3)cc1
REMARK SMILES IDX 6 1 5 2 4 3 3 4 2 5 1 6 29 7 30 8 82 9 31 10 81 11 32 12
REMARK SMILES IDX 33 13 34 14 75 15 35 16 80 17 74 18 76 19 36 20 79 21 73 22
REMARK SMILES IDX 72 23 37 25 63 26 46 27 62 28 47 29 50 30 61 31 77 32 48 33
REMARK SMILES IDX 49 34 60 36 78 37 51 38 38 39 39 40 44 41 40 42 41 43 43 44
REMARK SMILES IDX 45 45 42 46 64 47 65 48 70 49 66 50 67 51 69 52 71 53 68 54
REMARK SMILES IDX 52 55 53 56 58 57 54 58 55 59 57 60 59 61 56 62 7 63 8 64
REMARK SMILES IDX 9 65 10 66 11 67 12 68 13 69 28 70 14 71 15 72 16 73 17 74
REMARK SMILES IDX 18 75 26 76 19 77 20 78 25 79 27 80 21 81 24 82 22 83 23 84
REMARK H PARENT 76 24 50 35
REMARK Flexibility Score: inf
ROOT
ATOM      1  O   UNL A   1      30.950  29.337  23.253  1.00  0.00    -0.374 OA
ENDROOT
BRANCH   1   2
ATOM      2  C   UNL A   1      30.878  29.783  24.601  1.00  0.00     0.202 C 
BRANCH   2   3
ATOM      3  C   UNL A   1      31.890  29.214  25.593  1.00  0.00     0.261 C 
BRANCH   3   4
ATOM      4  O   UNL A   1      33.011  30.107  25.711  1.00  0.00    -0.460 OA
BRANCH   4   5
ATOM      5  C   UNL A   1      33.279  30.917  26.762  1.00  0.00     0.338 C 
ATOM      6  O   UNL A   1      32.486  31.795  27.086  1.00  0.00    -0.246 OA
BRANCH   5   7
ATOM      7  C   UNL A   1      34.506  30.727  27.572  1.00  0.00     0.060 A 
ATOM      8  C   UNL A   1      34.866  29.494  28.105  1.00  0.00     0.016 A 
ATOM      9  C   UNL A   1      35.370  31.810  27.750  1.00  0.00     0.016 A 
ATOM     10  C   UNL A   1      35.980  29.322  28.878  1.00  0.00     0.010 A 
ATOM     11  C   UNL A   1      36.564  31.631  28.453  1.00  0.00     0.010 A 
ATOM     12  C   UNL A   1      36.861  30.377  29.005  1.00  0.00    -0.014 A 
BRANCH  12  13
ATOM     13  C   UNL A   1      38.063  30.089  29.781  1.00  0.00     0.031 A 
ATOM     14  C   UNL A   1      39.119  29.268  29.138  1.00  0.00     0.074 A 
ATOM     15  C   UNL A   1      38.229  30.723  30.956  1.00  0.00     0.049 A 
ATOM     16  N   UNL A   1      40.205  28.781  29.660  1.00  0.00    -0.248 NA
ATOM     17  C   UNL A   1      38.934  28.956  27.708  1.00  0.00     0.031 C 
ATOM     18  C   UNL A   1      37.296  31.702  31.533  1.00  0.00     0.029 A 
ATOM     19  N   UNL A   1      39.248  30.668  31.860  1.00  0.00    -0.354 N 
ATOM     20  C   UNL A   1      40.799  28.048  28.648  1.00  0.00     0.074 A 
ATOM     21  C   UNL A   1      39.976  28.176  27.468  1.00  0.00     0.031 C 
ATOM     22  C   UNL A   1      37.793  32.155  32.693  1.00  0.00     0.029 A 
ATOM     23  C   UNL A   1      39.010  31.417  32.988  1.00  0.00     0.049 A 
ATOM     24  H   UNL A   1      40.071  30.146  31.720  1.00  0.00     0.167 HD
ATOM     25  C   UNL A   1      41.924  27.309  28.739  1.00  0.00     0.037 A 
ATOM     26  C   UNL A   1      39.671  31.424  34.157  1.00  0.00     0.037 A 
ATOM     27  C   UNL A   1      42.701  27.242  29.946  1.00  0.00     0.049 A 
ATOM     28  C   UNL A   1      40.854  30.504  34.266  1.00  0.00     0.074 A 
ATOM     29  C   UNL A   1      43.839  26.508  30.202  1.00  0.00     0.029 A 
ATOM     30  N   UNL A   1      42.398  27.947  31.107  1.00  0.00    -0.354 N 
ATOM     31  N   UNL A   1      41.389  29.737  33.341  1.00  0.00    -0.248 NA
ATOM     32  C   UNL A   1      41.509  30.419  35.574  1.00  0.00     0.031 C 
ATOM     33  C   UNL A   1      44.189  26.720  31.539  1.00  0.00     0.029 A 
ATOM     34  C   UNL A   1      43.308  27.636  32.098  1.00  0.00     0.049 A 
ATOM     35  H   UNL A   1      41.647  28.576  31.206  1.00  0.00     0.167 HD
ATOM     36  C   UNL A   1      42.450  29.088  33.949  1.00  0.00     0.074 A 
ATOM     37  C   UNL A   1      42.496  29.573  35.317  1.00  0.00     0.031 C 
ATOM     38  C   UNL A   1      43.305  28.168  33.439  1.00  0.00     0.037 A 
BRANCH  25  39
ATOM     39  C   UNL A   1      42.283  26.456  27.564  1.00  0.00     0.057 A 
ATOM     40  C   UNL A   1      41.845  25.134  27.423  1.00  0.00     0.134 A 
ATOM     41  C   UNL A   1      43.122  26.969  26.566  1.00  0.00     0.134 A 
ATOM     42  F   UNL A   1      41.073  24.568  28.363  1.00  0.00    -0.206 F 
ATOM     43  C   UNL A   1      42.241  24.349  26.338  1.00  0.00     0.040 A 
ATOM     44  C   UNL A   1      43.504  26.203  25.466  1.00  0.00     0.040 A 
ATOM     45  F   UNL A   1      43.595  28.222  26.654  1.00  0.00    -0.206 F 
ATOM     46  C   UNL A   1      43.067  24.886  25.351  1.00  0.00     0.006 A 
ENDBRANCH  25  39
BRANCH  26  47
ATOM     47  C   UNL A   1      39.172  32.212  35.313  1.00  0.00     0.057 A 
ATOM     48  C   UNL A   1      38.294  31.659  36.250  1.00  0.00     0.134 A 
ATOM     49  C   UNL A   1      39.536  33.555  35.494  1.00  0.00     0.134 A 
ATOM     50  F   UNL A   1      37.894  30.384  36.130  1.00  0.00    -0.206 F 
ATOM     51  C   UNL A   1      37.775  32.416  37.304  1.00  0.00     0.040 A 
ATOM     52  C   UNL A   1      39.052  34.313  36.561  1.00  0.00     0.040 A 
ATOM     53  F   UNL A   1      40.379  34.154  34.638  1.00  0.00    -0.206 F 
ATOM     54  C   UNL A   1      38.156  33.746  37.464  1.00  0.00     0.006 A 
ENDBRANCH  26  47
BRANCH  38  55
ATOM     55  C   UNL A   1      44.373  27.665  34.359  1.00  0.00     0.057 A 
ATOM     56  C   UNL A   1      44.211  26.488  35.097  1.00  0.00     0.134 A 
ATOM     57  C   UNL A   1      45.601  28.331  34.443  1.00  0.00     0.134 A 
ATOM     58  F   UNL A   1      43.048  25.819  35.067  1.00  0.00    -0.206 F 
ATOM     59  C   UNL A   1      45.237  25.992  35.898  1.00  0.00     0.040 A 
ATOM     60  C   UNL A   1      46.645  27.827  35.214  1.00  0.00     0.040 A 
ATOM     61  F   UNL A   1      45.813  29.459  33.749  1.00  0.00    -0.206 F 
ATOM     62  C   UNL A   1      46.464  26.655  35.946  1.00  0.00     0.006 A 
ENDBRANCH  38  55
ENDBRANCH  12  13
ENDBRANCH   5   7
ENDBRANCH   4   5
ENDBRANCH   3   4
ENDBRANCH   2   3
ENDBRANCH   1   2
BRANCH   1  63
ATOM     63  C   UNL A   1      31.823  28.245  22.958  1.00  0.00     0.202 C 
BRANCH  63  64
ATOM     64  C   UNL A   1      30.976  27.049  22.530  1.00  0.00     0.261 C 
BRANCH  64  65
ATOM     65  O   UNL A   1      31.772  26.201  21.689  1.00  0.00    -0.461 OA
BRANCH  65  66
ATOM     66  C   UNL A   1      32.861  25.611  22.267  1.00  0.00     0.335 C 
ATOM     67  O   UNL A   1      34.031  25.825  21.975  1.00  0.00    -0.249 OA
BRANCH  66  68
ATOM     68  C   UNL A   1      32.425  24.680  23.408  1.00  0.00     0.228 C 
ATOM     69  C   UNL A   1      32.081  23.272  22.956  1.00  0.00     0.047 C 
ATOM     70  O   UNL A   1      33.469  24.515  24.376  1.00  0.00    -0.361 OA
ATOM     71  C   UNL A   1      33.431  22.592  22.957  1.00  0.00     0.037 C 
ATOM     72  C   UNL A   1      34.109  23.238  24.155  1.00  0.00     0.139 C 
BRANCH  72  73
ATOM     73  C   UNL A   1      33.944  22.425  25.434  1.00  0.00     0.161 C 
BRANCH  73  74
ATOM     74  N   UNL A   1      33.849  21.001  25.198  1.00  0.00    -0.270 N 
ATOM     75  C   UNL A   1      34.918  20.188  24.957  1.00  0.00     0.263 C 
ATOM     76  C   UNL A   1      32.663  20.315  25.158  1.00  0.00     0.280 C 
ATOM     77  O   UNL A   1      36.109  20.452  24.974  1.00  0.00    -0.269 OA
ATOM     78  C   UNL A   1      34.380  18.869  24.668  1.00  0.00     0.071 A 
ATOM     79  C   UNL A   1      33.014  18.936  24.802  1.00  0.00     0.141 A 
ATOM     80  O   UNL A   1      31.548  20.743  25.378  1.00  0.00    -0.267 OA
ATOM     81  C   UNL A   1      34.980  17.693  24.279  1.00  0.00     0.018 A 
ATOM     82  N   UNL A   1      32.153  17.927  24.591  1.00  0.00    -0.250 NA
ATOM     83  C   UNL A   1      34.130  16.611  24.039  1.00  0.00     0.021 A 
ATOM     84  C   UNL A   1      32.748  16.772  24.208  1.00  0.00     0.112 A 
ENDBRANCH  73  74
ENDBRANCH  72  73
ENDBRANCH  66  68
ENDBRANCH  65  66
ENDBRANCH  64  65
ENDBRANCH  63  64
ENDBRANCH   1  63
TORSDOF 16
ENDMDL
MODEL 2
REMARK VINA RESULT:     -11.2      4.166      8.131
REMARK SMILES O=C(OCCOCCOC(=O)[C@H]1CC[C@H](CN2C(=O)c3cccnc3C2=O)O1)c1ccc(-c2c3nc(c(-c4c(F)cccc4F)c4ccc([nH]4)c(-c4c(F)cccc4F)c4nc(c(-c5c(F)cccc5F)c5ccc2[nH]5)C=C4)C=C3)cc1
REMARK SMILES IDX 6 1 5 2 4 3 3 4 2 5 1 6 29 7 30 8 82 9 31 10 81 11 32 12
REMARK SMILES IDX 33 13 34 14 75 15 35 16 80 17 74 18 76 19 36 20 79 21 73 22
REMARK SMILES IDX 72 23 37 25 63 26 46 27 62 28 47 29 50 30 61 31 77 32 48 33
REMARK SMILES IDX 49 34 60 36 78 37 51 38 38 39 39 40 44 41 40 42 41 43 43 44
REMARK SMILES IDX 45 45 42 46 64 47 65 48 70 49 66 50 67 51 69 52 71 53 68 54
REMARK SMILES IDX 52 55 53 56 58 57 54 58 55 59 57 60 59 61 56 62 7 63 8 64
REMARK SMILES IDX 9 65 10 66 11 67 12 68 13 69 28 70 14 71 15 72 16 73 17 74
REMARK SMILES IDX 18 75 26 76 19 77 20 78 25 79 27 80 21 81 24 82 22 83 23 84
REMARK H PARENT 76 24 50 35
REMARK Flexibility Score: inf
ROOT
ATOM      1  O   UNL A   1      37.166  20.426  25.043  1.00  0.00    -0.374 OA
ENDROOT
BRANCH   1   2
ATOM      2  C   UNL A   1      38.334  19.629  24.894  1.00  0.00     0.202 C 
BRANCH   2   3
ATOM      3  C   UNL A   1      39.373  19.673  26.011  1.00  0.00     0.261 C 
BRANCH   3   4
ATOM      4  O   UNL A   1      40.532  18.912  25.630  1.00  0.00    -0.460 OA
BRANCH   4   5
ATOM      5  C   UNL A   1      41.816  19.199  25.947  1.00  0.00     0.338 C 
ATOM      6  O   UNL A   1      42.678  18.329  25.886  1.00  0.00    -0.246 OA
BRANCH   5   7
ATOM      7  C   UNL A   1      42.214  20.576  26.323  1.00  0.00     0.060 A 
ATOM      8  C   UNL A   1      42.368  21.592  25.385  1.00  0.00     0.016 A 
ATOM      9  C   UNL A   1      42.378  20.886  27.675  1.00  0.00     0.016 A 
ATOM     10  C   UNL A   1      42.765  22.854  25.724  1.00  0.00     0.010 A 
ATOM     11  C   UNL A   1      42.687  22.195  28.050  1.00  0.00     0.010 A 
ATOM     12  C   UNL A   1      42.869  23.173  27.063  1.00  0.00    -0.014 A 
BRANCH  12  13
ATOM     13  C   UNL A   1      43.223  24.561  27.343  1.00  0.00     0.031 A 
ATOM     14  C   UNL A   1      44.618  24.986  27.068  1.00  0.00     0.074 A 
ATOM     15  C   UNL A   1      42.236  25.418  27.661  1.00  0.00     0.049 A 
ATOM     16  N   UNL A   1      45.197  26.115  27.347  1.00  0.00    -0.248 NA
ATOM     17  C   UNL A   1      45.482  24.009  26.377  1.00  0.00     0.031 C 
ATOM     18  C   UNL A   1      40.808  25.077  27.744  1.00  0.00     0.029 A 
ATOM     19  N   UNL A   1      42.271  26.752  27.939  1.00  0.00    -0.354 N 
ATOM     20  C   UNL A   1      46.509  25.965  26.932  1.00  0.00     0.074 A 
ATOM     21  C   UNL A   1      46.641  24.649  26.351  1.00  0.00     0.031 C 
ATOM     22  C   UNL A   1      40.108  26.179  28.052  1.00  0.00     0.029 A 
ATOM     23  C   UNL A   1      41.046  27.262  28.295  1.00  0.00     0.049 A 
ATOM     24  H   UNL A   1      43.091  27.295  27.890  1.00  0.00     0.167 HD
ATOM     25  C   UNL A   1      47.508  26.860  27.073  1.00  0.00     0.037 A 
ATOM     26  C   UNL A   1      40.748  28.454  28.839  1.00  0.00     0.037 A 
ATOM     27  C   UNL A   1      47.297  28.159  27.649  1.00  0.00     0.049 A 
ATOM     28  C   UNL A   1      41.900  29.386  29.087  1.00  0.00     0.074 A 
ATOM     29  C   UNL A   1      48.217  29.157  27.892  1.00  0.00     0.029 A 
ATOM     30  N   UNL A   1      46.060  28.630  28.078  1.00  0.00    -0.354 N 
ATOM     31  N   UNL A   1      43.167  29.231  28.774  1.00  0.00    -0.248 NA
ATOM     32  C   UNL A   1      41.599  30.638  29.787  1.00  0.00     0.031 C 
ATOM     33  C   UNL A   1      47.546  30.207  28.526  1.00  0.00     0.029 A 
ATOM     34  C   UNL A   1      46.197  29.892  28.620  1.00  0.00     0.049 A 
ATOM     35  H   UNL A   1      45.211  28.136  28.004  1.00  0.00     0.167 HD
ATOM     36  C   UNL A   1      43.815  30.369  29.226  1.00  0.00     0.074 A 
ATOM     37  C   UNL A   1      42.792  31.215  29.812  1.00  0.00     0.031 C 
ATOM     38  C   UNL A   1      45.131  30.689  29.176  1.00  0.00     0.037 A 
BRANCH  25  39
ATOM     39  C   UNL A   1      48.888  26.412  26.710  1.00  0.00     0.057 A 
ATOM     40  C   UNL A   1      49.731  25.747  27.607  1.00  0.00     0.134 A 
ATOM     41  C   UNL A   1      49.394  26.692  25.434  1.00  0.00     0.134 A 
ATOM     42  F   UNL A   1      49.323  25.485  28.859  1.00  0.00    -0.206 F 
ATOM     43  C   UNL A   1      51.033  25.387  27.252  1.00  0.00     0.040 A 
ATOM     44  C   UNL A   1      50.683  26.316  25.059  1.00  0.00     0.040 A 
ATOM     45  F   UNL A   1      48.646  27.348  24.534  1.00  0.00    -0.206 F 
ATOM     46  C   UNL A   1      51.510  25.665  25.972  1.00  0.00     0.006 A 
ENDBRANCH  25  39
BRANCH  26  47
ATOM     47  C   UNL A   1      39.365  28.768  29.281  1.00  0.00     0.057 A 
ATOM     48  C   UNL A   1      38.458  29.418  28.437  1.00  0.00     0.134 A 
ATOM     49  C   UNL A   1      38.921  28.453  30.574  1.00  0.00     0.134 A 
ATOM     50  F   UNL A   1      38.820  29.759  27.192  1.00  0.00    -0.206 F 
ATOM     51  C   UNL A   1      37.177  29.769  28.871  1.00  0.00     0.040 A 
ATOM     52  C   UNL A   1      37.633  28.768  31.009  1.00  0.00     0.040 A 
ATOM     53  F   UNL A   1      39.733  27.825  31.439  1.00  0.00    -0.206 F 
ATOM     54  C   UNL A   1      36.760  29.442  30.159  1.00  0.00     0.006 A 
ENDBRANCH  26  47
BRANCH  38  55
ATOM     55  C   UNL A   1      45.516  32.021  29.739  1.00  0.00     0.057 A 
ATOM     56  C   UNL A   1      45.450  33.189  28.972  1.00  0.00     0.134 A 
ATOM     57  C   UNL A   1      45.882  32.138  31.085  1.00  0.00     0.134 A 
ATOM     58  F   UNL A   1      45.121  33.133  27.672  1.00  0.00    -0.206 F 
ATOM     59  C   UNL A   1      45.744  34.433  29.526  1.00  0.00     0.040 A 
ATOM     60  C   UNL A   1      46.146  33.378  31.658  1.00  0.00     0.040 A 
ATOM     61  F   UNL A   1      45.952  31.050  31.869  1.00  0.00    -0.206 F 
ATOM     62  C   UNL A   1      46.080  34.531  30.877  1.00  0.00     0.006 A 
ENDBRANCH  38  55
ENDBRANCH  12  13
ENDBRANCH   5   7
ENDBRANCH   4   5
ENDBRANCH   3   4
ENDBRANCH   2   3
ENDBRANCH   1   2
BRANCH   1  63
ATOM     63  C   UNL A   1      37.244  21.565  25.903  1.00  0.00     0.202 C 
BRANCH  63  64
ATOM     64  C   UNL A   1      37.094  22.825  25.053  1.00  0.00     0.261 C 
BRANCH  64  65
ATOM     65  O   UNL A   1      35.734  22.918  24.607  1.00  0.00    -0.461 OA
BRANCH  65  66
ATOM     66  C   UNL A   1      35.539  23.258  23.297  1.00  0.00     0.335 C 
ATOM     67  O   UNL A   1      36.311  23.024  22.375  1.00  0.00    -0.249 OA
BRANCH  66  68
ATOM     68  C   UNL A   1      34.165  23.916  23.111  1.00  0.00     0.228 C 
ATOM     69  C   UNL A   1      33.290  23.232  22.076  1.00  0.00     0.047 C 
ATOM     70  O   UNL A   1      33.400  23.884  24.322  1.00  0.00    -0.361 OA
ATOM     71  C   UNL A   1      32.625  22.141  22.882  1.00  0.00     0.037 C 
ATOM     72  C   UNL A   1      32.425  22.821  24.228  1.00  0.00     0.139 C 
BRANCH  72  73
ATOM     73  C   UNL A   1      31.048  23.460  24.366  1.00  0.00     0.161 C 
BRANCH  73  74
ATOM     74  N   UNL A   1      31.092  24.805  24.894  1.00  0.00    -0.270 N 
ATOM     75  C   UNL A   1      31.104  25.934  24.127  1.00  0.00     0.263 C 
ATOM     76  C   UNL A   1      31.161  25.094  26.233  1.00  0.00     0.280 C 
ATOM     77  O   UNL A   1      30.998  26.046  22.917  1.00  0.00    -0.269 OA
ATOM     78  C   UNL A   1      31.261  27.055  25.039  1.00  0.00     0.071 A 
ATOM     79  C   UNL A   1      31.283  26.554  26.319  1.00  0.00     0.141 A 
ATOM     80  O   UNL A   1      31.121  24.316  27.165  1.00  0.00    -0.267 OA
ATOM     81  C   UNL A   1      31.417  28.404  24.822  1.00  0.00     0.018 A 
ATOM     82  N   UNL A   1      31.440  27.273  27.442  1.00  0.00    -0.250 NA
ATOM     83  C   UNL A   1      31.593  29.200  25.957  1.00  0.00     0.021 A 
ATOM     84  C   UNL A   1      31.594  28.600  27.224  1.00  0.00     0.112 A 
ENDBRANCH  73  74
ENDBRANCH  72  73
ENDBRANCH  66  68
ENDBRANCH  65  66
ENDBRANCH  64  65
ENDBRANCH  63  64
ENDBRANCH   1  63
TORSDOF 16
ENDMDL
MODEL 3
REMARK VINA RESULT:     -11.1      2.371      7.847
REMARK SMILES O=C(OCCOCCOC(=O)[C@H]1CC[C@H](CN2C(=O)c3cccnc3C2=O)O1)c1ccc(-c2c3nc(c(-c4c(F)cccc4F)c4ccc([nH]4)c(-c4c(F)cccc4F)c4nc(c(-c5c(F)cccc5F)c5ccc2[nH]5)C=C4)C=C3)cc1
REMARK SMILES IDX 6 1 5 2 4 3 3 4 2 5 1 6 29 7 30 8 82 9 31 10 81 11 32 12
REMARK SMILES IDX 33 13 34 14 75 15 35 16 80 17 74 18 76 19 36 20 79 21 73 22
REMARK SMILES IDX 72 23 37 25 63 26 46 27 62 28 47 29 50 30 61 31 77 32 48 33
REMARK SMILES IDX 49 34 60 36 78 37 51 38 38 39 39 40 44 41 40 42 41 43 43 44
REMARK SMILES IDX 45 45 42 46 64 47 65 48 70 49 66 50 67 51 69 52 71 53 68 54
REMARK SMILES IDX 52 55 53 56 58 57 54 58 55 59 57 60 59 61 56 62 7 63 8 64
REMARK SMILES IDX 9 65 10 66 11 67 12 68 13 69 28 70 14 71 15 72 16 73 17 74
REMARK SMILES IDX 18 75 26 76 19 77 20 78 25 79 27 80 21 81 24 82 22 83 23 84
REMARK H PARENT 76 24 50 35
REMARK Flexibility Score: inf
ROOT
ATOM      1  O   UNL A   1      39.310  22.173  26.540  1.00  0.00    -0.374 OA
ENDROOT
BRANCH   1   2
ATOM      2  C   UNL A   1      40.087  21.053  26.135  1.00  0.00     0.202 C 
BRANCH   2   3
ATOM      3  C   UNL A   1      41.595  21.245  26.002  1.00  0.00     0.261 C 
BRANCH   3   4
ATOM      4  O   UNL A   1      41.872  22.524  25.406  1.00  0.00    -0.460 OA
BRANCH   4   5
ATOM      5  C   UNL A   1      42.813  23.408  25.815  1.00  0.00     0.338 C 
ATOM      6  O   UNL A   1      43.949  23.361  25.354  1.00  0.00    -0.246 OA
BRANCH   5   7
ATOM      7  C   UNL A   1      42.477  24.479  26.783  1.00  0.00     0.060 A 
ATOM      8  C   UNL A   1      41.639  24.265  27.873  1.00  0.00     0.016 A 
ATOM      9  C   UNL A   1      43.075  25.732  26.637  1.00  0.00     0.016 A 
ATOM     10  C   UNL A   1      41.303  25.258  28.750  1.00  0.00     0.010 A 
ATOM     11  C   UNL A   1      42.822  26.732  27.579  1.00  0.00     0.010 A 
ATOM     12  C   UNL A   1      41.939  26.477  28.637  1.00  0.00    -0.014 A 
BRANCH  12  13
ATOM     13  C   UNL A   1      41.582  27.457  29.658  1.00  0.00     0.031 A 
ATOM     14  C   UNL A   1      42.431  27.529  30.873  1.00  0.00     0.074 A 
ATOM     15  C   UNL A   1      40.622  28.355  29.370  1.00  0.00     0.049 A 
ATOM     16  N   UNL A   1      42.246  28.220  31.958  1.00  0.00    -0.248 NA
ATOM     17  C   UNL A   1      43.663  26.718  30.866  1.00  0.00     0.031 C 
ATOM     18  C   UNL A   1      39.896  28.444  28.094  1.00  0.00     0.029 A 
ATOM     19  N   UNL A   1      40.114  29.382  30.109  1.00  0.00    -0.354 N 
ATOM     20  C   UNL A   1      43.296  27.877  32.791  1.00  0.00     0.074 A 
ATOM     21  C   UNL A   1      44.137  26.941  32.082  1.00  0.00     0.031 C 
ATOM     22  C   UNL A   1      39.038  29.473  28.145  1.00  0.00     0.029 A 
ATOM     23  C   UNL A   1      39.078  30.035  29.485  1.00  0.00     0.049 A 
ATOM     24  H   UNL A   1      40.455  29.631  30.998  1.00  0.00     0.167 HD
ATOM     25  C   UNL A   1      43.494  28.300  34.057  1.00  0.00     0.037 A 
ATOM     26  C   UNL A   1      38.210  30.927  29.990  1.00  0.00     0.037 A 
ATOM     27  C   UNL A   1      42.620  29.247  34.694  1.00  0.00     0.049 A 
ATOM     28  C   UNL A   1      38.388  31.293  31.436  1.00  0.00     0.074 A 
ATOM     29  C   UNL A   1      42.669  29.740  35.981  1.00  0.00     0.029 A 
ATOM     30  N   UNL A   1      41.526  29.838  34.070  1.00  0.00    -0.354 N 
ATOM     31  N   UNL A   1      39.332  30.917  32.271  1.00  0.00    -0.248 NA
ATOM     32  C   UNL A   1      37.376  32.173  32.026  1.00  0.00     0.031 C 
ATOM     33  C   UNL A   1      41.567  30.581  36.155  1.00  0.00     0.029 A 
ATOM     34  C   UNL A   1      40.867  30.665  34.959  1.00  0.00     0.049 A 
ATOM     35  H   UNL A   1      41.261  29.690  33.134  1.00  0.00     0.167 HD
ATOM     36  C   UNL A   1      39.037  31.524  33.480  1.00  0.00     0.074 A 
ATOM     37  C   UNL A   1      37.839  32.313  33.260  1.00  0.00     0.031 C 
ATOM     38  C   UNL A   1      39.682  31.436  34.669  1.00  0.00     0.037 A 
BRANCH  25  39
ATOM     39  C   UNL A   1      44.601  27.659  34.831  1.00  0.00     0.057 A 
ATOM     40  C   UNL A   1      44.435  26.473  35.555  1.00  0.00     0.134 A 
ATOM     41  C   UNL A   1      45.860  28.273  34.878  1.00  0.00     0.134 A 
ATOM     42  F   UNL A   1      43.243  25.856  35.586  1.00  0.00    -0.206 F 
ATOM     43  C   UNL A   1      45.477  25.928  36.309  1.00  0.00     0.040 A 
ATOM     44  C   UNL A   1      46.915  27.726  35.606  1.00  0.00     0.040 A 
ATOM     45  F   UNL A   1      46.079  29.425  34.224  1.00  0.00    -0.206 F 
ATOM     46  C   UNL A   1      46.724  26.551  36.330  1.00  0.00     0.006 A 
ENDBRANCH  25  39
BRANCH  26  47
ATOM     47  C   UNL A   1      37.065  31.421  29.183  1.00  0.00     0.057 A 
ATOM     48  C   UNL A   1      37.024  32.731  28.697  1.00  0.00     0.134 A 
ATOM     49  C   UNL A   1      35.961  30.601  28.902  1.00  0.00     0.134 A 
ATOM     50  F   UNL A   1      38.040  33.573  28.940  1.00  0.00    -0.206 F 
ATOM     51  C   UNL A   1      35.921  33.217  27.990  1.00  0.00     0.040 A 
ATOM     52  C   UNL A   1      34.867  31.063  28.168  1.00  0.00     0.040 A 
ATOM     53  F   UNL A   1      35.929  29.330  29.330  1.00  0.00    -0.206 F 
ATOM     54  C   UNL A   1      34.840  32.381  27.721  1.00  0.00     0.006 A 
ENDBRANCH  26  47
BRANCH  38  55
ATOM     55  C   UNL A   1      39.118  32.242  35.797  1.00  0.00     0.057 A 
ATOM     56  C   UNL A   1      38.228  31.686  36.722  1.00  0.00     0.134 A 
ATOM     57  C   UNL A   1      39.534  33.563  35.996  1.00  0.00     0.134 A 
ATOM     58  F   UNL A   1      37.782  30.429  36.569  1.00  0.00    -0.206 F 
ATOM     59  C   UNL A   1      37.762  32.425  37.807  1.00  0.00     0.040 A 
ATOM     60  C   UNL A   1      39.102  34.299  37.095  1.00  0.00     0.040 A 
ATOM     61  F   UNL A   1      40.395  34.142  35.145  1.00  0.00    -0.206 F 
ATOM     62  C   UNL A   1      38.210  33.731  38.004  1.00  0.00     0.006 A 
ENDBRANCH  38  55
ENDBRANCH  12  13
ENDBRANCH   5   7
ENDBRANCH   4   5
ENDBRANCH   3   4
ENDBRANCH   2   3
ENDBRANCH   1   2
BRANCH   1  63
ATOM     63  C   UNL A   1      37.960  22.249  26.078  1.00  0.00     0.202 C 
BRANCH  63  64
ATOM     64  C   UNL A   1      37.773  21.230  24.956  1.00  0.00     0.261 C 
BRANCH  64  65
ATOM     65  O   UNL A   1      36.370  21.101  24.683  1.00  0.00    -0.461 OA
BRANCH  65  66
ATOM     66  C   UNL A   1      35.759  22.172  24.092  1.00  0.00     0.335 C 
ATOM     67  O   UNL A   1      36.265  22.915  23.260  1.00  0.00    -0.249 OA
BRANCH  66  68
ATOM     68  C   UNL A   1      34.300  22.282  24.556  1.00  0.00     0.228 C 
ATOM     69  C   UNL A   1      34.041  21.669  25.920  1.00  0.00     0.047 C 
ATOM     70  O   UNL A   1      33.892  23.649  24.680  1.00  0.00    -0.361 OA
ATOM     71  C   UNL A   1      34.392  22.801  26.857  1.00  0.00     0.037 C 
ATOM     72  C   UNL A   1      33.914  24.017  26.078  1.00  0.00     0.139 C 
BRANCH  72  73
ATOM     73  C   UNL A   1      32.497  24.437  26.455  1.00  0.00     0.161 C 
BRANCH  73  74
ATOM     74  N   UNL A   1      31.991  25.526  25.651  1.00  0.00    -0.270 N 
ATOM     75  C   UNL A   1      32.337  26.835  25.822  1.00  0.00     0.263 C 
ATOM     76  C   UNL A   1      31.076  25.364  24.642  1.00  0.00     0.280 C 
ATOM     77  O   UNL A   1      33.157  27.324  26.580  1.00  0.00    -0.269 OA
ATOM     78  C   UNL A   1      31.528  27.604  24.890  1.00  0.00     0.071 A 
ATOM     79  C   UNL A   1      30.772  26.717  24.162  1.00  0.00     0.141 A 
ATOM     80  O   UNL A   1      30.612  24.326  24.218  1.00  0.00    -0.267 OA
ATOM     81  C   UNL A   1      31.397  28.958  24.683  1.00  0.00     0.018 A 
ATOM     82  N   UNL A   1      29.875  27.040  23.215  1.00  0.00    -0.250 NA
ATOM     83  C   UNL A   1      30.471  29.351  23.714  1.00  0.00     0.021 A 
ATOM     84  C   UNL A   1      29.749  28.374  23.015  1.00  0.00     0.112 A 
ENDBRANCH  73  74
ENDBRANCH  72  73
ENDBRANCH  66  68
ENDBRANCH  65  66
ENDBRANCH  64  65
ENDBRANCH  63  64
ENDBRANCH   1  63
TORSDOF 16
ENDMDL
