MODEL 1
REMARK VINA RESULT:     -10.6      0.000      0.000
REMARK SMILES C[C@H](C(=O)OCCOCCOC(=O)c1ccc(-c2c3nc(c(-c4c(F)cccc4F)c4ccc([nH]4)c(-c4c(F)cccc4F)c4nc(c(-c5c(F)cccc5F)c5ccc2[nH]5)C=C4)C=C3)cc1)[C@H](C)[N@@H+]1CC[C@H]([NH+]2CCCCC2)C1
REMARK SMILES IDX 7 1 6 2 5 3 3 4 4 5 2 6 1 7 68 8 69 9 70 10 71 11 80 12
REMARK SMILES IDX 72 14 73 15 74 16 75 17 79 18 76 20 78 21 77 22 8 23 9 24
REMARK SMILES IDX 10 25 11 26 12 27 13 28 14 29 15 30 67 31 16 32 66 33 17 34
REMARK SMILES IDX 18 35 19 36 60 37 20 38 65 39 59 40 61 41 21 42 64 43 58 44
REMARK SMILES IDX 57 45 22 47 48 48 31 49 47 50 32 51 35 52 46 53 62 54 33 55
REMARK SMILES IDX 34 56 45 58 63 59 36 60 23 61 24 62 29 63 25 64 26 65 28 66
REMARK SMILES IDX 30 67 27 68 49 69 50 70 55 71 51 72 52 73 54 74 56 75 53 76
REMARK SMILES IDX 37 77 38 78 43 79 39 80 40 81 42 82 44 83 41 84
REMARK H PARENT 70 13 74 19 61 46 35 57
REMARK Flexibility Score: inf
ROOT
ATOM      1  C   UNL A   1      40.588  21.015  26.670  1.00  0.00     0.202 C 
ENDROOT
BRANCH   1   2
ATOM      2  C   UNL A   1      39.690  22.249  26.712  1.00  0.00     0.261 C 
BRANCH   2   3
ATOM      3  O   UNL A   1      38.556  22.112  25.839  1.00  0.00    -0.463 OA
BRANCH   3   4
ATOM      4  C   UNL A   1      37.733  23.197  25.811  1.00  0.00     0.314 C 
ATOM      5  O   UNL A   1      37.850  24.174  26.540  1.00  0.00    -0.252 OA
BRANCH   4   6
ATOM      6  C   UNL A   1      36.589  23.008  24.822  1.00  0.00     0.154 C 
ATOM      7  C   UNL A   1      36.996  21.730  24.086  1.00  0.00     0.026 C 
BRANCH   6   8
ATOM      8  C   UNL A   1      35.189  23.104  25.540  1.00  0.00     0.195 C 
ATOM      9  C   UNL A   1      34.866  21.906  26.452  1.00  0.00     0.076 C 
BRANCH   8  10
ATOM     10  N   UNL A   1      33.917  23.365  24.824  1.00  0.00    -0.327 N 
ATOM     11  C   UNL A   1      33.946  23.889  23.470  1.00  0.00     0.269 C 
ATOM     12  C   UNL A   1      32.937  24.204  25.544  1.00  0.00     0.328 C 
ATOM     13  H   UNL A   1      33.637  22.385  24.776  1.00  0.00     0.348 HD
ATOM     14  C   UNL A   1      33.893  25.393  23.669  1.00  0.00     0.132 C 
ATOM     15  C   UNL A   1      32.831  25.541  24.763  1.00  0.00     0.245 C 
BRANCH  15  16
ATOM     16  N   UNL A   1      32.806  26.812  25.513  1.00  0.00    -0.328 N 
ATOM     17  C   UNL A   1      32.832  28.025  24.690  1.00  0.00     0.262 C 
ATOM     18  C   UNL A   1      31.691  26.852  26.475  1.00  0.00     0.262 C 
ATOM     19  H   UNL A   1      33.690  26.819  26.021  1.00  0.00     0.348 HD
ATOM     20  C   UNL A   1      32.981  29.270  25.567  1.00  0.00     0.062 C 
ATOM     21  C   UNL A   1      31.776  28.068  27.397  1.00  0.00     0.062 C 
ATOM     22  C   UNL A   1      31.866  29.363  26.598  1.00  0.00     0.012 C 
ENDBRANCH  15  16
ENDBRANCH   8  10
ENDBRANCH   6   8
ENDBRANCH   4   6
ENDBRANCH   3   4
ENDBRANCH   2   3
ENDBRANCH   1   2
BRANCH   1  23
ATOM     23  O   UNL A   1      41.565  20.948  25.634  1.00  0.00    -0.374 OA
BRANCH  23  24
ATOM     24  C   UNL A   1      42.936  20.855  26.019  1.00  0.00     0.202 C 
BRANCH  24  25
ATOM     25  C   UNL A   1      43.912  21.877  25.423  1.00  0.00     0.261 C 
BRANCH  25  26
ATOM     26  O   UNL A   1      43.254  23.065  24.954  1.00  0.00    -0.460 OA
BRANCH  26  27
ATOM     27  C   UNL A   1      43.963  24.203  25.131  1.00  0.00     0.338 C 
ATOM     28  O   UNL A   1      44.992  24.536  24.557  1.00  0.00    -0.246 OA
BRANCH  27  29
ATOM     29  C   UNL A   1      43.216  25.123  26.003  1.00  0.00     0.060 A 
ATOM     30  C   UNL A   1      43.725  26.419  26.165  1.00  0.00     0.016 A 
ATOM     31  C   UNL A   1      42.074  24.713  26.694  1.00  0.00     0.016 A 
ATOM     32  C   UNL A   1      43.122  27.296  27.060  1.00  0.00     0.010 A 
ATOM     33  C   UNL A   1      41.479  25.590  27.604  1.00  0.00     0.010 A 
ATOM     34  C   UNL A   1      42.026  26.868  27.817  1.00  0.00    -0.014 A 
BRANCH  34  35
ATOM     35  C   UNL A   1      41.569  27.694  28.958  1.00  0.00     0.031 A 
ATOM     36  C   UNL A   1      42.319  27.599  30.257  1.00  0.00     0.074 A 
ATOM     37  C   UNL A   1      40.528  28.534  28.826  1.00  0.00     0.049 A 
ATOM     38  N   UNL A   1      42.086  28.199  31.395  1.00  0.00    -0.248 NA
ATOM     39  C   UNL A   1      43.487  26.703  30.275  1.00  0.00     0.031 C 
ATOM     40  C   UNL A   1      39.758  28.738  27.600  1.00  0.00     0.029 A 
ATOM     41  N   UNL A   1      39.940  29.368  29.740  1.00  0.00    -0.354 N 
ATOM     42  C   UNL A   1      43.070  27.748  32.265  1.00  0.00     0.074 A 
ATOM     43  C   UNL A   1      43.886  26.803  31.534  1.00  0.00     0.031 C 
ATOM     44  C   UNL A   1      38.790  29.638  27.842  1.00  0.00     0.029 A 
ATOM     45  C   UNL A   1      38.855  30.047  29.244  1.00  0.00     0.049 A 
ATOM     46  H   UNL A   1      40.264  29.472  30.664  1.00  0.00     0.167 HD
ATOM     47  C   UNL A   1      43.280  28.097  33.557  1.00  0.00     0.037 A 
ATOM     48  C   UNL A   1      38.002  30.887  29.862  1.00  0.00     0.037 A 
ATOM     49  C   UNL A   1      42.467  29.041  34.275  1.00  0.00     0.049 A 
ATOM     50  C   UNL A   1      38.215  31.207  31.318  1.00  0.00     0.074 A 
ATOM     51  C   UNL A   1      42.605  29.484  35.578  1.00  0.00     0.029 A 
ATOM     52  N   UNL A   1      41.355  29.683  33.749  1.00  0.00    -0.354 N 
ATOM     53  N   UNL A   1      39.163  30.795  32.125  1.00  0.00    -0.248 NA
ATOM     54  C   UNL A   1      37.240  32.107  31.948  1.00  0.00     0.031 C 
ATOM     55  C   UNL A   1      41.546  30.354  35.857  1.00  0.00     0.029 A 
ATOM     56  C   UNL A   1      40.780  30.496  34.711  1.00  0.00     0.049 A 
ATOM     57  H   UNL A   1      41.023  29.575  32.829  1.00  0.00     0.167 HD
ATOM     58  C   UNL A   1      38.918  31.410  33.347  1.00  0.00     0.074 A 
ATOM     59  C   UNL A   1      37.737  32.231  33.170  1.00  0.00     0.031 C 
ATOM     60  C   UNL A   1      39.607  31.309  34.511  1.00  0.00     0.037 A 
BRANCH  47  61
ATOM     61  C   UNL A   1      44.414  27.430  34.278  1.00  0.00     0.057 A 
ATOM     62  C   UNL A   1      44.257  26.202  34.936  1.00  0.00     0.134 A 
ATOM     63  C   UNL A   1      45.686  28.015  34.296  1.00  0.00     0.134 A 
ATOM     64  F   UNL A   1      43.059  25.598  34.971  1.00  0.00    -0.206 F 
ATOM     65  C   UNL A   1      45.320  25.592  35.605  1.00  0.00     0.040 A 
ATOM     66  C   UNL A   1      46.763  27.401  34.939  1.00  0.00     0.040 A 
ATOM     67  F   UNL A   1      45.906  29.188  33.685  1.00  0.00    -0.206 F 
ATOM     68  C   UNL A   1      46.579  26.190  35.602  1.00  0.00     0.006 A 
ENDBRANCH  47  61
BRANCH  48  69
ATOM     69  C   UNL A   1      36.866  31.479  29.113  1.00  0.00     0.057 A 
ATOM     70  C   UNL A   1      36.900  32.808  28.675  1.00  0.00     0.134 A 
ATOM     71  C   UNL A   1      35.712  30.738  28.832  1.00  0.00     0.134 A 
ATOM     72  F   UNL A   1      37.969  33.576  28.933  1.00  0.00    -0.206 F 
ATOM     73  C   UNL A   1      35.822  33.384  28.000  1.00  0.00     0.040 A 
ATOM     74  C   UNL A   1      34.637  31.293  28.135  1.00  0.00     0.040 A 
ATOM     75  F   UNL A   1      35.616  29.458  29.222  1.00  0.00    -0.206 F 
ATOM     76  C   UNL A   1      34.688  32.623  27.723  1.00  0.00     0.006 A 
ENDBRANCH  48  69
BRANCH  60  77
ATOM     77  C   UNL A   1      39.126  32.133  35.668  1.00  0.00     0.057 A 
ATOM     78  C   UNL A   1      38.295  31.601  36.663  1.00  0.00     0.134 A 
ATOM     79  C   UNL A   1      39.535  33.466  35.812  1.00  0.00     0.134 A 
ATOM     80  F   UNL A   1      37.859  30.335  36.578  1.00  0.00    -0.206 F 
ATOM     81  C   UNL A   1      37.871  32.371  37.747  1.00  0.00     0.040 A 
ATOM     82  C   UNL A   1      39.140  34.237  36.905  1.00  0.00     0.040 A 
ATOM     83  F   UNL A   1      40.340  34.033  34.901  1.00  0.00    -0.206 F 
ATOM     84  C   UNL A   1      38.300  33.692  37.873  1.00  0.00     0.006 A 
ENDBRANCH  60  77
ENDBRANCH  34  35
ENDBRANCH  27  29
ENDBRANCH  26  27
ENDBRANCH  25  26
ENDBRANCH  24  25
ENDBRANCH  23  24
ENDBRANCH   1  23
TORSDOF 17
ENDMDL
MODEL 2
REMARK VINA RESULT:     -10.3      3.178      8.032
REMARK SMILES C[C@H](C(=O)OCCOCCOC(=O)c1ccc(-c2c3nc(c(-c4c(F)cccc4F)c4ccc([nH]4)c(-c4c(F)cccc4F)c4nc(c(-c5c(F)cccc5F)c5ccc2[nH]5)C=C4)C=C3)cc1)[C@H](C)[N@@H+]1CC[C@H]([NH+]2CCCCC2)C1
REMARK SMILES IDX 7 1 6 2 5 3 3 4 4 5 2 6 1 7 68 8 69 9 70 10 71 11 80 12
REMARK SMILES IDX 72 14 73 15 74 16 75 17 79 18 76 20 78 21 77 22 8 23 9 24
REMARK SMILES IDX 10 25 11 26 12 27 13 28 14 29 15 30 67 31 16 32 66 33 17 34
REMARK SMILES IDX 18 35 19 36 60 37 20 38 65 39 59 40 61 41 21 42 64 43 58 44
REMARK SMILES IDX 57 45 22 47 48 48 31 49 47 50 32 51 35 52 46 53 62 54 33 55
REMARK SMILES IDX 34 56 45 58 63 59 36 60 23 61 24 62 29 63 25 64 26 65 28 66
REMARK SMILES IDX 30 67 27 68 49 69 50 70 55 71 51 72 52 73 54 74 56 75 53 76
REMARK SMILES IDX 37 77 38 78 43 79 39 80 40 81 42 82 44 83 41 84
REMARK H PARENT 70 13 74 19 61 46 35 57
REMARK Flexibility Score: inf
ROOT
ATOM      1  C   UNL A   1      31.370  27.047  25.613  1.00  0.00     0.202 C 
ENDROOT
BRANCH   1   2
ATOM      2  C   UNL A   1      30.290  25.981  25.788  1.00  0.00     0.261 C 
BRANCH   2   3
ATOM      3  O   UNL A   1      30.684  24.724  25.213  1.00  0.00    -0.463 OA
BRANCH   3   4
ATOM      4  C   UNL A   1      31.305  23.878  26.080  1.00  0.00     0.314 C 
ATOM      5  O   UNL A   1      30.978  23.724  27.251  1.00  0.00    -0.252 OA
BRANCH   4   6
ATOM      6  C   UNL A   1      32.518  23.211  25.443  1.00  0.00     0.154 C 
ATOM      7  C   UNL A   1      32.243  23.384  23.948  1.00  0.00     0.026 C 
BRANCH   6   8
ATOM      8  C   UNL A   1      33.861  23.743  26.074  1.00  0.00     0.195 C 
ATOM      9  C   UNL A   1      34.431  24.993  25.378  1.00  0.00     0.076 C 
BRANCH   8  10
ATOM     10  N   UNL A   1      35.050  22.890  26.311  1.00  0.00    -0.327 N 
ATOM     11  C   UNL A   1      36.173  22.947  25.392  1.00  0.00     0.269 C 
ATOM     12  C   UNL A   1      34.778  21.451  26.504  1.00  0.00     0.328 C 
ATOM     13  H   UNL A   1      35.326  23.357  27.175  1.00  0.00     0.348 HD
ATOM     14  C   UNL A   1      35.861  21.858  24.381  1.00  0.00     0.132 C 
ATOM     15  C   UNL A   1      35.372  20.713  25.273  1.00  0.00     0.245 C 
BRANCH  15  16
ATOM     16  N   UNL A   1      34.587  19.643  24.629  1.00  0.00    -0.328 N 
ATOM     17  C   UNL A   1      35.217  18.319  24.626  1.00  0.00     0.262 C 
ATOM     18  C   UNL A   1      33.217  19.573  25.169  1.00  0.00     0.262 C 
ATOM     19  H   UNL A   1      34.548  19.919  23.647  1.00  0.00     0.348 HD
ATOM     20  C   UNL A   1      34.402  17.334  23.784  1.00  0.00     0.062 C 
ATOM     21  C   UNL A   1      32.337  18.613  24.370  1.00  0.00     0.062 C 
ATOM     22  C   UNL A   1      32.968  17.228  24.281  1.00  0.00     0.012 C 
ENDBRANCH  15  16
ENDBRANCH   8  10
ENDBRANCH   6   8
ENDBRANCH   4   6
ENDBRANCH   3   4
ENDBRANCH   2   3
ENDBRANCH   1   2
BRANCH   1  23
ATOM     23  O   UNL A   1      31.005  28.246  24.933  1.00  0.00    -0.374 OA
BRANCH  23  24
ATOM     24  C   UNL A   1      31.946  29.318  24.928  1.00  0.00     0.202 C 
BRANCH  24  25
ATOM     25  C   UNL A   1      31.604  30.569  25.747  1.00  0.00     0.261 C 
BRANCH  25  26
ATOM     26  O   UNL A   1      32.273  30.599  27.018  1.00  0.00    -0.460 OA
BRANCH  26  27
ATOM     27  C   UNL A   1      32.963  31.738  27.259  1.00  0.00     0.338 C 
ATOM     28  O   UNL A   1      32.532  32.885  27.249  1.00  0.00    -0.246 OA
BRANCH  27  29
ATOM     29  C   UNL A   1      34.313  31.409  27.740  1.00  0.00     0.060 A 
ATOM     30  C   UNL A   1      34.605  30.059  27.977  1.00  0.00     0.016 A 
ATOM     31  C   UNL A   1      35.257  32.402  28.009  1.00  0.00     0.016 A 
ATOM     32  C   UNL A   1      35.828  29.699  28.534  1.00  0.00     0.010 A 
ATOM     33  C   UNL A   1      36.479  32.040  28.582  1.00  0.00     0.010 A 
ATOM     34  C   UNL A   1      36.750  30.693  28.882  1.00  0.00    -0.014 A 
BRANCH  34  35
ATOM     35  C   UNL A   1      37.914  30.335  29.723  1.00  0.00     0.031 A 
ATOM     36  C   UNL A   1      38.964  29.428  29.144  1.00  0.00     0.074 A 
ATOM     37  C   UNL A   1      38.047  30.834  30.964  1.00  0.00     0.049 A 
ATOM     38  N   UNL A   1      40.049  28.955  29.700  1.00  0.00    -0.248 NA
ATOM     39  C   UNL A   1      38.760  28.994  27.753  1.00  0.00     0.031 C 
ATOM     40  C   UNL A   1      37.113  31.757  31.607  1.00  0.00     0.029 A 
ATOM     41  N   UNL A   1      39.023  30.629  31.903  1.00  0.00    -0.354 N 
ATOM     42  C   UNL A   1      40.651  28.162  28.730  1.00  0.00     0.074 A 
ATOM     43  C   UNL A   1      39.798  28.194  27.563  1.00  0.00     0.031 C 
ATOM     44  C   UNL A   1      37.559  32.033  32.844  1.00  0.00     0.029 A 
ATOM     45  C   UNL A   1      38.790  31.283  33.087  1.00  0.00     0.049 A 
ATOM     46  H   UNL A   1      39.815  30.067  31.745  1.00  0.00     0.167 HD
ATOM     47  C   UNL A   1      41.815  27.475  28.805  1.00  0.00     0.037 A 
ATOM     48  C   UNL A   1      39.485  31.259  34.241  1.00  0.00     0.037 A 
ATOM     49  C   UNL A   1      42.660  27.453  29.969  1.00  0.00     0.049 A 
ATOM     50  C   UNL A   1      40.741  30.432  34.322  1.00  0.00     0.074 A 
ATOM     51  C   UNL A   1      43.872  26.809  30.144  1.00  0.00     0.029 A 
ATOM     52  N   UNL A   1      42.374  28.100  31.163  1.00  0.00    -0.354 N 
ATOM     53  N   UNL A   1      41.316  29.706  33.393  1.00  0.00    -0.248 NA
ATOM     54  C   UNL A   1      41.445  30.422  35.612  1.00  0.00     0.031 C 
ATOM     55  C   UNL A   1      44.293  27.023  31.461  1.00  0.00     0.029 A 
ATOM     56  C   UNL A   1      43.372  27.846  32.088  1.00  0.00     0.049 A 
ATOM     57  H   UNL A   1      41.579  28.656  31.327  1.00  0.00     0.167 HD
ATOM     58  C   UNL A   1      42.463  29.180  33.975  1.00  0.00     0.074 A 
ATOM     59  C   UNL A   1      42.507  29.679  35.335  1.00  0.00     0.031 C 
ATOM     60  C   UNL A   1      43.398  28.359  33.435  1.00  0.00     0.037 A 
BRANCH  47  61
ATOM     61  C   UNL A   1      42.223  26.670  27.606  1.00  0.00     0.057 A 
ATOM     62  C   UNL A   1      42.998  27.215  26.573  1.00  0.00     0.134 A 
ATOM     63  C   UNL A   1      41.852  25.324  27.496  1.00  0.00     0.134 A 
ATOM     64  F   UNL A   1      43.372  28.503  26.610  1.00  0.00    -0.206 F 
ATOM     65  C   UNL A   1      43.369  26.455  25.462  1.00  0.00     0.040 A 
ATOM     66  C   UNL A   1      42.240  24.548  26.402  1.00  0.00     0.040 A 
ATOM     67  F   UNL A   1      41.111  24.741  28.449  1.00  0.00    -0.206 F 
ATOM     68  C   UNL A   1      42.995  25.115  25.379  1.00  0.00     0.006 A 
ENDBRANCH  47  61
BRANCH  48  69
ATOM     69  C   UNL A   1      39.009  32.034  35.413  1.00  0.00     0.057 A 
ATOM     70  C   UNL A   1      39.345  33.383  35.576  1.00  0.00     0.134 A 
ATOM     71  C   UNL A   1      38.222  31.443  36.409  1.00  0.00     0.134 A 
ATOM     72  F   UNL A   1      40.115  34.000  34.668  1.00  0.00    -0.206 F 
ATOM     73  C   UNL A   1      38.931  34.111  36.693  1.00  0.00     0.040 A 
ATOM     74  C   UNL A   1      37.778  32.165  37.518  1.00  0.00     0.040 A 
ATOM     75  F   UNL A   1      37.864  30.153  36.313  1.00  0.00    -0.206 F 
ATOM     76  C   UNL A   1      38.140  33.502  37.665  1.00  0.00     0.006 A 
ENDBRANCH  48  69
BRANCH  60  77
ATOM     77  C   UNL A   1      44.564  27.983  34.300  1.00  0.00     0.057 A 
ATOM     78  C   UNL A   1      44.559  26.828  35.091  1.00  0.00     0.134 A 
ATOM     79  C   UNL A   1      45.726  28.767  34.308  1.00  0.00     0.134 A 
ATOM     80  F   UNL A   1      43.473  26.041  35.136  1.00  0.00    -0.206 F 
ATOM     81  C   UNL A   1      45.659  26.476  35.876  1.00  0.00     0.040 A 
ATOM     82  C   UNL A   1      46.841  28.412  35.067  1.00  0.00     0.040 A 
ATOM     83  F   UNL A   1      45.801  29.881  33.565  1.00  0.00    -0.206 F 
ATOM     84  C   UNL A   1      46.806  27.267  35.859  1.00  0.00     0.006 A 
ENDBRANCH  60  77
ENDBRANCH  34  35
ENDBRANCH  27  29
ENDBRANCH  26  27
ENDBRANCH  25  26
ENDBRANCH  24  25
ENDBRANCH  23  24
ENDBRANCH   1  23
TORSDOF 17
ENDMDL
MODEL 3
REMARK VINA RESULT:     -10.2      3.194      8.176
REMARK SMILES C[C@H](C(=O)OCCOCCOC(=O)c1ccc(-c2c3nc(c(-c4c(F)cccc4F)c4ccc([nH]4)c(-c4c(F)cccc4F)c4nc(c(-c5c(F)cccc5F)c5ccc2[nH]5)C=C4)C=C3)cc1)[C@H](C)[N@@H+]1CC[C@H]([NH+]2CCCCC2)C1
REMARK SMILES IDX 7 1 6 2 5 3 3 4 4 5 2 6 1 7 68 8 69 9 70 10 71 11 80 12
REMARK SMILES IDX 72 14 73 15 74 16 75 17 79 18 76 20 78 21 77 22 8 23 9 24
REMARK SMILES IDX 10 25 11 26 12 27 13 28 14 29 15 30 67 31 16 32 66 33 17 34
REMARK SMILES IDX 18 35 19 36 60 37 20 38 65 39 59 40 61 41 21 42 64 43 58 44
REMARK SMILES IDX 57 45 22 47 48 48 31 49 47 50 32 51 35 52 46 53 62 54 33 55
REMARK SMILES IDX 34 56 45 58 63 59 36 60 23 61 24 62 29 63 25 64 26 65 28 66
REMARK SMILES IDX 30 67 27 68 49 69 50 70 55 71 51 72 52 73 54 74 56 75 53 76
REMARK SMILES IDX 37 77 38 78 43 79 39 80 40 81 42 82 44 83 41 84
REMARK H PARENT 70 13 74 19 61 46 35 57
REMARK Flexibility Score: inf
ROOT
ATOM      1  C   UNL A   1      31.521  27.251  25.879  1.00  0.00     0.202 C 
ENDROOT
BRANCH   1   2
ATOM      2  C   UNL A   1      30.379  26.241  25.962  1.00  0.00     0.261 C 
BRANCH   2   3
ATOM      3  O   UNL A   1      30.706  25.011  25.294  1.00  0.00    -0.463 OA
BRANCH   3   4
ATOM      4  C   UNL A   1      31.240  24.055  26.103  1.00  0.00     0.314 C 
ATOM      5  O   UNL A   1      30.872  23.833  27.250  1.00  0.00    -0.252 OA
BRANCH   4   6
ATOM      6  C   UNL A   1      32.420  23.354  25.440  1.00  0.00     0.154 C 
ATOM      7  C   UNL A   1      32.030  23.378  23.960  1.00  0.00     0.026 C 
BRANCH   6   8
ATOM      8  C   UNL A   1      33.792  23.969  25.913  1.00  0.00     0.195 C 
ATOM      9  C   UNL A   1      34.339  25.071  24.989  1.00  0.00     0.076 C 
BRANCH   8  10
ATOM     10  N   UNL A   1      34.985  23.153  26.246  1.00  0.00    -0.327 N 
ATOM     11  C   UNL A   1      36.077  23.053  25.295  1.00  0.00     0.269 C 
ATOM     12  C   UNL A   1      34.713  21.766  26.674  1.00  0.00     0.328 C 
ATOM     13  H   UNL A   1      35.291  23.750  27.014  1.00  0.00     0.348 HD
ATOM     14  C   UNL A   1      35.728  21.820  24.481  1.00  0.00     0.132 C 
ATOM     15  C   UNL A   1      35.264  20.836  25.559  1.00  0.00     0.245 C 
BRANCH  15  16
ATOM     16  N   UNL A   1      34.454  19.684  25.119  1.00  0.00    -0.328 N 
ATOM     17  C   UNL A   1      33.353  20.005  24.204  1.00  0.00     0.262 C 
ATOM     18  C   UNL A   1      35.296  18.606  24.571  1.00  0.00     0.262 C 
ATOM     19  H   UNL A   1      34.001  19.357  25.972  1.00  0.00     0.348 HD
ATOM     20  C   UNL A   1      32.480  18.772  23.956  1.00  0.00     0.062 C 
ATOM     21  C   UNL A   1      34.493  17.333  24.305  1.00  0.00     0.062 C 
ATOM     22  C   UNL A   1      33.296  17.613  23.403  1.00  0.00     0.012 C 
ENDBRANCH  15  16
ENDBRANCH   8  10
ENDBRANCH   6   8
ENDBRANCH   4   6
ENDBRANCH   3   4
ENDBRANCH   2   3
ENDBRANCH   1   2
BRANCH   1  23
ATOM     23  O   UNL A   1      31.246  28.505  25.259  1.00  0.00    -0.374 OA
BRANCH  23  24
ATOM     24  C   UNL A   1      32.244  29.521  25.345  1.00  0.00     0.202 C 
BRANCH  24  25
ATOM     25  C   UNL A   1      31.890  30.801  26.112  1.00  0.00     0.261 C 
BRANCH  25  26
ATOM     26  O   UNL A   1      32.548  30.885  27.386  1.00  0.00    -0.460 OA
BRANCH  26  27
ATOM     27  C   UNL A   1      33.378  31.944  27.518  1.00  0.00     0.338 C 
ATOM     28  O   UNL A   1      33.081  33.132  27.476  1.00  0.00    -0.246 OA
BRANCH  27  29
ATOM     29  C   UNL A   1      34.715  31.481  27.923  1.00  0.00     0.060 A 
ATOM     30  C   UNL A   1      34.875  30.113  28.180  1.00  0.00     0.016 A 
ATOM     31  C   UNL A   1      35.775  32.371  28.102  1.00  0.00     0.016 A 
ATOM     32  C   UNL A   1      36.087  29.635  28.669  1.00  0.00     0.010 A 
ATOM     33  C   UNL A   1      36.987  31.892  28.607  1.00  0.00     0.010 A 
ATOM     34  C   UNL A   1      37.130  30.531  28.929  1.00  0.00    -0.014 A 
BRANCH  34  35
ATOM     35  C   UNL A   1      38.303  30.068  29.705  1.00  0.00     0.031 A 
ATOM     36  C   UNL A   1      38.475  30.569  31.112  1.00  0.00     0.074 A 
ATOM     37  C   UNL A   1      39.177  29.194  29.176  1.00  0.00     0.049 A 
ATOM     38  N   UNL A   1      39.435  30.328  31.967  1.00  0.00    -0.248 NA
ATOM     39  C   UNL A   1      37.425  31.466  31.620  1.00  0.00     0.031 C 
ATOM     40  C   UNL A   1      39.082  28.609  27.840  1.00  0.00     0.029 A 
ATOM     41  N   UNL A   1      40.318  28.651  29.705  1.00  0.00    -0.354 N 
ATOM     42  C   UNL A   1      39.108  31.048  33.109  1.00  0.00     0.074 A 
ATOM     43  C   UNL A   1      37.880  31.759  32.829  1.00  0.00     0.031 C 
ATOM     44  C   UNL A   1      40.131  27.792  27.649  1.00  0.00     0.029 A 
ATOM     45  C   UNL A   1      40.983  27.821  28.837  1.00  0.00     0.049 A 
ATOM     46  H   UNL A   1      40.632  28.837  30.619  1.00  0.00     0.167 HD
ATOM     47  C   UNL A   1      39.771  31.107  34.288  1.00  0.00     0.037 A 
ATOM     48  C   UNL A   1      42.157  27.177  28.982  1.00  0.00     0.037 A 
ATOM     49  C   UNL A   1      40.991  30.394  34.559  1.00  0.00     0.049 A 
ATOM     50  C   UNL A   1      42.911  27.312  30.279  1.00  0.00     0.074 A 
ATOM     51  C   UNL A   1      41.732  30.364  35.727  1.00  0.00     0.029 A 
ATOM     52  N   UNL A   1      41.653  29.589  33.643  1.00  0.00    -0.354 N 
ATOM     53  N   UNL A   1      42.583  27.975  31.362  1.00  0.00    -0.248 NA
ATOM     54  C   UNL A   1      44.198  26.609  30.373  1.00  0.00     0.031 C 
ATOM     55  C   UNL A   1      42.870  29.583  35.501  1.00  0.00     0.029 A 
ATOM     56  C   UNL A   1      42.810  29.083  34.210  1.00  0.00     0.049 A 
ATOM     57  H   UNL A   1      41.346  29.408  32.726  1.00  0.00     0.167 HD
ATOM     58  C   UNL A   1      43.604  27.744  32.275  1.00  0.00     0.074 A 
ATOM     59  C   UNL A   1      44.558  26.871  31.622  1.00  0.00     0.031 C 
ATOM     60  C   UNL A   1      43.742  28.209  33.542  1.00  0.00     0.037 A 
BRANCH  47  61
ATOM     61  C   UNL A   1      39.205  31.995  35.357  1.00  0.00     0.057 A 
ATOM     62  C   UNL A   1      38.355  31.505  36.358  1.00  0.00     0.134 A 
ATOM     63  C   UNL A   1      39.534  33.355  35.398  1.00  0.00     0.134 A 
ATOM     64  F   UNL A   1      37.987  30.214  36.366  1.00  0.00    -0.206 F 
ATOM     65  C   UNL A   1      37.834  32.341  37.346  1.00  0.00     0.040 A 
ATOM     66  C   UNL A   1      39.040  34.196  36.397  1.00  0.00     0.040 A 
ATOM     67  F   UNL A   1      40.343  33.889  34.471  1.00  0.00    -0.206 F 
ATOM     68  C   UNL A   1      38.183  33.691  37.371  1.00  0.00     0.006 A 
ENDBRANCH  47  61
BRANCH  48  69
ATOM     69  C   UNL A   1      42.697  26.352  27.872  1.00  0.00     0.057 A 
ATOM     70  C   UNL A   1      43.470  26.923  26.855  1.00  0.00     0.134 A 
ATOM     71  C   UNL A   1      42.436  24.979  27.789  1.00  0.00     0.134 A 
ATOM     72  F   UNL A   1      43.735  28.237  26.866  1.00  0.00    -0.206 F 
ATOM     73  C   UNL A   1      43.952  26.162  25.788  1.00  0.00     0.040 A 
ATOM     74  C   UNL A   1      42.933  24.201  26.743  1.00  0.00     0.040 A 
ATOM     75  F   UNL A   1      41.702  24.371  28.733  1.00  0.00    -0.206 F 
ATOM     76  C   UNL A   1      43.688  24.795  25.734  1.00  0.00     0.006 A 
ENDBRANCH  48  69
BRANCH  60  77
ATOM     77  C   UNL A   1      44.944  27.752  34.315  1.00  0.00     0.057 A 
ATOM     78  C   UNL A   1      44.937  26.570  35.065  1.00  0.00     0.134 A 
ATOM     79  C   UNL A   1      46.138  28.485  34.272  1.00  0.00     0.134 A 
ATOM     80  F   UNL A   1      43.822  25.829  35.156  1.00  0.00    -0.206 F 
ATOM     81  C   UNL A   1      46.068  26.143  35.763  1.00  0.00     0.040 A 
ATOM     82  C   UNL A   1      47.282  28.054  34.943  1.00  0.00     0.040 A 
ATOM     83  F   UNL A   1      46.215  29.621  33.563  1.00  0.00    -0.206 F 
ATOM     84  C   UNL A   1      47.247  26.884  35.696  1.00  0.00     0.006 A 
ENDBRANCH  60  77
ENDBRANCH  34  35
ENDBRANCH  27  29
ENDBRANCH  26  27
ENDBRANCH  25  26
ENDBRANCH  24  25
ENDBRANCH  23  24
ENDBRANCH   1  23
TORSDOF 17
ENDMDL
