MODEL 1
REMARK VINA RESULT:     -12.6      0.000      0.000
REMARK SMILES Cc1cc(C)c2c(CCCC(=O)OCCOCCOC(=O)c3ccc(-c4c5nc(c(-c6c(F)cccc6F)c6ccc([nH]6)c(-c6c(F)cccc6F)c6nc(c(-c7c(F)cccc7F)c7ccc4[nH]7)C=C6)C=C5)cc3)c(-c3ccccn3)[nH]c2c1
REMARK SMILES IDX 15 1 14 2 13 3 11 4 12 5 10 6 9 7 8 8 7 9 1 10 2 11 3 12
REMARK SMILES IDX 85 13 4 14 84 15 5 16 6 17 83 18 76 19 77 21 78 22 82 23
REMARK SMILES IDX 79 24 81 25 80 26 16 27 17 28 18 29 19 30 20 31 21 32 22 33
REMARK SMILES IDX 23 34 75 35 24 36 74 37 25 38 26 39 27 40 68 41 28 42 73 43
REMARK SMILES IDX 67 44 69 45 29 46 72 47 66 48 65 49 30 51 56 52 39 53 55 54
REMARK SMILES IDX 40 55 43 56 54 57 70 58 41 59 42 60 53 62 71 63 44 64 31 65
REMARK SMILES IDX 32 66 37 67 33 68 34 69 36 70 38 71 35 72 57 73 58 74 63 75
REMARK SMILES IDX 59 76 60 77 62 78 64 79 61 80 45 81 46 82 51 83 47 84 48 85
REMARK SMILES IDX 50 86 52 87 49 88
REMARK H PARENT 83 20 69 50 43 61
REMARK Flexibility Score: inf
ROOT
ATOM      1  C   UNL A   1      41.153  20.755  27.606  1.00  0.00     0.202 C 
ENDROOT
BRANCH   1   2
ATOM      2  C   UNL A   1      40.144  21.063  26.509  1.00  0.00     0.261 C 
BRANCH   2   3
ATOM      3  O   UNL A   1      39.370  22.231  26.820  1.00  0.00    -0.463 OA
BRANCH   3   4
ATOM      4  C   UNL A   1      38.337  22.529  25.994  1.00  0.00     0.305 C 
ATOM      5  O   UNL A   1      37.890  23.659  25.824  1.00  0.00    -0.252 OA
BRANCH   4   6
ATOM      6  C   UNL A   1      37.850  21.337  25.194  1.00  0.00     0.123 C 
BRANCH   6   7
ATOM      7  C   UNL A   1      36.402  20.879  25.339  1.00  0.00     0.017 C 
BRANCH   7   8
ATOM      8  C   UNL A   1      35.323  21.492  24.445  1.00  0.00     0.039 C 
BRANCH   8   9
ATOM      9  C   UNL A   1      33.906  21.495  24.934  1.00  0.00    -0.013 A 
ATOM     10  C   UNL A   1      29.865  25.433  26.033  1.00  0.00     0.044 C 
ATOM     11  C   UNL A   1      30.975  24.472  25.726  1.00  0.00    -0.049 A 
ATOM     12  C   UNL A   1      32.245  24.955  25.407  1.00  0.00     0.007 A 
ATOM     13  C   UNL A   1      30.758  23.097  25.801  1.00  0.00     0.030 A 
ATOM     14  C   UNL A   1      33.335  24.097  25.131  1.00  0.00    -0.041 A 
ATOM     15  C   UNL A   1      31.831  22.245  25.524  1.00  0.00     0.047 A 
ATOM     16  C   UNL A   1      34.650  24.754  24.789  1.00  0.00     0.045 C 
ATOM     17  C   UNL A   1      33.110  22.688  25.185  1.00  0.00     0.006 A 
ATOM     18  N   UNL A   1      31.853  20.876  25.526  1.00  0.00    -0.353 N 
ATOM     19  C   UNL A   1      33.062  20.395  25.107  1.00  0.00     0.068 A 
ATOM     20  H   UNL A   1      31.094  20.310  25.797  1.00  0.00     0.167 HD
BRANCH  19  21
ATOM     21  C   UNL A   1      33.223  18.957  24.946  1.00  0.00     0.087 A 
ATOM     22  C   UNL A   1      34.274  18.400  24.231  1.00  0.00     0.030 A 
ATOM     23  N   UNL A   1      32.245  18.220  25.516  1.00  0.00    -0.255 NA
ATOM     24  C   UNL A   1      34.370  17.009  24.172  1.00  0.00     0.004 A 
ATOM     25  C   UNL A   1      32.381  16.874  25.470  1.00  0.00     0.112 A 
ATOM     26  C   UNL A   1      33.423  16.229  24.828  1.00  0.00     0.020 A 
ENDBRANCH  19  21
ENDBRANCH   8   9
ENDBRANCH   7   8
ENDBRANCH   6   7
ENDBRANCH   4   6
ENDBRANCH   3   4
ENDBRANCH   2   3
ENDBRANCH   1   2
BRANCH   1  27
ATOM     27  O   UNL A   1      42.173  19.796  27.325  1.00  0.00    -0.374 OA
BRANCH  27  28
ATOM     28  C   UNL A   1      42.123  19.015  26.137  1.00  0.00     0.202 C 
BRANCH  28  29
ATOM     29  C   UNL A   1      43.427  18.722  25.414  1.00  0.00     0.261 C 
BRANCH  29  30
ATOM     30  O   UNL A   1      43.773  19.765  24.518  1.00  0.00    -0.460 OA
BRANCH  30  31
ATOM     31  C   UNL A   1      45.110  19.905  24.351  1.00  0.00     0.338 C 
ATOM     32  O   UNL A   1      45.944  19.028  24.303  1.00  0.00    -0.246 OA
BRANCH  31  33
ATOM     33  C   UNL A   1      45.429  21.334  24.437  1.00  0.00     0.060 A 
ATOM     34  C   UNL A   1      46.175  21.674  25.559  1.00  0.00     0.016 A 
ATOM     35  C   UNL A   1      44.657  22.270  23.732  1.00  0.00     0.016 A 
ATOM     36  C   UNL A   1      45.865  22.857  26.171  1.00  0.00     0.010 A 
ATOM     37  C   UNL A   1      44.370  23.470  24.332  1.00  0.00     0.010 A 
ATOM     38  C   UNL A   1      44.886  23.689  25.599  1.00  0.00    -0.014 A 
BRANCH  38  39
ATOM     39  C   UNL A   1      44.552  24.887  26.331  1.00  0.00     0.031 A 
ATOM     40  C   UNL A   1      45.666  25.846  26.254  1.00  0.00     0.074 A 
ATOM     41  C   UNL A   1      43.402  25.072  27.005  1.00  0.00     0.049 A 
ATOM     42  N   UNL A   1      46.549  26.055  27.169  1.00  0.00    -0.248 NA
ATOM     43  C   UNL A   1      46.006  26.418  24.942  1.00  0.00     0.031 C 
ATOM     44  C   UNL A   1      42.170  24.282  26.944  1.00  0.00     0.029 A 
ATOM     45  N   UNL A   1      43.080  26.080  27.865  1.00  0.00    -0.354 N 
ATOM     46  C   UNL A   1      47.415  26.994  26.631  1.00  0.00     0.074 A 
ATOM     47  C   UNL A   1      47.173  27.005  25.214  1.00  0.00     0.031 C 
ATOM     48  C   UNL A   1      41.169  24.969  27.547  1.00  0.00     0.029 A 
ATOM     49  C   UNL A   1      41.726  26.154  28.176  1.00  0.00     0.049 A 
ATOM     50  H   UNL A   1      43.749  26.701  28.235  1.00  0.00     0.167 HD
ATOM     51  C   UNL A   1      47.992  27.907  27.454  1.00  0.00     0.037 A 
ATOM     52  C   UNL A   1      41.136  27.151  28.882  1.00  0.00     0.037 A 
ATOM     53  C   UNL A   1      47.892  27.486  28.831  1.00  0.00     0.049 A 
ATOM     54  C   UNL A   1      42.190  27.792  29.700  1.00  0.00     0.074 A 
ATOM     55  C   UNL A   1      48.538  26.595  29.659  1.00  0.00     0.029 A 
ATOM     56  N   UNL A   1      46.676  27.765  29.398  1.00  0.00    -0.354 N 
ATOM     57  N   UNL A   1      42.767  27.200  30.707  1.00  0.00    -0.248 NA
ATOM     58  C   UNL A   1      42.871  28.978  29.191  1.00  0.00     0.031 C 
ATOM     59  C   UNL A   1      47.609  26.259  30.690  1.00  0.00     0.029 A 
ATOM     60  C   UNL A   1      46.436  26.980  30.492  1.00  0.00     0.049 A 
ATOM     61  H   UNL A   1      46.052  28.446  29.060  1.00  0.00     0.167 HD
ATOM     62  C   UNL A   1      44.063  27.670  30.676  1.00  0.00     0.074 A 
ATOM     63  C   UNL A   1      44.025  28.874  29.856  1.00  0.00     0.031 C 
ATOM     64  C   UNL A   1      45.101  26.860  31.029  1.00  0.00     0.037 A 
BRANCH  51  65
ATOM     65  C   UNL A   1      48.133  29.369  27.099  1.00  0.00     0.057 A 
ATOM     66  C   UNL A   1      49.377  29.993  27.298  1.00  0.00     0.134 A 
ATOM     67  C   UNL A   1      47.053  30.251  26.879  1.00  0.00     0.134 A 
ATOM     68  F   UNL A   1      50.479  29.268  27.542  1.00  0.00    -0.206 F 
ATOM     69  C   UNL A   1      49.521  31.385  27.335  1.00  0.00     0.040 A 
ATOM     70  C   UNL A   1      47.195  31.640  26.864  1.00  0.00     0.040 A 
ATOM     71  F   UNL A   1      45.786  29.835  26.770  1.00  0.00    -0.206 F 
ATOM     72  C   UNL A   1      48.426  32.214  27.123  1.00  0.00     0.006 A 
ENDBRANCH  51  65
BRANCH  52  73
ATOM     73  C   UNL A   1      39.808  27.786  28.736  1.00  0.00     0.057 A 
ATOM     74  C   UNL A   1      38.923  27.852  29.825  1.00  0.00     0.134 A 
ATOM     75  C   UNL A   1      39.531  28.643  27.659  1.00  0.00     0.134 A 
ATOM     76  F   UNL A   1      39.119  27.086  30.909  1.00  0.00    -0.206 F 
ATOM     77  C   UNL A   1      37.867  28.769  29.874  1.00  0.00     0.040 A 
ATOM     78  C   UNL A   1      38.476  29.562  27.694  1.00  0.00     0.040 A 
ATOM     79  F   UNL A   1      40.339  28.687  26.590  1.00  0.00    -0.206 F 
ATOM     80  C   UNL A   1      37.655  29.645  28.814  1.00  0.00     0.006 A 
ENDBRANCH  52  73
BRANCH  64  81
ATOM     81  C   UNL A   1      44.793  25.692  31.909  1.00  0.00     0.057 A 
ATOM     82  C   UNL A   1      44.644  25.758  33.301  1.00  0.00     0.134 A 
ATOM     83  C   UNL A   1      44.554  24.458  31.296  1.00  0.00     0.134 A 
ATOM     84  F   UNL A   1      44.797  26.914  33.961  1.00  0.00    -0.206 F 
ATOM     85  C   UNL A   1      44.288  24.631  34.049  1.00  0.00     0.040 A 
ATOM     86  C   UNL A   1      44.169  23.336  32.026  1.00  0.00     0.040 A 
ATOM     87  F   UNL A   1      44.654  24.338  29.962  1.00  0.00    -0.206 F 
ATOM     88  C   UNL A   1      44.040  23.417  33.409  1.00  0.00     0.006 A 
ENDBRANCH  64  81
ENDBRANCH  38  39
ENDBRANCH  31  33
ENDBRANCH  30  31
ENDBRANCH  29  30
ENDBRANCH  28  29
ENDBRANCH  27  28
ENDBRANCH   1  27
TORSDOF 18
ENDMDL
MODEL 2
REMARK VINA RESULT:     -11.9      6.165     11.420
REMARK SMILES Cc1cc(C)c2c(CCCC(=O)OCCOCCOC(=O)c3ccc(-c4c5nc(c(-c6c(F)cccc6F)c6ccc([nH]6)c(-c6c(F)cccc6F)c6nc(c(-c7c(F)cccc7F)c7ccc4[nH]7)C=C6)C=C5)cc3)c(-c3ccccn3)[nH]c2c1
REMARK SMILES IDX 15 1 14 2 13 3 11 4 12 5 10 6 9 7 8 8 7 9 1 10 2 11 3 12
REMARK SMILES IDX 85 13 4 14 84 15 5 16 6 17 83 18 76 19 77 21 78 22 82 23
REMARK SMILES IDX 79 24 81 25 80 26 16 27 17 28 18 29 19 30 20 31 21 32 22 33
REMARK SMILES IDX 23 34 75 35 24 36 74 37 25 38 26 39 27 40 68 41 28 42 73 43
REMARK SMILES IDX 67 44 69 45 29 46 72 47 66 48 65 49 30 51 56 52 39 53 55 54
REMARK SMILES IDX 40 55 43 56 54 57 70 58 41 59 42 60 53 62 71 63 44 64 31 65
REMARK SMILES IDX 32 66 37 67 33 68 34 69 36 70 38 71 35 72 57 73 58 74 63 75
REMARK SMILES IDX 59 76 60 77 62 78 64 79 61 80 45 81 46 82 51 83 47 84 48 85
REMARK SMILES IDX 50 86 52 87 49 88
REMARK H PARENT 83 20 69 50 43 61
REMARK Flexibility Score: inf
ROOT
ATOM      1  C   UNL A   1      33.935  33.531  27.897  1.00  0.00     0.202 C 
ENDROOT
BRANCH   1   2
ATOM      2  C   UNL A   1      34.232  32.118  28.379  1.00  0.00     0.261 C 
BRANCH   2   3
ATOM      3  O   UNL A   1      34.570  31.250  27.287  1.00  0.00    -0.463 OA
BRANCH   3   4
ATOM      4  C   UNL A   1      34.089  29.983  27.330  1.00  0.00     0.305 C 
ATOM      5  O   UNL A   1      34.777  28.988  27.537  1.00  0.00    -0.252 OA
BRANCH   4   6
ATOM      6  C   UNL A   1      32.579  29.914  27.215  1.00  0.00     0.123 C 
BRANCH   6   7
ATOM      7  C   UNL A   1      31.913  30.262  25.887  1.00  0.00     0.017 C 
BRANCH   7   8
ATOM      8  C   UNL A   1      32.356  29.548  24.609  1.00  0.00     0.039 C 
BRANCH   8   9
ATOM      9  C   UNL A   1      31.463  28.489  24.036  1.00  0.00    -0.013 A 
ATOM     10  C   UNL A   1      31.050  22.762  24.314  1.00  0.00     0.044 C 
ATOM     11  C   UNL A   1      31.230  24.251  24.293  1.00  0.00    -0.049 A 
ATOM     12  C   UNL A   1      32.346  24.825  24.903  1.00  0.00     0.007 A 
ATOM     13  C   UNL A   1      30.312  25.063  23.629  1.00  0.00     0.030 A 
ATOM     14  C   UNL A   1      32.582  26.220  24.895  1.00  0.00    -0.041 A 
ATOM     15  C   UNL A   1      30.537  26.443  23.623  1.00  0.00     0.047 A 
ATOM     16  C   UNL A   1      33.822  26.706  25.602  1.00  0.00     0.045 C 
ATOM     17  C   UNL A   1      31.631  27.056  24.235  1.00  0.00     0.006 A 
ATOM     18  N   UNL A   1      29.776  27.425  23.050  1.00  0.00    -0.353 N 
ATOM     19  C   UNL A   1      30.265  28.669  23.341  1.00  0.00     0.068 A 
ATOM     20  H   UNL A   1      28.978  27.258  22.497  1.00  0.00     0.167 HD
BRANCH  19  21
ATOM     21  C   UNL A   1      29.514  29.835  22.899  1.00  0.00     0.087 A 
ATOM     22  C   UNL A   1      29.172  30.871  23.756  1.00  0.00     0.030 A 
ATOM     23  N   UNL A   1      29.148  29.802  21.599  1.00  0.00    -0.255 NA
ATOM     24  C   UNL A   1      28.492  31.969  23.230  1.00  0.00     0.004 A 
ATOM     25  C   UNL A   1      28.516  30.894  21.108  1.00  0.00     0.112 A 
ATOM     26  C   UNL A   1      28.183  31.997  21.874  1.00  0.00     0.020 A 
ENDBRANCH  19  21
ENDBRANCH   8   9
ENDBRANCH   7   8
ENDBRANCH   6   7
ENDBRANCH   4   6
ENDBRANCH   3   4
ENDBRANCH   2   3
ENDBRANCH   1   2
BRANCH   1  27
ATOM     27  O   UNL A   1      34.561  34.615  28.581  1.00  0.00    -0.374 OA
BRANCH  27  28
ATOM     28  C   UNL A   1      33.902  35.871  28.702  1.00  0.00     0.202 C 
BRANCH  28  29
ATOM     29  C   UNL A   1      32.927  36.063  29.853  1.00  0.00     0.261 C 
BRANCH  29  30
ATOM     30  O   UNL A   1      33.067  35.047  30.831  1.00  0.00    -0.460 OA
BRANCH  30  31
ATOM     31  C   UNL A   1      33.043  35.521  32.101  1.00  0.00     0.338 C 
ATOM     32  O   UNL A   1      32.414  36.465  32.525  1.00  0.00    -0.246 OA
BRANCH  31  33
ATOM     33  C   UNL A   1      34.078  34.816  32.865  1.00  0.00     0.060 A 
ATOM     34  C   UNL A   1      35.271  35.519  32.972  1.00  0.00     0.016 A 
ATOM     35  C   UNL A   1      34.005  33.423  33.029  1.00  0.00     0.016 A 
ATOM     36  C   UNL A   1      36.426  34.791  32.889  1.00  0.00     0.010 A 
ATOM     37  C   UNL A   1      35.166  32.694  32.977  1.00  0.00     0.010 A 
ATOM     38  C   UNL A   1      36.348  33.391  32.786  1.00  0.00    -0.014 A 
BRANCH  38  39
ATOM     39  C   UNL A   1      37.598  32.687  32.628  1.00  0.00     0.031 A 
ATOM     40  C   UNL A   1      38.402  32.817  33.855  1.00  0.00     0.074 A 
ATOM     41  C   UNL A   1      37.971  32.040  31.510  1.00  0.00     0.049 A 
ATOM     42  N   UNL A   1      39.384  33.632  34.033  1.00  0.00    -0.248 NA
ATOM     43  C   UNL A   1      37.897  32.197  35.090  1.00  0.00     0.031 C 
ATOM     44  C   UNL A   1      37.155  31.672  30.351  1.00  0.00     0.029 A 
ATOM     45  N   UNL A   1      39.192  31.511  31.207  1.00  0.00    -0.354 N 
ATOM     46  C   UNL A   1      39.790  33.431  35.343  1.00  0.00     0.074 A 
ATOM     47  C   UNL A   1      38.721  32.727  35.996  1.00  0.00     0.031 C 
ATOM     48  C   UNL A   1      37.837  30.785  29.586  1.00  0.00     0.029 A 
ATOM     49  C   UNL A   1      39.187  30.658  30.108  1.00  0.00     0.049 A 
ATOM     50  H   UNL A   1      40.005  31.717  31.722  1.00  0.00     0.167 HD
ATOM     51  C   UNL A   1      41.105  33.561  35.653  1.00  0.00     0.037 A 
ATOM     52  C   UNL A   1      40.233  29.896  29.701  1.00  0.00     0.037 A 
ATOM     53  C   UNL A   1      41.805  34.275  34.612  1.00  0.00     0.049 A 
ATOM     54  C   UNL A   1      41.464  30.520  30.236  1.00  0.00     0.074 A 
ATOM     55  C   UNL A   1      41.952  35.586  34.216  1.00  0.00     0.029 A 
ATOM     56  N   UNL A   1      42.149  33.484  33.548  1.00  0.00    -0.354 N 
ATOM     57  N   UNL A   1      41.923  31.663  29.813  1.00  0.00    -0.248 NA
ATOM     58  C   UNL A   1      42.016  30.049  31.503  1.00  0.00     0.031 C 
ATOM     59  C   UNL A   1      42.287  35.550  32.828  1.00  0.00     0.029 A 
ATOM     60  C   UNL A   1      42.377  34.223  32.420  1.00  0.00     0.049 A 
ATOM     61  H   UNL A   1      42.225  32.504  33.589  1.00  0.00     0.167 HD
ATOM     62  C   UNL A   1      42.476  32.241  30.936  1.00  0.00     0.074 A 
ATOM     63  C   UNL A   1      42.667  31.152  31.885  1.00  0.00     0.031 C 
ATOM     64  C   UNL A   1      42.412  33.590  31.122  1.00  0.00     0.037 A 
BRANCH  51  65
ATOM     65  C   UNL A   1      41.839  32.607  36.566  1.00  0.00     0.057 A 
ATOM     66  C   UNL A   1      42.561  33.135  37.650  1.00  0.00     0.134 A 
ATOM     67  C   UNL A   1      42.127  31.260  36.259  1.00  0.00     0.134 A 
ATOM     68  F   UNL A   1      42.398  34.412  38.031  1.00  0.00    -0.206 F 
ATOM     69  C   UNL A   1      43.536  32.397  38.333  1.00  0.00     0.040 A 
ATOM     70  C   UNL A   1      43.061  30.500  36.965  1.00  0.00     0.040 A 
ATOM     71  F   UNL A   1      41.606  30.630  35.200  1.00  0.00    -0.206 F 
ATOM     72  C   UNL A   1      43.792  31.076  37.988  1.00  0.00     0.006 A 
ENDBRANCH  51  65
BRANCH  52  73
ATOM     73  C   UNL A   1      40.272  28.536  29.119  1.00  0.00     0.057 A 
ATOM     74  C   UNL A   1      39.599  27.472  29.742  1.00  0.00     0.134 A 
ATOM     75  C   UNL A   1      40.653  28.332  27.784  1.00  0.00     0.134 A 
ATOM     76  F   UNL A   1      39.177  27.583  31.011  1.00  0.00    -0.206 F 
ATOM     77  C   UNL A   1      39.258  26.301  29.056  1.00  0.00     0.040 A 
ATOM     78  C   UNL A   1      40.321  27.165  27.087  1.00  0.00     0.040 A 
ATOM     79  F   UNL A   1      41.263  29.301  27.087  1.00  0.00    -0.206 F 
ATOM     80  C   UNL A   1      39.599  26.155  27.715  1.00  0.00     0.006 A 
ENDBRANCH  52  73
BRANCH  64  81
ATOM     81  C   UNL A   1      42.219  34.443  29.912  1.00  0.00     0.057 A 
ATOM     82  C   UNL A   1      40.977  34.882  29.433  1.00  0.00     0.134 A 
ATOM     83  C   UNL A   1      43.362  34.909  29.253  1.00  0.00     0.134 A 
ATOM     84  F   UNL A   1      39.836  34.531  30.041  1.00  0.00    -0.206 F 
ATOM     85  C   UNL A   1      40.883  35.737  28.330  1.00  0.00     0.040 A 
ATOM     86  C   UNL A   1      43.283  35.786  28.173  1.00  0.00     0.040 A 
ATOM     87  F   UNL A   1      44.582  34.547  29.682  1.00  0.00    -0.206 F 
ATOM     88  C   UNL A   1      42.040  36.199  27.702  1.00  0.00     0.006 A 
ENDBRANCH  64  81
ENDBRANCH  38  39
ENDBRANCH  31  33
ENDBRANCH  30  31
ENDBRANCH  29  30
ENDBRANCH  28  29
ENDBRANCH  27  28
ENDBRANCH   1  27
TORSDOF 18
ENDMDL
MODEL 3
REMARK VINA RESULT:     -11.6      5.470     10.789
REMARK SMILES Cc1cc(C)c2c(CCCC(=O)OCCOCCOC(=O)c3ccc(-c4c5nc(c(-c6c(F)cccc6F)c6ccc([nH]6)c(-c6c(F)cccc6F)c6nc(c(-c7c(F)cccc7F)c7ccc4[nH]7)C=C6)C=C5)cc3)c(-c3ccccn3)[nH]c2c1
REMARK SMILES IDX 15 1 14 2 13 3 11 4 12 5 10 6 9 7 8 8 7 9 1 10 2 11 3 12
REMARK SMILES IDX 85 13 4 14 84 15 5 16 6 17 83 18 76 19 77 21 78 22 82 23
REMARK SMILES IDX 79 24 81 25 80 26 16 27 17 28 18 29 19 30 20 31 21 32 22 33
REMARK SMILES IDX 23 34 75 35 24 36 74 37 25 38 26 39 27 40 68 41 28 42 73 43
REMARK SMILES IDX 67 44 69 45 29 46 72 47 66 48 65 49 30 51 56 52 39 53 55 54
REMARK SMILES IDX 40 55 43 56 54 57 70 58 41 59 42 60 53 62 71 63 44 64 31 65
REMARK SMILES IDX 32 66 37 67 33 68 34 69 36 70 38 71 35 72 57 73 58 74 63 75
REMARK SMILES IDX 59 76 60 77 62 78 64 79 61 80 45 81 46 82 51 83 47 84 48 85
REMARK SMILES IDX 50 86 52 87 49 88
REMARK H PARENT 83 20 69 50 43 61
REMARK Flexibility Score: inf
ROOT
ATOM      1  C   UNL A   1      34.252  32.389  27.994  1.00  0.00     0.202 C 
ENDROOT
BRANCH   1   2
ATOM      2  C   UNL A   1      33.193  31.365  27.612  1.00  0.00     0.261 C 
BRANCH   2   3
ATOM      3  O   UNL A   1      33.640  30.522  26.540  1.00  0.00    -0.463 OA
BRANCH   3   4
ATOM      4  C   UNL A   1      34.012  29.258  26.858  1.00  0.00     0.305 C 
ATOM      5  O   UNL A   1      34.969  28.977  27.571  1.00  0.00    -0.252 OA
BRANCH   4   6
ATOM      6  C   UNL A   1      33.052  28.206  26.339  1.00  0.00     0.123 C 
BRANCH   6   7
ATOM      7  C   UNL A   1      33.599  26.868  25.852  1.00  0.00     0.017 C 
BRANCH   7   8
ATOM      8  C   UNL A   1      33.610  26.555  24.355  1.00  0.00     0.039 C 
BRANCH   8   9
ATOM      9  C   UNL A   1      32.707  25.474  23.843  1.00  0.00    -0.013 A 
ATOM     10  C   UNL A   1      32.731  19.727  23.690  1.00  0.00     0.044 C 
ATOM     11  C   UNL A   1      32.805  21.223  23.768  1.00  0.00    -0.049 A 
ATOM     12  C   UNL A   1      33.966  21.839  24.238  1.00  0.00     0.007 A 
ATOM     13  C   UNL A   1      31.737  22.006  23.333  1.00  0.00     0.030 A 
ATOM     14  C   UNL A   1      34.103  23.245  24.312  1.00  0.00    -0.041 A 
ATOM     15  C   UNL A   1      31.864  23.396  23.410  1.00  0.00     0.047 A 
ATOM     16  C   UNL A   1      35.409  23.775  24.850  1.00  0.00     0.045 C 
ATOM     17  C   UNL A   1      33.001  24.049  23.888  1.00  0.00     0.006 A 
ATOM     18  N   UNL A   1      30.955  24.355  23.053  1.00  0.00    -0.353 N 
ATOM     19  C   UNL A   1      31.401  25.608  23.367  1.00  0.00     0.068 A 
ATOM     20  H   UNL A   1      30.089  24.165  22.623  1.00  0.00     0.167 HD
BRANCH  19  21
ATOM     21  C   UNL A   1      30.510  26.740  23.154  1.00  0.00     0.087 A 
ATOM     22  C   UNL A   1      29.213  26.771  23.646  1.00  0.00     0.030 A 
ATOM     23  N   UNL A   1      31.040  27.734  22.408  1.00  0.00    -0.255 NA
ATOM     24  C   UNL A   1      28.450  27.919  23.431  1.00  0.00     0.004 A 
ATOM     25  C   UNL A   1      30.289  28.847  22.242  1.00  0.00     0.112 A 
ATOM     26  C   UNL A   1      29.007  28.991  22.741  1.00  0.00     0.020 A 
ENDBRANCH  19  21
ENDBRANCH   8   9
ENDBRANCH   7   8
ENDBRANCH   6   7
ENDBRANCH   4   6
ENDBRANCH   3   4
ENDBRANCH   2   3
ENDBRANCH   1   2
BRANCH   1  27
ATOM     27  O   UNL A   1      33.990  33.235  29.113  1.00  0.00    -0.374 OA
BRANCH  27  28
ATOM     28  C   UNL A   1      34.043  34.651  28.978  1.00  0.00     0.202 C 
BRANCH  28  29
ATOM     29  C   UNL A   1      33.050  35.486  29.769  1.00  0.00     0.261 C 
BRANCH  29  30
ATOM     30  O   UNL A   1      33.617  35.967  30.976  1.00  0.00    -0.460 OA
BRANCH  30  31
ATOM     31  C   UNL A   1      33.103  35.374  32.081  1.00  0.00     0.338 C 
ATOM     32  O   UNL A   1      31.989  35.504  32.539  1.00  0.00    -0.246 OA
BRANCH  31  33
ATOM     33  C   UNL A   1      34.197  34.683  32.773  1.00  0.00     0.060 A 
ATOM     34  C   UNL A   1      35.419  35.337  32.679  1.00  0.00     0.016 A 
ATOM     35  C   UNL A   1      34.093  33.313  33.059  1.00  0.00     0.016 A 
ATOM     36  C   UNL A   1      36.528  34.552  32.519  1.00  0.00     0.010 A 
ATOM     37  C   UNL A   1      35.211  32.529  32.930  1.00  0.00     0.010 A 
ATOM     38  C   UNL A   1      36.387  33.153  32.543  1.00  0.00    -0.014 A 
BRANCH  38  39
ATOM     39  C   UNL A   1      37.581  32.381  32.296  1.00  0.00     0.031 A 
ATOM     40  C   UNL A   1      38.412  32.346  33.511  1.00  0.00     0.074 A 
ATOM     41  C   UNL A   1      37.889  31.810  31.118  1.00  0.00     0.049 A 
ATOM     42  N   UNL A   1      39.451  33.073  33.737  1.00  0.00    -0.248 NA
ATOM     43  C   UNL A   1      37.885  31.656  34.699  1.00  0.00     0.031 C 
ATOM     44  C   UNL A   1      37.030  31.603  29.950  1.00  0.00     0.029 A 
ATOM     45  N   UNL A   1      39.064  31.228  30.743  1.00  0.00    -0.354 N 
ATOM     46  C   UNL A   1      39.864  32.729  35.015  1.00  0.00     0.074 A 
ATOM     47  C   UNL A   1      38.759  32.046  35.629  1.00  0.00     0.031 C 
ATOM     48  C   UNL A   1      37.635  30.742  29.096  1.00  0.00     0.029 A 
ATOM     49  C   UNL A   1      38.982  30.478  29.574  1.00  0.00     0.049 A 
ATOM     50  H   UNL A   1      39.899  31.331  31.255  1.00  0.00     0.167 HD
ATOM     51  C   UNL A   1      41.190  32.741  35.306  1.00  0.00     0.037 A 
ATOM     52  C   UNL A   1      39.964  29.683  29.080  1.00  0.00     0.037 A 
ATOM     53  C   UNL A   1      41.921  33.494  34.315  1.00  0.00     0.049 A 
ATOM     54  C   UNL A   1      41.245  30.172  29.639  1.00  0.00     0.074 A 
ATOM     55  C   UNL A   1      42.154  34.822  34.031  1.00  0.00     0.029 A 
ATOM     56  N   UNL A   1      42.192  32.778  33.179  1.00  0.00    -0.354 N 
ATOM     57  N   UNL A   1      41.776  31.314  29.306  1.00  0.00    -0.248 NA
ATOM     58  C   UNL A   1      41.783  29.555  30.847  1.00  0.00     0.031 C 
ATOM     59  C   UNL A   1      42.463  34.886  32.639  1.00  0.00     0.029 A 
ATOM     60  C   UNL A   1      42.452  33.597  32.115  1.00  0.00     0.049 A 
ATOM     61  H   UNL A   1      42.198  31.795  33.134  1.00  0.00     0.167 HD
ATOM     62  C   UNL A   1      42.387  31.751  30.463  1.00  0.00     0.074 A 
ATOM     63  C   UNL A   1      42.516  30.572  31.309  1.00  0.00     0.031 C 
ATOM     64  C   UNL A   1      42.421  33.079  30.767  1.00  0.00     0.037 A 
BRANCH  51  65
ATOM     65  C   UNL A   1      41.869  31.663  36.116  1.00  0.00     0.057 A 
ATOM     66  C   UNL A   1      42.725  32.046  37.164  1.00  0.00     0.134 A 
ATOM     67  C   UNL A   1      41.973  30.310  35.727  1.00  0.00     0.134 A 
ATOM     68  F   UNL A   1      42.742  33.310  37.612  1.00  0.00    -0.206 F 
ATOM     69  C   UNL A   1      43.652  31.166  37.735  1.00  0.00     0.040 A 
ATOM     70  C   UNL A   1      42.860  29.411  36.325  1.00  0.00     0.040 A 
ATOM     71  F   UNL A   1      41.308  29.800  34.685  1.00  0.00    -0.206 F 
ATOM     72  C   UNL A   1      43.725  29.844  37.313  1.00  0.00     0.006 A 
ENDBRANCH  51  65
BRANCH  52  73
ATOM     73  C   UNL A   1      39.898  28.381  28.381  1.00  0.00     0.057 A 
ATOM     74  C   UNL A   1      40.531  28.203  27.139  1.00  0.00     0.134 A 
ATOM     75  C   UNL A   1      39.534  27.211  29.066  1.00  0.00     0.134 A 
ATOM     76  F   UNL A   1      40.933  29.262  26.422  1.00  0.00    -0.206 F 
ATOM     77  C   UNL A   1      40.851  26.935  26.641  1.00  0.00     0.040 A 
ATOM     78  C   UNL A   1      39.846  25.937  28.576  1.00  0.00     0.040 A 
ATOM     79  F   UNL A   1      38.963  27.272  30.277  1.00  0.00    -0.206 F 
ATOM     80  C   UNL A   1      40.529  25.797  27.372  1.00  0.00     0.006 A 
ENDBRANCH  52  73
BRANCH  64  81
ATOM     81  C   UNL A   1      42.269  34.047  29.639  1.00  0.00     0.057 A 
ATOM     82  C   UNL A   1      41.076  34.701  29.303  1.00  0.00     0.134 A 
ATOM     83  C   UNL A   1      43.416  34.393  28.916  1.00  0.00     0.134 A 
ATOM     84  F   UNL A   1      39.944  34.473  29.982  1.00  0.00    -0.206 F 
ATOM     85  C   UNL A   1      41.030  35.648  28.273  1.00  0.00     0.040 A 
ATOM     86  C   UNL A   1      43.390  35.356  27.910  1.00  0.00     0.040 A 
ATOM     87  F   UNL A   1      44.595  33.822  29.211  1.00  0.00    -0.206 F 
ATOM     88  C   UNL A   1      42.192  35.984  27.580  1.00  0.00     0.006 A 
ENDBRANCH  64  81
ENDBRANCH  38  39
ENDBRANCH  31  33
ENDBRANCH  30  31
ENDBRANCH  29  30
ENDBRANCH  28  29
ENDBRANCH  27  28
ENDBRANCH   1  27
TORSDOF 18
ENDMDL
