MODEL 1
REMARK VINA RESULT:     -11.4      0.000      0.000
REMARK SMILES COc1cc([C@@H]2[NH2+][C@H](C(=O)OCCOCCOC(=O)c3ccc(-c4c5nc(c(-c6c(F)cccc6F)c6ccc([nH]6)c(-c6c(F)cccc6F)c6nc(c(-c7c(F)cccc7F)c7ccc4[nH]7)C=C6)C=C5)cc3)CS2)ccc1OCc1ccc(Cl)cc1
REMARK SMILES IDX 13 1 12 2 11 3 9 4 10 5 8 6 6 7 7 8 75 9 74 12 5 13 3 14
REMARK SMILES IDX 4 15 78 16 77 17 76 18 2 19 1 20 79 21 80 22 81 23 82 24
REMARK SMILES IDX 87 25 83 26 86 27 84 28 85 29 14 30 15 31 16 32 17 33 18 34
REMARK SMILES IDX 19 35 20 36 21 37 73 38 22 39 72 40 23 41 24 42 25 43 66 44
REMARK SMILES IDX 26 45 71 46 65 47 67 48 27 49 70 50 64 51 63 52 28 54 54 55
REMARK SMILES IDX 37 56 53 57 38 58 41 59 52 60 68 61 39 62 40 63 51 65 69 66
REMARK SMILES IDX 42 67 29 68 30 69 35 70 31 71 32 72 34 73 36 74 33 75 55 76
REMARK SMILES IDX 56 77 61 78 57 79 58 80 60 81 62 82 59 83 43 84 44 85 49 86
REMARK SMILES IDX 45 87 46 88 48 89 50 90 47 91
REMARK H PARENT 7 10 7 11 67 53 41 64
REMARK Flexibility Score: inf
ROOT
ATOM      1  C   UNL A   1      34.211  32.675  28.257  1.00  0.00     0.202 C 
ENDROOT
BRANCH   1   2
ATOM      2  C   UNL A   1      34.285  31.272  27.646  1.00  0.00     0.261 C 
BRANCH   2   3
ATOM      3  O   UNL A   1      32.975  30.895  27.188  1.00  0.00    -0.459 OA
BRANCH   3   4
ATOM      4  C   UNL A   1      32.780  29.603  26.823  1.00  0.00     0.365 C 
ATOM      5  O   UNL A   1      32.687  28.663  27.605  1.00  0.00    -0.245 OA
BRANCH   4   6
ATOM      6  C   UNL A   1      32.733  29.425  25.301  1.00  0.00     0.304 C 
ATOM      7  C   UNL A   1      33.355  27.428  24.051  1.00  0.00     0.274 C 
ATOM      8  N   UNL A   1      33.858  28.592  24.780  1.00  0.00    -0.319 N 
ATOM      9  S   UNL A   1      31.654  27.755  23.552  1.00  0.00    -0.087 SA
ATOM     10  H   UNL A   1      34.429  29.157  24.153  1.00  0.00     0.348 HD
ATOM     11  H   UNL A   1      34.413  28.264  25.570  1.00  0.00     0.348 HD
ATOM     12  C   UNL A   1      31.359  28.901  24.909  1.00  0.00     0.153 C 
BRANCH   7  13
ATOM     13  C   UNL A   1      33.553  26.135  24.824  1.00  0.00     0.024 A 
ATOM     14  C   UNL A   1      32.723  24.504  26.466  1.00  0.00     0.161 A 
ATOM     15  C   UNL A   1      32.570  25.696  25.732  1.00  0.00     0.061 A 
ATOM     16  C   UNL A   1      33.854  23.709  26.273  1.00  0.00     0.161 A 
ATOM     17  C   UNL A   1      34.809  24.115  25.337  1.00  0.00     0.051 A 
ATOM     18  C   UNL A   1      34.672  25.313  24.637  1.00  0.00     0.015 A 
BRANCH  14  19
ATOM     19  O   UNL A   1      31.700  24.079  27.271  1.00  0.00    -0.493 OA
ATOM     20  C   UNL A   1      30.540  23.702  26.531  1.00  0.00     0.278 C 
ENDBRANCH  14  19
BRANCH  16  21
ATOM     21  O   UNL A   1      34.206  22.544  26.894  1.00  0.00    -0.485 OA
BRANCH  21  22
ATOM     22  C   UNL A   1      33.283  21.462  26.998  1.00  0.00     0.265 C 
BRANCH  22  23
ATOM     23  C   UNL A   1      32.987  20.701  25.726  1.00  0.00    -0.011 A 
ATOM     24  C   UNL A   1      32.699  21.333  24.511  1.00  0.00     0.009 A 
ATOM     25  C   UNL A   1      32.970  19.297  25.783  1.00  0.00     0.009 A 
ATOM     26  C   UNL A   1      32.455  20.580  23.362  1.00  0.00     0.021 A 
ATOM     27  C   UNL A   1      32.714  18.543  24.638  1.00  0.00     0.021 A 
ATOM     28  C   UNL A   1      32.468  19.189  23.430  1.00  0.00     0.041 A 
ATOM     29  Cl  UNL A   1      32.177  18.263  22.011  1.00  0.00    -0.084 Cl
ENDBRANCH  22  23
ENDBRANCH  21  22
ENDBRANCH  16  21
ENDBRANCH   7  13
ENDBRANCH   4   6
ENDBRANCH   3   4
ENDBRANCH   2   3
ENDBRANCH   1   2
BRANCH   1  30
ATOM     30  O   UNL A   1      34.051  32.678  29.680  1.00  0.00    -0.374 OA
BRANCH  30  31
ATOM     31  C   UNL A   1      34.373  33.904  30.336  1.00  0.00     0.202 C 
BRANCH  31  32
ATOM     32  C   UNL A   1      34.661  33.791  31.836  1.00  0.00     0.261 C 
BRANCH  32  33
ATOM     33  O   UNL A   1      34.869  32.439  32.267  1.00  0.00    -0.460 OA
BRANCH  33  34
ATOM     34  C   UNL A   1      35.967  32.257  33.038  1.00  0.00     0.338 C 
ATOM     35  O   UNL A   1      36.100  32.546  34.220  1.00  0.00    -0.246 OA
BRANCH  34  36
ATOM     36  C   UNL A   1      37.012  31.551  32.278  1.00  0.00     0.060 A 
ATOM     37  C   UNL A   1      38.113  31.041  32.975  1.00  0.00     0.016 A 
ATOM     38  C   UNL A   1      36.960  31.463  30.890  1.00  0.00     0.016 A 
ATOM     39  C   UNL A   1      39.179  30.462  32.280  1.00  0.00     0.010 A 
ATOM     40  C   UNL A   1      38.031  30.886  30.200  1.00  0.00     0.010 A 
ATOM     41  C   UNL A   1      39.161  30.392  30.880  1.00  0.00    -0.014 A 
BRANCH  41  42
ATOM     42  C   UNL A   1      40.346  29.885  30.124  1.00  0.00     0.031 A 
ATOM     43  C   UNL A   1      41.488  30.817  29.802  1.00  0.00     0.074 A 
ATOM     44  C   UNL A   1      40.399  28.612  29.677  1.00  0.00     0.049 A 
ATOM     45  N   UNL A   1      42.583  30.587  29.119  1.00  0.00    -0.248 NA
ATOM     46  C   UNL A   1      41.369  32.202  30.285  1.00  0.00     0.031 C 
ATOM     47  C   UNL A   1      39.347  27.607  29.835  1.00  0.00     0.029 A 
ATOM     48  N   UNL A   1      41.372  27.959  28.956  1.00  0.00    -0.354 N 
ATOM     49  C   UNL A   1      43.267  31.796  29.077  1.00  0.00     0.074 A 
ATOM     50  C   UNL A   1      42.433  32.773  29.743  1.00  0.00     0.031 C 
ATOM     51  C   UNL A   1      39.721  26.475  29.214  1.00  0.00     0.029 A 
ATOM     52  C   UNL A   1      41.040  26.667  28.619  1.00  0.00     0.049 A 
ATOM     53  H   UNL A   1      42.226  28.377  28.704  1.00  0.00     0.167 HD
ATOM     54  C   UNL A   1      44.494  32.068  28.572  1.00  0.00     0.037 A 
ATOM     55  C   UNL A   1      41.722  25.743  27.915  1.00  0.00     0.037 A 
ATOM     56  C   UNL A   1      45.369  31.094  27.978  1.00  0.00     0.049 A 
ATOM     57  C   UNL A   1      43.102  26.055  27.404  1.00  0.00     0.074 A 
ATOM     58  C   UNL A   1      46.678  31.253  27.555  1.00  0.00     0.029 A 
ATOM     59  N   UNL A   1      45.029  29.774  27.730  1.00  0.00    -0.354 N 
ATOM     60  N   UNL A   1      43.782  27.172  27.480  1.00  0.00    -0.248 NA
ATOM     61  C   UNL A   1      43.824  24.961  26.734  1.00  0.00     0.031 C 
ATOM     62  C   UNL A   1      47.122  30.036  27.027  1.00  0.00     0.029 A 
ATOM     63  C   UNL A   1      46.099  29.113  27.152  1.00  0.00     0.049 A 
ATOM     64  H   UNL A   1      44.156  29.367  27.936  1.00  0.00     0.167 HD
ATOM     65  C   UNL A   1      45.025  26.899  26.919  1.00  0.00     0.074 A 
ATOM     66  C   UNL A   1      45.005  25.514  26.504  1.00  0.00     0.031 C 
ATOM     67  C   UNL A   1      46.089  27.725  26.770  1.00  0.00     0.037 A 
BRANCH  54  68
ATOM     68  C   UNL A   1      44.986  33.482  28.675  1.00  0.00     0.057 A 
ATOM     69  C   UNL A   1      45.715  33.928  29.786  1.00  0.00     0.134 A 
ATOM     70  C   UNL A   1      44.768  34.394  27.635  1.00  0.00     0.134 A 
ATOM     71  F   UNL A   1      45.951  33.105  30.818  1.00  0.00    -0.206 F 
ATOM     72  C   UNL A   1      46.183  35.240  29.873  1.00  0.00     0.040 A 
ATOM     73  C   UNL A   1      45.254  35.701  27.698  1.00  0.00     0.040 A 
ATOM     74  F   UNL A   1      44.086  34.028  26.540  1.00  0.00    -0.206 F 
ATOM     75  C   UNL A   1      45.959  36.129  28.823  1.00  0.00     0.006 A 
ENDBRANCH  54  68
BRANCH  55  76
ATOM     76  C   UNL A   1      41.140  24.398  27.677  1.00  0.00     0.057 A 
ATOM     77  C   UNL A   1      41.589  23.282  28.395  1.00  0.00     0.134 A 
ATOM     78  C   UNL A   1      40.180  24.184  26.683  1.00  0.00     0.134 A 
ATOM     79  F   UNL A   1      42.530  23.424  29.341  1.00  0.00    -0.206 F 
ATOM     80  C   UNL A   1      41.131  21.996  28.110  1.00  0.00     0.040 A 
ATOM     81  C   UNL A   1      39.696  22.905  26.401  1.00  0.00     0.040 A 
ATOM     82  F   UNL A   1      39.711  25.213  25.962  1.00  0.00    -0.206 F 
ATOM     83  C   UNL A   1      40.181  21.805  27.108  1.00  0.00     0.006 A 
ENDBRANCH  55  76
BRANCH  67  84
ATOM     84  C   UNL A   1      47.345  27.135  26.200  1.00  0.00     0.057 A 
ATOM     85  C   UNL A   1      47.619  27.151  24.826  1.00  0.00     0.134 A 
ATOM     86  C   UNL A   1      48.301  26.555  27.043  1.00  0.00     0.134 A 
ATOM     87  F   UNL A   1      46.737  27.678  23.964  1.00  0.00    -0.206 F 
ATOM     88  C   UNL A   1      48.786  26.585  24.310  1.00  0.00     0.040 A 
ATOM     89  C   UNL A   1      49.483  26.009  26.542  1.00  0.00     0.040 A 
ATOM     90  F   UNL A   1      48.105  26.514  28.370  1.00  0.00    -0.206 F 
ATOM     91  C   UNL A   1      49.724  26.016  25.170  1.00  0.00     0.006 A 
ENDBRANCH  67  84
ENDBRANCH  41  42
ENDBRANCH  34  36
ENDBRANCH  33  34
ENDBRANCH  32  33
ENDBRANCH  31  32
ENDBRANCH  30  31
ENDBRANCH   1  30
TORSDOF 19
ENDMDL
MODEL 2
REMARK VINA RESULT:     -11.2      4.443      6.708
REMARK SMILES COc1cc([C@@H]2[NH2+][C@H](C(=O)OCCOCCOC(=O)c3ccc(-c4c5nc(c(-c6c(F)cccc6F)c6ccc([nH]6)c(-c6c(F)cccc6F)c6nc(c(-c7c(F)cccc7F)c7ccc4[nH]7)C=C6)C=C5)cc3)CS2)ccc1OCc1ccc(Cl)cc1
REMARK SMILES IDX 13 1 12 2 11 3 9 4 10 5 8 6 6 7 7 8 75 9 74 12 5 13 3 14
REMARK SMILES IDX 4 15 78 16 77 17 76 18 2 19 1 20 79 21 80 22 81 23 82 24
REMARK SMILES IDX 87 25 83 26 86 27 84 28 85 29 14 30 15 31 16 32 17 33 18 34
REMARK SMILES IDX 19 35 20 36 21 37 73 38 22 39 72 40 23 41 24 42 25 43 66 44
REMARK SMILES IDX 26 45 71 46 65 47 67 48 27 49 70 50 64 51 63 52 28 54 54 55
REMARK SMILES IDX 37 56 53 57 38 58 41 59 52 60 68 61 39 62 40 63 51 65 69 66
REMARK SMILES IDX 42 67 29 68 30 69 35 70 31 71 32 72 34 73 36 74 33 75 55 76
REMARK SMILES IDX 56 77 61 78 57 79 58 80 60 81 62 82 59 83 43 84 44 85 49 86
REMARK SMILES IDX 45 87 46 88 48 89 50 90 47 91
REMARK H PARENT 7 10 7 11 67 53 41 64
REMARK Flexibility Score: inf
ROOT
ATOM      1  C   UNL A   1      34.499  32.421  29.081  1.00  0.00     0.202 C 
ENDROOT
BRANCH   1   2
ATOM      2  C   UNL A   1      34.267  31.887  27.665  1.00  0.00     0.261 C 
BRANCH   2   3
ATOM      3  O   UNL A   1      33.297  30.827  27.722  1.00  0.00    -0.459 OA
BRANCH   3   4
ATOM      4  C   UNL A   1      33.474  29.763  26.898  1.00  0.00     0.365 C 
ATOM      5  O   UNL A   1      34.023  28.715  27.218  1.00  0.00    -0.245 OA
BRANCH   4   6
ATOM      6  C   UNL A   1      32.948  30.026  25.481  1.00  0.00     0.304 C 
ATOM      7  C   UNL A   1      32.225  28.353  23.864  1.00  0.00     0.274 C 
ATOM      8  N   UNL A   1      33.380  28.986  24.500  1.00  0.00    -0.319 N 
ATOM      9  S   UNL A   1      30.802  29.444  24.044  1.00  0.00    -0.087 SA
ATOM     10  H   UNL A   1      33.958  29.423  23.783  1.00  0.00     0.348 HD
ATOM     11  H   UNL A   1      33.909  28.269  24.997  1.00  0.00     0.348 HD
ATOM     12  C   UNL A   1      31.439  30.212  25.542  1.00  0.00     0.153 C 
BRANCH   7  13
ATOM     13  C   UNL A   1      32.003  26.933  24.358  1.00  0.00     0.024 A 
ATOM     14  C   UNL A   1      32.151  24.510  23.967  1.00  0.00     0.161 A 
ATOM     15  C   UNL A   1      32.346  25.838  23.541  1.00  0.00     0.061 A 
ATOM     16  C   UNL A   1      31.641  24.256  25.242  1.00  0.00     0.161 A 
ATOM     17  C   UNL A   1      31.346  25.339  26.075  1.00  0.00     0.051 A 
ATOM     18  C   UNL A   1      31.508  26.652  25.638  1.00  0.00     0.015 A 
BRANCH  14  19
ATOM     19  O   UNL A   1      32.580  23.482  23.169  1.00  0.00    -0.493 OA
ATOM     20  C   UNL A   1      33.984  23.531  22.920  1.00  0.00     0.278 C 
ENDBRANCH  14  19
BRANCH  16  21
ATOM     21  O   UNL A   1      31.355  23.059  25.834  1.00  0.00    -0.485 OA
BRANCH  21  22
ATOM     22  C   UNL A   1      32.243  22.483  26.790  1.00  0.00     0.265 C 
BRANCH  22  23
ATOM     23  C   UNL A   1      33.567  21.979  26.265  1.00  0.00    -0.011 A 
ATOM     24  C   UNL A   1      33.694  20.791  25.535  1.00  0.00     0.009 A 
ATOM     25  C   UNL A   1      34.722  22.726  26.554  1.00  0.00     0.009 A 
ATOM     26  C   UNL A   1      34.939  20.386  25.055  1.00  0.00     0.021 A 
ATOM     27  C   UNL A   1      35.969  22.315  26.085  1.00  0.00     0.021 A 
ATOM     28  C   UNL A   1      36.070  21.151  25.328  1.00  0.00     0.041 A 
ATOM     29  Cl  UNL A   1      37.602  20.654  24.727  1.00  0.00    -0.084 Cl
ENDBRANCH  22  23
ENDBRANCH  21  22
ENDBRANCH  16  21
ENDBRANCH   7  13
ENDBRANCH   4   6
ENDBRANCH   3   4
ENDBRANCH   2   3
ENDBRANCH   1   2
BRANCH   1  30
ATOM     30  O   UNL A   1      34.599  33.848  29.152  1.00  0.00    -0.374 OA
BRANCH  30  31
ATOM     31  C   UNL A   1      33.458  34.572  28.695  1.00  0.00     0.202 C 
BRANCH  31  32
ATOM     32  C   UNL A   1      32.951  35.667  29.639  1.00  0.00     0.261 C 
BRANCH  32  33
ATOM     33  O   UNL A   1      32.299  35.143  30.805  1.00  0.00    -0.460 OA
BRANCH  33  34
ATOM     34  C   UNL A   1      32.720  35.681  31.974  1.00  0.00     0.338 C 
ATOM     35  O   UNL A   1      32.179  36.573  32.617  1.00  0.00    -0.246 OA
BRANCH  34  36
ATOM     36  C   UNL A   1      33.916  34.975  32.460  1.00  0.00     0.060 A 
ATOM     37  C   UNL A   1      35.168  35.565  32.254  1.00  0.00     0.016 A 
ATOM     38  C   UNL A   1      33.823  33.710  33.034  1.00  0.00     0.016 A 
ATOM     39  C   UNL A   1      36.335  34.877  32.600  1.00  0.00     0.010 A 
ATOM     40  C   UNL A   1      34.995  33.026  33.375  1.00  0.00     0.010 A 
ATOM     41  C   UNL A   1      36.266  33.590  33.150  1.00  0.00    -0.014 A 
BRANCH  41  42
ATOM     42  C   UNL A   1      37.508  32.802  33.412  1.00  0.00     0.031 A 
ATOM     43  C   UNL A   1      38.334  33.085  34.643  1.00  0.00     0.074 A 
ATOM     44  C   UNL A   1      37.938  31.863  32.543  1.00  0.00     0.049 A 
ATOM     45  N   UNL A   1      39.465  32.547  35.028  1.00  0.00    -0.248 NA
ATOM     46  C   UNL A   1      37.839  34.139  35.544  1.00  0.00     0.031 C 
ATOM     47  C   UNL A   1      37.299  31.522  31.270  1.00  0.00     0.029 A 
ATOM     48  N   UNL A   1      39.048  31.051  32.582  1.00  0.00    -0.354 N 
ATOM     49  C   UNL A   1      39.821  33.206  36.199  1.00  0.00     0.074 A 
ATOM     50  C   UNL A   1      38.824  34.229  36.424  1.00  0.00     0.031 C 
ATOM     51  C   UNL A   1      38.036  30.588  30.643  1.00  0.00     0.029 A 
ATOM     52  C   UNL A   1      39.194  30.257  31.468  1.00  0.00     0.049 A 
ATOM     53  H   UNL A   1      39.678  31.039  33.337  1.00  0.00     0.167 HD
ATOM     54  C   UNL A   1      40.855  32.960  37.038  1.00  0.00     0.037 A 
ATOM     55  C   UNL A   1      40.151  29.364  31.149  1.00  0.00     0.037 A 
ATOM     56  C   UNL A   1      41.810  31.898  36.873  1.00  0.00     0.049 A 
ATOM     57  C   UNL A   1      41.265  29.076  32.119  1.00  0.00     0.074 A 
ATOM     58  C   UNL A   1      42.813  31.496  37.739  1.00  0.00     0.029 A 
ATOM     59  N   UNL A   1      41.875  31.060  35.772  1.00  0.00    -0.354 N 
ATOM     60  N   UNL A   1      41.516  29.628  33.280  1.00  0.00    -0.248 NA
ATOM     61  C   UNL A   1      42.213  28.014  31.744  1.00  0.00     0.031 C 
ATOM     62  C   UNL A   1      43.503  30.431  37.150  1.00  0.00     0.029 A 
ATOM     63  C   UNL A   1      42.907  30.151  35.932  1.00  0.00     0.049 A 
ATOM     64  H   UNL A   1      41.276  31.104  34.992  1.00  0.00     0.167 HD
ATOM     65  C   UNL A   1      42.612  28.945  33.795  1.00  0.00     0.074 A 
ATOM     66  C   UNL A   1      42.981  27.942  32.820  1.00  0.00     0.031 C 
ATOM     67  C   UNL A   1      43.251  29.132  34.975  1.00  0.00     0.037 A 
BRANCH  54  68
ATOM     68  C   UNL A   1      40.989  33.841  38.247  1.00  0.00     0.057 A 
ATOM     69  C   UNL A   1      40.288  33.576  39.431  1.00  0.00     0.134 A 
ATOM     70  C   UNL A   1      41.860  34.938  38.241  1.00  0.00     0.134 A 
ATOM     71  F   UNL A   1      39.434  32.545  39.498  1.00  0.00    -0.206 F 
ATOM     72  C   UNL A   1      40.425  34.389  40.557  1.00  0.00     0.040 A 
ATOM     73  C   UNL A   1      42.025  35.742  39.369  1.00  0.00     0.040 A 
ATOM     74  F   UNL A   1      42.567  35.240  37.142  1.00  0.00    -0.206 F 
ATOM     75  C   UNL A   1      41.301  35.472  40.530  1.00  0.00     0.006 A 
ENDBRANCH  54  68
BRANCH  55  76
ATOM     76  C   UNL A   1      40.091  28.623  29.863  1.00  0.00     0.057 A 
ATOM     77  C   UNL A   1      39.373  27.425  29.756  1.00  0.00     0.134 A 
ATOM     78  C   UNL A   1      40.804  29.053  28.740  1.00  0.00     0.134 A 
ATOM     79  F   UNL A   1      38.693  26.950  30.811  1.00  0.00    -0.206 F 
ATOM     80  C   UNL A   1      39.393  26.663  28.588  1.00  0.00     0.040 A 
ATOM     81  C   UNL A   1      40.817  28.310  27.557  1.00  0.00     0.040 A 
ATOM     82  F   UNL A   1      41.510  30.192  28.781  1.00  0.00    -0.206 F 
ATOM     83  C   UNL A   1      40.119  27.106  27.483  1.00  0.00     0.006 A 
ENDBRANCH  55  76
BRANCH  67  84
ATOM     84  C   UNL A   1      44.365  28.186  35.314  1.00  0.00     0.057 A 
ATOM     85  C   UNL A   1      45.695  28.442  34.955  1.00  0.00     0.134 A 
ATOM     86  C   UNL A   1      44.103  27.007  36.023  1.00  0.00     0.134 A 
ATOM     87  F   UNL A   1      46.011  29.547  34.263  1.00  0.00    -0.206 F 
ATOM     88  C   UNL A   1      46.719  27.546  35.265  1.00  0.00     0.040 A 
ATOM     89  C   UNL A   1      45.121  26.115  36.360  1.00  0.00     0.040 A 
ATOM     90  F   UNL A   1      42.852  26.704  36.404  1.00  0.00    -0.206 F 
ATOM     91  C   UNL A   1      46.433  26.380  35.974  1.00  0.00     0.006 A 
ENDBRANCH  67  84
ENDBRANCH  41  42
ENDBRANCH  34  36
ENDBRANCH  33  34
ENDBRANCH  32  33
ENDBRANCH  31  32
ENDBRANCH  30  31
ENDBRANCH   1  30
TORSDOF 19
ENDMDL
MODEL 3
REMARK VINA RESULT:     -11.1      3.939      5.342
REMARK SMILES COc1cc([C@@H]2[NH2+][C@H](C(=O)OCCOCCOC(=O)c3ccc(-c4c5nc(c(-c6c(F)cccc6F)c6ccc([nH]6)c(-c6c(F)cccc6F)c6nc(c(-c7c(F)cccc7F)c7ccc4[nH]7)C=C6)C=C5)cc3)CS2)ccc1OCc1ccc(Cl)cc1
REMARK SMILES IDX 13 1 12 2 11 3 9 4 10 5 8 6 6 7 7 8 75 9 74 12 5 13 3 14
REMARK SMILES IDX 4 15 78 16 77 17 76 18 2 19 1 20 79 21 80 22 81 23 82 24
REMARK SMILES IDX 87 25 83 26 86 27 84 28 85 29 14 30 15 31 16 32 17 33 18 34
REMARK SMILES IDX 19 35 20 36 21 37 73 38 22 39 72 40 23 41 24 42 25 43 66 44
REMARK SMILES IDX 26 45 71 46 65 47 67 48 27 49 70 50 64 51 63 52 28 54 54 55
REMARK SMILES IDX 37 56 53 57 38 58 41 59 52 60 68 61 39 62 40 63 51 65 69 66
REMARK SMILES IDX 42 67 29 68 30 69 35 70 31 71 32 72 34 73 36 74 33 75 55 76
REMARK SMILES IDX 56 77 61 78 57 79 58 80 60 81 62 82 59 83 43 84 44 85 49 86
REMARK SMILES IDX 45 87 46 88 48 89 50 90 47 91
REMARK H PARENT 7 10 7 11 67 53 41 64
REMARK Flexibility Score: inf
ROOT
ATOM      1  C   UNL A   1      33.169  29.295  27.167  1.00  0.00     0.202 C 
ENDROOT
BRANCH   1   2
ATOM      2  C   UNL A   1      33.584  28.663  25.835  1.00  0.00     0.261 C 
BRANCH   2   3
ATOM      3  O   UNL A   1      33.110  29.492  24.760  1.00  0.00    -0.459 OA
BRANCH   3   4
ATOM      4  C   UNL A   1      33.206  29.007  23.497  1.00  0.00     0.365 C 
ATOM      5  O   UNL A   1      34.250  28.645  22.966  1.00  0.00    -0.245 OA
BRANCH   4   6
ATOM      6  C   UNL A   1      31.857  28.998  22.768  1.00  0.00     0.304 C 
ATOM      7  C   UNL A   1      30.275  27.149  22.657  1.00  0.00     0.274 C 
ATOM      8  N   UNL A   1      31.541  27.676  22.149  1.00  0.00    -0.319 N 
ATOM      9  S   UNL A   1      29.318  28.515  23.341  1.00  0.00    -0.087 SA
ATOM     10  H   UNL A   1      31.474  27.788  21.138  1.00  0.00     0.348 HD
ATOM     11  H   UNL A   1      32.284  27.019  22.387  1.00  0.00     0.348 HD
ATOM     12  C   UNL A   1      30.779  29.495  23.720  1.00  0.00     0.153 C 
BRANCH   7  13
ATOM     13  C   UNL A   1      30.478  25.979  23.605  1.00  0.00     0.024 A 
ATOM     14  C   UNL A   1      31.180  23.651  23.971  1.00  0.00     0.161 A 
ATOM     15  C   UNL A   1      30.982  24.755  23.121  1.00  0.00     0.061 A 
ATOM     16  C   UNL A   1      30.910  23.766  25.336  1.00  0.00     0.161 A 
ATOM     17  C   UNL A   1      30.456  24.993  25.829  1.00  0.00     0.051 A 
ATOM     18  C   UNL A   1      30.228  26.075  24.980  1.00  0.00     0.015 A 
BRANCH  14  19
ATOM     19  O   UNL A   1      31.753  22.513  23.467  1.00  0.00    -0.493 OA
ATOM     20  C   UNL A   1      32.879  22.789  22.636  1.00  0.00     0.278 C 
ENDBRANCH  14  19
BRANCH  16  21
ATOM     21  O   UNL A   1      31.007  22.822  26.318  1.00  0.00    -0.485 OA
BRANCH  21  22
ATOM     22  C   UNL A   1      32.129  22.792  27.197  1.00  0.00     0.265 C 
BRANCH  22  23
ATOM     23  C   UNL A   1      33.482  22.573  26.560  1.00  0.00    -0.011 A 
ATOM     24  C   UNL A   1      33.920  21.319  26.116  1.00  0.00     0.009 A 
ATOM     25  C   UNL A   1      34.346  23.675  26.442  1.00  0.00     0.009 A 
ATOM     26  C   UNL A   1      35.170  21.179  25.514  1.00  0.00     0.021 A 
ATOM     27  C   UNL A   1      35.601  23.534  25.852  1.00  0.00     0.021 A 
ATOM     28  C   UNL A   1      36.003  22.287  25.381  1.00  0.00     0.041 A 
ATOM     29  Cl  UNL A   1      37.540  22.114  24.631  1.00  0.00    -0.084 Cl
ENDBRANCH  22  23
ENDBRANCH  21  22
ENDBRANCH  16  21
ENDBRANCH   7  13
ENDBRANCH   4   6
ENDBRANCH   3   4
ENDBRANCH   2   3
ENDBRANCH   1   2
BRANCH   1  30
ATOM     30  O   UNL A   1      32.600  30.603  27.034  1.00  0.00    -0.374 OA
BRANCH  30  31
ATOM     31  C   UNL A   1      33.353  31.667  27.614  1.00  0.00     0.202 C 
BRANCH  31  32
ATOM     32  C   UNL A   1      32.808  33.075  27.356  1.00  0.00     0.261 C 
BRANCH  32  33
ATOM     33  O   UNL A   1      32.483  33.780  28.563  1.00  0.00    -0.460 OA
BRANCH  33  34
ATOM     34  C   UNL A   1      33.332  34.789  28.870  1.00  0.00     0.338 C 
ATOM     35  O   UNL A   1      33.110  35.992  28.799  1.00  0.00    -0.246 OA
BRANCH  34  36
ATOM     36  C   UNL A   1      34.589  34.250  29.415  1.00  0.00     0.060 A 
ATOM     37  C   UNL A   1      35.755  34.380  28.653  1.00  0.00     0.016 A 
ATOM     38  C   UNL A   1      34.612  33.551  30.619  1.00  0.00     0.016 A 
ATOM     39  C   UNL A   1      36.946  33.786  29.083  1.00  0.00     0.010 A 
ATOM     40  C   UNL A   1      35.805  32.956  31.041  1.00  0.00     0.010 A 
ATOM     41  C   UNL A   1      36.984  33.050  30.275  1.00  0.00    -0.014 A 
BRANCH  41  42
ATOM     42  C   UNL A   1      38.218  32.314  30.681  1.00  0.00     0.031 A 
ATOM     43  C   UNL A   1      39.138  32.904  31.722  1.00  0.00     0.074 A 
ATOM     44  C   UNL A   1      38.558  31.143  30.101  1.00  0.00     0.049 A 
ATOM     45  N   UNL A   1      40.278  32.447  32.180  1.00  0.00    -0.248 NA
ATOM     46  C   UNL A   1      38.740  34.196  32.302  1.00  0.00     0.031 C 
ATOM     47  C   UNL A   1      37.821  30.477  29.027  1.00  0.00     0.029 A 
ATOM     48  N   UNL A   1      39.645  30.325  30.310  1.00  0.00    -0.354 N 
ATOM     49  C   UNL A   1      40.737  33.400  33.081  1.00  0.00     0.074 A 
ATOM     50  C   UNL A   1      39.787  34.492  33.056  1.00  0.00     0.031 C 
ATOM     51  C   UNL A   1      38.484  29.367  28.658  1.00  0.00     0.029 A 
ATOM     52  C   UNL A   1      39.689  29.235  29.472  1.00  0.00     0.049 A 
ATOM     53  H   UNL A   1      40.327  30.503  30.996  1.00  0.00     0.167 HD
ATOM     54  C   UNL A   1      41.821  33.361  33.891  1.00  0.00     0.037 A 
ATOM     55  C   UNL A   1      40.594  28.243  29.372  1.00  0.00     0.037 A 
ATOM     56  C   UNL A   1      42.731  32.251  33.988  1.00  0.00     0.049 A 
ATOM     57  C   UNL A   1      41.766  28.198  30.314  1.00  0.00     0.074 A 
ATOM     58  C   UNL A   1      43.782  32.071  34.871  1.00  0.00     0.029 A 
ATOM     59  N   UNL A   1      42.694  31.127  33.179  1.00  0.00    -0.354 N 
ATOM     60  N   UNL A   1      42.116  29.051  31.245  1.00  0.00    -0.248 NA
ATOM     61  C   UNL A   1      42.655  27.028  30.212  1.00  0.00     0.031 C 
ATOM     62  C   UNL A   1      44.398  30.849  34.580  1.00  0.00     0.029 A 
ATOM     63  C   UNL A   1      43.709  30.256  33.537  1.00  0.00     0.049 A 
ATOM     64  H   UNL A   1      42.042  30.971  32.458  1.00  0.00     0.167 HD
ATOM     65  C   UNL A   1      43.227  28.496  31.870  1.00  0.00     0.074 A 
ATOM     66  C   UNL A   1      43.496  27.236  31.213  1.00  0.00     0.031 C 
ATOM     67  C   UNL A   1      43.954  28.987  32.903  1.00  0.00     0.037 A 
BRANCH  54  68
ATOM     68  C   UNL A   1      42.067  34.547  34.777  1.00  0.00     0.057 A 
ATOM     69  C   UNL A   1      42.869  35.620  34.364  1.00  0.00     0.134 A 
ATOM     70  C   UNL A   1      41.461  34.639  36.036  1.00  0.00     0.134 A 
ATOM     71  F   UNL A   1      43.484  35.588  33.172  1.00  0.00    -0.206 F 
ATOM     72  C   UNL A   1      43.085  36.728  35.184  1.00  0.00     0.040 A 
ATOM     73  C   UNL A   1      41.647  35.755  36.855  1.00  0.00     0.040 A 
ATOM     74  F   UNL A   1      40.673  33.652  36.487  1.00  0.00    -0.206 F 
ATOM     75  C   UNL A   1      42.467  36.800  36.432  1.00  0.00     0.006 A 
ENDBRANCH  54  68
BRANCH  55  76
ATOM     76  C   UNL A   1      40.421  27.164  28.367  1.00  0.00     0.057 A 
ATOM     77  C   UNL A   1      41.022  27.252  27.105  1.00  0.00     0.134 A 
ATOM     78  C   UNL A   1      39.596  26.062  28.615  1.00  0.00     0.134 A 
ATOM     79  F   UNL A   1      41.801  28.303  26.802  1.00  0.00    -0.206 F 
ATOM     80  C   UNL A   1      40.783  26.302  26.113  1.00  0.00     0.040 A 
ATOM     81  C   UNL A   1      39.364  25.092  27.638  1.00  0.00     0.040 A 
ATOM     82  F   UNL A   1      38.992  25.922  29.804  1.00  0.00    -0.206 F 
ATOM     83  C   UNL A   1      39.950  25.217  26.379  1.00  0.00     0.006 A 
ENDBRANCH  55  76
BRANCH  67  84
ATOM     84  C   UNL A   1      45.063  28.129  33.436  1.00  0.00     0.057 A 
ATOM     85  C   UNL A   1      46.379  28.240  32.972  1.00  0.00     0.134 A 
ATOM     86  C   UNL A   1      44.808  27.186  34.440  1.00  0.00     0.134 A 
ATOM     87  F   UNL A   1      46.687  29.113  32.001  1.00  0.00    -0.206 F 
ATOM     88  C   UNL A   1      47.398  27.424  33.468  1.00  0.00     0.040 A 
ATOM     89  C   UNL A   1      45.822  26.382  34.962  1.00  0.00     0.040 A 
ATOM     90  F   UNL A   1      43.570  27.034  34.935  1.00  0.00    -0.206 F 
ATOM     91  C   UNL A   1      47.120  26.495  34.470  1.00  0.00     0.006 A 
ENDBRANCH  67  84
ENDBRANCH  41  42
ENDBRANCH  34  36
ENDBRANCH  33  34
ENDBRANCH  32  33
ENDBRANCH  31  32
ENDBRANCH  30  31
ENDBRANCH   1  30
TORSDOF 19
ENDMDL
