MODEL 1
REMARK VINA RESULT:     -11.1      0.000      0.000
REMARK SMILES O=C(OCCOCCOC(=O)[C@H]1C[C@@H](O)CN1C(=O)CCc1ccc(Cl)cc1Cl)c1ccc(-c2c3nc(c(-c4c(F)cccc4F)c4ccc([nH]4)c(-c4c(F)cccc4F)c4nc(c(-c5c(F)cccc5F)c5ccc2[nH]5)C=C4)C=C3)cc1
REMARK SMILES IDX 7 1 6 2 5 3 4 4 3 5 2 6 1 7 30 8 31 9 83 10 32 11 82 12
REMARK SMILES IDX 33 13 34 14 35 15 76 16 36 17 81 18 75 19 77 20 37 21 80 22
REMARK SMILES IDX 74 23 73 24 38 26 64 27 47 28 63 29 48 30 51 31 62 32 78 33
REMARK SMILES IDX 49 34 50 35 61 37 79 38 52 39 39 40 40 41 45 42 41 43 42 44
REMARK SMILES IDX 44 45 46 46 43 47 65 48 66 49 71 50 67 51 68 52 70 53 72 54
REMARK SMILES IDX 69 55 53 56 54 57 59 58 55 59 56 60 58 61 60 62 57 63 8 64
REMARK SMILES IDX 9 65 10 66 11 67 12 68 13 69 17 70 14 71 16 72 18 73 19 74
REMARK SMILES IDX 20 75 21 76 22 77 23 78 28 79 24 80 27 81 29 82 25 83 26 84
REMARK SMILES IDX 15 85
REMARK H PARENT 77 25 51 36 15 86
REMARK Flexibility Score: inf
ROOT
ATOM      1  C   UNL A   1      32.684  29.834  27.287  1.00  0.00     0.202 C 
ENDROOT
BRANCH   1   2
ATOM      2  O   UNL A   1      31.537  30.311  26.578  1.00  0.00    -0.374 OA
BRANCH   2   3
ATOM      3  C   UNL A   1      31.343  31.718  26.588  1.00  0.00     0.202 C 
BRANCH   3   4
ATOM      4  C   UNL A   1      32.538  32.641  26.903  1.00  0.00     0.261 C 
BRANCH   4   5
ATOM      5  O   UNL A   1      32.196  33.849  27.633  1.00  0.00    -0.460 OA
BRANCH   5   6
ATOM      6  C   UNL A   1      33.008  34.443  28.564  1.00  0.00     0.338 C 
ATOM      7  O   UNL A   1      32.714  35.496  29.107  1.00  0.00    -0.246 OA
BRANCH   6   8
ATOM      8  C   UNL A   1      34.288  33.765  28.879  1.00  0.00     0.060 A 
ATOM      9  C   UNL A   1      34.228  32.475  29.359  1.00  0.00     0.016 A 
ATOM     10  C   UNL A   1      35.534  34.364  28.743  1.00  0.00     0.016 A 
ATOM     11  C   UNL A   1      35.262  31.938  30.074  1.00  0.00     0.010 A 
ATOM     12  C   UNL A   1      36.671  33.676  29.203  1.00  0.00     0.010 A 
ATOM     13  C   UNL A   1      36.530  32.474  29.923  1.00  0.00    -0.014 A 
BRANCH  13  14
ATOM     14  C   UNL A   1      37.641  31.723  30.549  1.00  0.00     0.031 A 
ATOM     15  C   UNL A   1      37.868  31.841  32.023  1.00  0.00     0.074 A 
ATOM     16  C   UNL A   1      38.329  30.825  29.808  1.00  0.00     0.049 A 
ATOM     17  N   UNL A   1      38.853  31.376  32.740  1.00  0.00    -0.248 NA
ATOM     18  C   UNL A   1      36.860  32.588  32.795  1.00  0.00     0.031 C 
ATOM     19  C   UNL A   1      38.104  30.540  28.381  1.00  0.00     0.029 A 
ATOM     20  N   UNL A   1      39.309  29.932  30.153  1.00  0.00    -0.354 N 
ATOM     21  C   UNL A   1      38.621  31.828  34.031  1.00  0.00     0.074 A 
ATOM     22  C   UNL A   1      37.397  32.596  34.006  1.00  0.00     0.031 C 
ATOM     23  C   UNL A   1      38.832  29.481  28.012  1.00  0.00     0.029 A 
ATOM     24  C   UNL A   1      39.704  29.119  29.113  1.00  0.00     0.049 A 
ATOM     25  H   UNL A   1      39.695  29.876  31.057  1.00  0.00     0.167 HD
ATOM     26  C   UNL A   1      39.385  31.625  35.128  1.00  0.00     0.037 A 
ATOM     27  C   UNL A   1      40.710  28.230  29.036  1.00  0.00     0.037 A 
ATOM     28  C   UNL A   1      40.579  30.825  35.115  1.00  0.00     0.049 A 
ATOM     29  C   UNL A   1      41.581  28.082  30.246  1.00  0.00     0.074 A 
ATOM     30  C   UNL A   1      41.498  30.613  36.125  1.00  0.00     0.029 A 
ATOM     31  N   UNL A   1      41.004  30.080  34.020  1.00  0.00    -0.354 N 
ATOM     32  N   UNL A   1      41.446  28.633  31.430  1.00  0.00    -0.248 NA
ATOM     33  C   UNL A   1      42.767  27.233  30.104  1.00  0.00     0.031 C 
ATOM     34  C   UNL A   1      42.493  29.762  35.633  1.00  0.00     0.029 A 
ATOM     35  C   UNL A   1      42.173  29.410  34.329  1.00  0.00     0.049 A 
ATOM     36  H   UNL A   1      40.540  30.036  33.153  1.00  0.00     0.167 HD
ATOM     37  C   UNL A   1      42.531  28.202  32.174  1.00  0.00     0.074 A 
ATOM     38  C   UNL A   1      43.292  27.310  31.318  1.00  0.00     0.031 C 
ATOM     39  C   UNL A   1      42.886  28.526  33.441  1.00  0.00     0.037 A 
BRANCH  26  40
ATOM     40  C   UNL A   1      38.982  32.341  36.381  1.00  0.00     0.057 A 
ATOM     41  C   UNL A   1      38.107  31.778  37.319  1.00  0.00     0.134 A 
ATOM     42  C   UNL A   1      39.450  33.637  36.633  1.00  0.00     0.134 A 
ATOM     43  F   UNL A   1      37.596  30.553  37.122  1.00  0.00    -0.206 F 
ATOM     44  C   UNL A   1      37.695  32.486  38.451  1.00  0.00     0.040 A 
ATOM     45  C   UNL A   1      39.063  34.347  37.771  1.00  0.00     0.040 A 
ATOM     46  F   UNL A   1      40.280  34.240  35.770  1.00  0.00    -0.206 F 
ATOM     47  C   UNL A   1      38.176  33.775  38.680  1.00  0.00     0.006 A 
ENDBRANCH  26  40
BRANCH  27  48
ATOM     48  C   UNL A   1      41.011  27.520  27.762  1.00  0.00     0.057 A 
ATOM     49  C   UNL A   1      40.552  26.219  27.523  1.00  0.00     0.134 A 
ATOM     50  C   UNL A   1      41.788  28.115  26.758  1.00  0.00     0.134 A 
ATOM     51  F   UNL A   1      39.822  25.580  28.448  1.00  0.00    -0.206 F 
ATOM     52  C   UNL A   1      40.871  25.533  26.347  1.00  0.00     0.040 A 
ATOM     53  C   UNL A   1      42.083  27.457  25.563  1.00  0.00     0.040 A 
ATOM     54  F   UNL A   1      42.265  29.360  26.915  1.00  0.00    -0.206 F 
ATOM     55  C   UNL A   1      41.633  26.155  25.360  1.00  0.00     0.006 A 
ENDBRANCH  27  48
BRANCH  39  56
ATOM     56  C   UNL A   1      44.131  27.881  33.962  1.00  0.00     0.057 A 
ATOM     57  C   UNL A   1      44.103  26.629  34.586  1.00  0.00     0.134 A 
ATOM     58  C   UNL A   1      45.369  28.520  33.824  1.00  0.00     0.134 A 
ATOM     59  F   UNL A   1      42.941  25.983  34.763  1.00  0.00    -0.206 F 
ATOM     60  C   UNL A   1      45.267  26.041  35.078  1.00  0.00     0.040 A 
ATOM     61  C   UNL A   1      46.542  27.929  34.288  1.00  0.00     0.040 A 
ATOM     62  F   UNL A   1      45.454  29.720  33.231  1.00  0.00    -0.206 F 
ATOM     63  C   UNL A   1      46.491  26.689  34.924  1.00  0.00     0.006 A 
ENDBRANCH  39  56
ENDBRANCH  13  14
ENDBRANCH   6   8
ENDBRANCH   5   6
ENDBRANCH   4   5
ENDBRANCH   3   4
ENDBRANCH   2   3
ENDBRANCH   1   2
BRANCH   1  64
ATOM     64  C   UNL A   1      33.483  28.908  26.380  1.00  0.00     0.261 C 
BRANCH  64  65
ATOM     65  O   UNL A   1      33.564  29.518  25.082  1.00  0.00    -0.462 OA
BRANCH  65  66
ATOM     66  C   UNL A   1      33.383  28.692  24.012  1.00  0.00     0.329 C 
ATOM     67  O   UNL A   1      33.965  28.783  22.938  1.00  0.00    -0.250 OA
BRANCH  66  68
ATOM     68  C   UNL A   1      32.428  27.539  24.349  1.00  0.00     0.197 C 
ATOM     69  C   UNL A   1      30.972  27.943  24.047  1.00  0.00     0.070 C 
ATOM     70  N   UNL A   1      32.651  26.323  23.565  1.00  0.00    -0.326 N 
ATOM     71  C   UNL A   1      30.568  27.170  22.789  1.00  0.00     0.136 C 
ATOM     72  C   UNL A   1      31.496  25.981  22.784  1.00  0.00     0.152 C 
BRANCH  70  73
ATOM     73  C   UNL A   1      33.743  25.513  23.773  1.00  0.00     0.223 C 
ATOM     74  O   UNL A   1      34.226  24.852  22.851  1.00  0.00    -0.275 OA
BRANCH  73  75
ATOM     75  C   UNL A   1      34.252  25.330  25.204  1.00  0.00     0.105 C 
BRANCH  75  76
ATOM     76  C   UNL A   1      34.412  23.900  25.753  1.00  0.00     0.047 C 
BRANCH  76  77
ATOM     77  C   UNL A   1      35.762  23.223  25.564  1.00  0.00    -0.029 A 
ATOM     78  C   UNL A   1      36.922  23.947  25.905  1.00  0.00     0.007 A 
ATOM     79  C   UNL A   1      35.918  21.880  25.163  1.00  0.00     0.045 A 
ATOM     80  C   UNL A   1      38.160  23.305  26.022  1.00  0.00     0.021 A 
ATOM     81  C   UNL A   1      37.153  21.234  25.301  1.00  0.00     0.041 A 
ATOM     82  Cl  UNL A   1      34.605  20.936  24.559  1.00  0.00    -0.084 Cl
ATOM     83  C   UNL A   1      38.258  21.942  25.761  1.00  0.00     0.042 A 
ATOM     84  Cl  UNL A   1      39.743  21.124  26.048  1.00  0.00    -0.084 Cl
ENDBRANCH  76  77
ENDBRANCH  75  76
ENDBRANCH  73  75
ENDBRANCH  70  73
BRANCH  71  85
ATOM     85  O   UNL A   1      30.700  27.885  21.571  1.00  0.00    -0.391 OA
ATOM     86  H   UNL A   1      30.134  28.673  21.596  1.00  0.00     0.211 HD
ENDBRANCH  71  85
ENDBRANCH  66  68
ENDBRANCH  65  66
ENDBRANCH  64  65
ENDBRANCH   1  64
TORSDOF 19
ENDMDL
MODEL 2
REMARK VINA RESULT:     -10.9      1.311      2.360
REMARK SMILES O=C(OCCOCCOC(=O)[C@H]1C[C@@H](O)CN1C(=O)CCc1ccc(Cl)cc1Cl)c1ccc(-c2c3nc(c(-c4c(F)cccc4F)c4ccc([nH]4)c(-c4c(F)cccc4F)c4nc(c(-c5c(F)cccc5F)c5ccc2[nH]5)C=C4)C=C3)cc1
REMARK SMILES IDX 7 1 6 2 5 3 4 4 3 5 2 6 1 7 30 8 31 9 83 10 32 11 82 12
REMARK SMILES IDX 33 13 34 14 35 15 76 16 36 17 81 18 75 19 77 20 37 21 80 22
REMARK SMILES IDX 74 23 73 24 38 26 64 27 47 28 63 29 48 30 51 31 62 32 78 33
REMARK SMILES IDX 49 34 50 35 61 37 79 38 52 39 39 40 40 41 45 42 41 43 42 44
REMARK SMILES IDX 44 45 46 46 43 47 65 48 66 49 71 50 67 51 68 52 70 53 72 54
REMARK SMILES IDX 69 55 53 56 54 57 59 58 55 59 56 60 58 61 60 62 57 63 8 64
REMARK SMILES IDX 9 65 10 66 11 67 12 68 13 69 17 70 14 71 16 72 18 73 19 74
REMARK SMILES IDX 20 75 21 76 22 77 23 78 28 79 24 80 27 81 29 82 25 83 26 84
REMARK SMILES IDX 15 85
REMARK H PARENT 77 25 51 36 15 86
REMARK Flexibility Score: inf
ROOT
ATOM      1  C   UNL A   1      33.084  29.711  26.273  1.00  0.00     0.202 C 
ENDROOT
BRANCH   1   2
ATOM      2  O   UNL A   1      32.037  30.405  26.957  1.00  0.00    -0.374 OA
BRANCH   2   3
ATOM      3  C   UNL A   1      31.378  31.420  26.213  1.00  0.00     0.202 C 
BRANCH   3   4
ATOM      4  C   UNL A   1      31.742  32.897  26.467  1.00  0.00     0.261 C 
BRANCH   4   5
ATOM      5  O   UNL A   1      31.991  33.231  27.858  1.00  0.00    -0.460 OA
BRANCH   5   6
ATOM      6  C   UNL A   1      32.971  34.091  28.280  1.00  0.00     0.338 C 
ATOM      7  O   UNL A   1      32.797  35.298  28.339  1.00  0.00    -0.246 OA
BRANCH   6   8
ATOM      8  C   UNL A   1      34.279  33.500  28.649  1.00  0.00     0.060 A 
ATOM      9  C   UNL A   1      34.311  32.158  28.958  1.00  0.00     0.016 A 
ATOM     10  C   UNL A   1      35.461  34.226  28.726  1.00  0.00     0.016 A 
ATOM     11  C   UNL A   1      35.322  31.630  29.711  1.00  0.00     0.010 A 
ATOM     12  C   UNL A   1      36.615  33.593  29.221  1.00  0.00     0.010 A 
ATOM     13  C   UNL A   1      36.534  32.298  29.768  1.00  0.00    -0.014 A 
BRANCH  13  14
ATOM     14  C   UNL A   1      37.653  31.578  30.415  1.00  0.00     0.031 A 
ATOM     15  C   UNL A   1      37.867  31.726  31.888  1.00  0.00     0.074 A 
ATOM     16  C   UNL A   1      38.364  30.679  29.695  1.00  0.00     0.049 A 
ATOM     17  N   UNL A   1      38.854  31.291  32.621  1.00  0.00    -0.248 NA
ATOM     18  C   UNL A   1      36.839  32.468  32.640  1.00  0.00     0.031 C 
ATOM     19  C   UNL A   1      38.154  30.366  28.272  1.00  0.00     0.029 A 
ATOM     20  N   UNL A   1      39.356  29.810  30.063  1.00  0.00    -0.354 N 
ATOM     21  C   UNL A   1      38.604  31.761  33.902  1.00  0.00     0.074 A 
ATOM     22  C   UNL A   1      37.366  32.506  33.854  1.00  0.00     0.031 C 
ATOM     23  C   UNL A   1      38.905  29.313  27.927  1.00  0.00     0.029 A 
ATOM     24  C   UNL A   1      39.774  28.987  29.041  1.00  0.00     0.049 A 
ATOM     25  H   UNL A   1      39.736  29.777  30.971  1.00  0.00     0.167 HD
ATOM     26  C   UNL A   1      39.362  31.591  35.009  1.00  0.00     0.037 A 
ATOM     27  C   UNL A   1      40.796  28.115  28.987  1.00  0.00     0.037 A 
ATOM     28  C   UNL A   1      40.571  30.812  35.019  1.00  0.00     0.049 A 
ATOM     29  C   UNL A   1      41.660  28.003  30.207  1.00  0.00     0.074 A 
ATOM     30  C   UNL A   1      41.485  30.635  36.039  1.00  0.00     0.029 A 
ATOM     31  N   UNL A   1      41.018  30.056  33.941  1.00  0.00    -0.354 N 
ATOM     32  N   UNL A   1      41.506  28.572  31.380  1.00  0.00    -0.248 NA
ATOM     33  C   UNL A   1      42.862  27.173  30.088  1.00  0.00     0.031 C 
ATOM     34  C   UNL A   1      42.500  29.793  35.570  1.00  0.00     0.029 A 
ATOM     35  C   UNL A   1      42.196  29.413  34.270  1.00  0.00     0.049 A 
ATOM     36  H   UNL A   1      40.561  29.989  33.071  1.00  0.00     0.167 HD
ATOM     37  C   UNL A   1      42.592  28.174  32.140  1.00  0.00     0.074 A 
ATOM     38  C   UNL A   1      43.376  27.281  31.305  1.00  0.00     0.031 C 
ATOM     39  C   UNL A   1      42.931  28.526  33.404  1.00  0.00     0.037 A 
BRANCH  26  40
ATOM     40  C   UNL A   1      38.937  32.322  36.246  1.00  0.00     0.057 A 
ATOM     41  C   UNL A   1      38.083  31.751  37.198  1.00  0.00     0.134 A 
ATOM     42  C   UNL A   1      39.361  33.639  36.467  1.00  0.00     0.134 A 
ATOM     43  F   UNL A   1      37.613  30.506  37.030  1.00  0.00    -0.206 F 
ATOM     44  C   UNL A   1      37.649  32.471  38.314  1.00  0.00     0.040 A 
ATOM     45  C   UNL A   1      38.951  34.361  37.588  1.00  0.00     0.040 A 
ATOM     46  F   UNL A   1      40.169  34.250  35.589  1.00  0.00    -0.206 F 
ATOM     47  C   UNL A   1      38.086  33.780  38.513  1.00  0.00     0.006 A 
ENDBRANCH  26  40
BRANCH  27  48
ATOM     48  C   UNL A   1      41.119  27.387  27.729  1.00  0.00     0.057 A 
ATOM     49  C   UNL A   1      41.904  27.970  26.727  1.00  0.00     0.134 A 
ATOM     50  C   UNL A   1      40.630  26.096  27.483  1.00  0.00     0.134 A 
ATOM     51  F   UNL A   1      42.388  29.211  26.885  1.00  0.00    -0.206 F 
ATOM     52  C   UNL A   1      42.172  27.308  25.526  1.00  0.00     0.040 A 
ATOM     53  C   UNL A   1      40.920  25.408  26.304  1.00  0.00     0.040 A 
ATOM     54  F   UNL A   1      39.869  25.472  28.395  1.00  0.00    -0.206 F 
ATOM     55  C   UNL A   1      41.685  26.019  25.315  1.00  0.00     0.006 A 
ENDBRANCH  27  48
BRANCH  39  56
ATOM     56  C   UNL A   1      44.183  27.913  33.945  1.00  0.00     0.057 A 
ATOM     57  C   UNL A   1      45.422  28.554  33.831  1.00  0.00     0.134 A 
ATOM     58  C   UNL A   1      44.141  26.674  34.595  1.00  0.00     0.134 A 
ATOM     59  F   UNL A   1      45.523  29.732  33.199  1.00  0.00    -0.206 F 
ATOM     60  C   UNL A   1      46.586  27.970  34.329  1.00  0.00     0.040 A 
ATOM     61  C   UNL A   1      45.294  26.094  35.120  1.00  0.00     0.040 A 
ATOM     62  F   UNL A   1      42.979  26.017  34.735  1.00  0.00    -0.206 F 
ATOM     63  C   UNL A   1      46.522  26.740  34.981  1.00  0.00     0.006 A 
ENDBRANCH  39  56
ENDBRANCH  13  14
ENDBRANCH   6   8
ENDBRANCH   5   6
ENDBRANCH   4   5
ENDBRANCH   3   4
ENDBRANCH   2   3
ENDBRANCH   1   2
BRANCH   1  64
ATOM     64  C   UNL A   1      32.582  29.273  24.904  1.00  0.00     0.261 C 
BRANCH  64  65
ATOM     65  O   UNL A   1      33.705  29.239  24.007  1.00  0.00    -0.462 OA
BRANCH  65  66
ATOM     66  C   UNL A   1      33.633  28.347  22.979  1.00  0.00     0.329 C 
ATOM     67  O   UNL A   1      34.320  28.376  21.964  1.00  0.00    -0.250 OA
BRANCH  66  68
ATOM     68  C   UNL A   1      32.651  27.209  23.291  1.00  0.00     0.197 C 
ATOM     69  C   UNL A   1      31.582  27.106  22.186  1.00  0.00     0.070 C 
ATOM     70  N   UNL A   1      33.265  25.881  23.345  1.00  0.00    -0.326 N 
ATOM     71  C   UNL A   1      31.919  25.846  21.385  1.00  0.00     0.136 C 
ATOM     72  C   UNL A   1      32.710  25.004  22.354  1.00  0.00     0.152 C 
BRANCH  70  73
ATOM     73  C   UNL A   1      34.079  25.499  24.386  1.00  0.00     0.223 C 
ATOM     74  O   UNL A   1      34.088  26.125  25.447  1.00  0.00    -0.275 OA
BRANCH  73  75
ATOM     75  C   UNL A   1      35.087  24.373  24.144  1.00  0.00     0.105 C 
BRANCH  75  76
ATOM     76  C   UNL A   1      34.977  23.091  24.992  1.00  0.00     0.047 C 
BRANCH  76  77
ATOM     77  C   UNL A   1      33.616  22.756  25.586  1.00  0.00    -0.029 A 
ATOM     78  C   UNL A   1      33.374  23.103  26.931  1.00  0.00     0.007 A 
ATOM     79  C   UNL A   1      32.549  22.210  24.844  1.00  0.00     0.045 A 
ATOM     80  C   UNL A   1      32.077  23.081  27.454  1.00  0.00     0.021 A 
ATOM     81  C   UNL A   1      31.248  22.208  25.363  1.00  0.00     0.041 A 
ATOM     82  Cl  UNL A   1      32.754  21.588  23.247  1.00  0.00    -0.084 Cl
ATOM     83  C   UNL A   1      31.015  22.675  26.653  1.00  0.00     0.042 A 
ATOM     84  Cl  UNL A   1      29.406  22.790  27.246  1.00  0.00    -0.084 Cl
ENDBRANCH  76  77
ENDBRANCH  75  76
ENDBRANCH  73  75
ENDBRANCH  70  73
BRANCH  71  85
ATOM     85  O   UNL A   1      32.680  26.063  20.207  1.00  0.00    -0.391 OA
ATOM     86  H   UNL A   1      33.458  26.602  20.420  1.00  0.00     0.211 HD
ENDBRANCH  71  85
ENDBRANCH  66  68
ENDBRANCH  65  66
ENDBRANCH  64  65
ENDBRANCH   1  64
TORSDOF 19
ENDMDL
MODEL 3
REMARK VINA RESULT:     -10.9      2.531      4.294
REMARK SMILES O=C(OCCOCCOC(=O)[C@H]1C[C@@H](O)CN1C(=O)CCc1ccc(Cl)cc1Cl)c1ccc(-c2c3nc(c(-c4c(F)cccc4F)c4ccc([nH]4)c(-c4c(F)cccc4F)c4nc(c(-c5c(F)cccc5F)c5ccc2[nH]5)C=C4)C=C3)cc1
REMARK SMILES IDX 7 1 6 2 5 3 4 4 3 5 2 6 1 7 30 8 31 9 83 10 32 11 82 12
REMARK SMILES IDX 33 13 34 14 35 15 76 16 36 17 81 18 75 19 77 20 37 21 80 22
REMARK SMILES IDX 74 23 73 24 38 26 64 27 47 28 63 29 48 30 51 31 62 32 78 33
REMARK SMILES IDX 49 34 50 35 61 37 79 38 52 39 39 40 40 41 45 42 41 43 42 44
REMARK SMILES IDX 44 45 46 46 43 47 65 48 66 49 71 50 67 51 68 52 70 53 72 54
REMARK SMILES IDX 69 55 53 56 54 57 59 58 55 59 56 60 58 61 60 62 57 63 8 64
REMARK SMILES IDX 9 65 10 66 11 67 12 68 13 69 17 70 14 71 16 72 18 73 19 74
REMARK SMILES IDX 20 75 21 76 22 77 23 78 28 79 24 80 27 81 29 82 25 83 26 84
REMARK SMILES IDX 15 85
REMARK H PARENT 77 25 51 36 15 86
REMARK Flexibility Score: inf
ROOT
ATOM      1  C   UNL A   1      33.688  29.318  26.466  1.00  0.00     0.202 C 
ENDROOT
BRANCH   1   2
ATOM      2  O   UNL A   1      32.827  30.193  27.201  1.00  0.00    -0.374 OA
BRANCH   2   3
ATOM      3  C   UNL A   1      31.903  30.944  26.428  1.00  0.00     0.202 C 
BRANCH   3   4
ATOM      4  C   UNL A   1      31.456  32.333  26.928  1.00  0.00     0.261 C 
BRANCH   4   5
ATOM      5  O   UNL A   1      32.500  33.343  26.930  1.00  0.00    -0.460 OA
BRANCH   5   6
ATOM      6  C   UNL A   1      33.114  33.813  28.061  1.00  0.00     0.338 C 
ATOM      7  O   UNL A   1      32.635  34.711  28.736  1.00  0.00    -0.246 OA
BRANCH   6   8
ATOM      8  C   UNL A   1      34.411  33.201  28.433  1.00  0.00     0.060 A 
ATOM      9  C   UNL A   1      34.392  31.928  28.957  1.00  0.00     0.016 A 
ATOM     10  C   UNL A   1      35.635  33.848  28.309  1.00  0.00     0.016 A 
ATOM     11  C   UNL A   1      35.427  31.460  29.717  1.00  0.00     0.010 A 
ATOM     12  C   UNL A   1      36.786  33.225  28.822  1.00  0.00     0.010 A 
ATOM     13  C   UNL A   1      36.675  32.044  29.580  1.00  0.00    -0.014 A 
BRANCH  13  14
ATOM     14  C   UNL A   1      37.799  31.362  30.260  1.00  0.00     0.031 A 
ATOM     15  C   UNL A   1      37.987  31.548  31.733  1.00  0.00     0.074 A 
ATOM     16  C   UNL A   1      38.539  30.463  29.572  1.00  0.00     0.049 A 
ATOM     17  N   UNL A   1      38.970  31.150  32.491  1.00  0.00    -0.248 NA
ATOM     18  C   UNL A   1      36.932  32.284  32.452  1.00  0.00     0.031 C 
ATOM     19  C   UNL A   1      38.359  30.113  28.154  1.00  0.00     0.029 A 
ATOM     20  N   UNL A   1      39.544  29.623  29.975  1.00  0.00    -0.354 N 
ATOM     21  C   UNL A   1      38.690  31.643  33.757  1.00  0.00     0.074 A 
ATOM     22  C   UNL A   1      37.439  32.361  33.673  1.00  0.00     0.031 C 
ATOM     23  C   UNL A   1      39.136  29.069  27.844  1.00  0.00     0.029 A 
ATOM     24  C   UNL A   1      39.994  28.786  28.978  1.00  0.00     0.049 A 
ATOM     25  H   UNL A   1      39.910  29.618  30.889  1.00  0.00     0.167 HD
ATOM     26  C   UNL A   1      39.435  31.514  34.878  1.00  0.00     0.037 A 
ATOM     27  C   UNL A   1      41.035  27.935  28.960  1.00  0.00     0.037 A 
ATOM     28  C   UNL A   1      40.659  30.762  34.924  1.00  0.00     0.049 A 
ATOM     29  C   UNL A   1      41.882  27.870  30.194  1.00  0.00     0.074 A 
ATOM     30  C   UNL A   1      41.561  30.627  35.962  1.00  0.00     0.029 A 
ATOM     31  N   UNL A   1      41.139  29.991  33.870  1.00  0.00    -0.354 N 
ATOM     32  N   UNL A   1      41.698  28.461  31.352  1.00  0.00    -0.248 NA
ATOM     33  C   UNL A   1      43.103  27.062  30.113  1.00  0.00     0.031 C 
ATOM     34  C   UNL A   1      42.600  29.796  35.527  1.00  0.00     0.029 A 
ATOM     35  C   UNL A   1      42.325  29.380  34.232  1.00  0.00     0.049 A 
ATOM     36  H   UNL A   1      40.697  29.895  32.996  1.00  0.00     0.167 HD
ATOM     37  C   UNL A   1      42.780  28.103  32.137  1.00  0.00     0.074 A 
ATOM     38  C   UNL A   1      43.595  27.209  31.335  1.00  0.00     0.031 C 
ATOM     39  C   UNL A   1      43.092  28.490  33.397  1.00  0.00     0.037 A 
BRANCH  26  40
ATOM     40  C   UNL A   1      38.975  32.263  36.092  1.00  0.00     0.057 A 
ATOM     41  C   UNL A   1      38.134  31.689  37.054  1.00  0.00     0.134 A 
ATOM     42  C   UNL A   1      39.351  33.600  36.279  1.00  0.00     0.134 A 
ATOM     43  F   UNL A   1      37.710  30.423  36.917  1.00  0.00    -0.206 F 
ATOM     44  C   UNL A   1      37.667  32.423  38.147  1.00  0.00     0.040 A 
ATOM     45  C   UNL A   1      38.908  34.338  37.378  1.00  0.00     0.040 A 
ATOM     46  F   UNL A   1      40.144  34.214  35.389  1.00  0.00    -0.206 F 
ATOM     47  C   UNL A   1      38.056  33.752  38.312  1.00  0.00     0.006 A 
ENDBRANCH  26  40
BRANCH  27  48
ATOM     48  C   UNL A   1      41.393  27.187  27.723  1.00  0.00     0.057 A 
ATOM     49  C   UNL A   1      42.168  27.770  26.713  1.00  0.00     0.134 A 
ATOM     50  C   UNL A   1      40.949  25.874  27.506  1.00  0.00     0.134 A 
ATOM     51  F   UNL A   1      42.609  29.029  26.842  1.00  0.00    -0.206 F 
ATOM     52  C   UNL A   1      42.468  27.086  25.531  1.00  0.00     0.040 A 
ATOM     53  C   UNL A   1      41.272  25.166  26.348  1.00  0.00     0.040 A 
ATOM     54  F   UNL A   1      40.201  25.249  28.428  1.00  0.00    -0.206 F 
ATOM     55  C   UNL A   1      42.025  25.777  25.350  1.00  0.00     0.006 A 
ENDBRANCH  27  48
BRANCH  39  56
ATOM     56  C   UNL A   1      44.347  27.916  33.971  1.00  0.00     0.057 A 
ATOM     57  C   UNL A   1      45.577  28.575  33.852  1.00  0.00     0.134 A 
ATOM     58  C   UNL A   1      44.319  26.698  34.659  1.00  0.00     0.134 A 
ATOM     59  F   UNL A   1      45.665  29.735  33.185  1.00  0.00    -0.206 F 
ATOM     60  C   UNL A   1      46.744  28.027  34.380  1.00  0.00     0.040 A 
ATOM     61  C   UNL A   1      45.475  26.154  35.214  1.00  0.00     0.040 A 
ATOM     62  F   UNL A   1      43.168  26.025  34.806  1.00  0.00    -0.206 F 
ATOM     63  C   UNL A   1      46.694  26.816  35.070  1.00  0.00     0.006 A 
ENDBRANCH  39  56
ENDBRANCH  13  14
ENDBRANCH   6   8
ENDBRANCH   5   6
ENDBRANCH   4   5
ENDBRANCH   3   4
ENDBRANCH   2   3
ENDBRANCH   1   2
BRANCH   1  64
ATOM     64  C   UNL A   1      32.842  28.417  25.575  1.00  0.00     0.261 C 
BRANCH  64  65
ATOM     65  O   UNL A   1      33.167  27.053  25.886  1.00  0.00    -0.462 OA
BRANCH  65  66
ATOM     66  C   UNL A   1      32.139  26.266  26.311  1.00  0.00     0.329 C 
ATOM     67  O   UNL A   1      31.137  26.660  26.897  1.00  0.00    -0.250 OA
BRANCH  66  68
ATOM     68  C   UNL A   1      32.325  24.809  25.864  1.00  0.00     0.197 C 
ATOM     69  C   UNL A   1      31.948  23.846  27.005  1.00  0.00     0.070 C 
ATOM     70  N   UNL A   1      31.477  24.410  24.740  1.00  0.00    -0.326 N 
ATOM     71  C   UNL A   1      30.614  23.212  26.604  1.00  0.00     0.136 C 
ATOM     72  C   UNL A   1      30.592  23.339  25.102  1.00  0.00     0.152 C 
BRANCH  70  73
ATOM     73  C   UNL A   1      31.706  24.859  23.460  1.00  0.00     0.223 C 
ATOM     74  O   UNL A   1      32.393  24.206  22.673  1.00  0.00    -0.275 OA
BRANCH  73  75
ATOM     75  C   UNL A   1      31.218  26.260  23.083  1.00  0.00     0.105 C 
BRANCH  75  76
ATOM     76  C   UNL A   1      29.814  26.699  23.539  1.00  0.00     0.047 C 
BRANCH  76  77
ATOM     77  C   UNL A   1      29.322  28.065  23.081  1.00  0.00    -0.029 A 
ATOM     78  C   UNL A   1      30.256  28.949  22.505  1.00  0.00     0.007 A 
ATOM     79  C   UNL A   1      27.969  28.461  23.106  1.00  0.00     0.045 A 
ATOM     80  C   UNL A   1      29.833  30.091  21.818  1.00  0.00     0.021 A 
ATOM     81  C   UNL A   1      27.545  29.594  22.400  1.00  0.00     0.041 A 
ATOM     82  Cl  UNL A   1      26.754  27.552  23.930  1.00  0.00    -0.084 Cl
ATOM     83  C   UNL A   1      28.476  30.383  21.732  1.00  0.00     0.042 A 
ATOM     84  Cl  UNL A   1      27.946  31.701  20.764  1.00  0.00    -0.084 Cl
ENDBRANCH  76  77
ENDBRANCH  75  76
ENDBRANCH  73  75
ENDBRANCH  70  73
BRANCH  71  85
ATOM     85  O   UNL A   1      29.461  23.831  27.153  1.00  0.00    -0.391 OA
ATOM     86  H   UNL A   1      28.679  23.568  26.644  1.00  0.00     0.211 HD
ENDBRANCH  71  85
ENDBRANCH  66  68
ENDBRANCH  65  66
ENDBRANCH  64  65
ENDBRANCH   1  64
TORSDOF 19
ENDMDL
