MODEL 1
REMARK VINA RESULT:     -11.2      0.000      0.000
REMARK SMILES C[C@H](NC(=O)OCc1ccccc1)C(=O)NCC(=O)N1CCC[C@H]1C(=O)OCCOCCOC(=O)c1ccc(-c2c3nc(c(-c4c(F)cccc4F)c4ccc([nH]4)c(-c4c(F)cccc4F)c4nc(c(-c5c(F)cccc5F)c5ccc2[nH]5)C=C4)C=C3)cc1
REMARK SMILES IDX 27 1 25 2 26 3 24 4 20 5 21 6 22 7 23 8 18 9 19 10 17 11
REMARK SMILES IDX 16 12 14 13 15 14 2 16 1 17 3 18 4 19 5 21 6 22 7 23 8 24
REMARK SMILES IDX 9 25 13 26 10 27 12 28 11 29 28 30 29 31 30 32 31 33 32 34
REMARK SMILES IDX 33 35 34 36 35 37 36 38 37 39 89 40 38 41 88 42 39 43 40 44
REMARK SMILES IDX 41 45 82 46 42 47 87 48 81 49 83 50 43 51 86 52 80 53 79 54
REMARK SMILES IDX 44 56 70 57 53 58 69 59 54 60 57 61 68 62 84 63 55 64 56 65
REMARK SMILES IDX 67 67 85 68 58 69 45 70 46 71 51 72 47 73 48 74 50 75 52 76
REMARK SMILES IDX 49 77 71 78 72 79 77 80 73 81 74 82 76 83 78 84 75 85 59 86
REMARK SMILES IDX 60 87 65 88 61 89 62 90 64 91 66 92 63 93
REMARK H PARENT 16 15 3 20 83 55 57 66
REMARK Flexibility Score: inf
ROOT
ATOM      1  O   UNL A   1      39.955  20.959  25.717  1.00  0.00    -0.462 OA
ENDROOT
BRANCH   1   2
ATOM      2  C   UNL A   1      39.122  21.988  26.064  1.00  0.00     0.328 C 
ATOM      3  O   UNL A   1      39.245  22.660  27.082  1.00  0.00    -0.250 OA
BRANCH   2   4
ATOM      4  C   UNL A   1      37.883  22.059  25.155  1.00  0.00     0.195 C 
ATOM      5  N   UNL A   1      36.761  21.125  25.399  1.00  0.00    -0.327 N 
ATOM      6  C   UNL A   1      35.632  21.835  25.970  1.00  0.00     0.120 C 
ATOM      7  C   UNL A   1      35.761  23.225  25.373  1.00  0.00     0.024 C 
ATOM      8  C   UNL A   1      37.265  23.459  25.322  1.00  0.00     0.039 C 
BRANCH   5   9
ATOM      9  C   UNL A   1      36.888  19.828  24.958  1.00  0.00     0.242 C 
ATOM     10  O   UNL A   1      37.987  19.433  24.545  1.00  0.00    -0.273 OA
BRANCH   9  11
ATOM     11  C   UNL A   1      35.704  18.837  24.858  1.00  0.00     0.216 C 
BRANCH  11  12
ATOM     12  N   UNL A   1      35.822  17.408  25.093  1.00  0.00    -0.345 N 
ATOM     13  C   UNL A   1      34.862  16.432  25.105  1.00  0.00     0.242 C 
ATOM     14  O   UNL A   1      35.251  15.261  25.110  1.00  0.00    -0.273 OA
ATOM     15  H   UNL A   1      36.736  17.091  25.272  1.00  0.00     0.164 HD
BRANCH  13  16
ATOM     16  C   UNL A   1      33.359  16.770  24.991  1.00  0.00     0.171 C 
ATOM     17  C   UNL A   1      32.530  15.742  25.758  1.00  0.00     0.042 C 
BRANCH  16  18
ATOM     18  N   UNL A   1      33.000  16.900  23.586  1.00  0.00    -0.310 N 
ATOM     19  C   UNL A   1      32.612  18.000  22.898  1.00  0.00     0.408 C 
ATOM     20  H   UNL A   1      33.046  16.069  23.060  1.00  0.00     0.167 HD
ATOM     21  O   UNL A   1      32.325  17.910  21.710  1.00  0.00    -0.225 OA
BRANCH  19  22
ATOM     22  O   UNL A   1      32.548  19.114  23.656  1.00  0.00    -0.445 OA
BRANCH  22  23
ATOM     23  C   UNL A   1      32.223  20.308  22.934  1.00  0.00     0.270 C 
BRANCH  23  24
ATOM     24  C   UNL A   1      32.171  21.521  23.826  1.00  0.00    -0.011 A 
ATOM     25  C   UNL A   1      32.464  22.796  23.324  1.00  0.00     0.007 A 
ATOM     26  C   UNL A   1      31.837  21.383  25.180  1.00  0.00     0.007 A 
ATOM     27  C   UNL A   1      32.420  23.912  24.162  1.00  0.00     0.000 A 
ATOM     28  C   UNL A   1      31.796  22.498  26.017  1.00  0.00     0.000 A 
ATOM     29  C   UNL A   1      32.088  23.762  25.508  1.00  0.00     0.000 A 
ENDBRANCH  23  24
ENDBRANCH  22  23
ENDBRANCH  19  22
ENDBRANCH  16  18
ENDBRANCH  13  16
ENDBRANCH  11  12
ENDBRANCH   9  11
ENDBRANCH   5   9
ENDBRANCH   2   4
ENDBRANCH   1   2
BRANCH   1  30
ATOM     30  C   UNL A   1      40.918  20.578  26.717  1.00  0.00     0.261 C 
BRANCH  30  31
ATOM     31  C   UNL A   1      41.853  19.487  26.195  1.00  0.00     0.202 C 
BRANCH  31  32
ATOM     32  O   UNL A   1      43.255  19.730  26.271  1.00  0.00    -0.374 OA
BRANCH  32  33
ATOM     33  C   UNL A   1      43.885  20.350  25.154  1.00  0.00     0.202 C 
BRANCH  33  34
ATOM     34  C   UNL A   1      44.470  21.755  25.357  1.00  0.00     0.261 C 
BRANCH  34  35
ATOM     35  O   UNL A   1      43.544  22.821  25.087  1.00  0.00    -0.460 OA
BRANCH  35  36
ATOM     36  C   UNL A   1      44.108  24.054  25.119  1.00  0.00     0.338 C 
ATOM     37  O   UNL A   1      45.081  24.439  24.491  1.00  0.00    -0.246 OA
BRANCH  36  38
ATOM     38  C   UNL A   1      43.290  24.979  25.924  1.00  0.00     0.060 A 
ATOM     39  C   UNL A   1      43.769  26.285  26.083  1.00  0.00     0.016 A 
ATOM     40  C   UNL A   1      42.152  24.548  26.606  1.00  0.00     0.016 A 
ATOM     41  C   UNL A   1      43.154  27.147  26.985  1.00  0.00     0.010 A 
ATOM     42  C   UNL A   1      41.536  25.415  27.515  1.00  0.00     0.010 A 
ATOM     43  C   UNL A   1      42.068  26.698  27.746  1.00  0.00    -0.014 A 
BRANCH  43  44
ATOM     44  C   UNL A   1      41.616  27.510  28.901  1.00  0.00     0.031 A 
ATOM     45  C   UNL A   1      42.375  27.413  30.198  1.00  0.00     0.074 A 
ATOM     46  C   UNL A   1      40.585  28.364  28.781  1.00  0.00     0.049 A 
ATOM     47  N   UNL A   1      42.156  28.020  31.337  1.00  0.00    -0.248 NA
ATOM     48  C   UNL A   1      43.535  26.507  30.214  1.00  0.00     0.031 C 
ATOM     49  C   UNL A   1      39.804  28.577  27.564  1.00  0.00     0.029 A 
ATOM     50  N   UNL A   1      40.019  29.211  29.699  1.00  0.00    -0.354 N 
ATOM     51  C   UNL A   1      43.141  27.562  32.204  1.00  0.00     0.074 A 
ATOM     52  C   UNL A   1      43.936  26.599  31.472  1.00  0.00     0.031 C 
ATOM     53  C   UNL A   1      38.855  29.496  27.812  1.00  0.00     0.029 A 
ATOM     54  C   UNL A   1      38.942  29.907  29.212  1.00  0.00     0.049 A 
ATOM     55  H   UNL A   1      40.355  29.311  30.619  1.00  0.00     0.167 HD
ATOM     56  C   UNL A   1      43.370  27.920  33.490  1.00  0.00     0.037 A 
ATOM     57  C   UNL A   1      38.107  30.764  29.833  1.00  0.00     0.037 A 
ATOM     58  C   UNL A   1      42.579  28.884  34.210  1.00  0.00     0.049 A 
ATOM     59  C   UNL A   1      38.344  31.098  31.282  1.00  0.00     0.074 A 
ATOM     60  C   UNL A   1      42.738  29.332  35.509  1.00  0.00     0.029 A 
ATOM     61  N   UNL A   1      41.475  29.544  33.691  1.00  0.00    -0.354 N 
ATOM     62  N   UNL A   1      39.289  30.676  32.088  1.00  0.00    -0.248 NA
ATOM     63  C   UNL A   1      37.400  32.035  31.908  1.00  0.00     0.031 C 
ATOM     64  C   UNL A   1      41.694  30.216  35.796  1.00  0.00     0.029 A 
ATOM     65  C   UNL A   1      40.926  30.375  34.654  1.00  0.00     0.049 A 
ATOM     66  H   UNL A   1      41.132  29.438  32.774  1.00  0.00     0.167 HD
ATOM     67  C   UNL A   1      39.076  31.322  33.300  1.00  0.00     0.074 A 
ATOM     68  C   UNL A   1      37.919  32.172  33.119  1.00  0.00     0.031 C 
ATOM     69  C   UNL A   1      39.778  31.224  34.456  1.00  0.00     0.037 A 
BRANCH  56  70
ATOM     70  C   UNL A   1      44.501  27.242  34.211  1.00  0.00     0.057 A 
ATOM     71  C   UNL A   1      44.333  26.026  34.886  1.00  0.00     0.134 A 
ATOM     72  C   UNL A   1      45.786  27.801  34.203  1.00  0.00     0.134 A 
ATOM     73  F   UNL A   1      43.127  25.441  34.945  1.00  0.00    -0.206 F 
ATOM     74  C   UNL A   1      45.394  25.405  35.548  1.00  0.00     0.040 A 
ATOM     75  C   UNL A   1      46.861  27.175  34.835  1.00  0.00     0.040 A 
ATOM     76  F   UNL A   1      46.019  28.962  33.573  1.00  0.00    -0.206 F 
ATOM     77  C   UNL A   1      46.665  25.976  35.517  1.00  0.00     0.006 A 
ENDBRANCH  56  70
BRANCH  57  78
ATOM     78  C   UNL A   1      36.967  31.361  29.092  1.00  0.00     0.057 A 
ATOM     79  C   UNL A   1      37.006  32.683  28.634  1.00  0.00     0.134 A 
ATOM     80  C   UNL A   1      35.800  30.628  28.841  1.00  0.00     0.134 A 
ATOM     81  F   UNL A   1      38.087  33.444  28.861  1.00  0.00    -0.206 F 
ATOM     82  C   UNL A   1      35.921  33.262  27.975  1.00  0.00     0.040 A 
ATOM     83  C   UNL A   1      34.718  31.183  28.156  1.00  0.00     0.040 A 
ATOM     84  F   UNL A   1      35.699  29.354  29.249  1.00  0.00    -0.206 F 
ATOM     85  C   UNL A   1      34.774  32.509  27.729  1.00  0.00     0.006 A 
ENDBRANCH  57  78
BRANCH  69  86
ATOM     86  C   UNL A   1      39.348  32.098  35.600  1.00  0.00     0.057 A 
ATOM     87  C   UNL A   1      38.466  31.651  36.592  1.00  0.00     0.134 A 
ATOM     88  C   UNL A   1      39.855  33.399  35.728  1.00  0.00     0.134 A 
ATOM     89  F   UNL A   1      37.937  30.420  36.527  1.00  0.00    -0.206 F 
ATOM     90  C   UNL A   1      38.079  32.476  37.651  1.00  0.00     0.040 A 
ATOM     91  C   UNL A   1      39.500  34.221  36.797  1.00  0.00     0.040 A 
ATOM     92  F   UNL A   1      40.714  33.888  34.820  1.00  0.00    -0.206 F 
ATOM     93  C   UNL A   1      38.602  33.762  37.758  1.00  0.00     0.006 A 
ENDBRANCH  69  86
ENDBRANCH  43  44
ENDBRANCH  36  38
ENDBRANCH  35  36
ENDBRANCH  34  35
ENDBRANCH  33  34
ENDBRANCH  32  33
ENDBRANCH  31  32
ENDBRANCH  30  31
ENDBRANCH   1  30
TORSDOF 22
ENDMDL
MODEL 2
REMARK VINA RESULT:     -10.9      2.643      4.391
REMARK SMILES C[C@H](NC(=O)OCc1ccccc1)C(=O)NCC(=O)N1CCC[C@H]1C(=O)OCCOCCOC(=O)c1ccc(-c2c3nc(c(-c4c(F)cccc4F)c4ccc([nH]4)c(-c4c(F)cccc4F)c4nc(c(-c5c(F)cccc5F)c5ccc2[nH]5)C=C4)C=C3)cc1
REMARK SMILES IDX 27 1 25 2 26 3 24 4 20 5 21 6 22 7 23 8 18 9 19 10 17 11
REMARK SMILES IDX 16 12 14 13 15 14 2 16 1 17 3 18 4 19 5 21 6 22 7 23 8 24
REMARK SMILES IDX 9 25 13 26 10 27 12 28 11 29 28 30 29 31 30 32 31 33 32 34
REMARK SMILES IDX 33 35 34 36 35 37 36 38 37 39 89 40 38 41 88 42 39 43 40 44
REMARK SMILES IDX 41 45 82 46 42 47 87 48 81 49 83 50 43 51 86 52 80 53 79 54
REMARK SMILES IDX 44 56 70 57 53 58 69 59 54 60 57 61 68 62 84 63 55 64 56 65
REMARK SMILES IDX 67 67 85 68 58 69 45 70 46 71 51 72 47 73 48 74 50 75 52 76
REMARK SMILES IDX 49 77 71 78 72 79 77 80 73 81 74 82 76 83 78 84 75 85 59 86
REMARK SMILES IDX 60 87 65 88 61 89 62 90 64 91 66 92 63 93
REMARK H PARENT 16 15 3 20 83 55 57 66
REMARK Flexibility Score: inf
ROOT
ATOM      1  O   UNL A   1      38.023  21.562  25.159  1.00  0.00    -0.462 OA
ENDROOT
BRANCH   1   2
ATOM      2  C   UNL A   1      36.731  21.132  25.294  1.00  0.00     0.328 C 
ATOM      3  O   UNL A   1      36.334  20.024  24.952  1.00  0.00    -0.250 OA
BRANCH   2   4
ATOM      4  C   UNL A   1      35.785  22.271  25.711  1.00  0.00     0.195 C 
ATOM      5  N   UNL A   1      34.679  22.653  24.802  1.00  0.00    -0.327 N 
ATOM      6  C   UNL A   1      33.408  22.215  25.346  1.00  0.00     0.120 C 
ATOM      7  C   UNL A   1      33.635  22.277  26.846  1.00  0.00     0.024 C 
ATOM      8  C   UNL A   1      35.084  21.840  27.012  1.00  0.00     0.039 C 
BRANCH   5   9
ATOM      9  C   UNL A   1      34.978  23.433  23.709  1.00  0.00     0.242 C 
ATOM     10  O   UNL A   1      36.010  23.204  23.064  1.00  0.00    -0.273 OA
BRANCH   9  11
ATOM     11  C   UNL A   1      34.139  24.658  23.275  1.00  0.00     0.216 C 
BRANCH  11  12
ATOM     12  N   UNL A   1      33.566  24.821  21.951  1.00  0.00    -0.345 N 
ATOM     13  C   UNL A   1      32.482  25.549  21.540  1.00  0.00     0.242 C 
ATOM     14  O   UNL A   1      32.333  25.698  20.324  1.00  0.00    -0.273 OA
ATOM     15  H   UNL A   1      34.029  24.329  21.235  1.00  0.00     0.164 HD
BRANCH  13  16
ATOM     16  C   UNL A   1      31.551  26.260  22.547  1.00  0.00     0.171 C 
ATOM     17  C   UNL A   1      30.625  25.246  23.214  1.00  0.00     0.042 C 
BRANCH  16  18
ATOM     18  N   UNL A   1      30.860  27.351  21.876  1.00  0.00    -0.310 N 
ATOM     19  C   UNL A   1      30.194  28.403  22.409  1.00  0.00     0.408 C 
ATOM     20  H   UNL A   1      30.878  27.319  20.892  1.00  0.00     0.167 HD
ATOM     21  O   UNL A   1      29.649  29.219  21.675  1.00  0.00    -0.225 OA
BRANCH  19  22
ATOM     22  O   UNL A   1      30.180  28.402  23.758  1.00  0.00    -0.445 OA
BRANCH  22  23
ATOM     23  C   UNL A   1      30.853  29.513  24.361  1.00  0.00     0.270 C 
BRANCH  23  24
ATOM     24  C   UNL A   1      31.940  29.078  25.310  1.00  0.00    -0.011 A 
ATOM     25  C   UNL A   1      31.655  28.807  26.655  1.00  0.00     0.007 A 
ATOM     26  C   UNL A   1      33.259  28.950  24.854  1.00  0.00     0.007 A 
ATOM     27  C   UNL A   1      32.673  28.413  27.526  1.00  0.00     0.000 A 
ATOM     28  C   UNL A   1      34.275  28.558  25.726  1.00  0.00     0.000 A 
ATOM     29  C   UNL A   1      33.982  28.291  27.061  1.00  0.00     0.000 A 
ENDBRANCH  23  24
ENDBRANCH  22  23
ENDBRANCH  19  22
ENDBRANCH  16  18
ENDBRANCH  13  16
ENDBRANCH  11  12
ENDBRANCH   9  11
ENDBRANCH   5   9
ENDBRANCH   2   4
ENDBRANCH   1   2
BRANCH   1  30
ATOM     30  C   UNL A   1      38.469  22.502  26.154  1.00  0.00     0.261 C 
BRANCH  30  31
ATOM     31  C   UNL A   1      39.844  22.116  26.699  1.00  0.00     0.202 C 
BRANCH  31  32
ATOM     32  O   UNL A   1      40.765  21.510  25.795  1.00  0.00    -0.374 OA
BRANCH  32  33
ATOM     33  C   UNL A   1      42.087  21.257  26.260  1.00  0.00     0.202 C 
BRANCH  33  34
ATOM     34  C   UNL A   1      43.249  21.879  25.474  1.00  0.00     0.261 C 
BRANCH  34  35
ATOM     35  O   UNL A   1      42.894  23.066  24.744  1.00  0.00    -0.460 OA
BRANCH  35  36
ATOM     36  C   UNL A   1      43.695  24.128  25.007  1.00  0.00     0.338 C 
ATOM     37  O   UNL A   1      44.811  24.342  24.562  1.00  0.00    -0.246 OA
BRANCH  36  38
ATOM     38  C   UNL A   1      42.979  25.130  25.818  1.00  0.00     0.060 A 
ATOM     39  C   UNL A   1      43.673  26.301  26.147  1.00  0.00     0.016 A 
ATOM     40  C   UNL A   1      41.712  24.878  26.345  1.00  0.00     0.016 A 
ATOM     41  C   UNL A   1      43.133  27.195  27.066  1.00  0.00     0.010 A 
ATOM     42  C   UNL A   1      41.172  25.776  27.272  1.00  0.00     0.010 A 
ATOM     43  C   UNL A   1      41.905  26.909  27.675  1.00  0.00    -0.014 A 
BRANCH  43  44
ATOM     44  C   UNL A   1      41.487  27.702  28.856  1.00  0.00     0.031 A 
ATOM     45  C   UNL A   1      42.261  27.557  30.139  1.00  0.00     0.074 A 
ATOM     46  C   UNL A   1      40.474  28.580  28.771  1.00  0.00     0.049 A 
ATOM     47  N   UNL A   1      42.071  28.140  31.295  1.00  0.00    -0.248 NA
ATOM     48  C   UNL A   1      43.401  26.626  30.116  1.00  0.00     0.031 C 
ATOM     49  C   UNL A   1      39.681  28.841  27.571  1.00  0.00     0.029 A 
ATOM     50  N   UNL A   1      39.939  29.417  29.718  1.00  0.00    -0.354 N 
ATOM     51  C   UNL A   1      43.058  27.639  32.137  1.00  0.00     0.074 A 
ATOM     52  C   UNL A   1      43.821  26.678  31.371  1.00  0.00     0.031 C 
ATOM     53  C   UNL A   1      38.755  29.774  27.855  1.00  0.00     0.029 A 
ATOM     54  C   UNL A   1      38.871  30.148  29.263  1.00  0.00     0.049 A 
ATOM     55  H   UNL A   1      40.289  29.487  30.635  1.00  0.00     0.167 HD
ATOM     56  C   UNL A   1      43.312  27.961  33.428  1.00  0.00     0.037 A 
ATOM     57  C   UNL A   1      38.064  31.007  29.916  1.00  0.00     0.037 A 
ATOM     58  C   UNL A   1      42.553  28.923  34.182  1.00  0.00     0.049 A 
ATOM     59  C   UNL A   1      38.328  31.300  31.370  1.00  0.00     0.074 A 
ATOM     60  C   UNL A   1      42.740  29.335  35.490  1.00  0.00     0.029 A 
ATOM     61  N   UNL A   1      41.456  29.620  33.695  1.00  0.00    -0.354 N 
ATOM     62  N   UNL A   1      39.274  30.838  32.151  1.00  0.00    -0.248 NA
ATOM     63  C   UNL A   1      37.413  32.242  32.031  1.00  0.00     0.031 C 
ATOM     64  C   UNL A   1      41.720  30.235  35.813  1.00  0.00     0.029 A 
ATOM     65  C   UNL A   1      40.940  30.439  34.686  1.00  0.00     0.049 A 
ATOM     66  H   UNL A   1      41.099  29.544  32.781  1.00  0.00     0.167 HD
ATOM     67  C   UNL A   1      39.092  31.459  33.381  1.00  0.00     0.074 A 
ATOM     68  C   UNL A   1      37.952  32.338  33.238  1.00  0.00     0.031 C 
ATOM     69  C   UNL A   1      39.808  31.317  34.525  1.00  0.00     0.037 A 
BRANCH  56  70
ATOM     70  C   UNL A   1      44.438  27.241  34.116  1.00  0.00     0.057 A 
ATOM     71  C   UNL A   1      45.743  27.750  34.142  1.00  0.00     0.134 A 
ATOM     72  C   UNL A   1      44.205  26.034  34.788  1.00  0.00     0.134 A 
ATOM     73  F   UNL A   1      46.041  28.893  33.507  1.00  0.00    -0.206 F 
ATOM     74  C   UNL A   1      46.779  27.072  34.788  1.00  0.00     0.040 A 
ATOM     75  C   UNL A   1      45.225  25.362  35.464  1.00  0.00     0.040 A 
ATOM     76  F   UNL A   1      42.978  25.491  34.807  1.00  0.00    -0.206 F 
ATOM     77  C   UNL A   1      46.519  25.878  35.459  1.00  0.00     0.006 A 
ENDBRANCH  56  70
BRANCH  57  78
ATOM     78  C   UNL A   1      36.927  31.647  29.207  1.00  0.00     0.057 A 
ATOM     79  C   UNL A   1      35.730  30.960  28.977  1.00  0.00     0.134 A 
ATOM     80  C   UNL A   1      37.018  32.959  28.724  1.00  0.00     0.134 A 
ATOM     81  F   UNL A   1      35.587  29.694  29.396  1.00  0.00    -0.206 F 
ATOM     82  C   UNL A   1      34.674  31.543  28.274  1.00  0.00     0.040 A 
ATOM     83  C   UNL A   1      35.960  33.566  28.046  1.00  0.00     0.040 A 
ATOM     84  F   UNL A   1      38.136  33.675  28.915  1.00  0.00    -0.206 F 
ATOM     85  C   UNL A   1      34.786  32.852  27.811  1.00  0.00     0.006 A 
ENDBRANCH  57  78
BRANCH  69  86
ATOM     86  C   UNL A   1      39.412  32.172  35.696  1.00  0.00     0.057 A 
ATOM     87  C   UNL A   1      39.940  33.454  35.898  1.00  0.00     0.134 A 
ATOM     88  C   UNL A   1      38.459  31.715  36.617  1.00  0.00     0.134 A 
ATOM     89  F   UNL A   1      40.862  33.949  35.060  1.00  0.00    -0.206 F 
ATOM     90  C   UNL A   1      39.558  34.236  36.990  1.00  0.00     0.040 A 
ATOM     91  C   UNL A   1      38.047  32.500  37.694  1.00  0.00     0.040 A 
ATOM     92  F   UNL A   1      37.904  30.502  36.478  1.00  0.00    -0.206 F 
ATOM     93  C   UNL A   1      38.604  33.762  37.888  1.00  0.00     0.006 A 
ENDBRANCH  69  86
ENDBRANCH  43  44
ENDBRANCH  36  38
ENDBRANCH  35  36
ENDBRANCH  34  35
ENDBRANCH  33  34
ENDBRANCH  32  33
ENDBRANCH  31  32
ENDBRANCH  30  31
ENDBRANCH   1  30
TORSDOF 22
ENDMDL
MODEL 3
REMARK VINA RESULT:     -10.6      4.021      6.869
REMARK SMILES C[C@H](NC(=O)OCc1ccccc1)C(=O)NCC(=O)N1CCC[C@H]1C(=O)OCCOCCOC(=O)c1ccc(-c2c3nc(c(-c4c(F)cccc4F)c4ccc([nH]4)c(-c4c(F)cccc4F)c4nc(c(-c5c(F)cccc5F)c5ccc2[nH]5)C=C4)C=C3)cc1
REMARK SMILES IDX 27 1 25 2 26 3 24 4 20 5 21 6 22 7 23 8 18 9 19 10 17 11
REMARK SMILES IDX 16 12 14 13 15 14 2 16 1 17 3 18 4 19 5 21 6 22 7 23 8 24
REMARK SMILES IDX 9 25 13 26 10 27 12 28 11 29 28 30 29 31 30 32 31 33 32 34
REMARK SMILES IDX 33 35 34 36 35 37 36 38 37 39 89 40 38 41 88 42 39 43 40 44
REMARK SMILES IDX 41 45 82 46 42 47 87 48 81 49 83 50 43 51 86 52 80 53 79 54
REMARK SMILES IDX 44 56 70 57 53 58 69 59 54 60 57 61 68 62 84 63 55 64 56 65
REMARK SMILES IDX 67 67 85 68 58 69 45 70 46 71 51 72 47 73 48 74 50 75 52 76
REMARK SMILES IDX 49 77 71 78 72 79 77 80 73 81 74 82 76 83 78 84 75 85 59 86
REMARK SMILES IDX 60 87 65 88 61 89 62 90 64 91 66 92 63 93
REMARK H PARENT 16 15 3 20 83 55 57 66
REMARK Flexibility Score: inf
ROOT
ATOM      1  O   UNL A   1      33.471  25.923  26.209  1.00  0.00    -0.462 OA
ENDROOT
BRANCH   1   2
ATOM      2  C   UNL A   1      33.136  27.196  25.836  1.00  0.00     0.328 C 
ATOM      3  O   UNL A   1      33.095  28.150  26.605  1.00  0.00    -0.250 OA
BRANCH   2   4
ATOM      4  C   UNL A   1      32.595  27.253  24.397  1.00  0.00     0.195 C 
ATOM      5  N   UNL A   1      31.172  26.921  24.153  1.00  0.00    -0.327 N 
ATOM      6  C   UNL A   1      30.425  28.123  23.835  1.00  0.00     0.120 C 
ATOM      7  C   UNL A   1      31.456  28.999  23.147  1.00  0.00     0.024 C 
ATOM      8  C   UNL A   1      32.744  28.702  23.901  1.00  0.00     0.039 C 
BRANCH   5   9
ATOM      9  C   UNL A   1      30.810  25.595  24.133  1.00  0.00     0.242 C 
ATOM     10  O   UNL A   1      30.351  25.075  25.160  1.00  0.00    -0.273 OA
BRANCH   9  11
ATOM     11  C   UNL A   1      31.023  24.666  22.914  1.00  0.00     0.216 C 
BRANCH  11  12
ATOM     12  N   UNL A   1      32.310  24.443  22.280  1.00  0.00    -0.345 N 
ATOM     13  C   UNL A   1      33.094  23.322  22.239  1.00  0.00     0.242 C 
ATOM     14  O   UNL A   1      34.040  23.326  21.447  1.00  0.00    -0.273 OA
ATOM     15  H   UNL A   1      32.679  25.223  21.805  1.00  0.00     0.164 HD
BRANCH  13  16
ATOM     16  C   UNL A   1      32.744  22.056  23.052  1.00  0.00     0.171 C 
ATOM     17  C   UNL A   1      31.774  21.177  22.266  1.00  0.00     0.042 C 
BRANCH  16  18
ATOM     18  N   UNL A   1      32.263  22.449  24.369  1.00  0.00    -0.310 N 
ATOM     19  C   UNL A   1      31.796  21.675  25.378  1.00  0.00     0.408 C 
ATOM     20  H   UNL A   1      32.279  23.416  24.553  1.00  0.00     0.167 HD
ATOM     21  O   UNL A   1      31.411  22.193  26.419  1.00  0.00    -0.225 OA
BRANCH  19  22
ATOM     22  O   UNL A   1      31.777  20.359  25.082  1.00  0.00    -0.445 OA
BRANCH  22  23
ATOM     23  C   UNL A   1      32.660  19.557  25.875  1.00  0.00     0.270 C 
BRANCH  23  24
ATOM     24  C   UNL A   1      33.099  18.307  25.157  1.00  0.00    -0.011 A 
ATOM     25  C   UNL A   1      33.630  18.370  23.862  1.00  0.00     0.007 A 
ATOM     26  C   UNL A   1      32.970  17.058  25.780  1.00  0.00     0.007 A 
ATOM     27  C   UNL A   1      34.026  17.203  23.205  1.00  0.00     0.000 A 
ATOM     28  C   UNL A   1      33.364  15.894  25.121  1.00  0.00     0.000 A 
ATOM     29  C   UNL A   1      33.891  15.966  23.834  1.00  0.00     0.000 A 
ENDBRANCH  23  24
ENDBRANCH  22  23
ENDBRANCH  19  22
ENDBRANCH  16  18
ENDBRANCH  13  16
ENDBRANCH  11  12
ENDBRANCH   9  11
ENDBRANCH   5   9
ENDBRANCH   2   4
ENDBRANCH   1   2
BRANCH   1  30
ATOM     30  C   UNL A   1      34.273  25.192  25.263  1.00  0.00     0.261 C 
BRANCH  30  31
ATOM     31  C   UNL A   1      34.941  23.985  25.921  1.00  0.00     0.202 C 
BRANCH  31  32
ATOM     32  O   UNL A   1      35.398  22.939  25.068  1.00  0.00    -0.374 OA
BRANCH  32  33
ATOM     33  C   UNL A   1      35.542  21.638  25.628  1.00  0.00     0.202 C 
BRANCH  33  34
ATOM     34  C   UNL A   1      36.712  20.776  25.134  1.00  0.00     0.261 C 
BRANCH  34  35
ATOM     35  O   UNL A   1      37.921  21.514  24.888  1.00  0.00    -0.460 OA
BRANCH  35  36
ATOM     36  C   UNL A   1      38.925  21.218  25.751  1.00  0.00     0.338 C 
ATOM     37  O   UNL A   1      39.527  20.161  25.851  1.00  0.00    -0.246 OA
BRANCH  36  38
ATOM     38  C   UNL A   1      39.340  22.419  26.497  1.00  0.00     0.060 A 
ATOM     39  C   UNL A   1      38.718  23.628  26.162  1.00  0.00     0.016 A 
ATOM     40  C   UNL A   1      40.394  22.389  27.411  1.00  0.00     0.016 A 
ATOM     41  C   UNL A   1      39.197  24.826  26.683  1.00  0.00     0.010 A 
ATOM     42  C   UNL A   1      40.877  23.594  27.932  1.00  0.00     0.010 A 
ATOM     43  C   UNL A   1      40.314  24.819  27.528  1.00  0.00    -0.014 A 
BRANCH  43  44
ATOM     44  C   UNL A   1      40.991  26.102  27.833  1.00  0.00     0.031 A 
ATOM     45  C   UNL A   1      42.403  26.310  27.353  1.00  0.00     0.074 A 
ATOM     46  C   UNL A   1      40.340  27.089  28.472  1.00  0.00     0.049 A 
ATOM     47  N   UNL A   1      43.191  27.343  27.511  1.00  0.00    -0.248 NA
ATOM     48  C   UNL A   1      43.009  25.203  26.596  1.00  0.00     0.031 C 
ATOM     49  C   UNL A   1      38.958  27.021  28.943  1.00  0.00     0.029 A 
ATOM     50  N   UNL A   1      40.760  28.343  28.836  1.00  0.00    -0.354 N 
ATOM     51  C   UNL A   1      44.386  27.005  26.885  1.00  0.00     0.074 A 
ATOM     52  C   UNL A   1      44.232  25.659  26.377  1.00  0.00     0.031 C 
ATOM     53  C   UNL A   1      38.644  28.184  29.539  1.00  0.00     0.029 A 
ATOM     54  C   UNL A   1      39.812  29.062  29.520  1.00  0.00     0.049 A 
ATOM     55  H   UNL A   1      41.655  28.694  28.625  1.00  0.00     0.167 HD
ATOM     56  C   UNL A   1      45.504  27.754  26.736  1.00  0.00     0.037 A 
ATOM     57  C   UNL A   1      39.888  30.282  30.086  1.00  0.00     0.037 A 
ATOM     58  C   UNL A   1      45.648  29.096  27.238  1.00  0.00     0.049 A 
ATOM     59  C   UNL A   1      41.165  31.070  29.962  1.00  0.00     0.074 A 
ATOM     60  C   UNL A   1      46.732  29.948  27.125  1.00  0.00     0.029 A 
ATOM     61  N   UNL A   1      44.675  29.778  27.955  1.00  0.00    -0.354 N 
ATOM     62  N   UNL A   1      42.281  30.752  29.351  1.00  0.00    -0.248 NA
ATOM     63  C   UNL A   1      41.191  32.394  30.601  1.00  0.00     0.031 C 
ATOM     64  C   UNL A   1      46.439  31.122  27.826  1.00  0.00     0.029 A 
ATOM     65  C   UNL A   1      45.146  31.030  28.315  1.00  0.00     0.049 A 
ATOM     66  H   UNL A   1      43.783  29.425  28.176  1.00  0.00     0.167 HD
ATOM     67  C   UNL A   1      43.125  31.846  29.501  1.00  0.00     0.074 A 
ATOM     68  C   UNL A   1      42.387  32.841  30.250  1.00  0.00     0.031 C 
ATOM     69  C   UNL A   1      44.395  32.014  29.054  1.00  0.00     0.037 A 
BRANCH  56  70
ATOM     70  C   UNL A   1      46.673  27.127  26.030  1.00  0.00     0.057 A 
ATOM     71  C   UNL A   1      46.894  27.298  24.657  1.00  0.00     0.134 A 
ATOM     72  C   UNL A   1      47.609  26.365  26.742  1.00  0.00     0.134 A 
ATOM     73  F   UNL A   1      46.031  28.004  23.911  1.00  0.00    -0.206 F 
ATOM     74  C   UNL A   1      47.987  26.712  24.014  1.00  0.00     0.040 A 
ATOM     75  C   UNL A   1      48.722  25.800  26.117  1.00  0.00     0.040 A 
ATOM     76  F   UNL A   1      47.461  26.164  28.060  1.00  0.00    -0.206 F 
ATOM     77  C   UNL A   1      48.909  25.967  24.746  1.00  0.00     0.006 A 
ENDBRANCH  56  70
BRANCH  57  78
ATOM     78  C   UNL A   1      38.724  30.833  30.825  1.00  0.00     0.057 A 
ATOM     79  C   UNL A   1      37.781  31.654  30.196  1.00  0.00     0.134 A 
ATOM     80  C   UNL A   1      38.536  30.566  32.188  1.00  0.00     0.134 A 
ATOM     81  F   UNL A   1      37.915  31.964  28.898  1.00  0.00    -0.206 F 
ATOM     82  C   UNL A   1      36.709  32.209  30.898  1.00  0.00     0.040 A 
ATOM     83  C   UNL A   1      37.453  31.089  32.895  1.00  0.00     0.040 A 
ATOM     84  F   UNL A   1      39.401  29.783  32.850  1.00  0.00    -0.206 F 
ATOM     85  C   UNL A   1      36.540  31.921  32.250  1.00  0.00     0.006 A 
ENDBRANCH  57  78
BRANCH  69  86
ATOM     86  C   UNL A   1      45.048  33.343  29.315  1.00  0.00     0.057 A 
ATOM     87  C   UNL A   1      45.798  33.591  30.471  1.00  0.00     0.134 A 
ATOM     88  C   UNL A   1      44.951  34.377  28.374  1.00  0.00     0.134 A 
ATOM     89  F   UNL A   1      45.924  32.649  31.416  1.00  0.00    -0.206 F 
ATOM     90  C   UNL A   1      46.401  34.831  30.697  1.00  0.00     0.040 A 
ATOM     91  C   UNL A   1      45.575  35.609  28.574  1.00  0.00     0.040 A 
ATOM     92  F   UNL A   1      44.258  34.203  27.239  1.00  0.00    -0.206 F 
ATOM     93  C   UNL A   1      46.296  35.841  29.743  1.00  0.00     0.006 A 
ENDBRANCH  69  86
ENDBRANCH  43  44
ENDBRANCH  36  38
ENDBRANCH  35  36
ENDBRANCH  34  35
ENDBRANCH  33  34
ENDBRANCH  32  33
ENDBRANCH  31  32
ENDBRANCH  30  31
ENDBRANCH   1  30
TORSDOF 22
ENDMDL
