MODEL 1
REMARK VINA RESULT:     -11.0      0.000      0.000
REMARK SMILES Cc1cc(C(=O)N[C@@H](C)C(=O)OCCOCCOC(=O)c2ccc(-c3c4nc(c(-c5c(F)cccc5F)c5ccc([nH]5)c(-c5c(F)cccc5F)c5nc(c(-c6c(F)cccc6F)c6ccc3[nH]6)C=C5)C=C4)cc2)cc(C)c1OC(F)F
REMARK SMILES IDX 14 1 13 2 12 3 10 4 11 5 8 6 9 7 7 8 5 9 6 10 4 12 1 13 2 14
REMARK SMILES IDX 3 15 78 16 76 17 75 18 77 19 79 20 80 21 81 22 82 23 15 24
REMARK SMILES IDX 16 25 17 26 18 27 19 28 20 29 21 30 22 31 74 32 23 33 73 34
REMARK SMILES IDX 24 35 25 36 26 37 67 38 27 39 72 40 66 41 68 42 28 43 71 44
REMARK SMILES IDX 65 45 64 46 29 48 55 49 38 50 54 51 39 52 42 53 53 54 69 55
REMARK SMILES IDX 40 56 41 57 52 59 70 60 43 61 30 62 31 63 36 64 32 65 33 66
REMARK SMILES IDX 35 67 37 68 34 69 56 70 57 71 62 72 58 73 59 74 61 75 63 76
REMARK SMILES IDX 60 77 44 78 45 79 50 80 46 81 47 82 49 83 51 84 48 85
REMARK H PARENT 7 11 68 47 42 58
REMARK Flexibility Score: inf
ROOT
ATOM      1  C   UNL A   1      41.050  20.795  27.335  1.00  0.00     0.202 C 
ENDROOT
BRANCH   1   2
ATOM      2  C   UNL A   1      40.124  20.873  26.117  1.00  0.00     0.261 C 
BRANCH   2   3
ATOM      3  O   UNL A   1      39.097  21.862  26.307  1.00  0.00    -0.462 OA
BRANCH   3   4
ATOM      4  C   UNL A   1      37.987  21.726  25.526  1.00  0.00     0.328 C 
ATOM      5  O   UNL A   1      37.800  20.809  24.735  1.00  0.00    -0.250 OA
BRANCH   4   6
ATOM      6  C   UNL A   1      37.033  22.928  25.653  1.00  0.00     0.189 C 
ATOM      7  C   UNL A   1      37.835  24.097  26.213  1.00  0.00     0.043 C 
BRANCH   6   8
ATOM      8  N   UNL A   1      35.862  22.670  26.501  1.00  0.00    -0.339 N 
ATOM      9  C   UNL A   1      34.601  23.216  26.527  1.00  0.00     0.251 C 
ATOM     10  O   UNL A   1      33.817  22.811  27.386  1.00  0.00    -0.269 OA
ATOM     11  H   UNL A   1      36.007  21.973  27.180  1.00  0.00     0.164 HD
BRANCH   9  12
ATOM     12  C   UNL A   1      34.138  24.265  25.578  1.00  0.00     0.040 A 
ATOM     13  C   UNL A   1      33.738  28.009  25.899  1.00  0.00     0.048 C 
ATOM     14  C   UNL A   1      33.682  26.676  25.202  1.00  0.00    -0.008 A 
ATOM     15  C   UNL A   1      34.115  25.594  26.019  1.00  0.00     0.021 A 
ATOM     16  C   UNL A   1      33.313  26.401  23.874  1.00  0.00     0.131 A 
ATOM     17  C   UNL A   1      33.278  25.046  23.446  1.00  0.00    -0.008 A 
ATOM     18  C   UNL A   1      33.650  23.999  24.309  1.00  0.00     0.021 A 
ATOM     19  C   UNL A   1      32.891  24.647  22.040  1.00  0.00     0.048 C 
BRANCH  16  20
ATOM     20  O   UNL A   1      32.995  27.250  22.858  1.00  0.00    -0.434 OA
BRANCH  20  21
ATOM     21  C   UNL A   1      31.756  27.901  22.695  1.00  0.00     0.542 C 
ATOM     22  F   UNL A   1      31.944  29.200  22.371  1.00  0.00    -0.167 F 
ATOM     23  F   UNL A   1      31.032  27.287  21.732  1.00  0.00    -0.167 F 
ENDBRANCH  20  21
ENDBRANCH  16  20
ENDBRANCH   9  12
ENDBRANCH   6   8
ENDBRANCH   4   6
ENDBRANCH   3   4
ENDBRANCH   2   3
ENDBRANCH   1   2
BRANCH   1  24
ATOM     24  O   UNL A   1      42.346  20.247  27.094  1.00  0.00    -0.374 OA
BRANCH  24  25
ATOM     25  C   UNL A   1      42.832  20.293  25.751  1.00  0.00     0.202 C 
BRANCH  25  26
ATOM     26  C   UNL A   1      43.757  21.462  25.394  1.00  0.00     0.261 C 
BRANCH  26  27
ATOM     27  O   UNL A   1      43.035  22.601  24.887  1.00  0.00    -0.460 OA
BRANCH  27  28
ATOM     28  C   UNL A   1      43.714  23.771  24.937  1.00  0.00     0.338 C 
ATOM     29  O   UNL A   1      44.691  24.093  24.273  1.00  0.00    -0.246 OA
BRANCH  28  30
ATOM     30  C   UNL A   1      43.020  24.733  25.811  1.00  0.00     0.060 A 
ATOM     31  C   UNL A   1      43.596  26.001  25.958  1.00  0.00     0.016 A 
ATOM     32  C   UNL A   1      41.891  24.376  26.552  1.00  0.00     0.016 A 
ATOM     33  C   UNL A   1      43.076  26.902  26.887  1.00  0.00     0.010 A 
ATOM     34  C   UNL A   1      41.376  25.279  27.492  1.00  0.00     0.010 A 
ATOM     35  C   UNL A   1      41.989  26.531  27.689  1.00  0.00    -0.014 A 
BRANCH  35  36
ATOM     36  C   UNL A   1      41.588  27.400  28.823  1.00  0.00     0.031 A 
ATOM     37  C   UNL A   1      42.360  27.323  30.113  1.00  0.00     0.074 A 
ATOM     38  C   UNL A   1      40.572  28.271  28.698  1.00  0.00     0.049 A 
ATOM     39  N   UNL A   1      42.172  27.974  31.232  1.00  0.00    -0.248 NA
ATOM     40  C   UNL A   1      43.496  26.387  30.146  1.00  0.00     0.031 C 
ATOM     41  C   UNL A   1      39.770  28.468  27.492  1.00  0.00     0.029 A 
ATOM     42  N   UNL A   1      40.038  29.153  29.606  1.00  0.00    -0.354 N 
ATOM     43  C   UNL A   1      43.154  27.521  32.104  1.00  0.00     0.074 A 
ATOM     44  C   UNL A   1      43.927  26.526  31.393  1.00  0.00     0.031 C 
ATOM     45  C   UNL A   1      38.835  29.403  27.737  1.00  0.00     0.029 A 
ATOM     46  C   UNL A   1      38.957  29.851  29.124  1.00  0.00     0.049 A 
ATOM     47  H   UNL A   1      40.395  29.273  30.515  1.00  0.00     0.167 HD
ATOM     48  C   UNL A   1      43.394  27.903  33.381  1.00  0.00     0.037 A 
ATOM     49  C   UNL A   1      38.146  30.733  29.740  1.00  0.00     0.037 A 
ATOM     50  C   UNL A   1      42.641  28.906  34.085  1.00  0.00     0.049 A 
ATOM     51  C   UNL A   1      38.404  31.097  31.179  1.00  0.00     0.074 A 
ATOM     52  C   UNL A   1      42.840  29.392  35.366  1.00  0.00     0.029 A 
ATOM     53  N   UNL A   1      41.539  29.571  33.571  1.00  0.00    -0.354 N 
ATOM     54  N   UNL A   1      39.363  30.696  31.976  1.00  0.00    -0.248 NA
ATOM     55  C   UNL A   1      37.462  32.040  31.804  1.00  0.00     0.031 C 
ATOM     56  C   UNL A   1      41.832  30.320  35.644  1.00  0.00     0.029 A 
ATOM     57  C   UNL A   1      41.031  30.443  34.520  1.00  0.00     0.049 A 
ATOM     58  H   UNL A   1      41.172  29.444  32.667  1.00  0.00     0.167 HD
ATOM     59  C   UNL A   1      39.162  31.360  33.180  1.00  0.00     0.074 A 
ATOM     60  C   UNL A   1      37.994  32.198  33.008  1.00  0.00     0.031 C 
ATOM     61  C   UNL A   1      39.880  31.284  34.327  1.00  0.00     0.037 A 
BRANCH  48  62
ATOM     62  C   UNL A   1      44.508  27.222  34.116  1.00  0.00     0.057 A 
ATOM     63  C   UNL A   1      45.798  27.765  34.170  1.00  0.00     0.134 A 
ATOM     64  C   UNL A   1      44.268  26.047  34.837  1.00  0.00     0.134 A 
ATOM     65  F   UNL A   1      46.094  28.884  33.493  1.00  0.00    -0.206 F 
ATOM     66  C   UNL A   1      46.813  27.155  34.909  1.00  0.00     0.040 A 
ATOM     67  C   UNL A   1      45.269  25.439  35.596  1.00  0.00     0.040 A 
ATOM     68  F   UNL A   1      43.052  25.480  34.830  1.00  0.00    -0.206 F 
ATOM     69  C   UNL A   1      46.547  25.993  35.632  1.00  0.00     0.006 A 
ENDBRANCH  48  62
BRANCH  49  70
ATOM     70  C   UNL A   1      36.994  31.327  29.017  1.00  0.00     0.057 A 
ATOM     71  C   UNL A   1      37.009  32.662  28.598  1.00  0.00     0.134 A 
ATOM     72  C   UNL A   1      35.829  30.589  28.778  1.00  0.00     0.134 A 
ATOM     73  F   UNL A   1      38.088  33.428  28.822  1.00  0.00    -0.206 F 
ATOM     74  C   UNL A   1      35.898  33.250  27.991  1.00  0.00     0.040 A 
ATOM     75  C   UNL A   1      34.719  31.157  28.149  1.00  0.00     0.040 A 
ATOM     76  F   UNL A   1      35.750  29.305  29.157  1.00  0.00    -0.206 F 
ATOM     77  C   UNL A   1      34.749  32.496  27.763  1.00  0.00     0.006 A 
ENDBRANCH  49  70
BRANCH  61  78
ATOM     78  C   UNL A   1      39.453  32.160  35.468  1.00  0.00     0.057 A 
ATOM     79  C   UNL A   1      39.928  33.468  35.615  1.00  0.00     0.134 A 
ATOM     80  C   UNL A   1      38.519  31.700  36.406  1.00  0.00     0.134 A 
ATOM     81  F   UNL A   1      40.832  33.963  34.757  1.00  0.00    -0.206 F 
ATOM     82  C   UNL A   1      39.507  34.282  36.667  1.00  0.00     0.040 A 
ATOM     83  C   UNL A   1      38.071  32.513  37.448  1.00  0.00     0.040 A 
ATOM     84  F   UNL A   1      38.017  30.460  36.316  1.00  0.00    -0.206 F 
ATOM     85  C   UNL A   1      38.570  33.807  37.584  1.00  0.00     0.006 A 
ENDBRANCH  61  78
ENDBRANCH  35  36
ENDBRANCH  28  30
ENDBRANCH  27  28
ENDBRANCH  26  27
ENDBRANCH  25  26
ENDBRANCH  24  25
ENDBRANCH   1  24
TORSDOF 18
ENDMDL
MODEL 2
REMARK VINA RESULT:     -10.3      2.927      8.471
REMARK SMILES Cc1cc(C(=O)N[C@@H](C)C(=O)OCCOCCOC(=O)c2ccc(-c3c4nc(c(-c5c(F)cccc5F)c5ccc([nH]5)c(-c5c(F)cccc5F)c5nc(c(-c6c(F)cccc6F)c6ccc3[nH]6)C=C5)C=C4)cc2)cc(C)c1OC(F)F
REMARK SMILES IDX 14 1 13 2 12 3 10 4 11 5 8 6 9 7 7 8 5 9 6 10 4 12 1 13 2 14
REMARK SMILES IDX 3 15 78 16 76 17 75 18 77 19 79 20 80 21 81 22 82 23 15 24
REMARK SMILES IDX 16 25 17 26 18 27 19 28 20 29 21 30 22 31 74 32 23 33 73 34
REMARK SMILES IDX 24 35 25 36 26 37 67 38 27 39 72 40 66 41 68 42 28 43 71 44
REMARK SMILES IDX 65 45 64 46 29 48 55 49 38 50 54 51 39 52 42 53 53 54 69 55
REMARK SMILES IDX 40 56 41 57 52 59 70 60 43 61 30 62 31 63 36 64 32 65 33 66
REMARK SMILES IDX 35 67 37 68 34 69 56 70 57 71 62 72 58 73 59 74 61 75 63 76
REMARK SMILES IDX 60 77 44 78 45 79 50 80 46 81 47 82 49 83 51 84 48 85
REMARK H PARENT 7 11 68 47 42 58
REMARK Flexibility Score: inf
ROOT
ATOM      1  C   UNL A   1      33.018  29.666  25.774  1.00  0.00     0.202 C 
ENDROOT
BRANCH   1   2
ATOM      2  C   UNL A   1      32.524  28.556  24.840  1.00  0.00     0.261 C 
BRANCH   2   3
ATOM      3  O   UNL A   1      31.378  27.885  25.390  1.00  0.00    -0.462 OA
BRANCH   3   4
ATOM      4  C   UNL A   1      30.680  27.093  24.528  1.00  0.00     0.328 C 
ATOM      5  O   UNL A   1      29.718  27.463  23.864  1.00  0.00    -0.250 OA
BRANCH   4   6
ATOM      6  C   UNL A   1      31.155  25.628  24.565  1.00  0.00     0.189 C 
ATOM      7  C   UNL A   1      30.573  24.923  23.347  1.00  0.00     0.043 C 
BRANCH   6   8
ATOM      8  N   UNL A   1      30.775  24.911  25.790  1.00  0.00    -0.339 N 
ATOM      9  C   UNL A   1      31.329  23.835  26.441  1.00  0.00     0.251 C 
ATOM     10  O   UNL A   1      30.766  23.426  27.456  1.00  0.00    -0.269 OA
ATOM     11  H   UNL A   1      29.971  25.270  26.228  1.00  0.00     0.164 HD
BRANCH   9  12
ATOM     12  C   UNL A   1      32.566  23.144  25.984  1.00  0.00     0.040 A 
ATOM     13  C   UNL A   1      33.177  19.752  24.434  1.00  0.00     0.048 C 
ATOM     14  C   UNL A   1      33.557  21.104  24.974  1.00  0.00    -0.008 A 
ATOM     15  C   UNL A   1      32.443  21.861  25.434  1.00  0.00     0.021 A 
ATOM     16  C   UNL A   1      34.831  21.696  25.027  1.00  0.00     0.131 A 
ATOM     17  C   UNL A   1      34.963  22.972  25.640  1.00  0.00    -0.008 A 
ATOM     18  C   UNL A   1      33.843  23.658  26.144  1.00  0.00     0.021 A 
ATOM     19  C   UNL A   1      36.290  23.688  25.749  1.00  0.00     0.048 C 
BRANCH  16  20
ATOM     20  O   UNL A   1      36.023  21.255  24.539  1.00  0.00    -0.434 OA
BRANCH  20  21
ATOM     21  C   UNL A   1      36.819  20.245  25.116  1.00  0.00     0.542 C 
ATOM     22  F   UNL A   1      36.415  19.026  24.693  1.00  0.00    -0.167 F 
ATOM     23  F   UNL A   1      38.118  20.436  24.795  1.00  0.00    -0.167 F 
ENDBRANCH  20  21
ENDBRANCH  16  20
ENDBRANCH   9  12
ENDBRANCH   6   8
ENDBRANCH   4   6
ENDBRANCH   3   4
ENDBRANCH   2   3
ENDBRANCH   1   2
BRANCH   1  24
ATOM     24  O   UNL A   1      32.031  30.240  26.631  1.00  0.00    -0.374 OA
BRANCH  24  25
ATOM     25  C   UNL A   1      31.336  31.389  26.145  1.00  0.00     0.202 C 
BRANCH  25  26
ATOM     26  C   UNL A   1      31.436  32.662  26.993  1.00  0.00     0.261 C 
BRANCH  26  27
ATOM     27  O   UNL A   1      32.696  33.340  26.825  1.00  0.00    -0.460 OA
BRANCH  27  28
ATOM     28  C   UNL A   1      33.246  33.807  27.970  1.00  0.00     0.338 C 
ATOM     29  O   UNL A   1      32.758  34.606  28.758  1.00  0.00    -0.246 OA
BRANCH  28  30
ATOM     30  C   UNL A   1      34.498  33.090  28.270  1.00  0.00     0.060 A 
ATOM     31  C   UNL A   1      34.400  31.732  28.601  1.00  0.00     0.016 A 
ATOM     32  C   UNL A   1      35.729  33.747  28.328  1.00  0.00     0.016 A 
ATOM     33  C   UNL A   1      35.524  31.037  29.044  1.00  0.00     0.010 A 
ATOM     34  C   UNL A   1      36.856  33.049  28.783  1.00  0.00     0.010 A 
ATOM     35  C   UNL A   1      36.751  31.702  29.177  1.00  0.00    -0.014 A 
BRANCH  35  36
ATOM     36  C   UNL A   1      37.879  31.021  29.858  1.00  0.00     0.031 A 
ATOM     37  C   UNL A   1      38.146  31.320  31.310  1.00  0.00     0.074 A 
ATOM     38  C   UNL A   1      38.638  30.124  29.206  1.00  0.00     0.049 A 
ATOM     39  N   UNL A   1      39.086  30.856  32.092  1.00  0.00    -0.248 NA
ATOM     40  C   UNL A   1      37.231  32.268  31.966  1.00  0.00     0.031 C 
ATOM     41  C   UNL A   1      38.461  29.721  27.812  1.00  0.00     0.029 A 
ATOM     42  N   UNL A   1      39.719  29.393  29.633  1.00  0.00    -0.354 N 
ATOM     43  C   UNL A   1      38.884  31.461  33.327  1.00  0.00     0.074 A 
ATOM     44  C   UNL A   1      37.744  32.340  33.187  1.00  0.00     0.031 C 
ATOM     45  C   UNL A   1      39.410  28.822  27.494  1.00  0.00     0.029 A 
ATOM     46  C   UNL A   1      40.275  28.608  28.653  1.00  0.00     0.049 A 
ATOM     47  H   UNL A   1      40.063  29.428  30.555  1.00  0.00     0.167 HD
ATOM     48  C   UNL A   1      39.583  31.295  34.475  1.00  0.00     0.037 A 
ATOM     49  C   UNL A   1      41.370  27.823  28.682  1.00  0.00     0.037 A 
ATOM     50  C   UNL A   1      40.705  30.407  34.624  1.00  0.00     0.049 A 
ATOM     51  C   UNL A   1      42.161  27.702  29.959  1.00  0.00     0.074 A 
ATOM     52  C   UNL A   1      41.446  30.139  35.762  1.00  0.00     0.029 A 
ATOM     53  N   UNL A   1      41.251  29.649  33.601  1.00  0.00    -0.354 N 
ATOM     54  N   UNL A   1      41.932  28.243  31.130  1.00  0.00    -0.248 NA
ATOM     55  C   UNL A   1      43.364  26.857  29.916  1.00  0.00     0.031 C 
ATOM     56  C   UNL A   1      42.470  29.250  35.418  1.00  0.00     0.029 A 
ATOM     57  C   UNL A   1      42.338  28.933  34.075  1.00  0.00     0.049 A 
ATOM     58  H   UNL A   1      40.917  29.621  32.675  1.00  0.00     0.167 HD
ATOM     59  C   UNL A   1      42.938  27.779  31.968  1.00  0.00     0.074 A 
ATOM     60  C   UNL A   1      43.776  26.905  31.175  1.00  0.00     0.031 C 
ATOM     61  C   UNL A   1      43.151  28.052  33.279  1.00  0.00     0.037 A 
BRANCH  48  62
ATOM     62  C   UNL A   1      39.171  32.105  35.667  1.00  0.00     0.057 A 
ATOM     63  C   UNL A   1      38.316  31.591  36.649  1.00  0.00     0.134 A 
ATOM     64  C   UNL A   1      39.693  33.388  35.867  1.00  0.00     0.134 A 
ATOM     65  F   UNL A   1      37.776  30.371  36.511  1.00  0.00    -0.206 F 
ATOM     66  C   UNL A   1      37.988  32.331  37.787  1.00  0.00     0.040 A 
ATOM     67  C   UNL A   1      39.389  34.130  37.009  1.00  0.00     0.040 A 
ATOM     68  F   UNL A   1      40.522  33.934  34.964  1.00  0.00    -0.206 F 
ATOM     69  C   UNL A   1      38.532  33.600  37.973  1.00  0.00     0.006 A 
ENDBRANCH  48  62
BRANCH  49  70
ATOM     70  C   UNL A   1      41.810  27.100  27.463  1.00  0.00     0.057 A 
ATOM     71  C   UNL A   1      41.481  25.756  27.256  1.00  0.00     0.134 A 
ATOM     72  C   UNL A   1      42.618  27.721  26.503  1.00  0.00     0.134 A 
ATOM     73  F   UNL A   1      40.732  25.099  28.155  1.00  0.00    -0.206 F 
ATOM     74  C   UNL A   1      41.960  25.047  26.153  1.00  0.00     0.040 A 
ATOM     75  C   UNL A   1      43.083  27.032  25.381  1.00  0.00     0.040 A 
ATOM     76  F   UNL A   1      42.971  29.008  26.643  1.00  0.00    -0.206 F 
ATOM     77  C   UNL A   1      42.763  25.686  25.210  1.00  0.00     0.006 A 
ENDBRANCH  49  70
BRANCH  61  78
ATOM     78  C   UNL A   1      44.305  27.366  33.948  1.00  0.00     0.057 A 
ATOM     79  C   UNL A   1      45.572  27.955  34.025  1.00  0.00     0.134 A 
ATOM     80  C   UNL A   1      44.132  26.119  34.562  1.00  0.00     0.134 A 
ATOM     81  F   UNL A   1      45.806  29.143  33.447  1.00  0.00    -0.206 F 
ATOM     82  C   UNL A   1      46.633  27.318  34.669  1.00  0.00     0.040 A 
ATOM     83  C   UNL A   1      45.179  25.483  35.231  1.00  0.00     0.040 A 
ATOM     84  F   UNL A   1      42.940  25.505  34.533  1.00  0.00    -0.206 F 
ATOM     85  C   UNL A   1      46.436  26.081  35.281  1.00  0.00     0.006 A 
ENDBRANCH  61  78
ENDBRANCH  35  36
ENDBRANCH  28  30
ENDBRANCH  27  28
ENDBRANCH  26  27
ENDBRANCH  25  26
ENDBRANCH  24  25
ENDBRANCH   1  24
TORSDOF 18
ENDMDL
MODEL 3
REMARK VINA RESULT:     -10.2      3.854      7.724
REMARK SMILES Cc1cc(C(=O)N[C@@H](C)C(=O)OCCOCCOC(=O)c2ccc(-c3c4nc(c(-c5c(F)cccc5F)c5ccc([nH]5)c(-c5c(F)cccc5F)c5nc(c(-c6c(F)cccc6F)c6ccc3[nH]6)C=C5)C=C4)cc2)cc(C)c1OC(F)F
REMARK SMILES IDX 14 1 13 2 12 3 10 4 11 5 8 6 9 7 7 8 5 9 6 10 4 12 1 13 2 14
REMARK SMILES IDX 3 15 78 16 76 17 75 18 77 19 79 20 80 21 81 22 82 23 15 24
REMARK SMILES IDX 16 25 17 26 18 27 19 28 20 29 21 30 22 31 74 32 23 33 73 34
REMARK SMILES IDX 24 35 25 36 26 37 67 38 27 39 72 40 66 41 68 42 28 43 71 44
REMARK SMILES IDX 65 45 64 46 29 48 55 49 38 50 54 51 39 52 42 53 53 54 69 55
REMARK SMILES IDX 40 56 41 57 52 59 70 60 43 61 30 62 31 63 36 64 32 65 33 66
REMARK SMILES IDX 35 67 37 68 34 69 56 70 57 71 62 72 58 73 59 74 61 75 63 76
REMARK SMILES IDX 60 77 44 78 45 79 50 80 46 81 47 82 49 83 51 84 48 85
REMARK H PARENT 7 11 68 47 42 58
REMARK Flexibility Score: inf
ROOT
ATOM      1  C   UNL A   1      33.475  20.172  25.564  1.00  0.00     0.202 C 
ENDROOT
BRANCH   1   2
ATOM      2  C   UNL A   1      32.156  20.326  24.802  1.00  0.00     0.261 C 
BRANCH   2   3
ATOM      3  O   UNL A   1      31.809  21.712  24.636  1.00  0.00    -0.462 OA
BRANCH   3   4
ATOM      4  C   UNL A   1      32.106  22.260  23.423  1.00  0.00     0.328 C 
ATOM      5  O   UNL A   1      32.506  21.628  22.452  1.00  0.00    -0.250 OA
BRANCH   4   6
ATOM      6  C   UNL A   1      32.001  23.796  23.435  1.00  0.00     0.189 C 
ATOM      7  C   UNL A   1      30.527  24.157  23.575  1.00  0.00     0.043 C 
BRANCH   6   8
ATOM      8  N   UNL A   1      32.564  24.440  22.241  1.00  0.00    -0.339 N 
ATOM      9  C   UNL A   1      32.820  25.754  21.932  1.00  0.00     0.251 C 
ATOM     10  O   UNL A   1      33.283  26.004  20.819  1.00  0.00    -0.269 OA
ATOM     11  H   UNL A   1      32.805  23.809  21.525  1.00  0.00     0.164 HD
BRANCH   9  12
ATOM     12  C   UNL A   1      32.567  26.884  22.868  1.00  0.00     0.040 A 
ATOM     13  C   UNL A   1      34.406  28.140  25.921  1.00  0.00     0.048 C 
ATOM     14  C   UNL A   1      33.319  28.128  24.880  1.00  0.00    -0.008 A 
ATOM     15  C   UNL A   1      33.468  27.087  23.921  1.00  0.00     0.021 A 
ATOM     16  C   UNL A   1      32.246  29.024  24.729  1.00  0.00     0.131 A 
ATOM     17  C   UNL A   1      31.299  28.781  23.697  1.00  0.00    -0.008 A 
ATOM     18  C   UNL A   1      31.448  27.699  22.811  1.00  0.00     0.021 A 
ATOM     19  C   UNL A   1      30.110  29.683  23.456  1.00  0.00     0.048 C 
BRANCH  16  20
ATOM     20  O   UNL A   1      31.954  30.165  25.411  1.00  0.00    -0.434 OA
BRANCH  20  21
ATOM     21  C   UNL A   1      31.773  30.259  26.806  1.00  0.00     0.542 C 
ATOM     22  F   UNL A   1      31.440  29.054  27.321  1.00  0.00    -0.167 F 
ATOM     23  F   UNL A   1      32.904  30.713  27.392  1.00  0.00    -0.167 F 
ENDBRANCH  20  21
ENDBRANCH  16  20
ENDBRANCH   9  12
ENDBRANCH   6   8
ENDBRANCH   4   6
ENDBRANCH   3   4
ENDBRANCH   2   3
ENDBRANCH   1   2
BRANCH   1  24
ATOM     24  O   UNL A   1      34.632  19.938  24.761  1.00  0.00    -0.374 OA
BRANCH  24  25
ATOM     25  C   UNL A   1      35.764  20.779  24.990  1.00  0.00     0.202 C 
BRANCH  25  26
ATOM     26  C   UNL A   1      37.140  20.103  24.959  1.00  0.00     0.261 C 
BRANCH  26  27
ATOM     27  O   UNL A   1      38.222  21.053  25.010  1.00  0.00    -0.460 OA
BRANCH  27  28
ATOM     28  C   UNL A   1      39.170  20.782  25.937  1.00  0.00     0.338 C 
ATOM     29  O   UNL A   1      39.683  19.699  26.183  1.00  0.00    -0.246 OA
BRANCH  28  30
ATOM     30  C   UNL A   1      39.664  22.029  26.547  1.00  0.00     0.060 A 
ATOM     31  C   UNL A   1      39.099  23.232  26.104  1.00  0.00     0.016 A 
ATOM     32  C   UNL A   1      40.726  22.037  27.455  1.00  0.00     0.016 A 
ATOM     33  C   UNL A   1      39.627  24.451  26.526  1.00  0.00     0.010 A 
ATOM     34  C   UNL A   1      41.262  23.263  27.871  1.00  0.00     0.010 A 
ATOM     35  C   UNL A   1      40.739  24.474  27.380  1.00  0.00    -0.014 A 
BRANCH  35  36
ATOM     36  C   UNL A   1      41.431  25.760  27.642  1.00  0.00     0.031 A 
ATOM     37  C   UNL A   1      40.701  26.846  28.386  1.00  0.00     0.074 A 
ATOM     38  C   UNL A   1      42.702  25.950  27.251  1.00  0.00     0.049 A 
ATOM     39  N   UNL A   1      41.105  28.049  28.704  1.00  0.00    -0.248 NA
ATOM     40  C   UNL A   1      39.332  26.534  28.831  1.00  0.00     0.031 C 
ATOM     41  C   UNL A   1      43.530  24.966  26.555  1.00  0.00     0.029 A 
ATOM     42  N   UNL A   1      43.520  27.046  27.382  1.00  0.00    -0.354 N 
ATOM     43  C   UNL A   1      40.042  28.641  29.375  1.00  0.00     0.074 A 
ATOM     44  C   UNL A   1      38.967  27.674  29.404  1.00  0.00     0.031 C 
ATOM     45  C   UNL A   1      44.736  25.507  26.308  1.00  0.00     0.029 A 
ATOM     46  C   UNL A   1      44.756  26.882  26.804  1.00  0.00     0.049 A 
ATOM     47  H   UNL A   1      43.247  27.870  27.845  1.00  0.00     0.167 HD
ATOM     48  C   UNL A   1      39.970  29.878  29.922  1.00  0.00     0.037 A 
ATOM     49  C   UNL A   1      45.777  27.751  26.673  1.00  0.00     0.037 A 
ATOM     50  C   UNL A   1      41.044  30.835  29.914  1.00  0.00     0.049 A 
ATOM     51  C   UNL A   1      45.647  29.140  27.243  1.00  0.00     0.074 A 
ATOM     52  C   UNL A   1      41.078  32.096  30.484  1.00  0.00     0.029 A 
ATOM     53  N   UNL A   1      42.269  30.640  29.297  1.00  0.00    -0.354 N 
ATOM     54  N   UNL A   1      44.655  29.670  27.914  1.00  0.00    -0.248 NA
ATOM     55  C   UNL A   1      46.784  30.051  27.036  1.00  0.00     0.031 C 
ATOM     56  C   UNL A   1      42.310  32.683  30.175  1.00  0.00     0.029 A 
ATOM     57  C   UNL A   1      43.057  31.769  29.450  1.00  0.00     0.049 A 
ATOM     58  H   UNL A   1      42.541  29.822  28.823  1.00  0.00     0.167 HD
ATOM     59  C   UNL A   1      45.059  30.959  28.239  1.00  0.00     0.074 A 
ATOM     60  C   UNL A   1      46.391  31.130  27.698  1.00  0.00     0.031 C 
ATOM     61  C   UNL A   1      44.388  31.917  28.923  1.00  0.00     0.037 A 
BRANCH  48  62
ATOM     62  C   UNL A   1      38.678  30.283  30.565  1.00  0.00     0.057 A 
ATOM     63  C   UNL A   1      37.668  30.933  29.847  1.00  0.00     0.134 A 
ATOM     64  C   UNL A   1      38.418  29.955  31.901  1.00  0.00     0.134 A 
ATOM     65  F   UNL A   1      37.859  31.282  28.566  1.00  0.00    -0.206 F 
ATOM     66  C   UNL A   1      36.444  31.250  30.439  1.00  0.00     0.040 A 
ATOM     67  C   UNL A   1      37.192  30.249  32.499  1.00  0.00     0.040 A 
ATOM     68  F   UNL A   1      39.345  29.327  32.641  1.00  0.00    -0.206 F 
ATOM     69  C   UNL A   1      36.201  30.900  31.766  1.00  0.00     0.006 A 
ENDBRANCH  48  62
BRANCH  49  70
ATOM     70  C   UNL A   1      47.014  27.355  25.953  1.00  0.00     0.057 A 
ATOM     71  C   UNL A   1      48.106  26.805  26.632  1.00  0.00     0.134 A 
ATOM     72  C   UNL A   1      47.152  27.570  24.576  1.00  0.00     0.134 A 
ATOM     73  F   UNL A   1      48.042  26.600  27.957  1.00  0.00    -0.206 F 
ATOM     74  C   UNL A   1      49.301  26.507  25.976  1.00  0.00     0.040 A 
ATOM     75  C   UNL A   1      48.333  27.253  23.902  1.00  0.00     0.040 A 
ATOM     76  F   UNL A   1      46.143  28.096  23.867  1.00  0.00    -0.206 F 
ATOM     77  C   UNL A   1      49.416  26.729  24.605  1.00  0.00     0.006 A 
ENDBRANCH  49  70
BRANCH  61  78
ATOM     78  C   UNL A   1      45.097  33.217  29.166  1.00  0.00     0.057 A 
ATOM     79  C   UNL A   1      44.967  34.305  28.294  1.00  0.00     0.134 A 
ATOM     80  C   UNL A   1      45.886  33.394  30.310  1.00  0.00     0.134 A 
ATOM     81  F   UNL A   1      44.236  34.195  27.175  1.00  0.00    -0.206 F 
ATOM     82  C   UNL A   1      45.613  35.516  28.541  1.00  0.00     0.040 A 
ATOM     83  C   UNL A   1      46.517  34.609  30.580  1.00  0.00     0.040 A 
ATOM     84  F   UNL A   1      46.044  32.395  31.190  1.00  0.00    -0.206 F 
ATOM     85  C   UNL A   1      46.386  35.673  29.691  1.00  0.00     0.006 A 
ENDBRANCH  61  78
ENDBRANCH  35  36
ENDBRANCH  28  30
ENDBRANCH  27  28
ENDBRANCH  26  27
ENDBRANCH  25  26
ENDBRANCH  24  25
ENDBRANCH   1  24
TORSDOF 18
ENDMDL
