MODEL 1
REMARK VINA RESULT:     -10.8      0.000      0.000
REMARK SMILES [NH3+][C@H]1CCCC[C@@H]1C(=O)N1CC(C(=O)OCCOCCOC(=O)c2ccc(-c3c4nc(c(-c5c(F)cccc5F)c5ccc([nH]5)c(-c5c(F)cccc5F)c5nc(c(-c6c(F)cccc6F)c6ccc3[nH]6)C=C5)C=C4)cc2)C1
REMARK SMILES IDX 18 1 17 2 16 3 15 4 13 5 14 6 12 7 8 8 9 9 10 10 11 11 78 12
REMARK SMILES IDX 7 13 2 14 3 15 4 16 6 17 5 18 1 19 19 23 20 24 21 25 22 26
REMARK SMILES IDX 23 27 24 28 25 29 77 30 26 31 76 32 27 33 28 34 29 35 70 36
REMARK SMILES IDX 30 37 75 38 69 39 71 40 31 41 74 42 68 43 67 44 32 46 58 47
REMARK SMILES IDX 41 48 57 49 42 50 45 51 56 52 72 53 43 54 44 55 55 57 73 58
REMARK SMILES IDX 46 59 33 60 34 61 39 62 35 63 36 64 38 65 40 66 37 67 59 68
REMARK SMILES IDX 60 69 65 70 61 71 62 72 64 73 66 74 63 75 47 76 48 77 53 78
REMARK SMILES IDX 49 79 50 80 52 81 54 82 51 83
REMARK H PARENT 1 20 1 21 1 22 71 45 45 56
REMARK Flexibility Score: inf
ROOT
ATOM      1  O   UNL A   1      34.240  33.367  28.163  1.00  0.00    -0.374 OA
ENDROOT
BRANCH   1   2
ATOM      2  C   UNL A   1      33.278  32.529  27.524  1.00  0.00     0.202 C 
BRANCH   2   3
ATOM      3  C   UNL A   1      33.423  31.023  27.765  1.00  0.00     0.261 C 
BRANCH   3   4
ATOM      4  O   UNL A   1      33.347  30.295  26.529  1.00  0.00    -0.463 OA
BRANCH   4   5
ATOM      5  C   UNL A   1      34.061  29.129  26.486  1.00  0.00     0.312 C 
ATOM      6  O   UNL A   1      35.112  28.955  27.102  1.00  0.00    -0.252 OA
BRANCH   5   7
ATOM      7  C   UNL A   1      33.370  28.040  25.658  1.00  0.00     0.138 C 
ATOM      8  C   UNL A   1      31.455  27.452  22.922  1.00  0.00     0.231 C 
ATOM      9  O   UNL A   1      31.997  26.831  22.000  1.00  0.00    -0.274 OA
ATOM     10  N   UNL A   1      32.123  27.652  24.088  1.00  0.00    -0.340 N 
ATOM     11  C   UNL A   1      33.485  28.177  24.141  1.00  0.00     0.136 C 
ATOM     12  C   UNL A   1      31.837  28.044  25.453  1.00  0.00     0.136 C 
BRANCH   8  13
ATOM     13  C   UNL A   1      30.068  28.038  22.704  1.00  0.00     0.136 C 
ATOM     14  C   UNL A   1      30.035  29.575  22.582  1.00  0.00     0.193 C 
ATOM     15  C   UNL A   1      28.634  30.048  22.173  1.00  0.00     0.066 C 
ATOM     16  C   UNL A   1      27.567  29.525  23.133  1.00  0.00     0.006 C 
ATOM     17  C   UNL A   1      29.027  27.536  23.704  1.00  0.00     0.020 C 
ATOM     18  C   UNL A   1      27.629  28.007  23.286  1.00  0.00     0.001 C 
BRANCH  14  19
ATOM     19  N   UNL A   1      31.023  30.077  21.625  1.00  0.00    -0.354 N 
ATOM     20  H   UNL A   1      31.044  29.468  20.808  1.00  0.00     0.344 HD
ATOM     21  H   UNL A   1      31.944  30.091  22.062  1.00  0.00     0.344 HD
ATOM     22  H   UNL A   1      30.768  31.023  21.339  1.00  0.00     0.344 HD
ENDBRANCH  14  19
ENDBRANCH   8  13
ENDBRANCH   5   7
ENDBRANCH   4   5
ENDBRANCH   3   4
ENDBRANCH   2   3
ENDBRANCH   1   2
BRANCH   1  23
ATOM     23  C   UNL A   1      33.786  34.236  29.203  1.00  0.00     0.202 C 
BRANCH  23  24
ATOM     24  C   UNL A   1      34.331  33.979  30.612  1.00  0.00     0.261 C 
BRANCH  24  25
ATOM     25  O   UNL A   1      34.467  32.573  30.897  1.00  0.00    -0.460 OA
BRANCH  25  26
ATOM     26  C   UNL A   1      35.410  32.268  31.818  1.00  0.00     0.338 C 
ATOM     27  O   UNL A   1      35.377  32.509  33.023  1.00  0.00    -0.246 OA
BRANCH  26  28
ATOM     28  C   UNL A   1      36.460  31.430  31.221  1.00  0.00     0.060 A 
ATOM     29  C   UNL A   1      37.377  30.818  32.087  1.00  0.00     0.016 A 
ATOM     30  C   UNL A   1      36.607  31.318  29.837  1.00  0.00     0.016 A 
ATOM     31  C   UNL A   1      38.474  30.130  31.571  1.00  0.00     0.010 A 
ATOM     32  C   UNL A   1      37.716  30.639  29.322  1.00  0.00     0.010 A 
ATOM     33  C   UNL A   1      38.671  30.072  30.186  1.00  0.00    -0.014 A 
BRANCH  33  34
ATOM     34  C   UNL A   1      39.950  29.551  29.646  1.00  0.00     0.031 A 
ATOM     35  C   UNL A   1      41.131  30.476  29.548  1.00  0.00     0.074 A 
ATOM     36  C   UNL A   1      40.064  28.267  29.265  1.00  0.00     0.049 A 
ATOM     37  N   UNL A   1      42.321  30.254  29.054  1.00  0.00    -0.248 NA
ATOM     38  C   UNL A   1      40.941  31.837  30.079  1.00  0.00     0.031 C 
ATOM     39  C   UNL A   1      39.009  27.260  29.355  1.00  0.00     0.029 A 
ATOM     40  N   UNL A   1      41.127  27.595  28.716  1.00  0.00    -0.354 N 
ATOM     41  C   UNL A   1      43.021  31.444  29.209  1.00  0.00     0.074 A 
ATOM     42  C   UNL A   1      42.115  32.394  29.818  1.00  0.00     0.031 C 
ATOM     43  C   UNL A   1      39.474  26.098  28.864  1.00  0.00     0.029 A 
ATOM     44  C   UNL A   1      40.846  26.289  28.397  1.00  0.00     0.049 A 
ATOM     45  H   UNL A   1      42.008  28.009  28.564  1.00  0.00     0.167 HD
ATOM     46  C   UNL A   1      44.306  31.719  28.880  1.00  0.00     0.037 A 
ATOM     47  C   UNL A   1      41.603  25.363  27.778  1.00  0.00     0.037 A 
ATOM     48  C   UNL A   1      45.207  30.775  28.274  1.00  0.00     0.049 A 
ATOM     49  C   UNL A   1      43.003  25.717  27.348  1.00  0.00     0.074 A 
ATOM     50  C   UNL A   1      46.531  30.957  27.911  1.00  0.00     0.029 A 
ATOM     51  N   UNL A   1      44.874  29.473  27.937  1.00  0.00    -0.354 N 
ATOM     52  N   UNL A   1      43.659  26.840  27.509  1.00  0.00    -0.248 NA
ATOM     53  C   UNL A   1      43.765  24.673  26.648  1.00  0.00     0.031 C 
ATOM     54  C   UNL A   1      46.986  29.775  27.317  1.00  0.00     0.029 A 
ATOM     55  C   UNL A   1      45.960  28.845  27.350  1.00  0.00     0.049 A 
ATOM     56  H   UNL A   1      43.996  29.056  28.093  1.00  0.00     0.167 HD
ATOM     57  C   UNL A   1      44.918  26.629  26.960  1.00  0.00     0.074 A 
ATOM     58  C   UNL A   1      44.936  25.269  26.467  1.00  0.00     0.031 C 
ATOM     59  C   UNL A   1      45.965  27.485  26.876  1.00  0.00     0.037 A 
BRANCH  46  60
ATOM     60  C   UNL A   1      44.805  33.107  29.150  1.00  0.00     0.057 A 
ATOM     61  C   UNL A   1      45.461  33.436  30.343  1.00  0.00     0.134 A 
ATOM     62  C   UNL A   1      44.654  34.118  28.193  1.00  0.00     0.134 A 
ATOM     63  F   UNL A   1      45.623  32.516  31.305  1.00  0.00    -0.206 F 
ATOM     64  C   UNL A   1      45.931  34.728  30.583  1.00  0.00     0.040 A 
ATOM     65  C   UNL A   1      45.141  35.407  28.412  1.00  0.00     0.040 A 
ATOM     66  F   UNL A   1      44.038  33.867  27.029  1.00  0.00    -0.206 F 
ATOM     67  C   UNL A   1      45.776  35.717  29.613  1.00  0.00     0.006 A 
ENDBRANCH  46  60
BRANCH  47  68
ATOM     68  C   UNL A   1      41.052  24.013  27.508  1.00  0.00     0.057 A 
ATOM     69  C   UNL A   1      41.483  22.897  28.234  1.00  0.00     0.134 A 
ATOM     70  C   UNL A   1      40.101  23.801  26.501  1.00  0.00     0.134 A 
ATOM     71  F   UNL A   1      42.410  23.032  29.193  1.00  0.00    -0.206 F 
ATOM     72  C   UNL A   1      40.999  21.616  27.959  1.00  0.00     0.040 A 
ATOM     73  C   UNL A   1      39.593  22.529  26.232  1.00  0.00     0.040 A 
ATOM     74  F   UNL A   1      39.649  24.831  25.770  1.00  0.00    -0.206 F 
ATOM     75  C   UNL A   1      40.048  21.431  26.958  1.00  0.00     0.006 A 
ENDBRANCH  47  68
BRANCH  59  76
ATOM     76  C   UNL A   1      47.233  26.965  26.264  1.00  0.00     0.057 A 
ATOM     77  C   UNL A   1      47.507  27.111  24.898  1.00  0.00     0.134 A 
ATOM     78  C   UNL A   1      48.210  26.358  27.062  1.00  0.00     0.134 A 
ATOM     79  F   UNL A   1      46.606  27.673  24.079  1.00  0.00    -0.206 F 
ATOM     80  C   UNL A   1      48.705  26.655  24.345  1.00  0.00     0.040 A 
ATOM     81  C   UNL A   1      49.421  25.918  26.524  1.00  0.00     0.040 A 
ATOM     82  F   UNL A   1      48.011  26.196  28.378  1.00  0.00    -0.206 F 
ATOM     83  C   UNL A   1      49.669  26.063  25.161  1.00  0.00     0.006 A 
ENDBRANCH  59  76
ENDBRANCH  33  34
ENDBRANCH  26  28
ENDBRANCH  25  26
ENDBRANCH  24  25
ENDBRANCH  23  24
ENDBRANCH   1  23
TORSDOF 16
ENDMDL
MODEL 2
REMARK VINA RESULT:     -10.8      1.130      1.810
REMARK SMILES [NH3+][C@H]1CCCC[C@@H]1C(=O)N1CC(C(=O)OCCOCCOC(=O)c2ccc(-c3c4nc(c(-c5c(F)cccc5F)c5ccc([nH]5)c(-c5c(F)cccc5F)c5nc(c(-c6c(F)cccc6F)c6ccc3[nH]6)C=C5)C=C4)cc2)C1
REMARK SMILES IDX 18 1 17 2 16 3 15 4 13 5 14 6 12 7 8 8 9 9 10 10 11 11 78 12
REMARK SMILES IDX 7 13 2 14 3 15 4 16 6 17 5 18 1 19 19 23 20 24 21 25 22 26
REMARK SMILES IDX 23 27 24 28 25 29 77 30 26 31 76 32 27 33 28 34 29 35 70 36
REMARK SMILES IDX 30 37 75 38 69 39 71 40 31 41 74 42 68 43 67 44 32 46 58 47
REMARK SMILES IDX 41 48 57 49 42 50 45 51 56 52 72 53 43 54 44 55 55 57 73 58
REMARK SMILES IDX 46 59 33 60 34 61 39 62 35 63 36 64 38 65 40 66 37 67 59 68
REMARK SMILES IDX 60 69 65 70 61 71 62 72 64 73 66 74 63 75 47 76 48 77 53 78
REMARK SMILES IDX 49 79 50 80 52 81 54 82 51 83
REMARK H PARENT 1 20 1 21 1 22 71 45 45 56
REMARK Flexibility Score: inf
ROOT
ATOM      1  O   UNL A   1      34.823  33.427  29.128  1.00  0.00    -0.374 OA
ENDROOT
BRANCH   1   2
ATOM      2  C   UNL A   1      34.073  33.017  27.986  1.00  0.00     0.202 C 
BRANCH   2   3
ATOM      3  C   UNL A   1      33.942  31.507  27.766  1.00  0.00     0.261 C 
BRANCH   3   4
ATOM      4  O   UNL A   1      32.683  31.184  27.152  1.00  0.00    -0.463 OA
BRANCH   4   5
ATOM      5  C   UNL A   1      32.527  29.878  26.778  1.00  0.00     0.312 C 
ATOM      6  O   UNL A   1      32.383  28.956  27.580  1.00  0.00    -0.252 OA
BRANCH   5   7
ATOM      7  C   UNL A   1      32.468  29.699  25.258  1.00  0.00     0.138 C 
ATOM      8  C   UNL A   1      31.118  27.863  22.746  1.00  0.00     0.231 C 
ATOM      9  O   UNL A   1      30.321  28.453  22.007  1.00  0.00    -0.274 OA
ATOM     10  N   UNL A   1      31.770  28.549  23.721  1.00  0.00    -0.340 N 
ATOM     11  C   UNL A   1      31.085  29.425  24.667  1.00  0.00     0.136 C 
ATOM     12  C   UNL A   1      32.917  28.378  24.590  1.00  0.00     0.136 C 
BRANCH   8  13
ATOM     13  C   UNL A   1      31.303  26.361  22.587  1.00  0.00     0.136 C 
ATOM     14  C   UNL A   1      30.648  25.516  23.697  1.00  0.00     0.193 C 
ATOM     15  C   UNL A   1      30.721  24.024  23.346  1.00  0.00     0.066 C 
ATOM     16  C   UNL A   1      32.157  23.588  23.063  1.00  0.00     0.006 C 
ATOM     17  C   UNL A   1      32.754  25.944  22.351  1.00  0.00     0.020 C 
ATOM     18  C   UNL A   1      32.819  24.455  21.995  1.00  0.00     0.001 C 
BRANCH  14  19
ATOM     19  N   UNL A   1      29.254  25.897  23.936  1.00  0.00    -0.354 N 
ATOM     20  H   UNL A   1      29.140  26.895  23.762  1.00  0.00     0.344 HD
ATOM     21  H   UNL A   1      29.006  25.691  24.904  1.00  0.00     0.344 HD
ATOM     22  H   UNL A   1      28.645  25.370  23.310  1.00  0.00     0.344 HD
ENDBRANCH  14  19
ENDBRANCH   8  13
ENDBRANCH   5   7
ENDBRANCH   4   5
ENDBRANCH   3   4
ENDBRANCH   2   3
ENDBRANCH   1   2
BRANCH   1  23
ATOM     23  C   UNL A   1      34.156  34.209  30.122  1.00  0.00     0.202 C 
BRANCH  23  24
ATOM     24  C   UNL A   1      34.420  33.845  31.587  1.00  0.00     0.261 C 
BRANCH  24  25
ATOM     25  O   UNL A   1      34.714  32.446  31.758  1.00  0.00    -0.460 OA
BRANCH  25  26
ATOM     26  C   UNL A   1      35.757  32.180  32.577  1.00  0.00     0.338 C 
ATOM     27  O   UNL A   1      35.842  32.429  33.778  1.00  0.00    -0.246 OA
BRANCH  26  28
ATOM     28  C   UNL A   1      36.768  31.373  31.878  1.00  0.00     0.060 A 
ATOM     29  C   UNL A   1      37.808  30.825  32.642  1.00  0.00     0.016 A 
ATOM     30  C   UNL A   1      36.757  31.231  30.489  1.00  0.00     0.016 A 
ATOM     31  C   UNL A   1      38.867  30.173  32.015  1.00  0.00     0.010 A 
ATOM     32  C   UNL A   1      37.828  30.586  29.861  1.00  0.00     0.010 A 
ATOM     33  C   UNL A   1      38.903  30.086  30.618  1.00  0.00    -0.014 A 
BRANCH  33  34
ATOM     34  C   UNL A   1      40.133  29.606  29.941  1.00  0.00     0.031 A 
ATOM     35  C   UNL A   1      41.275  30.563  29.744  1.00  0.00     0.074 A 
ATOM     36  C   UNL A   1      40.238  28.333  29.524  1.00  0.00     0.049 A 
ATOM     37  N   UNL A   1      42.414  30.380  29.128  1.00  0.00    -0.248 NA
ATOM     38  C   UNL A   1      41.109  31.908  30.319  1.00  0.00     0.031 C 
ATOM     39  C   UNL A   1      39.221  27.298  29.699  1.00  0.00     0.029 A 
ATOM     40  N   UNL A   1      41.255  27.698  28.857  1.00  0.00    -0.354 N 
ATOM     41  C   UNL A   1      43.099  31.584  29.237  1.00  0.00     0.074 A 
ATOM     42  C   UNL A   1      42.237  32.499  29.954  1.00  0.00     0.031 C 
ATOM     43  C   UNL A   1      39.660  26.158  29.140  1.00  0.00     0.029 A 
ATOM     44  C   UNL A   1      40.973  26.392  28.541  1.00  0.00     0.049 A 
ATOM     45  H   UNL A   1      42.106  28.137  28.626  1.00  0.00     0.167 HD
ATOM     46  C   UNL A   1      44.338  31.897  28.786  1.00  0.00     0.037 A 
ATOM     47  C   UNL A   1      41.685  25.497  27.830  1.00  0.00     0.037 A 
ATOM     48  C   UNL A   1      45.195  30.987  28.073  1.00  0.00     0.049 A 
ATOM     49  C   UNL A   1      43.026  25.894  27.269  1.00  0.00     0.074 A 
ATOM     50  C   UNL A   1      46.470  31.209  27.583  1.00  0.00     0.029 A 
ATOM     51  N   UNL A   1      44.859  29.684  27.745  1.00  0.00    -0.354 N 
ATOM     52  N   UNL A   1      43.668  27.030  27.387  1.00  0.00    -0.248 NA
ATOM     53  C   UNL A   1      43.738  24.882  26.475  1.00  0.00     0.031 C 
ATOM     54  C   UNL A   1      46.890  30.050  26.922  1.00  0.00     0.029 A 
ATOM     55  C   UNL A   1      45.895  29.094  27.039  1.00  0.00     0.049 A 
ATOM     56  H   UNL A   1      44.011  29.242  27.979  1.00  0.00     0.167 HD
ATOM     57  C   UNL A   1      44.870  26.860  26.710  1.00  0.00     0.074 A 
ATOM     58  C   UNL A   1      44.870  25.510  26.189  1.00  0.00     0.031 C 
ATOM     59  C   UNL A   1      45.883  27.743  26.539  1.00  0.00     0.037 A 
BRANCH  46  60
ATOM     60  C   UNL A   1      44.829  33.292  29.033  1.00  0.00     0.057 A 
ATOM     61  C   UNL A   1      45.584  33.619  30.167  1.00  0.00     0.134 A 
ATOM     62  C   UNL A   1      44.570  34.313  28.111  1.00  0.00     0.134 A 
ATOM     63  F   UNL A   1      45.853  32.688  31.095  1.00  0.00    -0.206 F 
ATOM     64  C   UNL A   1      46.046  34.918  30.385  1.00  0.00     0.040 A 
ATOM     65  C   UNL A   1      45.047  35.610  28.307  1.00  0.00     0.040 A 
ATOM     66  F   UNL A   1      43.856  34.066  27.003  1.00  0.00    -0.206 F 
ATOM     67  C   UNL A   1      45.782  35.916  29.450  1.00  0.00     0.006 A 
ENDBRANCH  46  60
BRANCH  47  68
ATOM     68  C   UNL A   1      41.141  24.138  27.589  1.00  0.00     0.057 A 
ATOM     69  C   UNL A   1      41.649  23.024  28.266  1.00  0.00     0.134 A 
ATOM     70  C   UNL A   1      40.118  23.917  26.658  1.00  0.00     0.134 A 
ATOM     71  F   UNL A   1      42.646  23.169  29.151  1.00  0.00    -0.206 F 
ATOM     72  C   UNL A   1      41.171  21.737  28.016  1.00  0.00     0.040 A 
ATOM     73  C   UNL A   1      39.616  22.638  26.415  1.00  0.00     0.040 A 
ATOM     74  F   UNL A   1      39.590  24.944  25.976  1.00  0.00    -0.206 F 
ATOM     75  C   UNL A   1      40.148  21.542  27.090  1.00  0.00     0.006 A 
ENDBRANCH  47  68
BRANCH  59  76
ATOM     76  C   UNL A   1      47.094  27.267  25.791  1.00  0.00     0.057 A 
ATOM     77  C   UNL A   1      47.259  27.507  24.422  1.00  0.00     0.134 A 
ATOM     78  C   UNL A   1      48.129  26.605  26.463  1.00  0.00     0.134 A 
ATOM     79  F   UNL A   1      46.298  28.126  23.719  1.00  0.00    -0.206 F 
ATOM     80  C   UNL A   1      48.406  27.090  23.743  1.00  0.00     0.040 A 
ATOM     81  C   UNL A   1      49.290  26.203  25.800  1.00  0.00     0.040 A 
ATOM     82  F   UNL A   1      48.036  26.352  27.778  1.00  0.00    -0.206 F 
ATOM     83  C   UNL A   1      49.428  26.443  24.435  1.00  0.00     0.006 A 
ENDBRANCH  59  76
ENDBRANCH  33  34
ENDBRANCH  26  28
ENDBRANCH  25  26
ENDBRANCH  24  25
ENDBRANCH  23  24
ENDBRANCH   1  23
TORSDOF 16
ENDMDL
MODEL 3
REMARK VINA RESULT:     -10.7      4.697      8.254
REMARK SMILES [NH3+][C@H]1CCCC[C@@H]1C(=O)N1CC(C(=O)OCCOCCOC(=O)c2ccc(-c3c4nc(c(-c5c(F)cccc5F)c5ccc([nH]5)c(-c5c(F)cccc5F)c5nc(c(-c6c(F)cccc6F)c6ccc3[nH]6)C=C5)C=C4)cc2)C1
REMARK SMILES IDX 18 1 17 2 16 3 15 4 13 5 14 6 12 7 8 8 9 9 10 10 11 11 78 12
REMARK SMILES IDX 7 13 2 14 3 15 4 16 6 17 5 18 1 19 19 23 20 24 21 25 22 26
REMARK SMILES IDX 23 27 24 28 25 29 77 30 26 31 76 32 27 33 28 34 29 35 70 36
REMARK SMILES IDX 30 37 75 38 69 39 71 40 31 41 74 42 68 43 67 44 32 46 58 47
REMARK SMILES IDX 41 48 57 49 42 50 45 51 56 52 72 53 43 54 44 55 55 57 73 58
REMARK SMILES IDX 46 59 33 60 34 61 39 62 35 63 36 64 38 65 40 66 37 67 59 68
REMARK SMILES IDX 60 69 65 70 61 71 62 72 64 73 66 74 63 75 47 76 48 77 53 78
REMARK SMILES IDX 49 79 50 80 52 81 54 82 51 83
REMARK H PARENT 1 20 1 21 1 22 71 45 45 56
REMARK Flexibility Score: inf
ROOT
ATOM      1  O   UNL A   1      31.183  28.863  24.180  1.00  0.00    -0.374 OA
ENDROOT
BRANCH   1   2
ATOM      2  C   UNL A   1      31.631  27.749  23.410  1.00  0.00     0.202 C 
BRANCH   2   3
ATOM      3  C   UNL A   1      32.318  26.619  24.184  1.00  0.00     0.261 C 
BRANCH   3   4
ATOM      4  O   UNL A   1      31.358  25.659  24.653  1.00  0.00    -0.463 OA
BRANCH   4   5
ATOM      5  C   UNL A   1      31.162  25.634  26.006  1.00  0.00     0.312 C 
ATOM      6  O   UNL A   1      30.667  26.567  26.637  1.00  0.00    -0.252 OA
BRANCH   5   7
ATOM      7  C   UNL A   1      31.547  24.292  26.637  1.00  0.00     0.138 C 
ATOM      8  C   UNL A   1      33.015  21.290  26.056  1.00  0.00     0.231 C 
ATOM      9  O   UNL A   1      34.081  21.081  26.648  1.00  0.00    -0.274 OA
ATOM     10  N   UNL A   1      32.318  22.430  26.302  1.00  0.00    -0.340 N 
ATOM     11  C   UNL A   1      32.933  23.755  26.279  1.00  0.00     0.136 C 
ATOM     12  C   UNL A   1      30.987  22.959  26.086  1.00  0.00     0.136 C 
BRANCH   8  13
ATOM     13  C   UNL A   1      32.540  20.290  25.013  1.00  0.00     0.136 C 
ATOM     14  C   UNL A   1      33.043  18.850  25.232  1.00  0.00     0.193 C 
ATOM     15  C   UNL A   1      32.357  17.890  24.251  1.00  0.00     0.066 C 
ATOM     16  C   UNL A   1      32.539  18.348  22.805  1.00  0.00     0.006 C 
ATOM     17  C   UNL A   1      32.772  20.750  23.573  1.00  0.00     0.020 C 
ATOM     18  C   UNL A   1      32.080  19.790  22.599  1.00  0.00     0.001 C 
BRANCH  14  19
ATOM     19  N   UNL A   1      32.825  18.388  26.605  1.00  0.00    -0.354 N 
ATOM     20  H   UNL A   1      32.001  17.788  26.634  1.00  0.00     0.344 HD
ATOM     21  H   UNL A   1      32.682  19.192  27.215  1.00  0.00     0.344 HD
ATOM     22  H   UNL A   1      33.640  17.862  26.919  1.00  0.00     0.344 HD
ENDBRANCH  14  19
ENDBRANCH   8  13
ENDBRANCH   5   7
ENDBRANCH   4   5
ENDBRANCH   3   4
ENDBRANCH   2   3
ENDBRANCH   1   2
BRANCH   1  23
ATOM     23  C   UNL A   1      32.104  29.454  25.100  1.00  0.00     0.202 C 
BRANCH  23  24
ATOM     24  C   UNL A   1      31.647  30.727  25.821  1.00  0.00     0.261 C 
BRANCH  24  25
ATOM     25  O   UNL A   1      32.237  30.856  27.129  1.00  0.00    -0.460 OA
BRANCH  25  26
ATOM     26  C   UNL A   1      32.983  31.971  27.309  1.00  0.00     0.338 C 
ATOM     27  O   UNL A   1      32.600  33.137  27.255  1.00  0.00    -0.246 OA
BRANCH  26  28
ATOM     28  C   UNL A   1      34.337  31.617  27.760  1.00  0.00     0.060 A 
ATOM     29  C   UNL A   1      34.591  30.274  28.072  1.00  0.00     0.016 A 
ATOM     30  C   UNL A   1      35.315  32.592  27.967  1.00  0.00     0.016 A 
ATOM     31  C   UNL A   1      35.810  29.907  28.637  1.00  0.00     0.010 A 
ATOM     32  C   UNL A   1      36.534  32.222  28.546  1.00  0.00     0.010 A 
ATOM     33  C   UNL A   1      36.772  30.885  28.915  1.00  0.00    -0.014 A 
BRANCH  33  34
ATOM     34  C   UNL A   1      37.964  30.536  29.726  1.00  0.00     0.031 A 
ATOM     35  C   UNL A   1      39.009  29.632  29.134  1.00  0.00     0.074 A 
ATOM     36  C   UNL A   1      38.122  31.032  30.966  1.00  0.00     0.049 A 
ATOM     37  N   UNL A   1      40.095  29.149  29.681  1.00  0.00    -0.248 NA
ATOM     38  C   UNL A   1      38.800  29.218  27.737  1.00  0.00     0.031 C 
ATOM     39  C   UNL A   1      37.205  31.954  31.632  1.00  0.00     0.029 A 
ATOM     40  N   UNL A   1      39.115  30.816  31.888  1.00  0.00    -0.354 N 
ATOM     41  C   UNL A   1      40.696  28.371  28.698  1.00  0.00     0.074 A 
ATOM     42  C   UNL A   1      39.841  28.425  27.532  1.00  0.00     0.031 C 
ATOM     43  C   UNL A   1      37.672  32.216  32.866  1.00  0.00     0.029 A 
ATOM     44  C   UNL A   1      38.901  31.455  33.085  1.00  0.00     0.049 A 
ATOM     45  H   UNL A   1      39.906  30.256  31.710  1.00  0.00     0.167 HD
ATOM     46  C   UNL A   1      41.860  27.681  28.762  1.00  0.00     0.037 A 
ATOM     47  C   UNL A   1      39.607  31.411  34.232  1.00  0.00     0.037 A 
ATOM     48  C   UNL A   1      42.709  27.627  29.921  1.00  0.00     0.049 A 
ATOM     49  C   UNL A   1      40.854  30.571  34.302  1.00  0.00     0.074 A 
ATOM     50  C   UNL A   1      43.913  26.961  30.079  1.00  0.00     0.029 A 
ATOM     51  N   UNL A   1      42.441  28.262  31.124  1.00  0.00    -0.354 N 
ATOM     52  N   UNL A   1      41.420  29.849  33.366  1.00  0.00    -0.248 NA
ATOM     53  C   UNL A   1      41.560  30.539  35.592  1.00  0.00     0.031 C 
ATOM     54  C   UNL A   1      44.352  27.161  31.392  1.00  0.00     0.029 A 
ATOM     55  C   UNL A   1      43.445  27.985  32.037  1.00  0.00     0.049 A 
ATOM     56  H   UNL A   1      41.654  28.826  31.302  1.00  0.00     0.167 HD
ATOM     57  C   UNL A   1      42.561  29.303  33.942  1.00  0.00     0.074 A 
ATOM     58  C   UNL A   1      42.610  29.782  35.307  1.00  0.00     0.031 C 
ATOM     59  C   UNL A   1      43.486  28.482  33.388  1.00  0.00     0.037 A 
BRANCH  46  60
ATOM     60  C   UNL A   1      42.268  26.907  27.544  1.00  0.00     0.057 A 
ATOM     61  C   UNL A   1      41.917  25.561  27.372  1.00  0.00     0.134 A 
ATOM     62  C   UNL A   1      42.994  27.523  26.517  1.00  0.00     0.134 A 
ATOM     63  F   UNL A   1      41.234  24.911  28.326  1.00  0.00    -0.206 F 
ATOM     64  C   UNL A   1      42.292  24.850  26.231  1.00  0.00     0.040 A 
ATOM     65  C   UNL A   1      43.355  26.828  25.361  1.00  0.00     0.040 A 
ATOM     66  F   UNL A   1      43.358  28.809  26.618  1.00  0.00    -0.206 F 
ATOM     67  C   UNL A   1      43.008  25.486  25.219  1.00  0.00     0.006 A 
ENDBRANCH  46  60
BRANCH  47  68
ATOM     68  C   UNL A   1      39.144  32.172  35.418  1.00  0.00     0.057 A 
ATOM     69  C   UNL A   1      38.330  31.576  36.387  1.00  0.00     0.134 A 
ATOM     70  C   UNL A   1      39.483  33.520  35.597  1.00  0.00     0.134 A 
ATOM     71  F   UNL A   1      37.952  30.297  36.258  1.00  0.00    -0.206 F 
ATOM     72  C   UNL A   1      37.857  32.296  37.486  1.00  0.00     0.040 A 
ATOM     73  C   UNL A   1      39.035  34.244  36.702  1.00  0.00     0.040 A 
ATOM     74  F   UNL A   1      40.259  34.147  34.702  1.00  0.00    -0.206 F 
ATOM     75  C   UNL A   1      38.213  33.634  37.647  1.00  0.00     0.006 A 
ENDBRANCH  47  68
BRANCH  59  76
ATOM     76  C   UNL A   1      44.651  28.080  34.243  1.00  0.00     0.057 A 
ATOM     77  C   UNL A   1      44.637  26.907  35.008  1.00  0.00     0.134 A 
ATOM     78  C   UNL A   1      45.820  28.852  34.260  1.00  0.00     0.134 A 
ATOM     79  F   UNL A   1      43.543  26.131  35.044  1.00  0.00    -0.206 F 
ATOM     80  C   UNL A   1      45.741  26.525  35.773  1.00  0.00     0.040 A 
ATOM     81  C   UNL A   1      46.937  28.468  35.003  1.00  0.00     0.040 A 
ATOM     82  F   UNL A   1      45.900  29.982  33.542  1.00  0.00    -0.206 F 
ATOM     83  C   UNL A   1      46.898  27.303  35.765  1.00  0.00     0.006 A 
ENDBRANCH  59  76
ENDBRANCH  33  34
ENDBRANCH  26  28
ENDBRANCH  25  26
ENDBRANCH  24  25
ENDBRANCH  23  24
ENDBRANCH   1  23
TORSDOF 16
ENDMDL
