MODEL 1
REMARK VINA RESULT:     -11.5      0.000      0.000
REMARK SMILES Cc1nnc(SCC2=C(C(=O)OCCOCCOC(=O)c3ccc(-c4c5nc(c(-c6c(F)cccc6F)c6ccc([nH]6)c(-c6c(F)cccc6F)c6nc(c(-c7c(F)cccc7F)c7ccc4[nH]7)C=C6)C=C5)cc3)N3C(=O)[C@H](NC(=O)c4cn(C)nc4C)[C@@H]3SC2)s1
REMARK SMILES IDX 14 1 13 2 12 3 10 4 11 5 9 6 8 7 91 8 75 9 90 10 76 11 89 12
REMARK SMILES IDX 77 13 78 14 7 15 6 16 5 17 1 18 2 19 3 20 92 21 4 22 79 23
REMARK SMILES IDX 80 24 81 26 82 27 83 28 87 29 84 30 86 31 88 32 85 33 15 34
REMARK SMILES IDX 16 35 17 36 18 37 19 38 20 39 21 40 22 41 74 42 23 43 73 44
REMARK SMILES IDX 24 45 25 46 26 47 67 48 27 49 72 50 66 51 68 52 28 53 71 54
REMARK SMILES IDX 65 55 64 56 29 58 55 59 38 60 54 61 39 62 42 63 53 64 69 65
REMARK SMILES IDX 40 66 41 67 52 69 70 70 43 71 30 72 31 73 36 74 32 75 33 76
REMARK SMILES IDX 35 77 37 78 34 79 56 80 57 81 62 82 58 83 59 84 61 85 63 86
REMARK SMILES IDX 60 87 44 88 45 89 50 90 46 91 47 92 49 93 51 94 48 95
REMARK H PARENT 79 25 68 57 42 68
REMARK Flexibility Score: inf
ROOT
ATOM      1  C   UNL A   1      34.623  30.144  26.999  1.00  0.00     0.202 C 
ENDROOT
BRANCH   1   2
ATOM      2  C   UNL A   1      34.342  28.681  27.342  1.00  0.00     0.261 C 
BRANCH   2   3
ATOM      3  O   UNL A   1      34.254  27.917  26.129  1.00  0.00    -0.459 OA
BRANCH   3   4
ATOM      4  C   UNL A   1      33.194  27.072  26.068  1.00  0.00     0.355 C 
ATOM      5  O   UNL A   1      32.508  26.700  27.004  1.00  0.00    -0.244 OA
BRANCH   4   6
ATOM      6  C   UNL A   1      32.900  26.768  24.627  1.00  0.00     0.132 C 
ATOM      7  C   UNL A   1      33.402  25.680  23.983  1.00  0.00    -0.019 C 
ATOM      8  C   UNL A   1      32.988  25.316  22.561  1.00  0.00     0.106 C 
ATOM      9  N   UNL A   1      32.085  27.650  23.990  1.00  0.00    -0.289 N 
ATOM     10  S   UNL A   1      31.391  26.031  22.036  1.00  0.00    -0.129 SA
ATOM     11  C   UNL A   1      31.449  28.805  24.268  1.00  0.00     0.253 C 
ATOM     12  C   UNL A   1      31.850  27.684  22.564  1.00  0.00     0.181 C 
ATOM     13  O   UNL A   1      31.459  29.553  25.219  1.00  0.00    -0.272 OA
ATOM     14  C   UNL A   1      30.735  28.731  22.866  1.00  0.00     0.206 C 
BRANCH   7  15
ATOM     15  C   UNL A   1      34.453  24.793  24.642  1.00  0.00     0.111 C 
BRANCH  15  16
ATOM     16  S   UNL A   1      35.088  23.412  23.663  1.00  0.00    -0.089 SA
BRANCH  16  17
ATOM     17  C   UNL A   1      34.080  22.103  24.223  1.00  0.00     0.174 A 
ATOM     18  C   UNL A   1      32.813  18.747  25.554  1.00  0.00     0.081 C 
ATOM     19  C   UNL A   1      33.105  20.096  25.011  1.00  0.00     0.115 A 
ATOM     20  N   UNL A   1      32.203  20.941  24.559  1.00  0.00    -0.143 NA
ATOM     21  S   UNL A   1      34.718  20.680  24.928  1.00  0.00    -0.091 S 
ATOM     22  N   UNL A   1      32.772  22.112  24.106  1.00  0.00    -0.132 NA
ENDBRANCH  16  17
ENDBRANCH  15  16
ENDBRANCH   7  15
BRANCH  14  23
ATOM     23  N   UNL A   1      29.330  28.255  22.927  1.00  0.00    -0.337 N 
ATOM     24  C   UNL A   1      28.172  28.958  22.706  1.00  0.00     0.255 C 
ATOM     25  H   UNL A   1      29.212  27.305  23.158  1.00  0.00     0.164 HD
ATOM     26  O   UNL A   1      27.097  28.456  23.020  1.00  0.00    -0.269 OA
BRANCH  24  27
ATOM     27  C   UNL A   1      28.263  30.283  22.126  1.00  0.00     0.080 A 
ATOM     28  C   UNL A   1      27.951  30.665  20.834  1.00  0.00     0.122 A 
ATOM     29  C   UNL A   1      28.623  31.500  22.770  1.00  0.00     0.072 A 
ATOM     30  N   UNL A   1      28.192  32.003  20.761  1.00  0.00    -0.275 N 
ATOM     31  N   UNL A   1      28.602  32.537  21.921  1.00  0.00    -0.178 NA
ATOM     32  C   UNL A   1      29.026  31.720  24.182  1.00  0.00     0.069 C 
ATOM     33  C   UNL A   1      28.070  32.848  19.599  1.00  0.00     0.173 C 
ENDBRANCH  24  27
ENDBRANCH  14  23
ENDBRANCH   4   6
ENDBRANCH   3   4
ENDBRANCH   2   3
ENDBRANCH   1   2
BRANCH   1  34
ATOM     34  O   UNL A   1      33.482  31.003  26.941  1.00  0.00    -0.374 OA
BRANCH  34  35
ATOM     35  C   UNL A   1      33.373  32.036  27.917  1.00  0.00     0.202 C 
BRANCH  35  36
ATOM     36  C   UNL A   1      33.002  33.430  27.397  1.00  0.00     0.261 C 
BRANCH  36  37
ATOM     37  O   UNL A   1      32.347  34.250  28.380  1.00  0.00    -0.460 OA
BRANCH  37  38
ATOM     38  C   UNL A   1      33.099  35.283  28.837  1.00  0.00     0.338 C 
ATOM     39  O   UNL A   1      32.860  36.475  28.743  1.00  0.00    -0.246 OA
BRANCH  38  40
ATOM     40  C   UNL A   1      34.242  34.777  29.617  1.00  0.00     0.060 A 
ATOM     41  C   UNL A   1      35.493  34.734  28.989  1.00  0.00     0.016 A 
ATOM     42  C   UNL A   1      34.073  34.255  30.901  1.00  0.00     0.016 A 
ATOM     43  C   UNL A   1      36.576  34.137  29.631  1.00  0.00     0.010 A 
ATOM     44  C   UNL A   1      35.160  33.648  31.540  1.00  0.00     0.010 A 
ATOM     45  C   UNL A   1      36.408  33.560  30.897  1.00  0.00    -0.014 A 
BRANCH  45  46
ATOM     46  C   UNL A   1      37.505  32.760  31.495  1.00  0.00     0.031 A 
ATOM     47  C   UNL A   1      38.061  33.158  32.834  1.00  0.00     0.074 A 
ATOM     48  C   UNL A   1      37.991  31.680  30.857  1.00  0.00     0.049 A 
ATOM     49  N   UNL A   1      39.051  32.634  33.510  1.00  0.00    -0.248 NA
ATOM     50  C   UNL A   1      37.416  34.300  33.498  1.00  0.00     0.031 C 
ATOM     51  C   UNL A   1      37.511  31.170  29.575  1.00  0.00     0.029 A 
ATOM     52  N   UNL A   1      39.006  30.825  31.204  1.00  0.00    -0.354 N 
ATOM     53  C   UNL A   1      39.152  33.384  34.675  1.00  0.00     0.074 A 
ATOM     54  C   UNL A   1      38.141  34.417  34.601  1.00  0.00     0.031 C 
ATOM     55  C   UNL A   1      38.242  30.094  29.235  1.00  0.00     0.029 A 
ATOM     56  C   UNL A   1      39.259  29.862  30.258  1.00  0.00     0.049 A 
ATOM     57  H   UNL A   1      39.506  30.894  32.050  1.00  0.00     0.167 HD
ATOM     58  C   UNL A   1      40.004  33.222  35.715  1.00  0.00     0.037 A 
ATOM     59  C   UNL A   1      40.217  28.917  30.214  1.00  0.00     0.037 A 
ATOM     60  C   UNL A   1      41.008  32.193  35.791  1.00  0.00     0.049 A 
ATOM     61  C   UNL A   1      41.200  28.803  31.347  1.00  0.00     0.074 A 
ATOM     62  C   UNL A   1      41.901  31.931  36.816  1.00  0.00     0.029 A 
ATOM     63  N   UNL A   1      41.255  31.258  34.796  1.00  0.00    -0.354 N 
ATOM     64  N   UNL A   1      41.272  29.502  32.454  1.00  0.00    -0.248 NA
ATOM     65  C   UNL A   1      42.238  27.768  31.225  1.00  0.00     0.031 C 
ATOM     66  C   UNL A   1      42.721  30.869  36.421  1.00  0.00     0.029 A 
ATOM     67  C   UNL A   1      42.307  30.437  35.172  1.00  0.00     0.049 A 
ATOM     68  H   UNL A   1      40.758  31.187  33.951  1.00  0.00     0.167 HD
ATOM     69  C   UNL A   1      42.343  28.979  33.168  1.00  0.00     0.074 A 
ATOM     70  C   UNL A   1      42.884  27.894  32.375  1.00  0.00     0.031 C 
ATOM     71  C   UNL A   1      42.835  29.361  34.372  1.00  0.00     0.037 A 
BRANCH  58  72
ATOM     72  C   UNL A   1      39.903  34.198  36.850  1.00  0.00     0.057 A 
ATOM     73  C   UNL A   1      39.133  33.931  37.989  1.00  0.00     0.134 A 
ATOM     74  C   UNL A   1      40.613  35.405  36.818  1.00  0.00     0.134 A 
ATOM     75  F   UNL A   1      38.418  32.799  38.076  1.00  0.00    -0.206 F 
ATOM     76  C   UNL A   1      39.055  34.840  39.047  1.00  0.00     0.040 A 
ATOM     77  C   UNL A   1      40.564  36.310  37.879  1.00  0.00     0.040 A 
ATOM     78  F   UNL A   1      41.373  35.719  35.758  1.00  0.00    -0.206 F 
ATOM     79  C   UNL A   1      39.777  36.031  38.995  1.00  0.00     0.006 A 
ENDBRANCH  58  72
BRANCH  59  80
ATOM     80  C   UNL A   1      40.310  28.009  29.043  1.00  0.00     0.057 A 
ATOM     81  C   UNL A   1      41.056  28.358  27.912  1.00  0.00     0.134 A 
ATOM     82  C   UNL A   1      39.638  26.781  29.021  1.00  0.00     0.134 A 
ATOM     83  F   UNL A   1      41.701  29.532  27.864  1.00  0.00    -0.206 F 
ATOM     84  C   UNL A   1      41.119  27.525  26.794  1.00  0.00     0.040 A 
ATOM     85  C   UNL A   1      39.713  25.927  27.919  1.00  0.00     0.040 A 
ATOM     86  F   UNL A   1      38.906  26.389  30.074  1.00  0.00    -0.206 F 
ATOM     87  C   UNL A   1      40.450  26.302  26.798  1.00  0.00     0.006 A 
ENDBRANCH  59  80
BRANCH  71  88
ATOM     88  C   UNL A   1      44.000  28.588  34.917  1.00  0.00     0.057 A 
ATOM     89  C   UNL A   1      45.323  28.987  34.690  1.00  0.00     0.134 A 
ATOM     90  C   UNL A   1      43.795  27.452  35.711  1.00  0.00     0.134 A 
ATOM     91  F   UNL A   1      45.589  30.059  33.927  1.00  0.00    -0.206 F 
ATOM     92  C   UNL A   1      46.402  28.273  35.216  1.00  0.00     0.040 A 
ATOM     93  C   UNL A   1      44.864  26.744  36.264  1.00  0.00     0.040 A 
ATOM     94  F   UNL A   1      42.552  27.021  35.975  1.00  0.00    -0.206 F 
ATOM     95  C   UNL A   1      46.172  27.152  36.011  1.00  0.00     0.006 A 
ENDBRANCH  71  88
ENDBRANCH  45  46
ENDBRANCH  38  40
ENDBRANCH  37  38
ENDBRANCH  36  37
ENDBRANCH  35  36
ENDBRANCH  34  35
ENDBRANCH   1  34
TORSDOF 19
ENDMDL
MODEL 2
REMARK VINA RESULT:     -11.4      1.040      5.927
REMARK SMILES Cc1nnc(SCC2=C(C(=O)OCCOCCOC(=O)c3ccc(-c4c5nc(c(-c6c(F)cccc6F)c6ccc([nH]6)c(-c6c(F)cccc6F)c6nc(c(-c7c(F)cccc7F)c7ccc4[nH]7)C=C6)C=C5)cc3)N3C(=O)[C@H](NC(=O)c4cn(C)nc4C)[C@@H]3SC2)s1
REMARK SMILES IDX 14 1 13 2 12 3 10 4 11 5 9 6 8 7 91 8 75 9 90 10 76 11 89 12
REMARK SMILES IDX 77 13 78 14 7 15 6 16 5 17 1 18 2 19 3 20 92 21 4 22 79 23
REMARK SMILES IDX 80 24 81 26 82 27 83 28 87 29 84 30 86 31 88 32 85 33 15 34
REMARK SMILES IDX 16 35 17 36 18 37 19 38 20 39 21 40 22 41 74 42 23 43 73 44
REMARK SMILES IDX 24 45 25 46 26 47 67 48 27 49 72 50 66 51 68 52 28 53 71 54
REMARK SMILES IDX 65 55 64 56 29 58 55 59 38 60 54 61 39 62 42 63 53 64 69 65
REMARK SMILES IDX 40 66 41 67 52 69 70 70 43 71 30 72 31 73 36 74 32 75 33 76
REMARK SMILES IDX 35 77 37 78 34 79 56 80 57 81 62 82 58 83 59 84 61 85 63 86
REMARK SMILES IDX 60 87 44 88 45 89 50 90 46 91 47 92 49 93 51 94 48 95
REMARK H PARENT 79 25 68 57 42 68
REMARK Flexibility Score: inf
ROOT
ATOM      1  C   UNL A   1      34.355  29.595  27.272  1.00  0.00     0.202 C 
ENDROOT
BRANCH   1   2
ATOM      2  C   UNL A   1      33.986  28.662  26.120  1.00  0.00     0.261 C 
BRANCH   2   3
ATOM      3  O   UNL A   1      33.516  27.414  26.652  1.00  0.00    -0.459 OA
BRANCH   3   4
ATOM      4  C   UNL A   1      32.167  27.264  26.639  1.00  0.00     0.355 C 
ATOM      5  O   UNL A   1      31.380  27.708  27.457  1.00  0.00    -0.244 OA
BRANCH   4   6
ATOM      6  C   UNL A   1      31.769  26.575  25.365  1.00  0.00     0.132 C 
ATOM      7  C   UNL A   1      31.970  25.248  25.148  1.00  0.00    -0.019 C 
ATOM      8  C   UNL A   1      31.442  24.540  23.905  1.00  0.00     0.106 C 
ATOM      9  N   UNL A   1      31.178  27.362  24.426  1.00  0.00    -0.289 N 
ATOM     10  S   UNL A   1      30.055  25.399  23.082  1.00  0.00    -0.129 SA
ATOM     11  C   UNL A   1      30.853  28.660  24.270  1.00  0.00     0.253 C 
ATOM     12  C   UNL A   1      30.920  26.972  23.059  1.00  0.00     0.181 C 
ATOM     13  O   UNL A   1      31.073  29.657  24.918  1.00  0.00    -0.272 OA
ATOM     14  C   UNL A   1      30.106  28.294  22.932  1.00  0.00     0.206 C 
BRANCH   7  15
ATOM     15  C   UNL A   1      32.789  24.408  26.123  1.00  0.00     0.111 C 
BRANCH  15  16
ATOM     16  S   UNL A   1      32.253  22.700  26.381  1.00  0.00    -0.089 SA
BRANCH  16  17
ATOM     17  C   UNL A   1      33.658  21.815  25.845  1.00  0.00     0.174 A 
ATOM     18  C   UNL A   1      37.224  20.793  24.910  1.00  0.00     0.081 C 
ATOM     19  C   UNL A   1      35.784  21.008  25.193  1.00  0.00     0.115 A 
ATOM     20  N   UNL A   1      34.816  20.186  24.849  1.00  0.00    -0.143 NA
ATOM     21  S   UNL A   1      35.252  22.411  26.028  1.00  0.00    -0.091 S 
ATOM     22  N   UNL A   1      33.578  20.655  25.235  1.00  0.00    -0.132 NA
ENDBRANCH  16  17
ENDBRANCH  15  16
ENDBRANCH   7  15
BRANCH  14  23
ATOM     23  N   UNL A   1      28.629  28.218  23.067  1.00  0.00    -0.337 N 
ATOM     24  C   UNL A   1      27.718  29.243  23.148  1.00  0.00     0.255 C 
ATOM     25  H   UNL A   1      28.251  27.311  23.103  1.00  0.00     0.164 HD
ATOM     26  O   UNL A   1      26.563  28.993  23.480  1.00  0.00    -0.269 OA
BRANCH  24  27
ATOM     27  C   UNL A   1      28.161  30.592  22.857  1.00  0.00     0.080 A 
ATOM     28  C   UNL A   1      28.661  31.528  23.745  1.00  0.00     0.122 A 
ATOM     29  C   UNL A   1      28.250  31.233  21.590  1.00  0.00     0.072 A 
ATOM     30  N   UNL A   1      28.943  32.639  23.010  1.00  0.00    -0.275 N 
ATOM     31  N   UNL A   1      28.702  32.490  21.700  1.00  0.00    -0.178 NA
ATOM     32  C   UNL A   1      27.884  30.701  20.253  1.00  0.00     0.069 C 
ATOM     33  C   UNL A   1      29.433  33.905  23.499  1.00  0.00     0.173 C 
ENDBRANCH  24  27
ENDBRANCH  14  23
ENDBRANCH   4   6
ENDBRANCH   3   4
ENDBRANCH   2   3
ENDBRANCH   1   2
BRANCH   1  34
ATOM     34  O   UNL A   1      33.404  30.616  27.581  1.00  0.00    -0.374 OA
BRANCH  34  35
ATOM     35  C   UNL A   1      33.872  31.959  27.680  1.00  0.00     0.202 C 
BRANCH  35  36
ATOM     36  C   UNL A   1      32.845  33.062  27.399  1.00  0.00     0.261 C 
BRANCH  36  37
ATOM     37  O   UNL A   1      32.458  33.795  28.574  1.00  0.00    -0.460 OA
BRANCH  37  38
ATOM     38  C   UNL A   1      33.252  34.859  28.856  1.00  0.00     0.338 C 
ATOM     39  O   UNL A   1      33.044  36.031  28.590  1.00  0.00    -0.246 OA
BRANCH  38  40
ATOM     40  C   UNL A   1      34.399  34.437  29.678  1.00  0.00     0.060 A 
ATOM     41  C   UNL A   1      35.683  34.614  29.147  1.00  0.00     0.016 A 
ATOM     42  C   UNL A   1      34.219  33.785  30.899  1.00  0.00     0.016 A 
ATOM     43  C   UNL A   1      36.793  34.108  29.821  1.00  0.00     0.010 A 
ATOM     44  C   UNL A   1      35.334  33.269  31.569  1.00  0.00     0.010 A 
ATOM     45  C   UNL A   1      36.622  33.402  31.019  1.00  0.00    -0.014 A 
BRANCH  45  46
ATOM     46  C   UNL A   1      37.776  32.701  31.634  1.00  0.00     0.031 A 
ATOM     47  C   UNL A   1      38.418  31.556  30.901  1.00  0.00     0.074 A 
ATOM     48  C   UNL A   1      38.256  33.091  32.828  1.00  0.00     0.049 A 
ATOM     49  N   UNL A   1      39.396  30.774  31.278  1.00  0.00    -0.248 NA
ATOM     50  C   UNL A   1      37.882  31.250  29.566  1.00  0.00     0.031 C 
ATOM     51  C   UNL A   1      37.747  34.210  33.618  1.00  0.00     0.029 A 
ATOM     52  N   UNL A   1      39.279  32.578  33.586  1.00  0.00    -0.354 N 
ATOM     53  C   UNL A   1      39.592  29.882  30.232  1.00  0.00     0.074 A 
ATOM     54  C   UNL A   1      38.610  30.200  29.217  1.00  0.00     0.031 C 
ATOM     55  C   UNL A   1      38.453  34.292  34.760  1.00  0.00     0.029 A 
ATOM     56  C   UNL A   1      39.439  33.213  34.793  1.00  0.00     0.049 A 
ATOM     57  H   UNL A   1      39.844  31.827  33.293  1.00  0.00     0.167 HD
ATOM     58  C   UNL A   1      40.510  28.891  30.124  1.00  0.00     0.037 A 
ATOM     59  C   UNL A   1      40.269  32.940  35.816  1.00  0.00     0.037 A 
ATOM     60  C   UNL A   1      41.488  28.577  31.132  1.00  0.00     0.049 A 
ATOM     61  C   UNL A   1      41.231  31.787  35.704  1.00  0.00     0.074 A 
ATOM     62  C   UNL A   1      42.477  27.609  31.103  1.00  0.00     0.029 A 
ATOM     63  N   UNL A   1      41.595  29.221  32.356  1.00  0.00    -0.354 N 
ATOM     64  N   UNL A   1      41.422  30.964  34.701  1.00  0.00    -0.248 NA
ATOM     65  C   UNL A   1      42.092  31.525  36.867  1.00  0.00     0.031 C 
ATOM     66  C   UNL A   1      43.151  27.635  32.328  1.00  0.00     0.029 A 
ATOM     67  C   UNL A   1      42.614  28.651  33.102  1.00  0.00     0.049 A 
ATOM     68  H   UNL A   1      41.031  29.970  32.651  1.00  0.00     0.167 HD
ATOM     69  C   UNL A   1      42.438  30.104  35.102  1.00  0.00     0.074 A 
ATOM     70  C   UNL A   1      42.831  30.513  36.434  1.00  0.00     0.031 C 
ATOM     71  C   UNL A   1      42.995  29.068  34.428  1.00  0.00     0.037 A 
BRANCH  58  72
ATOM     72  C   UNL A   1      40.485  28.059  28.877  1.00  0.00     0.057 A 
ATOM     73  C   UNL A   1      41.223  28.407  27.739  1.00  0.00     0.134 A 
ATOM     74  C   UNL A   1      39.739  26.874  28.825  1.00  0.00     0.134 A 
ATOM     75  F   UNL A   1      41.947  29.537  27.718  1.00  0.00    -0.206 F 
ATOM     76  C   UNL A   1      41.204  27.619  26.586  1.00  0.00     0.040 A 
ATOM     77  C   UNL A   1      39.731  26.064  27.689  1.00  0.00     0.040 A 
ATOM     78  F   UNL A   1      39.013  26.480  29.883  1.00  0.00    -0.206 F 
ATOM     79  C   UNL A   1      40.460  26.440  26.562  1.00  0.00     0.006 A 
ENDBRANCH  58  72
BRANCH  59  80
ATOM     80  C   UNL A   1      40.219  33.759  37.053  1.00  0.00     0.057 A 
ATOM     81  C   UNL A   1      41.065  34.859  37.230  1.00  0.00     0.134 A 
ATOM     82  C   UNL A   1      39.337  33.448  38.096  1.00  0.00     0.134 A 
ATOM     83  F   UNL A   1      41.948  35.191  36.276  1.00  0.00    -0.206 F 
ATOM     84  C   UNL A   1      41.048  35.612  38.404  1.00  0.00     0.040 A 
ATOM     85  C   UNL A   1      39.292  34.208  39.266  1.00  0.00     0.040 A 
ATOM     86  F   UNL A   1      38.501  32.405  37.988  1.00  0.00    -0.206 F 
ATOM     87  C   UNL A   1      40.154  35.290  39.425  1.00  0.00     0.006 A 
ENDBRANCH  59  80
BRANCH  71  88
ATOM     88  C   UNL A   1      44.105  28.322  35.108  1.00  0.00     0.057 A 
ATOM     89  C   UNL A   1      45.435  28.757  35.044  1.00  0.00     0.134 A 
ATOM     90  C   UNL A   1      43.835  27.176  35.868  1.00  0.00     0.134 A 
ATOM     91  F   UNL A   1      45.762  29.840  34.322  1.00  0.00    -0.206 F 
ATOM     92  C   UNL A   1      46.460  28.067  35.695  1.00  0.00     0.040 A 
ATOM     93  C   UNL A   1      44.847  26.493  36.545  1.00  0.00     0.040 A 
ATOM     94  F   UNL A   1      42.581  26.712  35.978  1.00  0.00    -0.206 F 
ATOM     95  C   UNL A   1      46.165  26.936  36.454  1.00  0.00     0.006 A 
ENDBRANCH  71  88
ENDBRANCH  45  46
ENDBRANCH  38  40
ENDBRANCH  37  38
ENDBRANCH  36  37
ENDBRANCH  35  36
ENDBRANCH  34  35
ENDBRANCH   1  34
TORSDOF 19
ENDMDL
MODEL 3
REMARK VINA RESULT:     -11.4      4.506      9.480
REMARK SMILES Cc1nnc(SCC2=C(C(=O)OCCOCCOC(=O)c3ccc(-c4c5nc(c(-c6c(F)cccc6F)c6ccc([nH]6)c(-c6c(F)cccc6F)c6nc(c(-c7c(F)cccc7F)c7ccc4[nH]7)C=C6)C=C5)cc3)N3C(=O)[C@H](NC(=O)c4cn(C)nc4C)[C@@H]3SC2)s1
REMARK SMILES IDX 14 1 13 2 12 3 10 4 11 5 9 6 8 7 91 8 75 9 90 10 76 11 89 12
REMARK SMILES IDX 77 13 78 14 7 15 6 16 5 17 1 18 2 19 3 20 92 21 4 22 79 23
REMARK SMILES IDX 80 24 81 26 82 27 83 28 87 29 84 30 86 31 88 32 85 33 15 34
REMARK SMILES IDX 16 35 17 36 18 37 19 38 20 39 21 40 22 41 74 42 23 43 73 44
REMARK SMILES IDX 24 45 25 46 26 47 67 48 27 49 72 50 66 51 68 52 28 53 71 54
REMARK SMILES IDX 65 55 64 56 29 58 55 59 38 60 54 61 39 62 42 63 53 64 69 65
REMARK SMILES IDX 40 66 41 67 52 69 70 70 43 71 30 72 31 73 36 74 32 75 33 76
REMARK SMILES IDX 35 77 37 78 34 79 56 80 57 81 62 82 58 83 59 84 61 85 63 86
REMARK SMILES IDX 60 87 44 88 45 89 50 90 46 91 47 92 49 93 51 94 48 95
REMARK H PARENT 79 25 68 57 42 68
REMARK Flexibility Score: inf
ROOT
ATOM      1  C   UNL A   1      35.229  24.333  24.693  1.00  0.00     0.202 C 
ENDROOT
BRANCH   1   2
ATOM      2  C   UNL A   1      34.553  24.401  26.063  1.00  0.00     0.261 C 
BRANCH   2   3
ATOM      3  O   UNL A   1      33.275  25.042  25.930  1.00  0.00    -0.459 OA
BRANCH   3   4
ATOM      4  C   UNL A   1      32.216  24.275  26.295  1.00  0.00     0.355 C 
ATOM      5  O   UNL A   1      31.483  24.459  27.251  1.00  0.00    -0.244 OA
BRANCH   4   6
ATOM      6  C   UNL A   1      31.993  23.225  25.244  1.00  0.00     0.132 C 
ATOM      7  C   UNL A   1      31.405  23.491  24.047  1.00  0.00    -0.019 C 
ATOM      8  C   UNL A   1      31.306  22.445  22.942  1.00  0.00     0.106 C 
ATOM      9  N   UNL A   1      32.424  21.974  25.556  1.00  0.00    -0.289 N 
ATOM     10  S   UNL A   1      32.519  21.085  23.082  1.00  0.00    -0.129 SA
ATOM     11  C   UNL A   1      32.995  21.345  26.601  1.00  0.00     0.253 C 
ATOM     12  C   UNL A   1      32.117  20.779  24.804  1.00  0.00     0.181 C 
ATOM     13  O   UNL A   1      33.256  21.680  27.734  1.00  0.00    -0.272 OA
ATOM     14  C   UNL A   1      33.151  20.051  25.716  1.00  0.00     0.206 C 
BRANCH   7  15
ATOM     15  C   UNL A   1      30.764  24.847  23.770  1.00  0.00     0.111 C 
BRANCH  15  16
ATOM     16  S   UNL A   1      31.769  26.061  22.883  1.00  0.00    -0.089 SA
BRANCH  16  17
ATOM     17  C   UNL A   1      30.653  27.394  22.744  1.00  0.00     0.174 A 
ATOM     18  C   UNL A   1      27.560  29.637  22.944  1.00  0.00     0.081 C 
ATOM     19  C   UNL A   1      28.842  28.917  22.751  1.00  0.00     0.115 A 
ATOM     20  N   UNL A   1      29.838  29.335  21.999  1.00  0.00    -0.143 NA
ATOM     21  S   UNL A   1      29.132  27.413  23.528  1.00  0.00    -0.091 S 
ATOM     22  N   UNL A   1      30.895  28.450  22.001  1.00  0.00    -0.132 NA
ENDBRANCH  16  17
ENDBRANCH  15  16
ENDBRANCH   7  15
BRANCH  14  23
ATOM     23  N   UNL A   1      34.522  19.843  25.186  1.00  0.00    -0.337 N 
ATOM     24  C   UNL A   1      35.140  18.669  24.832  1.00  0.00     0.255 C 
ATOM     25  H   UNL A   1      35.063  20.658  25.071  1.00  0.00     0.164 HD
ATOM     26  O   UNL A   1      36.351  18.667  24.626  1.00  0.00    -0.269 OA
BRANCH  24  27
ATOM     27  C   UNL A   1      34.341  17.464  24.737  1.00  0.00     0.080 A 
ATOM     28  C   UNL A   1      34.171  16.483  25.698  1.00  0.00     0.122 A 
ATOM     29  C   UNL A   1      33.497  17.053  23.668  1.00  0.00     0.072 A 
ATOM     30  N   UNL A   1      33.333  15.557  25.155  1.00  0.00    -0.275 N 
ATOM     31  N   UNL A   1      32.910  15.875  23.923  1.00  0.00    -0.178 NA
ATOM     32  C   UNL A   1      33.244  17.730  22.371  1.00  0.00     0.069 C 
ATOM     33  C   UNL A   1      32.903  14.316  25.751  1.00  0.00     0.173 C 
ENDBRANCH  24  27
ENDBRANCH  14  23
ENDBRANCH   4   6
ENDBRANCH   3   4
ENDBRANCH   2   3
ENDBRANCH   1   2
BRANCH   1  34
ATOM     34  O   UNL A   1      35.378  23.027  24.132  1.00  0.00    -0.374 OA
BRANCH  34  35
ATOM     35  C   UNL A   1      36.644  22.678  23.579  1.00  0.00     0.202 C 
BRANCH  35  36
ATOM     36  C   UNL A   1      37.407  21.548  24.282  1.00  0.00     0.261 C 
BRANCH  36  37
ATOM     37  O   UNL A   1      37.601  21.780  25.688  1.00  0.00    -0.460 OA
BRANCH  37  38
ATOM     38  C   UNL A   1      38.864  21.543  26.124  1.00  0.00     0.338 C 
ATOM     39  O   UNL A   1      39.510  20.517  26.003  1.00  0.00    -0.246 OA
BRANCH  38  40
ATOM     40  C   UNL A   1      39.451  22.773  26.682  1.00  0.00     0.060 A 
ATOM     41  C   UNL A   1      39.007  23.999  26.170  1.00  0.00     0.016 A 
ATOM     42  C   UNL A   1      40.491  22.727  27.613  1.00  0.00     0.016 A 
ATOM     43  C   UNL A   1      39.625  25.185  26.561  1.00  0.00     0.010 A 
ATOM     44  C   UNL A   1      41.116  23.919  27.998  1.00  0.00     0.010 A 
ATOM     45  C   UNL A   1      40.706  25.149  27.451  1.00  0.00    -0.014 A 
BRANCH  45  46
ATOM     46  C   UNL A   1      41.484  26.384  27.718  1.00  0.00     0.031 A 
ATOM     47  C   UNL A   1      40.842  27.508  28.483  1.00  0.00     0.074 A 
ATOM     48  C   UNL A   1      42.756  26.496  27.296  1.00  0.00     0.049 A 
ATOM     49  N   UNL A   1      41.320  28.690  28.777  1.00  0.00    -0.248 NA
ATOM     50  C   UNL A   1      39.478  27.269  28.978  1.00  0.00     0.031 C 
ATOM     51  C   UNL A   1      43.502  25.463  26.581  1.00  0.00     0.029 A 
ATOM     52  N   UNL A   1      43.640  27.540  27.403  1.00  0.00    -0.354 N 
ATOM     53  C   UNL A   1      40.316  29.337  29.487  1.00  0.00     0.074 A 
ATOM     54  C   UNL A   1      39.192  28.427  29.554  1.00  0.00     0.031 C 
ATOM     55  C   UNL A   1      44.731  25.930  26.301  1.00  0.00     0.029 A 
ATOM     56  C   UNL A   1      44.845  27.304  26.789  1.00  0.00     0.049 A 
ATOM     57  H   UNL A   1      43.431  28.378  27.877  1.00  0.00     0.167 HD
ATOM     58  C   UNL A   1      40.332  30.574  30.040  1.00  0.00     0.037 A 
ATOM     59  C   UNL A   1      45.907  28.112  26.618  1.00  0.00     0.037 A 
ATOM     60  C   UNL A   1      41.451  31.477  29.976  1.00  0.00     0.049 A 
ATOM     61  C   UNL A   1      45.874  29.510  27.177  1.00  0.00     0.074 A 
ATOM     62  C   UNL A   1      41.573  32.741  30.528  1.00  0.00     0.029 A 
ATOM     63  N   UNL A   1      42.641  31.215  29.314  1.00  0.00    -0.354 N 
ATOM     64  N   UNL A   1      44.929  30.103  27.866  1.00  0.00    -0.248 NA
ATOM     65  C   UNL A   1      47.055  30.351  26.934  1.00  0.00     0.031 C 
ATOM     66  C   UNL A   1      42.816  33.263  30.159  1.00  0.00     0.029 A 
ATOM     67  C   UNL A   1      43.490  32.305  29.418  1.00  0.00     0.049 A 
ATOM     68  H   UNL A   1      42.851  30.379  28.841  1.00  0.00     0.167 HD
ATOM     69  C   UNL A   1      45.409  31.374  28.157  1.00  0.00     0.074 A 
ATOM     70  C   UNL A   1      46.735  31.462  27.581  1.00  0.00     0.031 C 
ATOM     71  C   UNL A   1      44.807  32.379  28.840  1.00  0.00     0.037 A 
BRANCH  58  72
ATOM     72  C   UNL A   1      39.090  31.032  30.744  1.00  0.00     0.057 A 
ATOM     73  C   UNL A   1      38.045  31.668  30.063  1.00  0.00     0.134 A 
ATOM     74  C   UNL A   1      38.923  30.803  32.116  1.00  0.00     0.134 A 
ATOM     75  F   UNL A   1      38.148  31.929  28.751  1.00  0.00    -0.206 F 
ATOM     76  C   UNL A   1      36.886  32.080  30.725  1.00  0.00     0.040 A 
ATOM     77  C   UNL A   1      37.759  31.187  32.784  1.00  0.00     0.040 A 
ATOM     78  F   UNL A   1      39.884  30.195  32.826  1.00  0.00    -0.206 F 
ATOM     79  C   UNL A   1      36.739  31.834  32.089  1.00  0.00     0.006 A 
ENDBRANCH  58  72
BRANCH  59  80
ATOM     80  C   UNL A   1      47.093  27.632  25.866  1.00  0.00     0.057 A 
ATOM     81  C   UNL A   1      47.145  27.701  24.470  1.00  0.00     0.134 A 
ATOM     82  C   UNL A   1      48.195  27.073  26.527  1.00  0.00     0.134 A 
ATOM     83  F   UNL A   1      46.110  28.203  23.781  1.00  0.00    -0.206 F 
ATOM     84  C   UNL A   1      48.242  27.218  23.755  1.00  0.00     0.040 A 
ATOM     85  C   UNL A   1      49.309  26.609  25.826  1.00  0.00     0.040 A 
ATOM     86  F   UNL A   1      48.206  26.978  27.865  1.00  0.00    -0.206 F 
ATOM     87  C   UNL A   1      49.331  26.675  24.434  1.00  0.00     0.006 A 
ENDBRANCH  59  80
BRANCH  71  88
ATOM     88  C   UNL A   1      45.585  33.649  29.023  1.00  0.00     0.057 A 
ATOM     89  C   UNL A   1      45.471  34.721  28.129  1.00  0.00     0.134 A 
ATOM     90  C   UNL A   1      46.428  33.817  30.130  1.00  0.00     0.134 A 
ATOM     91  F   UNL A   1      44.691  34.619  27.042  1.00  0.00    -0.206 F 
ATOM     92  C   UNL A   1      46.184  35.907  28.317  1.00  0.00     0.040 A 
ATOM     93  C   UNL A   1      47.126  35.008  30.343  1.00  0.00     0.040 A 
ATOM     94  F   UNL A   1      46.574  32.833  31.030  1.00  0.00    -0.206 F 
ATOM     95  C   UNL A   1      47.008  36.054  29.430  1.00  0.00     0.006 A 
ENDBRANCH  71  88
ENDBRANCH  45  46
ENDBRANCH  38  40
ENDBRANCH  37  38
ENDBRANCH  36  37
ENDBRANCH  35  36
ENDBRANCH  34  35
ENDBRANCH   1  34
TORSDOF 19
ENDMDL
