MODEL 1
REMARK VINA RESULT:     -11.5      0.000      0.000
REMARK SMILES Cc1ccccc1CSc1cccc(C(=O)OCCOCCOC(=O)c2ccc(-c3c4nc(c(-c5c(F)cccc5F)c5ccc([nH]5)c(-c5c(F)cccc5F)c5nc(c(-c6c(F)cccc6F)c6ccc3[nH]6)C=C5)C=C4)cc2)n1
REMARK SMILES IDX 19 1 18 2 17 3 15 4 16 5 14 6 10 7 11 8 80 9 12 10 13 11
REMARK SMILES IDX 9 12 8 13 7 14 1 15 2 16 3 17 4 18 6 19 5 20 20 21 21 22
REMARK SMILES IDX 22 23 23 24 24 25 25 26 26 27 27 28 79 29 28 30 78 31 29 32
REMARK SMILES IDX 30 33 31 34 72 35 32 36 77 37 71 38 73 39 33 40 76 41 70 42
REMARK SMILES IDX 69 43 34 45 60 46 43 47 59 48 44 49 47 50 58 51 74 52 45 53
REMARK SMILES IDX 46 54 57 56 75 57 48 58 35 59 36 60 41 61 37 62 38 63 40 64
REMARK SMILES IDX 42 65 39 66 61 67 62 68 67 69 63 70 64 71 66 72 68 73 65 74
REMARK SMILES IDX 49 75 50 76 55 77 51 78 52 79 54 80 56 81 53 82
REMARK H PARENT 73 44 47 55
REMARK Flexibility Score: inf
ROOT
ATOM      1  C   UNL A   1      33.007  33.863  28.062  1.00  0.00     0.202 C 
ENDROOT
BRANCH   1   2
ATOM      2  C   UNL A   1      34.004  32.746  28.022  1.00  0.00     0.261 C 
BRANCH   2   3
ATOM      3  O   UNL A   1      33.529  31.667  27.196  1.00  0.00    -0.459 OA
BRANCH   3   4
ATOM      4  C   UNL A   1      34.065  30.418  27.367  1.00  0.00     0.357 C 
ATOM      5  O   UNL A   1      35.046  30.137  28.014  1.00  0.00    -0.244 OA
BRANCH   4   6
ATOM      6  C   UNL A   1      33.140  29.441  26.709  1.00  0.00     0.149 A 
ATOM      7  C   UNL A   1      32.604  28.295  24.776  1.00  0.00     0.097 A 
ATOM      8  C   UNL A   1      31.758  27.444  25.481  1.00  0.00     0.035 A 
ATOM      9  N   UNL A   1      33.300  29.278  25.373  1.00  0.00    -0.234 NA
ATOM     10  C   UNL A   1      31.587  27.636  26.848  1.00  0.00     0.005 A 
ATOM     11  C   UNL A   1      32.270  28.666  27.472  1.00  0.00     0.036 A 
BRANCH   7  12
ATOM     12  S   UNL A   1      32.692  28.158  23.002  1.00  0.00    -0.102 SA
BRANCH  12  13
ATOM     13  C   UNL A   1      31.051  27.466  22.612  1.00  0.00     0.112 C 
BRANCH  13  14
ATOM     14  C   UNL A   1      29.862  28.406  22.608  1.00  0.00    -0.035 A 
ATOM     15  C   UNL A   1      28.429  26.703  23.874  1.00  0.00     0.044 C 
ATOM     16  C   UNL A   1      28.632  28.032  23.199  1.00  0.00    -0.047 A 
ATOM     17  C   UNL A   1      27.530  28.902  23.117  1.00  0.00     0.004 A 
ATOM     18  C   UNL A   1      27.652  30.160  22.531  1.00  0.00     0.000 A 
ATOM     19  C   UNL A   1      29.974  29.703  22.070  1.00  0.00     0.005 A 
ATOM     20  C   UNL A   1      28.879  30.567  22.025  1.00  0.00     0.000 A 
ENDBRANCH  13  14
ENDBRANCH  12  13
ENDBRANCH   7  12
ENDBRANCH   4   6
ENDBRANCH   3   4
ENDBRANCH   2   3
ENDBRANCH   1   2
BRANCH   1  21
ATOM     21  O   UNL A   1      33.711  34.943  28.648  1.00  0.00    -0.374 OA
BRANCH  21  22
ATOM     22  C   UNL A   1      32.946  36.047  29.068  1.00  0.00     0.202 C 
BRANCH  22  23
ATOM     23  C   UNL A   1      32.794  36.117  30.589  1.00  0.00     0.261 C 
BRANCH  23  24
ATOM     24  O   UNL A   1      34.096  36.180  31.214  1.00  0.00    -0.460 OA
BRANCH  24  25
ATOM     25  C   UNL A   1      34.224  35.517  32.398  1.00  0.00     0.338 C 
ATOM     26  O   UNL A   1      34.070  36.013  33.502  1.00  0.00    -0.246 OA
BRANCH  25  27
ATOM     27  C   UNL A   1      34.861  34.185  32.172  1.00  0.00     0.060 A 
ATOM     28  C   UNL A   1      34.812  33.200  33.179  1.00  0.00     0.016 A 
ATOM     29  C   UNL A   1      35.793  34.080  31.147  1.00  0.00     0.016 A 
ATOM     30  C   UNL A   1      35.812  32.218  33.256  1.00  0.00     0.010 A 
ATOM     31  C   UNL A   1      36.852  33.218  31.319  1.00  0.00     0.010 A 
ATOM     32  C   UNL A   1      36.888  32.296  32.380  1.00  0.00    -0.014 A 
BRANCH  32  33
ATOM     33  C   UNL A   1      38.136  31.527  32.435  1.00  0.00     0.031 A 
ATOM     34  C   UNL A   1      38.187  30.289  31.621  1.00  0.00     0.074 A 
ATOM     35  C   UNL A   1      39.293  32.083  32.881  1.00  0.00     0.049 A 
ATOM     36  N   UNL A   1      39.199  29.505  31.564  1.00  0.00    -0.248 NA
ATOM     37  C   UNL A   1      37.073  29.805  30.804  1.00  0.00     0.031 C 
ATOM     38  C   UNL A   1      40.660  31.786  32.445  1.00  0.00     0.029 A 
ATOM     39  N   UNL A   1      39.508  33.085  33.836  1.00  0.00    -0.354 N 
ATOM     40  C   UNL A   1      39.042  28.682  30.474  1.00  0.00     0.074 A 
ATOM     41  C   UNL A   1      37.655  28.819  30.119  1.00  0.00     0.031 C 
ATOM     42  C   UNL A   1      41.541  32.309  33.318  1.00  0.00     0.029 A 
ATOM     43  C   UNL A   1      40.767  32.855  34.415  1.00  0.00     0.049 A 
ATOM     44  H   UNL A   1      38.889  33.818  34.061  1.00  0.00     0.167 HD
ATOM     45  C   UNL A   1      40.164  28.102  29.959  1.00  0.00     0.037 A 
ATOM     46  C   UNL A   1      40.892  32.596  35.742  1.00  0.00     0.037 A 
ATOM     47  C   UNL A   1      41.317  28.393  30.831  1.00  0.00     0.049 A 
ATOM     48  C   UNL A   1      41.482  31.225  35.888  1.00  0.00     0.074 A 
ATOM     49  C   UNL A   1      42.412  29.235  30.725  1.00  0.00     0.029 A 
ATOM     50  N   UNL A   1      41.251  28.012  32.170  1.00  0.00    -0.354 N 
ATOM     51  N   UNL A   1      41.338  30.301  34.974  1.00  0.00    -0.248 NA
ATOM     52  C   UNL A   1      42.398  30.832  36.949  1.00  0.00     0.031 C 
ATOM     53  C   UNL A   1      42.985  29.372  32.026  1.00  0.00     0.029 A 
ATOM     54  C   UNL A   1      42.247  28.605  32.917  1.00  0.00     0.049 A 
ATOM     55  H   UNL A   1      40.578  27.395  32.538  1.00  0.00     0.167 HD
ATOM     56  C   UNL A   1      42.211  29.285  35.219  1.00  0.00     0.074 A 
ATOM     57  C   UNL A   1      42.814  29.634  36.496  1.00  0.00     0.031 C 
ATOM     58  C   UNL A   1      42.416  28.269  34.330  1.00  0.00     0.037 A 
BRANCH  45  59
ATOM     59  C   UNL A   1      40.301  27.426  28.605  1.00  0.00     0.057 A 
ATOM     60  C   UNL A   1      39.712  26.162  28.382  1.00  0.00     0.134 A 
ATOM     61  C   UNL A   1      41.013  27.913  27.491  1.00  0.00     0.134 A 
ATOM     62  F   UNL A   1      38.973  25.553  29.320  1.00  0.00    -0.206 F 
ATOM     63  C   UNL A   1      39.844  25.445  27.182  1.00  0.00     0.040 A 
ATOM     64  C   UNL A   1      41.150  27.209  26.283  1.00  0.00     0.040 A 
ATOM     65  F   UNL A   1      41.614  29.101  27.477  1.00  0.00    -0.206 F 
ATOM     66  C   UNL A   1      40.569  25.966  26.124  1.00  0.00     0.006 A 
ENDBRANCH  45  59
BRANCH  46  67
ATOM     67  C   UNL A   1      39.833  33.293  36.532  1.00  0.00     0.057 A 
ATOM     68  C   UNL A   1      38.766  32.495  37.001  1.00  0.00     0.134 A 
ATOM     69  C   UNL A   1      40.117  34.449  37.269  1.00  0.00     0.134 A 
ATOM     70  F   UNL A   1      38.442  31.360  36.358  1.00  0.00    -0.206 F 
ATOM     71  C   UNL A   1      38.128  32.743  38.223  1.00  0.00     0.040 A 
ATOM     72  C   UNL A   1      39.484  34.702  38.498  1.00  0.00     0.040 A 
ATOM     73  F   UNL A   1      41.121  35.258  36.905  1.00  0.00    -0.206 F 
ATOM     74  C   UNL A   1      38.526  33.822  39.003  1.00  0.00     0.006 A 
ENDBRANCH  46  67
BRANCH  58  75
ATOM     75  C   UNL A   1      42.849  26.872  34.706  1.00  0.00     0.057 A 
ATOM     76  C   UNL A   1      41.982  25.879  35.181  1.00  0.00     0.134 A 
ATOM     77  C   UNL A   1      44.156  26.415  34.401  1.00  0.00     0.134 A 
ATOM     78  F   UNL A   1      40.682  26.109  35.405  1.00  0.00    -0.206 F 
ATOM     79  C   UNL A   1      42.392  24.557  35.394  1.00  0.00     0.040 A 
ATOM     80  C   UNL A   1      44.550  25.084  34.536  1.00  0.00     0.040 A 
ATOM     81  F   UNL A   1      45.108  27.224  33.917  1.00  0.00    -0.206 F 
ATOM     82  C   UNL A   1      43.672  24.152  35.054  1.00  0.00     0.006 A 
ENDBRANCH  58  75
ENDBRANCH  32  33
ENDBRANCH  25  27
ENDBRANCH  24  25
ENDBRANCH  23  24
ENDBRANCH  22  23
ENDBRANCH  21  22
ENDBRANCH   1  21
TORSDOF 17
ENDMDL
MODEL 2
REMARK VINA RESULT:     -10.7      1.651      2.892
REMARK SMILES Cc1ccccc1CSc1cccc(C(=O)OCCOCCOC(=O)c2ccc(-c3c4nc(c(-c5c(F)cccc5F)c5ccc([nH]5)c(-c5c(F)cccc5F)c5nc(c(-c6c(F)cccc6F)c6ccc3[nH]6)C=C5)C=C4)cc2)n1
REMARK SMILES IDX 19 1 18 2 17 3 15 4 16 5 14 6 10 7 11 8 80 9 12 10 13 11
REMARK SMILES IDX 9 12 8 13 7 14 1 15 2 16 3 17 4 18 6 19 5 20 20 21 21 22
REMARK SMILES IDX 22 23 23 24 24 25 25 26 26 27 27 28 79 29 28 30 78 31 29 32
REMARK SMILES IDX 30 33 31 34 72 35 32 36 77 37 71 38 73 39 33 40 76 41 70 42
REMARK SMILES IDX 69 43 34 45 60 46 43 47 59 48 44 49 47 50 58 51 74 52 45 53
REMARK SMILES IDX 46 54 57 56 75 57 48 58 35 59 36 60 41 61 37 62 38 63 40 64
REMARK SMILES IDX 42 65 39 66 61 67 62 68 67 69 63 70 64 71 66 72 68 73 65 74
REMARK SMILES IDX 49 75 50 76 55 77 51 78 52 79 54 80 56 81 53 82
REMARK H PARENT 73 44 47 55
REMARK Flexibility Score: inf
ROOT
ATOM      1  C   UNL A   1      33.350  34.005  28.041  1.00  0.00     0.202 C 
ENDROOT
BRANCH   1   2
ATOM      2  C   UNL A   1      32.368  32.929  27.691  1.00  0.00     0.261 C 
BRANCH   2   3
ATOM      3  O   UNL A   1      32.935  32.012  26.737  1.00  0.00    -0.459 OA
BRANCH   3   4
ATOM      4  C   UNL A   1      33.406  30.804  27.180  1.00  0.00     0.357 C 
ATOM      5  O   UNL A   1      34.116  30.615  28.140  1.00  0.00    -0.244 OA
BRANCH   4   6
ATOM      6  C   UNL A   1      32.777  29.742  26.333  1.00  0.00     0.149 A 
ATOM      7  C   UNL A   1      32.460  27.476  26.000  1.00  0.00     0.097 A 
ATOM      8  C   UNL A   1      31.432  27.724  25.095  1.00  0.00     0.035 A 
ATOM      9  N   UNL A   1      33.124  28.464  26.625  1.00  0.00    -0.234 NA
ATOM     10  C   UNL A   1      31.100  29.040  24.789  1.00  0.00     0.005 A 
ATOM     11  C   UNL A   1      31.797  30.068  25.399  1.00  0.00     0.036 A 
BRANCH   7  12
ATOM     12  S   UNL A   1      32.999  25.800  26.265  1.00  0.00    -0.102 SA
BRANCH  12  13
ATOM     13  C   UNL A   1      33.638  25.361  24.614  1.00  0.00     0.112 C 
BRANCH  13  14
ATOM     14  C   UNL A   1      34.808  24.401  24.532  1.00  0.00    -0.035 A 
ATOM     15  C   UNL A   1      33.846  23.307  22.426  1.00  0.00     0.044 C 
ATOM     16  C   UNL A   1      34.889  23.435  23.502  1.00  0.00    -0.047 A 
ATOM     17  C   UNL A   1      35.954  22.516  23.496  1.00  0.00     0.004 A 
ATOM     18  C   UNL A   1      36.972  22.592  24.445  1.00  0.00     0.000 A 
ATOM     19  C   UNL A   1      35.875  24.491  25.445  1.00  0.00     0.005 A 
ATOM     20  C   UNL A   1      36.942  23.592  25.407  1.00  0.00     0.000 A 
ENDBRANCH  13  14
ENDBRANCH  12  13
ENDBRANCH   7  12
ENDBRANCH   4   6
ENDBRANCH   3   4
ENDBRANCH   2   3
ENDBRANCH   1   2
BRANCH   1  21
ATOM     21  O   UNL A   1      32.581  34.969  28.738  1.00  0.00    -0.374 OA
BRANCH  21  22
ATOM     22  C   UNL A   1      33.236  36.161  29.102  1.00  0.00     0.202 C 
BRANCH  22  23
ATOM     23  C   UNL A   1      32.922  36.592  30.537  1.00  0.00     0.261 C 
BRANCH  23  24
ATOM     24  O   UNL A   1      32.943  35.443  31.414  1.00  0.00    -0.460 OA
BRANCH  24  25
ATOM     25  C   UNL A   1      34.027  35.336  32.233  1.00  0.00     0.338 C 
ATOM     26  O   UNL A   1      34.504  36.247  32.890  1.00  0.00    -0.246 OA
BRANCH  25  27
ATOM     27  C   UNL A   1      34.724  34.037  31.993  1.00  0.00     0.060 A 
ATOM     28  C   UNL A   1      34.696  33.029  32.977  1.00  0.00     0.016 A 
ATOM     29  C   UNL A   1      35.680  33.993  30.985  1.00  0.00     0.016 A 
ATOM     30  C   UNL A   1      35.735  32.088  33.055  1.00  0.00     0.010 A 
ATOM     31  C   UNL A   1      36.770  33.173  31.162  1.00  0.00     0.010 A 
ATOM     32  C   UNL A   1      36.824  32.229  32.203  1.00  0.00    -0.014 A 
BRANCH  32  33
ATOM     33  C   UNL A   1      38.102  31.512  32.269  1.00  0.00     0.031 A 
ATOM     34  C   UNL A   1      38.196  30.257  31.485  1.00  0.00     0.074 A 
ATOM     35  C   UNL A   1      39.238  32.123  32.693  1.00  0.00     0.049 A 
ATOM     36  N   UNL A   1      39.239  29.512  31.440  1.00  0.00    -0.248 NA
ATOM     37  C   UNL A   1      37.098  29.710  30.688  1.00  0.00     0.031 C 
ATOM     38  C   UNL A   1      40.614  31.870  32.255  1.00  0.00     0.029 A 
ATOM     39  N   UNL A   1      39.419  33.157  33.622  1.00  0.00    -0.354 N 
ATOM     40  C   UNL A   1      39.107  28.657  30.372  1.00  0.00     0.074 A 
ATOM     41  C   UNL A   1      37.714  28.730  30.023  1.00  0.00     0.031 C 
ATOM     42  C   UNL A   1      41.478  32.449  33.108  1.00  0.00     0.029 A 
ATOM     43  C   UNL A   1      40.689  32.991  34.198  1.00  0.00     0.049 A 
ATOM     44  H   UNL A   1      38.773  33.870  33.833  1.00  0.00     0.167 HD
ATOM     45  C   UNL A   1      40.248  28.109  29.863  1.00  0.00     0.037 A 
ATOM     46  C   UNL A   1      40.833  32.769  35.529  1.00  0.00     0.037 A 
ATOM     47  C   UNL A   1      41.394  28.467  30.719  1.00  0.00     0.049 A 
ATOM     48  C   UNL A   1      41.478  31.427  35.704  1.00  0.00     0.074 A 
ATOM     49  C   UNL A   1      42.454  29.348  30.586  1.00  0.00     0.029 A 
ATOM     50  N   UNL A   1      41.351  28.116  32.068  1.00  0.00    -0.354 N 
ATOM     51  N   UNL A   1      41.365  30.476  34.814  1.00  0.00    -0.248 NA
ATOM     52  C   UNL A   1      42.414  31.097  36.768  1.00  0.00     0.031 C 
ATOM     53  C   UNL A   1      43.029  29.539  31.879  1.00  0.00     0.029 A 
ATOM     54  C   UNL A   1      42.327  28.767  32.794  1.00  0.00     0.049 A 
ATOM     55  H   UNL A   1      40.705  27.483  32.455  1.00  0.00     0.167 HD
ATOM     56  C   UNL A   1      42.278  29.501  35.079  1.00  0.00     0.074 A 
ATOM     57  C   UNL A   1      42.874  29.905  36.342  1.00  0.00     0.031 C 
ATOM     58  C   UNL A   1      42.518  28.473  34.213  1.00  0.00     0.037 A 
BRANCH  45  59
ATOM     59  C   UNL A   1      40.404  27.406  28.525  1.00  0.00     0.057 A 
ATOM     60  C   UNL A   1      39.817  26.138  28.319  1.00  0.00     0.134 A 
ATOM     61  C   UNL A   1      41.131  27.870  27.411  1.00  0.00     0.134 A 
ATOM     62  F   UNL A   1      39.065  25.548  29.259  1.00  0.00    -0.206 F 
ATOM     63  C   UNL A   1      39.965  25.397  27.136  1.00  0.00     0.040 A 
ATOM     64  C   UNL A   1      41.285  27.141  26.220  1.00  0.00     0.040 A 
ATOM     65  F   UNL A   1      41.733  29.057  27.382  1.00  0.00    -0.206 F 
ATOM     66  C   UNL A   1      40.705  25.896  26.078  1.00  0.00     0.006 A 
ENDBRANCH  45  59
BRANCH  46  67
ATOM     67  C   UNL A   1      39.752  33.444  36.309  1.00  0.00     0.057 A 
ATOM     68  C   UNL A   1      38.745  32.610  36.846  1.00  0.00     0.134 A 
ATOM     69  C   UNL A   1      39.983  34.651  36.979  1.00  0.00     0.134 A 
ATOM     70  F   UNL A   1      38.476  31.426  36.270  1.00  0.00    -0.206 F 
ATOM     71  C   UNL A   1      38.121  32.884  38.070  1.00  0.00     0.040 A 
ATOM     72  C   UNL A   1      39.363  34.931  38.209  1.00  0.00     0.040 A 
ATOM     73  F   UNL A   1      40.927  35.498  36.548  1.00  0.00    -0.206 F 
ATOM     74  C   UNL A   1      38.472  34.025  38.782  1.00  0.00     0.006 A 
ENDBRANCH  46  67
BRANCH  58  75
ATOM     75  C   UNL A   1      43.008  27.103  34.620  1.00  0.00     0.057 A 
ATOM     76  C   UNL A   1      42.169  26.014  34.890  1.00  0.00     0.134 A 
ATOM     77  C   UNL A   1      44.387  26.782  34.554  1.00  0.00     0.134 A 
ATOM     78  F   UNL A   1      40.834  26.115  34.870  1.00  0.00    -0.206 F 
ATOM     79  C   UNL A   1      42.659  24.726  35.135  1.00  0.00     0.040 A 
ATOM     80  C   UNL A   1      44.878  25.486  34.719  1.00  0.00     0.040 A 
ATOM     81  F   UNL A   1      45.328  27.696  34.286  1.00  0.00    -0.206 F 
ATOM     82  C   UNL A   1      44.014  24.454  35.031  1.00  0.00     0.006 A 
ENDBRANCH  58  75
ENDBRANCH  32  33
ENDBRANCH  25  27
ENDBRANCH  24  25
ENDBRANCH  23  24
ENDBRANCH  22  23
ENDBRANCH  21  22
ENDBRANCH   1  21
TORSDOF 17
ENDMDL
MODEL 3
REMARK VINA RESULT:     -10.5      2.574      4.119
REMARK SMILES Cc1ccccc1CSc1cccc(C(=O)OCCOCCOC(=O)c2ccc(-c3c4nc(c(-c5c(F)cccc5F)c5ccc([nH]5)c(-c5c(F)cccc5F)c5nc(c(-c6c(F)cccc6F)c6ccc3[nH]6)C=C5)C=C4)cc2)n1
REMARK SMILES IDX 19 1 18 2 17 3 15 4 16 5 14 6 10 7 11 8 80 9 12 10 13 11
REMARK SMILES IDX 9 12 8 13 7 14 1 15 2 16 3 17 4 18 6 19 5 20 20 21 21 22
REMARK SMILES IDX 22 23 23 24 24 25 25 26 26 27 27 28 79 29 28 30 78 31 29 32
REMARK SMILES IDX 30 33 31 34 72 35 32 36 77 37 71 38 73 39 33 40 76 41 70 42
REMARK SMILES IDX 69 43 34 45 60 46 43 47 59 48 44 49 47 50 58 51 74 52 45 53
REMARK SMILES IDX 46 54 57 56 75 57 48 58 35 59 36 60 41 61 37 62 38 63 40 64
REMARK SMILES IDX 42 65 39 66 61 67 62 68 67 69 63 70 64 71 66 72 68 73 65 74
REMARK SMILES IDX 49 75 50 76 55 77 51 78 52 79 54 80 56 81 53 82
REMARK H PARENT 73 44 47 55
REMARK Flexibility Score: inf
ROOT
ATOM      1  C   UNL A   1      33.567  28.706  27.007  1.00  0.00     0.202 C 
ENDROOT
BRANCH   1   2
ATOM      2  C   UNL A   1      32.272  28.267  27.616  1.00  0.00     0.261 C 
BRANCH   2   3
ATOM      3  O   UNL A   1      31.311  27.945  26.593  1.00  0.00    -0.459 OA
BRANCH   3   4
ATOM      4  C   UNL A   1      31.249  26.658  26.127  1.00  0.00     0.357 C 
ATOM      5  O   UNL A   1      31.032  25.664  26.780  1.00  0.00    -0.244 OA
BRANCH   4   6
ATOM      6  C   UNL A   1      31.372  26.716  24.636  1.00  0.00     0.149 A 
ATOM      7  C   UNL A   1      32.028  25.618  22.711  1.00  0.00     0.097 A 
ATOM      8  C   UNL A   1      31.351  26.542  21.920  1.00  0.00     0.035 A 
ATOM      9  N   UNL A   1      32.037  25.688  24.053  1.00  0.00    -0.234 NA
ATOM     10  C   UNL A   1      30.691  27.603  22.529  1.00  0.00     0.005 A 
ATOM     11  C   UNL A   1      30.719  27.709  23.909  1.00  0.00     0.036 A 
BRANCH   7  12
ATOM     12  S   UNL A   1      33.013  24.359  21.926  1.00  0.00    -0.102 SA
BRANCH  12  13
ATOM     13  C   UNL A   1      34.271  24.036  23.206  1.00  0.00     0.112 C 
BRANCH  13  14
ATOM     14  C   UNL A   1      34.336  22.648  23.811  1.00  0.00    -0.035 A 
ATOM     15  C   UNL A   1      36.783  22.985  24.486  1.00  0.00     0.044 C 
ATOM     16  C   UNL A   1      35.526  22.163  24.403  1.00  0.00    -0.047 A 
ATOM     17  C   UNL A   1      35.569  20.845  24.893  1.00  0.00     0.004 A 
ATOM     18  C   UNL A   1      34.435  20.035  24.875  1.00  0.00     0.000 A 
ATOM     19  C   UNL A   1      33.191  21.830  23.854  1.00  0.00     0.005 A 
ATOM     20  C   UNL A   1      33.242  20.535  24.373  1.00  0.00     0.000 A 
ENDBRANCH  13  14
ENDBRANCH  12  13
ENDBRANCH   7  12
ENDBRANCH   4   6
ENDBRANCH   3   4
ENDBRANCH   2   3
ENDBRANCH   1   2
BRANCH   1  21
ATOM     21  O   UNL A   1      33.260  29.935  26.373  1.00  0.00    -0.374 OA
BRANCH  21  22
ATOM     22  C   UNL A   1      33.007  31.037  27.211  1.00  0.00     0.202 C 
BRANCH  22  23
ATOM     23  C   UNL A   1      34.253  31.504  27.967  1.00  0.00     0.261 C 
BRANCH  23  24
ATOM     24  O   UNL A   1      34.313  32.948  27.977  1.00  0.00    -0.460 OA
BRANCH  24  25
ATOM     25  C   UNL A   1      34.239  33.541  29.203  1.00  0.00     0.338 C 
ATOM     26  O   UNL A   1      33.304  34.215  29.602  1.00  0.00    -0.246 OA
BRANCH  25  27
ATOM     27  C   UNL A   1      35.573  33.497  29.873  1.00  0.00     0.060 A 
ATOM     28  C   UNL A   1      36.727  33.907  29.174  1.00  0.00     0.016 A 
ATOM     29  C   UNL A   1      35.698  32.717  31.015  1.00  0.00     0.016 A 
ATOM     30  C   UNL A   1      37.983  33.382  29.515  1.00  0.00     0.010 A 
ATOM     31  C   UNL A   1      36.900  32.087  31.242  1.00  0.00     0.010 A 
ATOM     32  C   UNL A   1      38.047  32.392  30.488  1.00  0.00    -0.014 A 
BRANCH  32  33
ATOM     33  C   UNL A   1      39.203  31.556  30.830  1.00  0.00     0.031 A 
ATOM     34  C   UNL A   1      39.401  30.335  30.012  1.00  0.00     0.074 A 
ATOM     35  C   UNL A   1      40.234  32.038  31.572  1.00  0.00     0.049 A 
ATOM     36  N   UNL A   1      40.357  29.498  30.186  1.00  0.00    -0.248 NA
ATOM     37  C   UNL A   1      38.510  29.930  28.925  1.00  0.00     0.031 C 
ATOM     38  C   UNL A   1      41.651  31.678  31.485  1.00  0.00     0.029 A 
ATOM     39  N   UNL A   1      40.246  33.007  32.584  1.00  0.00    -0.354 N 
ATOM     40  C   UNL A   1      40.443  28.709  29.064  1.00  0.00     0.074 A 
ATOM     41  C   UNL A   1      39.199  28.928  28.376  1.00  0.00     0.031 C 
ATOM     42  C   UNL A   1      42.306  32.134  32.569  1.00  0.00     0.029 A 
ATOM     43  C   UNL A   1      41.304  32.697  33.454  1.00  0.00     0.049 A 
ATOM     44  H   UNL A   1      39.625  33.767  32.671  1.00  0.00     0.167 HD
ATOM     45  C   UNL A   1      41.630  28.081  28.829  1.00  0.00     0.037 A 
ATOM     46  C   UNL A   1      41.077  32.403  34.760  1.00  0.00     0.037 A 
ATOM     47  C   UNL A   1      42.536  28.290  29.973  1.00  0.00     0.049 A 
ATOM     48  C   UNL A   1      41.546  31.000  35.002  1.00  0.00     0.074 A 
ATOM     49  C   UNL A   1      43.661  29.073  30.176  1.00  0.00     0.029 A 
ATOM     50  N   UNL A   1      42.115  27.884  31.238  1.00  0.00    -0.354 N 
ATOM     51  N   UNL A   1      41.595  30.105  34.050  1.00  0.00    -0.248 NA
ATOM     52  C   UNL A   1      42.143  30.535  36.246  1.00  0.00     0.031 C 
ATOM     53  C   UNL A   1      43.891  29.151  31.583  1.00  0.00     0.029 A 
ATOM     54  C   UNL A   1      42.915  28.407  32.233  1.00  0.00     0.049 A 
ATOM     55  H   UNL A   1      41.343  27.297  31.403  1.00  0.00     0.167 HD
ATOM     56  C   UNL A   1      42.328  29.038  34.473  1.00  0.00     0.074 A 
ATOM     57  C   UNL A   1      42.603  29.327  35.872  1.00  0.00     0.031 C 
ATOM     58  C   UNL A   1      42.705  28.032  33.630  1.00  0.00     0.037 A 
BRANCH  45  59
ATOM     59  C   UNL A   1      42.075  27.427  27.531  1.00  0.00     0.057 A 
ATOM     60  C   UNL A   1      42.413  26.056  27.508  1.00  0.00     0.134 A 
ATOM     61  C   UNL A   1      42.234  28.060  26.283  1.00  0.00     0.134 A 
ATOM     62  F   UNL A   1      42.299  25.283  28.597  1.00  0.00    -0.206 F 
ATOM     63  C   UNL A   1      42.890  25.393  26.366  1.00  0.00     0.040 A 
ATOM     64  C   UNL A   1      42.706  27.409  25.131  1.00  0.00     0.040 A 
ATOM     65  F   UNL A   1      41.937  29.342  26.077  1.00  0.00    -0.206 F 
ATOM     66  C   UNL A   1      43.042  26.070  25.168  1.00  0.00     0.006 A 
ENDBRANCH  45  59
BRANCH  46  67
ATOM     67  C   UNL A   1      39.886  33.139  35.281  1.00  0.00     0.057 A 
ATOM     68  C   UNL A   1      38.708  32.383  35.469  1.00  0.00     0.134 A 
ATOM     69  C   UNL A   1      40.028  34.281  36.078  1.00  0.00     0.134 A 
ATOM     70  F   UNL A   1      38.506  31.263  34.754  1.00  0.00    -0.206 F 
ATOM     71  C   UNL A   1      37.804  32.652  36.506  1.00  0.00     0.040 A 
ATOM     72  C   UNL A   1      39.127  34.555  37.122  1.00  0.00     0.040 A 
ATOM     73  F   UNL A   1      41.119  35.051  35.976  1.00  0.00    -0.206 F 
ATOM     74  C   UNL A   1      38.044  33.713  37.371  1.00  0.00     0.006 A 
ENDBRANCH  46  67
BRANCH  58  75
ATOM     75  C   UNL A   1      42.963  26.606  34.054  1.00  0.00     0.057 A 
ATOM     76  C   UNL A   1      44.183  25.939  33.878  1.00  0.00     0.134 A 
ATOM     77  C   UNL A   1      42.023  25.910  34.855  1.00  0.00     0.134 A 
ATOM     78  F   UNL A   1      45.223  26.502  33.251  1.00  0.00    -0.206 F 
ATOM     79  C   UNL A   1      44.429  24.663  34.401  1.00  0.00     0.040 A 
ATOM     80  C   UNL A   1      42.288  24.674  35.445  1.00  0.00     0.040 A 
ATOM     81  F   UNL A   1      40.813  26.408  35.143  1.00  0.00    -0.206 F 
ATOM     82  C   UNL A   1      43.489  24.036  35.202  1.00  0.00     0.006 A 
ENDBRANCH  58  75
ENDBRANCH  32  33
ENDBRANCH  25  27
ENDBRANCH  24  25
ENDBRANCH  23  24
ENDBRANCH  22  23
ENDBRANCH  21  22
ENDBRANCH   1  21
TORSDOF 17
ENDMDL
