MODEL 1
REMARK VINA RESULT:     -12.1      0.000      0.000
REMARK SMILES COc1ccc(-n2c(SCc3cn(-c4ccc(C(=O)OCCOCCOC(=O)c5ccc(-c6c7nc(c(-c8c(F)cccc8F)c8ccc([nH]8)c(-c8c(F)cccc8F)c8nc(c(-c9c(F)cccc9F)c9ccc6[nH]9)C=C8)C=C7)cc5)cc4)nn3)nc3ccccc3c2=O)cc1
REMARK SMILES IDX 21 1 20 2 18 3 19 4 17 5 14 6 15 7 84 8 16 9 83 10 13 11
REMARK SMILES IDX 11 12 12 13 86 14 85 15 10 16 9 17 8 18 7 19 94 20 87 21
REMARK SMILES IDX 93 22 95 23 88 24 92 25 89 26 91 27 90 28 6 29 3 30 4 31
REMARK SMILES IDX 97 32 5 33 96 34 2 35 1 36 22 37 23 38 24 39 25 40 26 41
REMARK SMILES IDX 27 42 28 43 29 44 30 45 82 46 31 47 81 48 32 49 33 50 34 51
REMARK SMILES IDX 75 52 35 53 80 54 74 55 76 56 36 57 79 58 73 59 72 60 37 62
REMARK SMILES IDX 63 63 46 64 62 65 47 66 50 67 61 68 77 69 48 70 49 71 60 73
REMARK SMILES IDX 78 74 51 75 38 76 39 77 44 78 40 79 41 80 43 81 45 82 42 83
REMARK SMILES IDX 64 84 65 85 70 86 66 87 67 88 69 89 71 90 68 91 52 92 53 93
REMARK SMILES IDX 58 94 54 95 55 96 57 97 59 98 56 99
REMARK H PARENT 76 61 50 72
REMARK Flexibility Score: inf
ROOT
ATOM      1  C   UNL A   1      32.646  35.833  30.080  1.00  0.00     0.261 C 
ENDROOT
BRANCH   1   2
ATOM      2  O   UNL A   1      32.613  35.462  28.695  1.00  0.00    -0.460 OA
BRANCH   2   3
ATOM      3  C   UNL A   1      33.791  35.013  28.203  1.00  0.00     0.338 C 
ATOM      4  O   UNL A   1      34.856  35.619  28.149  1.00  0.00    -0.246 OA
BRANCH   3   5
ATOM      5  C   UNL A   1      33.680  33.572  27.926  1.00  0.00     0.060 A 
ATOM      6  C   UNL A   1      33.590  30.854  27.398  1.00  0.00     0.066 A 
ATOM      7  C   UNL A   1      34.729  31.385  28.003  1.00  0.00     0.029 A 
ATOM      8  C   UNL A   1      32.476  31.664  27.113  1.00  0.00     0.029 A 
ATOM      9  C   UNL A   1      34.783  32.757  28.230  1.00  0.00     0.018 A 
ATOM     10  C   UNL A   1      32.511  33.026  27.399  1.00  0.00     0.018 A 
BRANCH   6  11
ATOM     11  N   UNL A   1      33.616  29.524  26.942  1.00  0.00    -0.220 N 
ATOM     12  C   UNL A   1      33.025  27.462  26.611  1.00  0.00     0.093 A 
ATOM     13  C   UNL A   1      32.909  28.498  27.494  1.00  0.00     0.141 A 
ATOM     14  N   UNL A   1      33.880  27.833  25.612  1.00  0.00    -0.134 NA
ATOM     15  N   UNL A   1      34.193  29.114  25.794  1.00  0.00    -0.062 NA
BRANCH  12  16
ATOM     16  C   UNL A   1      32.322  26.175  26.664  1.00  0.00     0.138 C 
BRANCH  16  17
ATOM     17  S   UNL A   1      33.308  24.786  26.156  1.00  0.00    -0.081 SA
BRANCH  17  18
ATOM     18  C   UNL A   1      33.348  24.802  24.357  1.00  0.00     0.176 A 
ATOM     19  N   UNL A   1      32.086  24.790  23.780  1.00  0.00    -0.255 N 
ATOM     20  C   UNL A   1      31.556  23.555  23.426  1.00  0.00     0.266 A 
ATOM     21  N   UNL A   1      34.267  24.033  23.851  1.00  0.00    -0.223 NA
ATOM     22  C   UNL A   1      32.450  22.409  23.754  1.00  0.00     0.066 A 
ATOM     23  O   UNL A   1      30.446  23.350  22.944  1.00  0.00    -0.268 OA
ATOM     24  C   UNL A   1      33.823  22.689  23.865  1.00  0.00     0.079 A 
ATOM     25  C   UNL A   1      31.934  21.185  24.176  1.00  0.00     0.016 A 
ATOM     26  C   UNL A   1      34.697  21.699  24.308  1.00  0.00     0.029 A 
ATOM     27  C   UNL A   1      32.807  20.234  24.708  1.00  0.00     0.001 A 
ATOM     28  C   UNL A   1      34.185  20.478  24.748  1.00  0.00     0.002 A 
BRANCH  19  29
ATOM     29  C   UNL A   1      31.366  25.992  23.598  1.00  0.00     0.052 A 
ATOM     30  C   UNL A   1      29.765  28.062  22.643  1.00  0.00     0.119 A 
ATOM     31  C   UNL A   1      29.244  27.164  23.577  1.00  0.00     0.048 A 
ATOM     32  C   UNL A   1      31.125  28.032  22.333  1.00  0.00     0.048 A 
ATOM     33  C   UNL A   1      30.035  26.099  24.025  1.00  0.00     0.030 A 
ATOM     34  C   UNL A   1      31.934  27.012  22.834  1.00  0.00     0.030 A 
BRANCH  30  35
ATOM     35  O   UNL A   1      28.888  28.921  22.035  1.00  0.00    -0.497 OA
ATOM     36  C   UNL A   1      28.850  30.212  22.657  1.00  0.00     0.278 C 
ENDBRANCH  30  35
ENDBRANCH  19  29
ENDBRANCH  17  18
ENDBRANCH  16  17
ENDBRANCH  12  16
ENDBRANCH   6  11
ENDBRANCH   3   5
ENDBRANCH   2   3
ENDBRANCH   1   2
BRANCH   1  37
ATOM     37  C   UNL A   1      33.126  37.271  30.288  1.00  0.00     0.202 C 
BRANCH  37  38
ATOM     38  O   UNL A   1      32.950  37.884  31.565  1.00  0.00    -0.374 OA
BRANCH  38  39
ATOM     39  C   UNL A   1      34.016  37.907  32.509  1.00  0.00     0.202 C 
BRANCH  39  40
ATOM     40  C   UNL A   1      33.995  36.923  33.670  1.00  0.00     0.261 C 
BRANCH  40  41
ATOM     41  O   UNL A   1      34.752  35.761  33.385  1.00  0.00    -0.460 OA
BRANCH  41  42
ATOM     42  C   UNL A   1      34.002  34.666  33.148  1.00  0.00     0.338 C 
ATOM     43  O   UNL A   1      32.802  34.627  32.883  1.00  0.00    -0.246 OA
BRANCH  42  44
ATOM     44  C   UNL A   1      34.813  33.482  33.425  1.00  0.00     0.060 A 
ATOM     45  C   UNL A   1      35.932  33.721  34.223  1.00  0.00     0.016 A 
ATOM     46  C   UNL A   1      34.715  32.370  32.573  1.00  0.00     0.016 A 
ATOM     47  C   UNL A   1      37.083  33.052  33.903  1.00  0.00     0.010 A 
ATOM     48  C   UNL A   1      35.870  31.709  32.249  1.00  0.00     0.010 A 
ATOM     49  C   UNL A   1      37.052  32.147  32.835  1.00  0.00    -0.014 A 
BRANCH  49  50
ATOM     50  C   UNL A   1      38.310  31.589  32.410  1.00  0.00     0.031 A 
ATOM     51  C   UNL A   1      39.212  31.366  33.553  1.00  0.00     0.074 A 
ATOM     52  C   UNL A   1      38.569  31.270  31.129  1.00  0.00     0.049 A 
ATOM     53  N   UNL A   1      40.264  32.042  33.865  1.00  0.00    -0.248 NA
ATOM     54  C   UNL A   1      38.750  30.440  34.600  1.00  0.00     0.031 C 
ATOM     55  C   UNL A   1      37.651  31.222  29.989  1.00  0.00     0.029 A 
ATOM     56  N   UNL A   1      39.737  30.819  30.602  1.00  0.00    -0.354 N 
ATOM     57  C   UNL A   1      40.728  31.464  35.040  1.00  0.00     0.074 A 
ATOM     58  C   UNL A   1      39.650  30.667  35.557  1.00  0.00     0.031 C 
ATOM     59  C   UNL A   1      38.241  30.548  28.973  1.00  0.00     0.029 A 
ATOM     60  C   UNL A   1      39.611  30.242  29.345  1.00  0.00     0.049 A 
ATOM     61  H   UNL A   1      40.599  30.896  31.072  1.00  0.00     0.167 HD
ATOM     62  C   UNL A   1      42.058  31.438  35.314  1.00  0.00     0.037 A 
ATOM     63  C   UNL A   1      40.563  29.486  28.740  1.00  0.00     0.037 A 
ATOM     64  C   UNL A   1      42.765  32.435  34.546  1.00  0.00     0.049 A 
ATOM     65  C   UNL A   1      41.859  29.794  29.407  1.00  0.00     0.074 A 
ATOM     66  C   UNL A   1      42.695  33.811  34.442  1.00  0.00     0.029 A 
ATOM     67  N   UNL A   1      43.451  32.011  33.433  1.00  0.00    -0.354 N 
ATOM     68  N   UNL A   1      42.464  30.946  29.307  1.00  0.00    -0.248 NA
ATOM     69  C   UNL A   1      42.220  29.000  30.574  1.00  0.00     0.031 C 
ATOM     70  C   UNL A   1      42.917  34.092  33.061  1.00  0.00     0.029 A 
ATOM     71  C   UNL A   1      43.170  32.883  32.413  1.00  0.00     0.049 A 
ATOM     72  H   UNL A   1      44.039  31.224  33.378  1.00  0.00     0.167 HD
ATOM     73  C   UNL A   1      42.939  31.211  30.584  1.00  0.00     0.074 A 
ATOM     74  C   UNL A   1      42.815  29.947  31.307  1.00  0.00     0.031 C 
ATOM     75  C   UNL A   1      43.108  32.493  31.023  1.00  0.00     0.037 A 
BRANCH  62  76
ATOM     76  C   UNL A   1      42.747  30.237  35.914  1.00  0.00     0.057 A 
ATOM     77  C   UNL A   1      43.636  30.442  36.982  1.00  0.00     0.134 A 
ATOM     78  C   UNL A   1      42.821  28.962  35.310  1.00  0.00     0.134 A 
ATOM     79  F   UNL A   1      43.665  31.611  37.640  1.00  0.00    -0.206 F 
ATOM     80  C   UNL A   1      44.594  29.490  37.350  1.00  0.00     0.040 A 
ATOM     81  C   UNL A   1      43.738  27.988  35.706  1.00  0.00     0.040 A 
ATOM     82  F   UNL A   1      42.093  28.613  34.245  1.00  0.00    -0.206 F 
ATOM     83  C   UNL A   1      44.655  28.264  36.702  1.00  0.00     0.006 A 
ENDBRANCH  62  76
BRANCH  63  84
ATOM     84  C   UNL A   1      40.370  28.269  27.917  1.00  0.00     0.057 A 
ATOM     85  C   UNL A   1      40.996  28.129  26.670  1.00  0.00     0.134 A 
ATOM     86  C   UNL A   1      39.800  27.100  28.454  1.00  0.00     0.134 A 
ATOM     87  F   UNL A   1      41.613  29.174  26.099  1.00  0.00    -0.206 F 
ATOM     88  C   UNL A   1      41.067  26.898  26.004  1.00  0.00     0.040 A 
ATOM     89  C   UNL A   1      39.857  25.867  27.797  1.00  0.00     0.040 A 
ATOM     90  F   UNL A   1      39.248  27.095  29.675  1.00  0.00    -0.206 F 
ATOM     91  C   UNL A   1      40.505  25.758  26.573  1.00  0.00     0.006 A 
ENDBRANCH  63  84
BRANCH  75  92
ATOM     92  C   UNL A   1      42.990  33.602  30.015  1.00  0.00     0.057 A 
ATOM     93  C   UNL A   1      41.789  34.261  29.709  1.00  0.00     0.134 A 
ATOM     94  C   UNL A   1      44.159  34.121  29.449  1.00  0.00     0.134 A 
ATOM     95  F   UNL A   1      40.634  33.898  30.282  1.00  0.00    -0.206 F 
ATOM     96  C   UNL A   1      41.752  35.362  28.847  1.00  0.00     0.040 A 
ATOM     97  C   UNL A   1      44.139  35.239  28.613  1.00  0.00     0.040 A 
ATOM     98  F   UNL A   1      45.350  33.576  29.742  1.00  0.00    -0.206 F 
ATOM     99  C   UNL A   1      42.932  35.858  28.301  1.00  0.00     0.006 A 
ENDBRANCH  75  92
ENDBRANCH  49  50
ENDBRANCH  42  44
ENDBRANCH  41  42
ENDBRANCH  40  41
ENDBRANCH  39  40
ENDBRANCH  38  39
ENDBRANCH  37  38
ENDBRANCH   1  37
TORSDOF 20
ENDMDL
MODEL 2
REMARK VINA RESULT:     -11.7      1.212      2.063
REMARK SMILES COc1ccc(-n2c(SCc3cn(-c4ccc(C(=O)OCCOCCOC(=O)c5ccc(-c6c7nc(c(-c8c(F)cccc8F)c8ccc([nH]8)c(-c8c(F)cccc8F)c8nc(c(-c9c(F)cccc9F)c9ccc6[nH]9)C=C8)C=C7)cc5)cc4)nn3)nc3ccccc3c2=O)cc1
REMARK SMILES IDX 21 1 20 2 18 3 19 4 17 5 14 6 15 7 84 8 16 9 83 10 13 11
REMARK SMILES IDX 11 12 12 13 86 14 85 15 10 16 9 17 8 18 7 19 94 20 87 21
REMARK SMILES IDX 93 22 95 23 88 24 92 25 89 26 91 27 90 28 6 29 3 30 4 31
REMARK SMILES IDX 97 32 5 33 96 34 2 35 1 36 22 37 23 38 24 39 25 40 26 41
REMARK SMILES IDX 27 42 28 43 29 44 30 45 82 46 31 47 81 48 32 49 33 50 34 51
REMARK SMILES IDX 75 52 35 53 80 54 74 55 76 56 36 57 79 58 73 59 72 60 37 62
REMARK SMILES IDX 63 63 46 64 62 65 47 66 50 67 61 68 77 69 48 70 49 71 60 73
REMARK SMILES IDX 78 74 51 75 38 76 39 77 44 78 40 79 41 80 43 81 45 82 42 83
REMARK SMILES IDX 64 84 65 85 70 86 66 87 67 88 69 89 71 90 68 91 52 92 53 93
REMARK SMILES IDX 58 94 54 95 55 96 57 97 59 98 56 99
REMARK H PARENT 76 61 50 72
REMARK Flexibility Score: inf
ROOT
ATOM      1  C   UNL A   1      33.381  35.107  29.282  1.00  0.00     0.261 C 
ENDROOT
BRANCH   1   2
ATOM      2  O   UNL A   1      34.653  35.124  28.618  1.00  0.00    -0.460 OA
BRANCH   2   3
ATOM      3  C   UNL A   1      35.478  34.106  28.953  1.00  0.00     0.338 C 
ATOM      4  O   UNL A   1      36.420  34.136  29.738  1.00  0.00    -0.246 OA
BRANCH   3   5
ATOM      5  C   UNL A   1      34.947  32.851  28.397  1.00  0.00     0.060 A 
ATOM      6  C   UNL A   1      34.056  30.456  27.326  1.00  0.00     0.066 A 
ATOM      7  C   UNL A   1      35.333  30.511  27.884  1.00  0.00     0.029 A 
ATOM      8  C   UNL A   1      33.203  31.574  27.356  1.00  0.00     0.029 A 
ATOM      9  C   UNL A   1      35.788  31.727  28.385  1.00  0.00     0.018 A 
ATOM     10  C   UNL A   1      33.640  32.772  27.915  1.00  0.00     0.018 A 
BRANCH   6  11
ATOM     11  N   UNL A   1      33.677  29.313  26.603  1.00  0.00    -0.220 N 
ATOM     12  C   UNL A   1      32.888  27.339  26.159  1.00  0.00     0.093 A 
ATOM     13  C   UNL A   1      33.477  28.078  27.145  1.00  0.00     0.141 A 
ATOM     14  N   UNL A   1      32.844  28.089  25.018  1.00  0.00    -0.134 NA
ATOM     15  N   UNL A   1      33.279  29.312  25.314  1.00  0.00    -0.062 NA
BRANCH  12  16
ATOM     16  C   UNL A   1      32.333  25.987  26.283  1.00  0.00     0.138 C 
BRANCH  16  17
ATOM     17  S   UNL A   1      33.495  24.687  25.935  1.00  0.00    -0.081 SA
BRANCH  17  18
ATOM     18  C   UNL A   1      33.648  24.588  24.144  1.00  0.00     0.176 A 
ATOM     19  N   UNL A   1      32.474  24.200  23.514  1.00  0.00    -0.255 N 
ATOM     20  C   UNL A   1      32.310  22.847  23.242  1.00  0.00     0.266 A 
ATOM     21  N   UNL A   1      34.767  24.058  23.747  1.00  0.00    -0.223 NA
ATOM     22  C   UNL A   1      33.450  22.006  23.706  1.00  0.00     0.066 A 
ATOM     23  O   UNL A   1      31.327  22.321  22.731  1.00  0.00    -0.268 OA
ATOM     24  C   UNL A   1      34.691  22.649  23.855  1.00  0.00     0.079 A 
ATOM     25  C   UNL A   1      33.246  20.722  24.207  1.00  0.00     0.016 A 
ATOM     26  C   UNL A   1      35.763  21.960  24.418  1.00  0.00     0.029 A 
ATOM     27  C   UNL A   1      34.301  20.077  24.856  1.00  0.00     0.001 A 
ATOM     28  C   UNL A   1      35.561  20.682  24.937  1.00  0.00     0.002 A 
BRANCH  19  29
ATOM     29  C   UNL A   1      31.478  25.151  23.199  1.00  0.00     0.052 A 
ATOM     30  C   UNL A   1      29.793  27.369  23.109  1.00  0.00     0.119 A 
ATOM     31  C   UNL A   1      30.875  27.290  22.229  1.00  0.00     0.048 A 
ATOM     32  C   UNL A   1      29.456  26.267  23.895  1.00  0.00     0.048 A 
ATOM     33  C   UNL A   1      31.746  26.195  22.303  1.00  0.00     0.030 A 
ATOM     34  C   UNL A   1      30.283  25.144  23.918  1.00  0.00     0.030 A 
BRANCH  30  35
ATOM     35  O   UNL A   1      29.128  28.563  23.187  1.00  0.00    -0.497 OA
ATOM     36  C   UNL A   1      29.946  29.682  22.824  1.00  0.00     0.278 C 
ENDBRANCH  30  35
ENDBRANCH  19  29
ENDBRANCH  17  18
ENDBRANCH  16  17
ENDBRANCH  12  16
ENDBRANCH   6  11
ENDBRANCH   3   5
ENDBRANCH   2   3
ENDBRANCH   1   2
BRANCH   1  37
ATOM     37  C   UNL A   1      32.900  36.511  29.656  1.00  0.00     0.202 C 
BRANCH  37  38
ATOM     38  O   UNL A   1      32.432  36.753  30.984  1.00  0.00    -0.374 OA
BRANCH  38  39
ATOM     39  C   UNL A   1      33.231  37.481  31.910  1.00  0.00     0.202 C 
BRANCH  39  40
ATOM     40  C   UNL A   1      33.911  36.731  33.047  1.00  0.00     0.261 C 
BRANCH  40  41
ATOM     41  O   UNL A   1      34.872  35.810  32.564  1.00  0.00    -0.460 OA
BRANCH  41  42
ATOM     42  C   UNL A   1      34.600  34.526  32.873  1.00  0.00     0.338 C 
ATOM     43  O   UNL A   1      33.505  33.967  32.841  1.00  0.00    -0.246 OA
BRANCH  42  44
ATOM     44  C   UNL A   1      35.807  33.920  33.432  1.00  0.00     0.060 A 
ATOM     45  C   UNL A   1      36.912  34.769  33.479  1.00  0.00     0.016 A 
ATOM     46  C   UNL A   1      35.926  32.520  33.446  1.00  0.00     0.016 A 
ATOM     47  C   UNL A   1      38.132  34.224  33.181  1.00  0.00     0.010 A 
ATOM     48  C   UNL A   1      37.146  31.980  33.139  1.00  0.00     0.010 A 
ATOM     49  C   UNL A   1      38.199  32.855  32.895  1.00  0.00    -0.014 A 
BRANCH  49  50
ATOM     50  C   UNL A   1      39.458  32.343  32.417  1.00  0.00     0.031 A 
ATOM     51  C   UNL A   1      40.495  32.411  33.460  1.00  0.00     0.074 A 
ATOM     52  C   UNL A   1      39.611  31.822  31.187  1.00  0.00     0.049 A 
ATOM     53  N   UNL A   1      41.494  33.223  33.520  1.00  0.00    -0.248 NA
ATOM     54  C   UNL A   1      40.252  31.652  34.698  1.00  0.00     0.031 C 
ATOM     55  C   UNL A   1      38.588  31.488  30.194  1.00  0.00     0.029 A 
ATOM     56  N   UNL A   1      40.758  31.388  30.602  1.00  0.00    -0.354 N 
ATOM     57  C   UNL A   1      42.142  32.910  34.708  1.00  0.00     0.074 A 
ATOM     58  C   UNL A   1      41.219  32.127  35.483  1.00  0.00     0.031 C 
ATOM     59  C   UNL A   1      39.136  30.696  29.241  1.00  0.00     0.029 A 
ATOM     60  C   UNL A   1      40.563  30.584  29.486  1.00  0.00     0.049 A 
ATOM     61  H   UNL A   1      41.652  31.625  30.941  1.00  0.00     0.167 HD
ATOM     62  C   UNL A   1      43.489  33.052  34.815  1.00  0.00     0.037 A 
ATOM     63  C   UNL A   1      41.521  29.819  28.905  1.00  0.00     0.037 A 
ATOM     64  C   UNL A   1      43.996  33.952  33.808  1.00  0.00     0.049 A 
ATOM     65  C   UNL A   1      42.839  30.356  29.343  1.00  0.00     0.074 A 
ATOM     66  C   UNL A   1      43.766  35.275  33.482  1.00  0.00     0.029 A 
ATOM     67  N   UNL A   1      44.601  33.396  32.706  1.00  0.00    -0.354 N 
ATOM     68  N   UNL A   1      43.301  31.520  28.975  1.00  0.00    -0.248 NA
ATOM     69  C   UNL A   1      43.408  29.822  30.574  1.00  0.00     0.031 C 
ATOM     70  C   UNL A   1      43.807  35.320  32.057  1.00  0.00     0.029 A 
ATOM     71  C   UNL A   1      44.120  34.041  31.596  1.00  0.00     0.049 A 
ATOM     72  H   UNL A   1      45.263  32.667  32.712  1.00  0.00     0.167 HD
ATOM     73  C   UNL A   1      43.878  32.052  30.120  1.00  0.00     0.074 A 
ATOM     74  C   UNL A   1      43.971  30.934  31.056  1.00  0.00     0.031 C 
ATOM     75  C   UNL A   1      43.953  33.403  30.311  1.00  0.00     0.037 A 
BRANCH  62  76
ATOM     76  C   UNL A   1      44.364  32.045  35.520  1.00  0.00     0.057 A 
ATOM     77  C   UNL A   1      44.266  30.696  35.144  1.00  0.00     0.134 A 
ATOM     78  C   UNL A   1      45.053  32.281  36.731  1.00  0.00     0.134 A 
ATOM     79  F   UNL A   1      43.637  30.340  34.014  1.00  0.00    -0.206 F 
ATOM     80  C   UNL A   1      44.724  29.657  35.962  1.00  0.00     0.040 A 
ATOM     81  C   UNL A   1      45.559  31.253  37.527  1.00  0.00     0.040 A 
ATOM     82  F   UNL A   1      45.190  33.495  37.271  1.00  0.00    -0.206 F 
ATOM     83  C   UNL A   1      45.361  29.934  37.164  1.00  0.00     0.006 A 
ENDBRANCH  62  76
BRANCH  63  84
ATOM     84  C   UNL A   1      41.375  28.461  28.330  1.00  0.00     0.057 A 
ATOM     85  C   UNL A   1      41.100  27.353  29.145  1.00  0.00     0.134 A 
ATOM     86  C   UNL A   1      41.220  28.260  26.947  1.00  0.00     0.134 A 
ATOM     87  F   UNL A   1      41.171  27.458  30.480  1.00  0.00    -0.206 F 
ATOM     88  C   UNL A   1      40.679  26.125  28.618  1.00  0.00     0.040 A 
ATOM     89  C   UNL A   1      40.807  27.038  26.406  1.00  0.00     0.040 A 
ATOM     90  F   UNL A   1      41.375  29.269  26.077  1.00  0.00    -0.206 F 
ATOM     91  C   UNL A   1      40.521  25.967  27.243  1.00  0.00     0.006 A 
ENDBRANCH  63  84
BRANCH  75  92
ATOM     92  C   UNL A   1      43.607  34.296  29.152  1.00  0.00     0.057 A 
ATOM     93  C   UNL A   1      44.483  34.590  28.097  1.00  0.00     0.134 A 
ATOM     94  C   UNL A   1      42.289  34.747  29.025  1.00  0.00     0.134 A 
ATOM     95  F   UNL A   1      45.736  34.116  28.085  1.00  0.00    -0.206 F 
ATOM     96  C   UNL A   1      44.076  35.335  26.986  1.00  0.00     0.040 A 
ATOM     97  C   UNL A   1      41.860  35.463  27.906  1.00  0.00     0.040 A 
ATOM     98  F   UNL A   1      41.381  34.453  29.968  1.00  0.00    -0.206 F 
ATOM     99  C   UNL A   1      42.757  35.769  26.885  1.00  0.00     0.006 A 
ENDBRANCH  75  92
ENDBRANCH  49  50
ENDBRANCH  42  44
ENDBRANCH  41  42
ENDBRANCH  40  41
ENDBRANCH  39  40
ENDBRANCH  38  39
ENDBRANCH  37  38
ENDBRANCH   1  37
TORSDOF 20
ENDMDL
MODEL 3
REMARK VINA RESULT:     -11.6      1.740      5.179
REMARK SMILES COc1ccc(-n2c(SCc3cn(-c4ccc(C(=O)OCCOCCOC(=O)c5ccc(-c6c7nc(c(-c8c(F)cccc8F)c8ccc([nH]8)c(-c8c(F)cccc8F)c8nc(c(-c9c(F)cccc9F)c9ccc6[nH]9)C=C8)C=C7)cc5)cc4)nn3)nc3ccccc3c2=O)cc1
REMARK SMILES IDX 21 1 20 2 18 3 19 4 17 5 14 6 15 7 84 8 16 9 83 10 13 11
REMARK SMILES IDX 11 12 12 13 86 14 85 15 10 16 9 17 8 18 7 19 94 20 87 21
REMARK SMILES IDX 93 22 95 23 88 24 92 25 89 26 91 27 90 28 6 29 3 30 4 31
REMARK SMILES IDX 97 32 5 33 96 34 2 35 1 36 22 37 23 38 24 39 25 40 26 41
REMARK SMILES IDX 27 42 28 43 29 44 30 45 82 46 31 47 81 48 32 49 33 50 34 51
REMARK SMILES IDX 75 52 35 53 80 54 74 55 76 56 36 57 79 58 73 59 72 60 37 62
REMARK SMILES IDX 63 63 46 64 62 65 47 66 50 67 61 68 77 69 48 70 49 71 60 73
REMARK SMILES IDX 78 74 51 75 38 76 39 77 44 78 40 79 41 80 43 81 45 82 42 83
REMARK SMILES IDX 64 84 65 85 70 86 66 87 67 88 69 89 71 90 68 91 52 92 53 93
REMARK SMILES IDX 58 94 54 95 55 96 57 97 59 98 56 99
REMARK H PARENT 76 61 50 72
REMARK Flexibility Score: inf
ROOT
ATOM      1  C   UNL A   1      33.087  35.419  29.888  1.00  0.00     0.261 C 
ENDROOT
BRANCH   1   2
ATOM      2  O   UNL A   1      33.641  35.259  28.575  1.00  0.00    -0.460 OA
BRANCH   2   3
ATOM      3  C   UNL A   1      34.746  34.480  28.520  1.00  0.00     0.338 C 
ATOM      4  O   UNL A   1      35.865  34.742  28.949  1.00  0.00    -0.246 OA
BRANCH   3   5
ATOM      5  C   UNL A   1      34.367  33.136  28.055  1.00  0.00     0.060 A 
ATOM      6  C   UNL A   1      33.764  30.589  27.148  1.00  0.00     0.066 A 
ATOM      7  C   UNL A   1      35.061  30.859  27.584  1.00  0.00     0.029 A 
ATOM      8  C   UNL A   1      32.756  31.567  27.220  1.00  0.00     0.029 A 
ATOM      9  C   UNL A   1      35.366  32.151  28.003  1.00  0.00     0.018 A 
ATOM     10  C   UNL A   1      33.052  32.841  27.698  1.00  0.00     0.018 A 
BRANCH   6  11
ATOM     11  N   UNL A   1      33.503  29.370  26.499  1.00  0.00    -0.220 N 
ATOM     12  C   UNL A   1      32.823  27.336  26.160  1.00  0.00     0.093 A 
ATOM     13  C   UNL A   1      33.269  28.185  27.132  1.00  0.00     0.141 A 
ATOM     14  N   UNL A   1      32.900  27.974  24.953  1.00  0.00    -0.134 NA
ATOM     15  N   UNL A   1      33.265  29.234  25.178  1.00  0.00    -0.062 NA
BRANCH  12  16
ATOM     16  C   UNL A   1      32.289  25.982  26.348  1.00  0.00     0.138 C 
BRANCH  16  17
ATOM     17  S   UNL A   1      33.458  24.686  26.011  1.00  0.00    -0.081 SA
BRANCH  17  18
ATOM     18  C   UNL A   1      33.647  24.603  24.223  1.00  0.00     0.176 A 
ATOM     19  N   UNL A   1      32.488  24.213  23.567  1.00  0.00    -0.255 N 
ATOM     20  C   UNL A   1      32.338  22.861  23.281  1.00  0.00     0.266 A 
ATOM     21  N   UNL A   1      34.777  24.082  23.844  1.00  0.00    -0.223 NA
ATOM     22  C   UNL A   1      33.474  22.023  23.760  1.00  0.00     0.066 A 
ATOM     23  O   UNL A   1      31.369  22.333  22.746  1.00  0.00    -0.268 OA
ATOM     24  C   UNL A   1      34.708  22.673  23.939  1.00  0.00     0.079 A 
ATOM     25  C   UNL A   1      33.268  20.733  24.246  1.00  0.00     0.016 A 
ATOM     26  C   UNL A   1      35.772  21.985  24.518  1.00  0.00     0.029 A 
ATOM     27  C   UNL A   1      34.314  20.090  24.911  1.00  0.00     0.001 A 
ATOM     28  C   UNL A   1      35.568  20.701  25.022  1.00  0.00     0.002 A 
BRANCH  19  29
ATOM     29  C   UNL A   1      31.493  25.160  23.240  1.00  0.00     0.052 A 
ATOM     30  C   UNL A   1      29.832  27.393  23.099  1.00  0.00     0.119 A 
ATOM     31  C   UNL A   1      30.881  27.256  22.186  1.00  0.00     0.048 A 
ATOM     32  C   UNL A   1      29.509  26.336  23.950  1.00  0.00     0.048 A 
ATOM     33  C   UNL A   1      31.741  26.155  22.284  1.00  0.00     0.030 A 
ATOM     34  C   UNL A   1      30.324  25.204  24.000  1.00  0.00     0.030 A 
BRANCH  30  35
ATOM     35  O   UNL A   1      29.183  28.598  23.141  1.00  0.00    -0.497 OA
ATOM     36  C   UNL A   1      29.886  29.635  22.444  1.00  0.00     0.278 C 
ENDBRANCH  30  35
ENDBRANCH  19  29
ENDBRANCH  17  18
ENDBRANCH  16  17
ENDBRANCH  12  16
ENDBRANCH   6  11
ENDBRANCH   3   5
ENDBRANCH   2   3
ENDBRANCH   1   2
BRANCH   1  37
ATOM     37  C   UNL A   1      33.246  36.846  30.418  1.00  0.00     0.202 C 
BRANCH  37  38
ATOM     38  O   UNL A   1      33.059  37.094  31.812  1.00  0.00    -0.374 OA
BRANCH  38  39
ATOM     39  C   UNL A   1      34.136  36.927  32.727  1.00  0.00     0.202 C 
BRANCH  39  40
ATOM     40  C   UNL A   1      34.273  35.608  33.474  1.00  0.00     0.261 C 
BRANCH  40  41
ATOM     41  O   UNL A   1      34.961  34.639  32.703  1.00  0.00    -0.460 OA
BRANCH  41  42
ATOM     42  C   UNL A   1      34.441  33.399  32.796  1.00  0.00     0.338 C 
ATOM     43  O   UNL A   1      33.300  33.092  33.137  1.00  0.00    -0.246 OA
BRANCH  42  44
ATOM     44  C   UNL A   1      35.517  32.431  32.590  1.00  0.00     0.060 A 
ATOM     45  C   UNL A   1      36.644  32.640  33.384  1.00  0.00     0.016 A 
ATOM     46  C   UNL A   1      35.561  31.703  31.390  1.00  0.00     0.016 A 
ATOM     47  C   UNL A   1      37.866  32.431  32.804  1.00  0.00     0.010 A 
ATOM     48  C   UNL A   1      36.785  31.504  30.808  1.00  0.00     0.010 A 
ATOM     49  C   UNL A   1      37.905  31.983  31.478  1.00  0.00    -0.014 A 
BRANCH  49  50
ATOM     50  C   UNL A   1      39.195  31.939  30.837  1.00  0.00     0.031 A 
ATOM     51  C   UNL A   1      39.392  30.668  30.118  1.00  0.00     0.074 A 
ATOM     52  C   UNL A   1      40.056  32.971  30.863  1.00  0.00     0.049 A 
ATOM     53  N   UNL A   1      40.158  29.687  30.456  1.00  0.00    -0.248 NA
ATOM     54  C   UNL A   1      38.447  30.357  29.033  1.00  0.00     0.031 C 
ATOM     55  C   UNL A   1      39.837  34.341  31.330  1.00  0.00     0.029 A 
ATOM     56  N   UNL A   1      41.321  33.014  30.369  1.00  0.00    -0.354 N 
ATOM     57  C   UNL A   1      39.955  28.720  29.480  1.00  0.00     0.074 A 
ATOM     58  C   UNL A   1      38.747  29.081  28.791  1.00  0.00     0.031 C 
ATOM     59  C   UNL A   1      40.844  35.129  30.882  1.00  0.00     0.029 A 
ATOM     60  C   UNL A   1      41.834  34.296  30.221  1.00  0.00     0.049 A 
ATOM     61  H   UNL A   1      41.831  32.204  30.136  1.00  0.00     0.167 HD
ATOM     62  C   UNL A   1      40.966  27.887  29.118  1.00  0.00     0.037 A 
ATOM     63  C   UNL A   1      42.944  34.610  29.506  1.00  0.00     0.037 A 
ATOM     64  C   UNL A   1      41.983  27.833  30.139  1.00  0.00     0.049 A 
ATOM     65  C   UNL A   1      43.734  33.357  29.348  1.00  0.00     0.074 A 
ATOM     66  C   UNL A   1      42.005  27.467  31.472  1.00  0.00     0.029 A 
ATOM     67  N   UNL A   1      43.128  28.567  29.936  1.00  0.00    -0.354 N 
ATOM     68  N   UNL A   1      44.331  32.752  30.339  1.00  0.00    -0.248 NA
ATOM     69  C   UNL A   1      43.442  32.518  28.193  1.00  0.00     0.031 C 
ATOM     70  C   UNL A   1      42.898  28.388  32.097  1.00  0.00     0.029 A 
ATOM     71  C   UNL A   1      43.417  29.220  31.106  1.00  0.00     0.049 A 
ATOM     72  H   UNL A   1      43.647  28.614  29.101  1.00  0.00     0.167 HD
ATOM     73  C   UNL A   1      44.103  31.400  30.121  1.00  0.00     0.074 A 
ATOM     74  C   UNL A   1      43.606  31.314  28.749  1.00  0.00     0.031 C 
ATOM     75  C   UNL A   1      44.056  30.515  31.160  1.00  0.00     0.037 A 
BRANCH  62  76
ATOM     76  C   UNL A   1      41.233  27.500  27.684  1.00  0.00     0.057 A 
ATOM     77  C   UNL A   1      41.313  26.135  27.365  1.00  0.00     0.134 A 
ATOM     78  C   UNL A   1      41.714  28.377  26.687  1.00  0.00     0.134 A 
ATOM     79  F   UNL A   1      40.888  25.200  28.228  1.00  0.00    -0.206 F 
ATOM     80  C   UNL A   1      41.920  25.676  26.191  1.00  0.00     0.040 A 
ATOM     81  C   UNL A   1      42.274  27.929  25.490  1.00  0.00     0.040 A 
ATOM     82  F   UNL A   1      41.771  29.703  26.842  1.00  0.00    -0.206 F 
ATOM     83  C   UNL A   1      42.415  26.574  25.255  1.00  0.00     0.006 A 
ENDBRANCH  62  76
BRANCH  63  84
ATOM     84  C   UNL A   1      43.167  35.795  28.646  1.00  0.00     0.057 A 
ATOM     85  C   UNL A   1      42.348  36.050  27.536  1.00  0.00     0.134 A 
ATOM     86  C   UNL A   1      44.001  36.852  29.051  1.00  0.00     0.134 A 
ATOM     87  F   UNL A   1      41.481  35.123  27.103  1.00  0.00    -0.206 F 
ATOM     88  C   UNL A   1      42.346  37.288  26.879  1.00  0.00     0.040 A 
ATOM     89  C   UNL A   1      44.014  38.091  28.400  1.00  0.00     0.040 A 
ATOM     90  F   UNL A   1      44.766  36.752  30.147  1.00  0.00    -0.206 F 
ATOM     91  C   UNL A   1      43.174  38.318  27.318  1.00  0.00     0.006 A 
ENDBRANCH  63  84
BRANCH  75  92
ATOM     92  C   UNL A   1      44.484  31.001  32.516  1.00  0.00     0.057 A 
ATOM     93  C   UNL A   1      43.628  31.629  33.434  1.00  0.00     0.134 A 
ATOM     94  C   UNL A   1      45.770  30.683  32.966  1.00  0.00     0.134 A 
ATOM     95  F   UNL A   1      42.349  31.882  33.125  1.00  0.00    -0.206 F 
ATOM     96  C   UNL A   1      44.047  31.960  34.726  1.00  0.00     0.040 A 
ATOM     97  C   UNL A   1      46.190  30.978  34.265  1.00  0.00     0.040 A 
ATOM     98  F   UNL A   1      46.624  30.031  32.163  1.00  0.00    -0.206 F 
ATOM     99  C   UNL A   1      45.331  31.629  35.147  1.00  0.00     0.006 A 
ENDBRANCH  75  92
ENDBRANCH  49  50
ENDBRANCH  42  44
ENDBRANCH  41  42
ENDBRANCH  40  41
ENDBRANCH  39  40
ENDBRANCH  38  39
ENDBRANCH  37  38
ENDBRANCH   1  37
TORSDOF 20
ENDMDL
