MODEL 1
REMARK VINA RESULT:     -12.3      0.000      0.000
REMARK SMILES CC1(C)Oc2ccc(NC(=O)[C@H]3CC=CC[C@@H]3C(=O)OCCOCCOC(=O)c3ccc(-c4c5nc(c(-c6c(F)cccc6F)c6ccc([nH]6)c(-c6c(F)cccc6F)c6nc(c(-c7c(F)cccc7F)c7ccc4[nH]7)C=C6)C=C5)cc3)cc2NC1=O
REMARK SMILES IDX 23 1 22 2 21 3 20 4 18 5 19 6 17 7 12 8 13 9 14 10 16 11
REMARK SMILES IDX 15 12 10 13 9 14 11 16 8 17 1 18 2 19 3 20 4 21 86 22 5 23
REMARK SMILES IDX 85 24 87 25 6 26 84 27 7 29 83 30 24 31 25 32 26 33 27 34
REMARK SMILES IDX 28 35 29 36 30 37 82 38 31 39 81 40 32 41 33 42 34 43 75 44
REMARK SMILES IDX 35 45 80 46 74 47 76 48 36 49 79 50 73 51 72 52 37 54 63 55
REMARK SMILES IDX 46 56 62 57 47 58 50 59 61 60 77 61 48 62 49 63 60 65 78 66
REMARK SMILES IDX 51 67 38 68 39 69 44 70 40 71 41 72 43 73 45 74 42 75 64 76
REMARK SMILES IDX 65 77 70 78 66 79 67 80 69 81 71 82 68 83 52 84 53 85 58 86
REMARK SMILES IDX 54 87 55 88 57 89 59 90 56 91
REMARK H PARENT 9 15 85 28 76 53 50 64
REMARK Flexibility Score: inf
ROOT
ATOM      1  O   UNL A   1      31.419  29.654  26.891  1.00  0.00    -0.374 OA
ENDROOT
BRANCH   1   2
ATOM      2  C   UNL A   1      32.125  28.444  26.632  1.00  0.00     0.202 C 
BRANCH   2   3
ATOM      3  C   UNL A   1      31.314  27.160  26.429  1.00  0.00     0.261 C 
BRANCH   3   4
ATOM      4  O   UNL A   1      31.869  26.021  27.118  1.00  0.00    -0.463 OA
BRANCH   4   5
ATOM      5  C   UNL A   1      32.002  24.901  26.348  1.00  0.00     0.310 C 
ATOM      6  O   UNL A   1      31.564  23.803  26.663  1.00  0.00    -0.252 OA
BRANCH   5   7
ATOM      7  C   UNL A   1      32.761  25.198  25.055  1.00  0.00     0.116 C 
ATOM      8  C   UNL A   1      32.531  24.120  23.973  1.00  0.00     0.097 C 
ATOM      9  C   UNL A   1      33.187  22.772  24.362  1.00  0.00     0.041 C 
ATOM     10  C   UNL A   1      34.465  22.888  25.138  1.00  0.00    -0.030 C 
ATOM     11  C   UNL A   1      34.254  25.361  25.385  1.00  0.00     0.043 C 
ATOM     12  C   UNL A   1      34.960  24.052  25.577  1.00  0.00    -0.030 C 
BRANCH   8  13
ATOM     13  C   UNL A   1      32.999  24.586  22.593  1.00  0.00     0.228 C 
ATOM     14  N   UNL A   1      32.741  25.831  22.093  1.00  0.00    -0.326 N 
ATOM     15  H   UNL A   1      33.159  25.975  21.213  1.00  0.00     0.169 HD
ATOM     16  O   UNL A   1      33.668  23.849  21.861  1.00  0.00    -0.274 OA
BRANCH  14  17
ATOM     17  C   UNL A   1      32.024  26.955  22.535  1.00  0.00     0.043 A 
ATOM     18  C   UNL A   1      27.574  31.381  23.493  1.00  0.00     0.067 C 
ATOM     19  C   UNL A   1      28.304  30.213  22.828  1.00  0.00     0.182 C 
ATOM     20  C   UNL A   1      28.227  30.382  21.298  1.00  0.00     0.067 C 
ATOM     21  O   UNL A   1      29.671  30.316  23.253  1.00  0.00    -0.476 OA
ATOM     22  C   UNL A   1      27.624  28.870  23.187  1.00  0.00     0.268 C 
ATOM     23  C   UNL A   1      30.399  29.172  23.077  1.00  0.00     0.144 A 
ATOM     24  N   UNL A   1      28.441  27.771  23.047  1.00  0.00    -0.319 N 
ATOM     25  O   UNL A   1      26.434  28.742  23.459  1.00  0.00    -0.270 OA
ATOM     26  C   UNL A   1      31.779  29.303  23.103  1.00  0.00     0.051 A 
ATOM     27  C   UNL A   1      29.825  27.913  22.913  1.00  0.00     0.086 A 
ATOM     28  H   UNL A   1      28.044  26.870  23.042  1.00  0.00     0.170 HD
ATOM     29  C   UNL A   1      32.586  28.191  22.853  1.00  0.00     0.030 A 
ATOM     30  C   UNL A   1      30.630  26.806  22.645  1.00  0.00     0.056 A 
ENDBRANCH  14  17
ENDBRANCH   8  13
ENDBRANCH   5   7
ENDBRANCH   4   5
ENDBRANCH   3   4
ENDBRANCH   2   3
ENDBRANCH   1   2
BRANCH   1  31
ATOM     31  C   UNL A   1      31.927  30.843  26.298  1.00  0.00     0.202 C 
BRANCH  31  32
ATOM     32  C   UNL A   1      31.614  32.179  26.984  1.00  0.00     0.261 C 
BRANCH  32  33
ATOM     33  O   UNL A   1      32.640  33.159  26.765  1.00  0.00    -0.460 OA
BRANCH  33  34
ATOM     34  C   UNL A   1      33.064  33.780  27.894  1.00  0.00     0.338 C 
ATOM     35  O   UNL A   1      32.462  34.614  28.552  1.00  0.00    -0.246 OA
BRANCH  34  36
ATOM     36  C   UNL A   1      34.310  33.144  28.361  1.00  0.00     0.060 A 
ATOM     37  C   UNL A   1      35.521  33.837  28.400  1.00  0.00     0.016 A 
ATOM     38  C   UNL A   1      34.238  31.807  28.777  1.00  0.00     0.016 A 
ATOM     39  C   UNL A   1      36.658  33.195  28.899  1.00  0.00     0.010 A 
ATOM     40  C   UNL A   1      35.373  31.171  29.276  1.00  0.00     0.010 A 
ATOM     41  C   UNL A   1      36.583  31.870  29.367  1.00  0.00    -0.014 A 
BRANCH  41  42
ATOM     42  C   UNL A   1      37.730  31.266  30.086  1.00  0.00     0.031 A 
ATOM     43  C   UNL A   1      38.654  30.294  29.419  1.00  0.00     0.074 A 
ATOM     44  C   UNL A   1      37.900  31.581  31.384  1.00  0.00     0.049 A 
ATOM     45  N   UNL A   1      39.725  29.714  29.899  1.00  0.00    -0.248 NA
ATOM     46  C   UNL A   1      38.330  29.916  28.036  1.00  0.00     0.031 C 
ATOM     47  C   UNL A   1      37.032  32.475  32.152  1.00  0.00     0.029 A 
ATOM     48  N   UNL A   1      38.857  31.190  32.284  1.00  0.00    -0.354 N 
ATOM     49  C   UNL A   1      40.217  28.916  28.876  1.00  0.00     0.074 A 
ATOM     50  C   UNL A   1      39.294  29.045  27.766  1.00  0.00     0.031 C 
ATOM     51  C   UNL A   1      37.514  32.590  33.399  1.00  0.00     0.029 A 
ATOM     52  C   UNL A   1      38.701  31.752  33.528  1.00  0.00     0.049 A 
ATOM     53  H   UNL A   1      39.585  30.565  32.062  1.00  0.00     0.167 HD
ATOM     54  C   UNL A   1      41.343  28.161  28.860  1.00  0.00     0.037 A 
ATOM     55  C   UNL A   1      39.434  31.607  34.646  1.00  0.00     0.037 A 
ATOM     56  C   UNL A   1      42.235  28.009  29.984  1.00  0.00     0.049 A 
ATOM     57  C   UNL A   1      40.644  30.715  34.616  1.00  0.00     0.074 A 
ATOM     58  C   UNL A   1      43.417  27.293  30.059  1.00  0.00     0.029 A 
ATOM     59  N   UNL A   1      42.031  28.567  31.239  1.00  0.00    -0.354 N 
ATOM     60  N   UNL A   1      41.151  30.037  33.615  1.00  0.00    -0.248 NA
ATOM     61  C   UNL A   1      41.388  30.575  35.875  1.00  0.00     0.031 C 
ATOM     62  C   UNL A   1      43.896  27.368  31.373  1.00  0.00     0.029 A 
ATOM     63  C   UNL A   1      43.047  28.182  32.102  1.00  0.00     0.049 A 
ATOM     64  H   UNL A   1      41.275  29.149  31.481  1.00  0.00     0.167 HD
ATOM     65  C   UNL A   1      42.285  29.413  34.115  1.00  0.00     0.074 A 
ATOM     66  C   UNL A   1      42.405  29.814  35.502  1.00  0.00     0.031 C 
ATOM     67  C   UNL A   1      43.151  28.581  33.484  1.00  0.00     0.037 A 
BRANCH  54  68
ATOM     68  C   UNL A   1      41.666  27.433  27.587  1.00  0.00     0.057 A 
ATOM     69  C   UNL A   1      42.353  28.072  26.546  1.00  0.00     0.134 A 
ATOM     70  C   UNL A   1      41.274  26.104  27.377  1.00  0.00     0.134 A 
ATOM     71  F   UNL A   1      42.751  29.347  26.673  1.00  0.00    -0.206 F 
ATOM     72  C   UNL A   1      42.640  27.416  25.347  1.00  0.00     0.040 A 
ATOM     73  C   UNL A   1      41.579  25.427  26.194  1.00  0.00     0.040 A 
ATOM     74  F   UNL A   1      40.620  25.428  28.334  1.00  0.00    -0.206 F 
ATOM     75  C   UNL A   1      42.261  26.086  25.172  1.00  0.00     0.006 A 
ENDBRANCH  54  68
BRANCH  55  76
ATOM     76  C   UNL A   1      39.060  32.331  35.887  1.00  0.00     0.057 A 
ATOM     77  C   UNL A   1      39.495  33.640  36.130  1.00  0.00     0.134 A 
ATOM     78  C   UNL A   1      38.225  31.741  36.843  1.00  0.00     0.134 A 
ATOM     79  F   UNL A   1      40.303  34.258  35.257  1.00  0.00    -0.206 F 
ATOM     80  C   UNL A   1      39.112  34.336  37.277  1.00  0.00     0.040 A 
ATOM     81  C   UNL A   1      37.811  32.435  37.980  1.00  0.00     0.040 A 
ATOM     82  F   UNL A   1      37.764  30.494  36.659  1.00  0.00    -0.206 F 
ATOM     83  C   UNL A   1      38.256  33.737  38.200  1.00  0.00     0.006 A 
ENDBRANCH  55  76
BRANCH  67  84
ATOM     84  C   UNL A   1      44.317  28.077  34.288  1.00  0.00     0.057 A 
ATOM     85  C   UNL A   1      44.235  26.860  34.977  1.00  0.00     0.134 A 
ATOM     86  C   UNL A   1      45.520  28.791  34.382  1.00  0.00     0.134 A 
ATOM     87  F   UNL A   1      43.113  26.128  34.938  1.00  0.00    -0.206 F 
ATOM     88  C   UNL A   1      45.306  26.370  35.726  1.00  0.00     0.040 A 
ATOM     89  C   UNL A   1      46.610  28.295  35.101  1.00  0.00     0.040 A 
ATOM     90  F   UNL A   1      45.672  29.955  33.733  1.00  0.00    -0.206 F 
ATOM     91  C   UNL A   1      46.502  27.084  35.780  1.00  0.00     0.006 A 
ENDBRANCH  67  84
ENDBRANCH  41  42
ENDBRANCH  34  36
ENDBRANCH  33  34
ENDBRANCH  32  33
ENDBRANCH  31  32
ENDBRANCH   1  31
TORSDOF 16
ENDMDL
MODEL 2
REMARK VINA RESULT:     -12.3      1.144      6.086
REMARK SMILES CC1(C)Oc2ccc(NC(=O)[C@H]3CC=CC[C@@H]3C(=O)OCCOCCOC(=O)c3ccc(-c4c5nc(c(-c6c(F)cccc6F)c6ccc([nH]6)c(-c6c(F)cccc6F)c6nc(c(-c7c(F)cccc7F)c7ccc4[nH]7)C=C6)C=C5)cc3)cc2NC1=O
REMARK SMILES IDX 23 1 22 2 21 3 20 4 18 5 19 6 17 7 12 8 13 9 14 10 16 11
REMARK SMILES IDX 15 12 10 13 9 14 11 16 8 17 1 18 2 19 3 20 4 21 86 22 5 23
REMARK SMILES IDX 85 24 87 25 6 26 84 27 7 29 83 30 24 31 25 32 26 33 27 34
REMARK SMILES IDX 28 35 29 36 30 37 82 38 31 39 81 40 32 41 33 42 34 43 75 44
REMARK SMILES IDX 35 45 80 46 74 47 76 48 36 49 79 50 73 51 72 52 37 54 63 55
REMARK SMILES IDX 46 56 62 57 47 58 50 59 61 60 77 61 48 62 49 63 60 65 78 66
REMARK SMILES IDX 51 67 38 68 39 69 44 70 40 71 41 72 43 73 45 74 42 75 64 76
REMARK SMILES IDX 65 77 70 78 66 79 67 80 69 81 71 82 68 83 52 84 53 85 58 86
REMARK SMILES IDX 54 87 55 88 57 89 59 90 56 91
REMARK H PARENT 9 15 85 28 76 53 50 64
REMARK Flexibility Score: inf
ROOT
ATOM      1  O   UNL A   1      30.902  27.515  27.135  1.00  0.00    -0.374 OA
ENDROOT
BRANCH   1   2
ATOM      2  C   UNL A   1      30.961  26.511  26.125  1.00  0.00     0.202 C 
BRANCH   2   3
ATOM      3  C   UNL A   1      30.095  25.259  26.296  1.00  0.00     0.261 C 
BRANCH   3   4
ATOM      4  O   UNL A   1      30.653  24.090  25.662  1.00  0.00    -0.463 OA
BRANCH   4   5
ATOM      5  C   UNL A   1      31.974  23.873  25.929  1.00  0.00     0.310 C 
ATOM      6  O   UNL A   1      32.393  23.459  27.000  1.00  0.00    -0.252 OA
BRANCH   5   7
ATOM      7  C   UNL A   1      32.850  24.212  24.723  1.00  0.00     0.116 C 
ATOM      8  C   UNL A   1      32.203  23.790  23.384  1.00  0.00     0.097 C 
ATOM      9  C   UNL A   1      32.140  22.249  23.242  1.00  0.00     0.041 C 
ATOM     10  C   UNL A   1      33.284  21.505  23.863  1.00  0.00    -0.030 C 
ATOM     11  C   UNL A   1      34.230  23.560  24.915  1.00  0.00     0.043 C 
ATOM     12  C   UNL A   1      34.239  22.096  24.595  1.00  0.00    -0.030 C 
BRANCH   8  13
ATOM     13  C   UNL A   1      32.904  24.429  22.184  1.00  0.00     0.228 C 
ATOM     14  N   UNL A   1      32.805  25.756  21.874  1.00  0.00    -0.326 N 
ATOM     15  H   UNL A   1      33.360  26.001  21.099  1.00  0.00     0.169 HD
ATOM     16  O   UNL A   1      33.629  23.763  21.437  1.00  0.00    -0.274 OA
BRANCH  14  17
ATOM     17  C   UNL A   1      32.100  26.852  22.398  1.00  0.00     0.043 A 
ATOM     18  C   UNL A   1      27.718  31.274  23.648  1.00  0.00     0.067 C 
ATOM     19  C   UNL A   1      28.440  30.152  22.899  1.00  0.00     0.182 C 
ATOM     20  C   UNL A   1      28.399  30.454  21.388  1.00  0.00     0.067 C 
ATOM     21  O   UNL A   1      29.799  30.188  23.357  1.00  0.00    -0.476 OA
ATOM     22  C   UNL A   1      27.726  28.798  23.126  1.00  0.00     0.268 C 
ATOM     23  C   UNL A   1      30.508  29.049  23.098  1.00  0.00     0.144 A 
ATOM     24  N   UNL A   1      28.524  27.698  22.908  1.00  0.00    -0.319 N 
ATOM     25  O   UNL A   1      26.528  28.672  23.363  1.00  0.00    -0.270 OA
ATOM     26  C   UNL A   1      31.889  29.147  23.162  1.00  0.00     0.051 A 
ATOM     27  C   UNL A   1      29.913  27.821  22.814  1.00  0.00     0.086 A 
ATOM     28  H   UNL A   1      28.109  26.810  22.816  1.00  0.00     0.170 HD
ATOM     29  C   UNL A   1      32.679  28.044  22.833  1.00  0.00     0.030 A 
ATOM     30  C   UNL A   1      30.702  26.724  22.466  1.00  0.00     0.056 A 
ENDBRANCH  14  17
ENDBRANCH   8  13
ENDBRANCH   5   7
ENDBRANCH   4   5
ENDBRANCH   3   4
ENDBRANCH   2   3
ENDBRANCH   1   2
BRANCH   1  31
ATOM     31  C   UNL A   1      32.024  28.381  27.256  1.00  0.00     0.202 C 
BRANCH  31  32
ATOM     32  C   UNL A   1      31.863  29.835  26.793  1.00  0.00     0.261 C 
BRANCH  32  33
ATOM     33  O   UNL A   1      33.106  30.415  26.370  1.00  0.00    -0.460 OA
BRANCH  33  34
ATOM     34  C   UNL A   1      33.538  31.434  27.154  1.00  0.00     0.338 C 
ATOM     35  O   UNL A   1      32.916  32.434  27.478  1.00  0.00    -0.246 OA
BRANCH  34  36
ATOM     36  C   UNL A   1      34.834  31.071  27.756  1.00  0.00     0.060 A 
ATOM     37  C   UNL A   1      35.821  32.024  28.011  1.00  0.00     0.016 A 
ATOM     38  C   UNL A   1      35.044  29.722  28.075  1.00  0.00     0.016 A 
ATOM     39  C   UNL A   1      37.009  31.626  28.630  1.00  0.00     0.010 A 
ATOM     40  C   UNL A   1      36.228  29.328  28.693  1.00  0.00     0.010 A 
ATOM     41  C   UNL A   1      37.207  30.282  29.000  1.00  0.00    -0.014 A 
BRANCH  41  42
ATOM     42  C   UNL A   1      38.368  29.902  29.840  1.00  0.00     0.031 A 
ATOM     43  C   UNL A   1      38.548  30.442  31.225  1.00  0.00     0.074 A 
ATOM     44  C   UNL A   1      39.295  29.083  29.306  1.00  0.00     0.049 A 
ATOM     45  N   UNL A   1      39.486  30.172  32.098  1.00  0.00    -0.248 NA
ATOM     46  C   UNL A   1      37.553  31.420  31.689  1.00  0.00     0.031 C 
ATOM     47  C   UNL A   1      39.251  28.538  27.947  1.00  0.00     0.029 A 
ATOM     48  N   UNL A   1      40.447  28.567  29.836  1.00  0.00    -0.354 N 
ATOM     49  C   UNL A   1      39.188  30.928  33.223  1.00  0.00     0.074 A 
ATOM     50  C   UNL A   1      38.011  31.712  32.899  1.00  0.00     0.031 C 
ATOM     51  C   UNL A   1      40.311  27.737  27.763  1.00  0.00     0.029 A 
ATOM     52  C   UNL A   1      41.125  27.740  28.973  1.00  0.00     0.049 A 
ATOM     53  H   UNL A   1      40.761  28.768  30.748  1.00  0.00     0.167 HD
ATOM     54  C   UNL A   1      39.826  30.952  34.418  1.00  0.00     0.037 A 
ATOM     55  C   UNL A   1      42.275  27.062  29.139  1.00  0.00     0.037 A 
ATOM     56  C   UNL A   1      41.019  30.197  34.718  1.00  0.00     0.049 A 
ATOM     57  C   UNL A   1      42.994  27.156  30.456  1.00  0.00     0.074 A 
ATOM     58  C   UNL A   1      41.723  30.129  35.908  1.00  0.00     0.029 A 
ATOM     59  N   UNL A   1      41.698  29.396  33.810  1.00  0.00    -0.354 N 
ATOM     60  N   UNL A   1      42.652  27.804  31.544  1.00  0.00    -0.248 NA
ATOM     61  C   UNL A   1      44.258  26.416  30.569  1.00  0.00     0.031 C 
ATOM     62  C   UNL A   1      42.859  29.336  35.704  1.00  0.00     0.029 A 
ATOM     63  C   UNL A   1      42.830  28.857  34.405  1.00  0.00     0.049 A 
ATOM     64  H   UNL A   1      41.417  29.233  32.881  1.00  0.00     0.167 HD
ATOM     65  C   UNL A   1      43.644  27.528  32.477  1.00  0.00     0.074 A 
ATOM     66  C   UNL A   1      44.585  26.634  31.833  1.00  0.00     0.031 C 
ATOM     67  C   UNL A   1      43.765  27.975  33.752  1.00  0.00     0.037 A 
BRANCH  54  68
ATOM     68  C   UNL A   1      39.250  31.834  35.490  1.00  0.00     0.057 A 
ATOM     69  C   UNL A   1      39.645  33.173  35.610  1.00  0.00     0.134 A 
ATOM     70  C   UNL A   1      38.322  31.352  36.422  1.00  0.00     0.134 A 
ATOM     71  F   UNL A   1      40.537  33.701  34.759  1.00  0.00    -0.206 F 
ATOM     72  C   UNL A   1      39.136  33.998  36.615  1.00  0.00     0.040 A 
ATOM     73  C   UNL A   1      37.784  32.174  37.414  1.00  0.00     0.040 A 
ATOM     74  F   UNL A   1      37.893  30.081  36.361  1.00  0.00    -0.206 F 
ATOM     75  C   UNL A   1      38.195  33.502  37.515  1.00  0.00     0.006 A 
ENDBRANCH  54  68
BRANCH  55  76
ATOM     76  C   UNL A   1      42.815  26.222  28.042  1.00  0.00     0.057 A 
ATOM     77  C   UNL A   1      42.423  24.887  27.881  1.00  0.00     0.134 A 
ATOM     78  C   UNL A   1      43.712  26.748  27.104  1.00  0.00     0.134 A 
ATOM     79  F   UNL A   1      41.574  24.321  28.750  1.00  0.00    -0.206 F 
ATOM     80  C   UNL A   1      42.901  24.108  26.827  1.00  0.00     0.040 A 
ATOM     81  C   UNL A   1      44.174  25.990  26.029  1.00  0.00     0.040 A 
ATOM     82  F   UNL A   1      44.112  28.026  27.197  1.00  0.00    -0.206 F 
ATOM     83  C   UNL A   1      43.769  24.664  25.888  1.00  0.00     0.006 A 
ENDBRANCH  55  76
BRANCH  67  84
ATOM     84  C   UNL A   1      44.946  27.476  34.537  1.00  0.00     0.057 A 
ATOM     85  C   UNL A   1      44.865  26.280  35.263  1.00  0.00     0.134 A 
ATOM     86  C   UNL A   1      46.161  28.173  34.577  1.00  0.00     0.134 A 
ATOM     87  F   UNL A   1      43.731  25.565  35.276  1.00  0.00    -0.206 F 
ATOM     88  C   UNL A   1      45.949  25.795  35.996  1.00  0.00     0.040 A 
ATOM     89  C   UNL A   1      47.264  27.681  35.280  1.00  0.00     0.040 A 
ATOM     90  F   UNL A   1      46.312  29.315  33.891  1.00  0.00    -0.206 F 
ATOM     91  C   UNL A   1      47.157  26.491  35.996  1.00  0.00     0.006 A 
ENDBRANCH  67  84
ENDBRANCH  41  42
ENDBRANCH  34  36
ENDBRANCH  33  34
ENDBRANCH  32  33
ENDBRANCH  31  32
ENDBRANCH   1  31
TORSDOF 16
ENDMDL
MODEL 3
REMARK VINA RESULT:     -12.2      4.118      7.903
REMARK SMILES CC1(C)Oc2ccc(NC(=O)[C@H]3CC=CC[C@@H]3C(=O)OCCOCCOC(=O)c3ccc(-c4c5nc(c(-c6c(F)cccc6F)c6ccc([nH]6)c(-c6c(F)cccc6F)c6nc(c(-c7c(F)cccc7F)c7ccc4[nH]7)C=C6)C=C5)cc3)cc2NC1=O
REMARK SMILES IDX 23 1 22 2 21 3 20 4 18 5 19 6 17 7 12 8 13 9 14 10 16 11
REMARK SMILES IDX 15 12 10 13 9 14 11 16 8 17 1 18 2 19 3 20 4 21 86 22 5 23
REMARK SMILES IDX 85 24 87 25 6 26 84 27 7 29 83 30 24 31 25 32 26 33 27 34
REMARK SMILES IDX 28 35 29 36 30 37 82 38 31 39 81 40 32 41 33 42 34 43 75 44
REMARK SMILES IDX 35 45 80 46 74 47 76 48 36 49 79 50 73 51 72 52 37 54 63 55
REMARK SMILES IDX 46 56 62 57 47 58 50 59 61 60 77 61 48 62 49 63 60 65 78 66
REMARK SMILES IDX 51 67 38 68 39 69 44 70 40 71 41 72 43 73 45 74 42 75 64 76
REMARK SMILES IDX 65 77 70 78 66 79 67 80 69 81 71 82 68 83 52 84 53 85 58 86
REMARK SMILES IDX 54 87 55 88 57 89 59 90 56 91
REMARK H PARENT 9 15 85 28 76 53 50 64
REMARK Flexibility Score: inf
ROOT
ATOM      1  O   UNL A   1      36.042  22.749  22.741  1.00  0.00    -0.374 OA
ENDROOT
BRANCH   1   2
ATOM      2  C   UNL A   1      34.729  23.128  23.144  1.00  0.00     0.202 C 
BRANCH   2   3
ATOM      3  C   UNL A   1      34.566  24.403  23.977  1.00  0.00     0.261 C 
BRANCH   3   4
ATOM      4  O   UNL A   1      33.924  25.476  23.257  1.00  0.00    -0.463 OA
BRANCH   4   5
ATOM      5  C   UNL A   1      33.637  26.576  24.013  1.00  0.00     0.310 C 
ATOM      6  O   UNL A   1      34.042  27.701  23.759  1.00  0.00    -0.252 OA
BRANCH   5   7
ATOM      7  C   UNL A   1      32.750  26.218  25.206  1.00  0.00     0.116 C 
ATOM      8  C   UNL A   1      31.433  25.532  24.779  1.00  0.00     0.097 C 
ATOM      9  C   UNL A   1      30.493  26.513  24.035  1.00  0.00     0.041 C 
ATOM     10  C   UNL A   1      30.556  27.935  24.509  1.00  0.00    -0.030 C 
ATOM     11  C   UNL A   1      32.486  27.492  26.026  1.00  0.00     0.043 C 
ATOM     12  C   UNL A   1      31.433  28.372  25.422  1.00  0.00    -0.030 C 
BRANCH   8  13
ATOM     13  C   UNL A   1      30.722  24.873  25.963  1.00  0.00     0.228 C 
ATOM     14  N   UNL A   1      31.050  23.638  26.445  1.00  0.00    -0.326 N 
ATOM     15  H   UNL A   1      30.522  23.394  27.239  1.00  0.00     0.169 HD
ATOM     16  O   UNL A   1      29.813  25.454  26.567  1.00  0.00    -0.274 OA
BRANCH  14  17
ATOM     17  C   UNL A   1      31.960  22.634  26.077  1.00  0.00     0.043 A 
ATOM     18  C   UNL A   1      34.629  17.260  23.999  1.00  0.00     0.067 C 
ATOM     19  C   UNL A   1      33.540  18.212  24.499  1.00  0.00     0.182 C 
ATOM     20  C   UNL A   1      32.614  17.449  25.465  1.00  0.00     0.067 C 
ATOM     21  O   UNL A   1      34.228  19.249  25.215  1.00  0.00    -0.476 OA
ATOM     22  C   UNL A   1      32.675  18.718  23.320  1.00  0.00     0.268 C 
ATOM     23  C   UNL A   1      33.485  20.379  25.415  1.00  0.00     0.144 A 
ATOM     24  N   UNL A   1      32.009  19.895  23.576  1.00  0.00    -0.319 N 
ATOM     25  O   UNL A   1      32.480  18.094  22.280  1.00  0.00    -0.270 OA
ATOM     26  C   UNL A   1      33.928  21.248  26.399  1.00  0.00     0.051 A 
ATOM     27  C   UNL A   1      32.353  20.697  24.667  1.00  0.00     0.086 A 
ATOM     28  H   UNL A   1      31.277  20.176  22.979  1.00  0.00     0.170 HD
ATOM     29  C   UNL A   1      33.177  22.382  26.712  1.00  0.00     0.030 A 
ATOM     30  C   UNL A   1      31.592  21.820  24.992  1.00  0.00     0.056 A 
ENDBRANCH  14  17
ENDBRANCH   8  13
ENDBRANCH   5   7
ENDBRANCH   4   5
ENDBRANCH   3   4
ENDBRANCH   2   3
ENDBRANCH   1   2
BRANCH   1  31
ATOM     31  C   UNL A   1      37.036  22.667  23.756  1.00  0.00     0.202 C 
BRANCH  31  32
ATOM     32  C   UNL A   1      37.167  21.348  24.528  1.00  0.00     0.261 C 
BRANCH  32  33
ATOM     33  O   UNL A   1      37.574  21.549  25.889  1.00  0.00    -0.460 OA
BRANCH  33  34
ATOM     34  C   UNL A   1      38.895  21.334  26.111  1.00  0.00     0.338 C 
ATOM     35  O   UNL A   1      39.553  20.361  25.780  1.00  0.00    -0.246 OA
BRANCH  34  36
ATOM     36  C   UNL A   1      39.506  22.566  26.645  1.00  0.00     0.060 A 
ATOM     37  C   UNL A   1      40.597  22.530  27.515  1.00  0.00     0.016 A 
ATOM     38  C   UNL A   1      38.954  23.790  26.242  1.00  0.00     0.016 A 
ATOM     39  C   UNL A   1      41.164  23.732  27.947  1.00  0.00     0.010 A 
ATOM     40  C   UNL A   1      39.522  24.986  26.673  1.00  0.00     0.010 A 
ATOM     41  C   UNL A   1      40.648  24.965  27.506  1.00  0.00    -0.014 A 
BRANCH  41  42
ATOM     42  C   UNL A   1      41.375  26.225  27.794  1.00  0.00     0.031 A 
ATOM     43  C   UNL A   1      42.786  26.441  27.340  1.00  0.00     0.074 A 
ATOM     44  C   UNL A   1      40.745  27.167  28.522  1.00  0.00     0.049 A 
ATOM     45  N   UNL A   1      43.541  27.502  27.476  1.00  0.00    -0.248 NA
ATOM     46  C   UNL A   1      43.439  25.317  26.653  1.00  0.00     0.031 C 
ATOM     47  C   UNL A   1      39.390  27.044  29.062  1.00  0.00     0.029 A 
ATOM     48  N   UNL A   1      41.157  28.409  28.929  1.00  0.00    -0.354 N 
ATOM     49  C   UNL A   1      44.752  27.186  26.876  1.00  0.00     0.074 A 
ATOM     50  C   UNL A   1      44.649  25.812  26.425  1.00  0.00     0.031 C 
ATOM     51  C   UNL A   1      39.069  28.179  29.702  1.00  0.00     0.029 A 
ATOM     52  C   UNL A   1      40.206  29.092  29.648  1.00  0.00     0.049 A 
ATOM     53  H   UNL A   1      42.048  28.777  28.727  1.00  0.00     0.167 HD
ATOM     54  C   UNL A   1      45.840  27.976  26.704  1.00  0.00     0.037 A 
ATOM     55  C   UNL A   1      40.248  30.316  30.203  1.00  0.00     0.037 A 
ATOM     56  C   UNL A   1      45.947  29.330  27.191  1.00  0.00     0.049 A 
ATOM     57  C   UNL A   1      41.492  31.146  30.047  1.00  0.00     0.074 A 
ATOM     58  C   UNL A   1      46.994  30.223  27.041  1.00  0.00     0.029 A 
ATOM     59  N   UNL A   1      44.978  29.980  27.944  1.00  0.00    -0.354 N 
ATOM     60  N   UNL A   1      42.597  30.871  29.399  1.00  0.00    -0.248 NA
ATOM     61  C   UNL A   1      41.488  32.463  30.698  1.00  0.00     0.031 C 
ATOM     62  C   UNL A   1      46.685  31.389  27.752  1.00  0.00     0.029 A 
ATOM     63  C   UNL A   1      45.419  31.249  28.293  1.00  0.00     0.049 A 
ATOM     64  H   UNL A   1      44.107  29.596  28.194  1.00  0.00     0.167 HD
ATOM     65  C   UNL A   1      43.408  31.989  29.541  1.00  0.00     0.074 A 
ATOM     66  C   UNL A   1      42.656  32.955  30.315  1.00  0.00     0.031 C 
ATOM     67  C   UNL A   1      44.664  32.199  29.072  1.00  0.00     0.037 A 
BRANCH  54  68
ATOM     68  C   UNL A   1      47.008  27.387  25.964  1.00  0.00     0.057 A 
ATOM     69  C   UNL A   1      48.028  26.713  26.649  1.00  0.00     0.134 A 
ATOM     70  C   UNL A   1      47.140  27.511  24.575  1.00  0.00     0.134 A 
ATOM     71  F   UNL A   1      47.974  26.565  27.981  1.00  0.00    -0.206 F 
ATOM     72  C   UNL A   1      49.131  26.182  25.978  1.00  0.00     0.040 A 
ATOM     73  C   UNL A   1      48.224  26.959  23.889  1.00  0.00     0.040 A 
ATOM     74  F   UNL A   1      46.196  28.137  23.854  1.00  0.00    -0.206 F 
ATOM     75  C   UNL A   1      49.227  26.295  24.593  1.00  0.00     0.006 A 
ENDBRANCH  54  68
BRANCH  55  76
ATOM     76  C   UNL A   1      39.075  30.844  30.944  1.00  0.00     0.057 A 
ATOM     77  C   UNL A   1      38.920  30.628  32.318  1.00  0.00     0.134 A 
ATOM     78  C   UNL A   1      38.097  31.609  30.297  1.00  0.00     0.134 A 
ATOM     79  F   UNL A   1      39.817  29.896  32.995  1.00  0.00    -0.206 F 
ATOM     80  C   UNL A   1      37.838  31.156  33.024  1.00  0.00     0.040 A 
ATOM     81  C   UNL A   1      37.026  32.168  30.995  1.00  0.00     0.040 A 
ATOM     82  F   UNL A   1      38.198  31.863  28.983  1.00  0.00    -0.206 F 
ATOM     83  C   UNL A   1      36.894  31.941  32.363  1.00  0.00     0.006 A 
ENDBRANCH  55  76
BRANCH  67  84
ATOM     84  C   UNL A   1      45.284  33.536  29.365  1.00  0.00     0.057 A 
ATOM     85  C   UNL A   1      45.090  34.618  28.497  1.00  0.00     0.134 A 
ATOM     86  C   UNL A   1      46.073  33.757  30.503  1.00  0.00     0.134 A 
ATOM     87  F   UNL A   1      44.353  34.477  27.385  1.00  0.00    -0.206 F 
ATOM     88  C   UNL A   1      45.652  35.870  28.750  1.00  0.00     0.040 A 
ATOM     89  C   UNL A   1      46.614  35.014  30.785  1.00  0.00     0.040 A 
ATOM     90  F   UNL A   1      46.286  32.770  31.385  1.00  0.00    -0.206 F 
ATOM     91  C   UNL A   1      46.407  36.073  29.904  1.00  0.00     0.006 A 
ENDBRANCH  67  84
ENDBRANCH  41  42
ENDBRANCH  34  36
ENDBRANCH  33  34
ENDBRANCH  32  33
ENDBRANCH  31  32
ENDBRANCH   1  31
TORSDOF 16
ENDMDL
