MODEL 1
REMARK VINA RESULT:     -11.6      0.000      0.000
REMARK SMILES Cc1cc([N+](=O)[O-])ccc1NC(=O)[C@@H]1[C@@H](C(=O)OCCOCCOC(=O)c2ccc(-c3c4nc(c(-c5c(F)cccc5F)c5ccc([nH]5)c(-c5c(F)cccc5F)c5nc(c(-c6c(F)cccc6F)c6ccc3[nH]6)C=C5)C=C4)cc2)[C@H]2C=C[C@@H]1C2
REMARK SMILES IDX 20 1 19 2 18 3 16 4 17 5 15 6 14 7 84 8 81 9 83 10 85 11
REMARK SMILES IDX 82 12 12 13 11 14 13 16 10 17 1 18 2 19 3 20 4 21 9 22 8 23
REMARK SMILES IDX 5 24 6 25 7 26 21 27 22 28 23 29 24 30 25 31 26 32 27 33
REMARK SMILES IDX 28 34 80 35 29 36 79 37 30 38 31 39 32 40 73 41 33 42 78 43
REMARK SMILES IDX 72 44 74 45 34 46 77 47 71 48 70 49 35 51 61 52 44 53 60 54
REMARK SMILES IDX 45 55 48 56 59 57 75 58 46 59 47 60 58 62 76 63 49 64 36 65
REMARK SMILES IDX 37 66 42 67 38 68 39 69 41 70 43 71 40 72 62 73 63 74 68 75
REMARK SMILES IDX 64 76 65 77 67 78 69 79 66 80 50 81 51 82 56 83 52 84 53 85
REMARK SMILES IDX 55 86 57 87 54 88
REMARK H PARENT 11 15 74 50 48 61
REMARK Flexibility Score: inf
ROOT
ATOM      1  C   UNL A   1      32.893  29.668  24.953  1.00  0.00     0.202 C 
ENDROOT
BRANCH   1   2
ATOM      2  C   UNL A   1      32.024  28.654  24.240  1.00  0.00     0.261 C 
BRANCH   2   3
ATOM      3  O   UNL A   1      31.316  27.821  25.181  1.00  0.00    -0.463 OA
BRANCH   3   4
ATOM      4  C   UNL A   1      31.900  26.627  25.510  1.00  0.00     0.310 C 
ATOM      5  O   UNL A   1      32.839  26.486  26.257  1.00  0.00    -0.252 OA
BRANCH   4   6
ATOM      6  C   UNL A   1      31.107  25.505  24.885  1.00  0.00     0.119 C 
ATOM      7  C   UNL A   1      31.788  24.125  25.088  1.00  0.00     0.100 C 
ATOM      8  C   UNL A   1      31.517  23.424  23.730  1.00  0.00     0.025 C 
ATOM      9  C   UNL A   1      30.917  25.552  23.352  1.00  0.00     0.027 C 
ATOM     10  C   UNL A   1      32.540  23.994  22.782  1.00  0.00    -0.027 C 
ATOM     11  C   UNL A   1      30.288  24.165  23.176  1.00  0.00     0.017 C 
ATOM     12  C   UNL A   1      32.194  25.274  22.579  1.00  0.00    -0.027 C 
BRANCH   7  13
ATOM     13  C   UNL A   1      31.295  23.339  26.286  1.00  0.00     0.228 C 
ATOM     14  N   UNL A   1      32.113  22.410  26.885  1.00  0.00    -0.326 N 
ATOM     15  H   UNL A   1      31.706  21.920  27.635  1.00  0.00     0.169 HD
ATOM     16  O   UNL A   1      30.142  23.459  26.710  1.00  0.00    -0.274 OA
BRANCH  14  17
ATOM     17  C   UNL A   1      33.444  22.053  26.592  1.00  0.00     0.044 A 
ATOM     18  C   UNL A   1      32.620  19.978  25.320  1.00  0.00     0.047 C 
ATOM     19  C   UNL A   1      33.691  20.938  25.766  1.00  0.00    -0.021 A 
ATOM     20  C   UNL A   1      35.009  20.692  25.329  1.00  0.00     0.091 A 
ATOM     21  C   UNL A   1      36.059  21.530  25.726  1.00  0.00     0.269 A 
ATOM     22  C   UNL A   1      34.531  22.789  27.084  1.00  0.00     0.033 A 
ATOM     23  C   UNL A   1      35.832  22.558  26.634  1.00  0.00     0.088 A 
BRANCH  21  24
ATOM     24  N   UNL A   1      37.406  21.323  25.185  1.00  0.00     0.062 N 
ATOM     25  O   UNL A   1      38.270  22.169  25.455  1.00  0.00    -0.258 OA
ATOM     26  O   UNL A   1      37.602  20.309  24.499  1.00  0.00    -0.258 OA
ENDBRANCH  21  24
ENDBRANCH  14  17
ENDBRANCH   7  13
ENDBRANCH   4   6
ENDBRANCH   3   4
ENDBRANCH   2   3
ENDBRANCH   1   2
BRANCH   1  27
ATOM     27  O   UNL A   1      32.114  30.229  26.003  1.00  0.00    -0.374 OA
BRANCH  27  28
ATOM     28  C   UNL A   1      32.751  30.279  27.274  1.00  0.00     0.202 C 
BRANCH  28  29
ATOM     29  C   UNL A   1      34.108  31.002  27.268  1.00  0.00     0.261 C 
BRANCH  29  30
ATOM     30  O   UNL A   1      34.803  30.732  28.499  1.00  0.00    -0.460 OA
BRANCH  30  31
ATOM     31  C   UNL A   1      36.095  31.151  28.544  1.00  0.00     0.338 C 
ATOM     32  O   UNL A   1      36.484  32.285  28.319  1.00  0.00    -0.246 OA
BRANCH  31  33
ATOM     33  C   UNL A   1      36.993  29.966  28.627  1.00  0.00     0.060 A 
ATOM     34  C   UNL A   1      37.070  29.239  29.828  1.00  0.00     0.016 A 
ATOM     35  C   UNL A   1      37.949  29.769  27.630  1.00  0.00     0.016 A 
ATOM     36  C   UNL A   1      38.176  28.418  30.081  1.00  0.00     0.010 A 
ATOM     37  C   UNL A   1      39.072  29.022  27.914  1.00  0.00     0.010 A 
ATOM     38  C   UNL A   1      39.209  28.368  29.147  1.00  0.00    -0.014 A 
BRANCH  38  39
ATOM     39  C   UNL A   1      40.526  27.771  29.375  1.00  0.00     0.031 A 
ATOM     40  C   UNL A   1      40.854  26.457  28.777  1.00  0.00     0.074 A 
ATOM     41  C   UNL A   1      41.524  28.522  29.895  1.00  0.00     0.049 A 
ATOM     42  N   UNL A   1      41.923  25.785  29.038  1.00  0.00    -0.248 NA
ATOM     43  C   UNL A   1      39.976  25.759  27.848  1.00  0.00     0.031 C 
ATOM     44  C   UNL A   1      42.961  28.286  29.792  1.00  0.00     0.029 A 
ATOM     45  N   UNL A   1      41.439  29.645  30.728  1.00  0.00    -0.354 N 
ATOM     46  C   UNL A   1      42.058  24.805  28.084  1.00  0.00     0.074 A 
ATOM     47  C   UNL A   1      40.760  24.750  27.459  1.00  0.00     0.031 C 
ATOM     48  C   UNL A   1      43.585  28.971  30.760  1.00  0.00     0.029 A 
ATOM     49  C   UNL A   1      42.563  29.607  31.567  1.00  0.00     0.049 A 
ATOM     50  H   UNL A   1      40.730  30.326  30.727  1.00  0.00     0.167 HD
ATOM     51  C   UNL A   1      43.305  24.286  27.866  1.00  0.00     0.037 A 
ATOM     52  C   UNL A   1      42.452  29.538  32.917  1.00  0.00     0.037 A 
ATOM     53  C   UNL A   1      44.248  24.761  28.905  1.00  0.00     0.049 A 
ATOM     54  C   UNL A   1      43.126  28.286  33.387  1.00  0.00     0.074 A 
ATOM     55  C   UNL A   1      45.334  25.624  28.891  1.00  0.00     0.029 A 
ATOM     56  N   UNL A   1      43.946  24.556  30.259  1.00  0.00    -0.354 N 
ATOM     57  N   UNL A   1      43.215  27.217  32.636  1.00  0.00    -0.248 NA
ATOM     58  C   UNL A   1      43.894  28.182  34.621  1.00  0.00     0.031 C 
ATOM     59  C   UNL A   1      45.620  26.000  30.234  1.00  0.00     0.029 A 
ATOM     60  C   UNL A   1      44.730  25.349  31.077  1.00  0.00     0.049 A 
ATOM     61  H   UNL A   1      43.263  23.925  30.587  1.00  0.00     0.167 HD
ATOM     62  C   UNL A   1      44.136  26.377  33.181  1.00  0.00     0.074 A 
ATOM     63  C   UNL A   1      44.481  26.982  34.458  1.00  0.00     0.031 C 
ATOM     64  C   UNL A   1      44.634  25.287  32.533  1.00  0.00     0.037 A 
BRANCH  51  65
ATOM     65  C   UNL A   1      43.746  23.562  26.588  1.00  0.00     0.057 A 
ATOM     66  C   UNL A   1      43.540  22.173  26.434  1.00  0.00     0.134 A 
ATOM     67  C   UNL A   1      44.437  24.134  25.500  1.00  0.00     0.134 A 
ATOM     68  F   UNL A   1      42.839  21.461  27.325  1.00  0.00    -0.206 F 
ATOM     69  C   UNL A   1      44.038  21.426  25.348  1.00  0.00     0.040 A 
ATOM     70  C   UNL A   1      44.949  23.402  24.415  1.00  0.00     0.040 A 
ATOM     71  F   UNL A   1      44.638  25.445  25.382  1.00  0.00    -0.206 F 
ATOM     72  C   UNL A   1      44.760  22.037  24.339  1.00  0.00     0.006 A 
ENDBRANCH  51  65
BRANCH  52  73
ATOM     73  C   UNL A   1      41.258  30.246  33.442  1.00  0.00     0.057 A 
ATOM     74  C   UNL A   1      41.356  31.646  33.582  1.00  0.00     0.134 A 
ATOM     75  C   UNL A   1      39.966  29.713  33.379  1.00  0.00     0.134 A 
ATOM     76  F   UNL A   1      42.564  32.233  33.618  1.00  0.00    -0.206 F 
ATOM     77  C   UNL A   1      40.236  32.484  33.555  1.00  0.00     0.040 A 
ATOM     78  C   UNL A   1      38.834  30.545  33.346  1.00  0.00     0.040 A 
ATOM     79  F   UNL A   1      39.779  28.397  33.222  1.00  0.00    -0.206 F 
ATOM     80  C   UNL A   1      38.969  31.933  33.398  1.00  0.00     0.006 A 
ENDBRANCH  52  73
BRANCH  64  81
ATOM     81  C   UNL A   1      45.181  24.103  33.273  1.00  0.00     0.057 A 
ATOM     82  C   UNL A   1      46.455  24.111  33.866  1.00  0.00     0.134 A 
ATOM     83  C   UNL A   1      44.362  23.006  33.598  1.00  0.00     0.134 A 
ATOM     84  F   UNL A   1      47.295  25.145  33.717  1.00  0.00    -0.206 F 
ATOM     85  C   UNL A   1      46.901  23.077  34.691  1.00  0.00     0.040 A 
ATOM     86  C   UNL A   1      44.781  21.991  34.461  1.00  0.00     0.040 A 
ATOM     87  F   UNL A   1      43.113  22.892  33.124  1.00  0.00    -0.206 F 
ATOM     88  C   UNL A   1      46.057  22.020  35.003  1.00  0.00     0.006 A 
ENDBRANCH  64  81
ENDBRANCH  38  39
ENDBRANCH  31  33
ENDBRANCH  30  31
ENDBRANCH  29  30
ENDBRANCH  28  29
ENDBRANCH  27  28
ENDBRANCH   1  27
TORSDOF 17
ENDMDL
MODEL 2
REMARK VINA RESULT:     -11.5      1.702      3.692
REMARK SMILES Cc1cc([N+](=O)[O-])ccc1NC(=O)[C@@H]1[C@@H](C(=O)OCCOCCOC(=O)c2ccc(-c3c4nc(c(-c5c(F)cccc5F)c5ccc([nH]5)c(-c5c(F)cccc5F)c5nc(c(-c6c(F)cccc6F)c6ccc3[nH]6)C=C5)C=C4)cc2)[C@H]2C=C[C@@H]1C2
REMARK SMILES IDX 20 1 19 2 18 3 16 4 17 5 15 6 14 7 84 8 81 9 83 10 85 11
REMARK SMILES IDX 82 12 12 13 11 14 13 16 10 17 1 18 2 19 3 20 4 21 9 22 8 23
REMARK SMILES IDX 5 24 6 25 7 26 21 27 22 28 23 29 24 30 25 31 26 32 27 33
REMARK SMILES IDX 28 34 80 35 29 36 79 37 30 38 31 39 32 40 73 41 33 42 78 43
REMARK SMILES IDX 72 44 74 45 34 46 77 47 71 48 70 49 35 51 61 52 44 53 60 54
REMARK SMILES IDX 45 55 48 56 59 57 75 58 46 59 47 60 58 62 76 63 49 64 36 65
REMARK SMILES IDX 37 66 42 67 38 68 39 69 41 70 43 71 40 72 62 73 63 74 68 75
REMARK SMILES IDX 64 76 65 77 67 78 69 79 66 80 50 81 51 82 56 83 52 84 53 85
REMARK SMILES IDX 55 86 57 87 54 88
REMARK H PARENT 11 15 74 50 48 61
REMARK Flexibility Score: inf
ROOT
ATOM      1  C   UNL A   1      33.715  27.425  25.186  1.00  0.00     0.202 C 
ENDROOT
BRANCH   1   2
ATOM      2  C   UNL A   1      34.001  26.034  25.711  1.00  0.00     0.261 C 
BRANCH   2   3
ATOM      3  O   UNL A   1      33.919  25.053  24.658  1.00  0.00    -0.463 OA
BRANCH   3   4
ATOM      4  C   UNL A   1      34.835  24.035  24.688  1.00  0.00     0.310 C 
ATOM      5  O   UNL A   1      36.035  24.169  24.674  1.00  0.00    -0.252 OA
BRANCH   4   6
ATOM      6  C   UNL A   1      34.105  22.725  24.863  1.00  0.00     0.119 C 
ATOM      7  C   UNL A   1      32.571  22.884  24.688  1.00  0.00     0.100 C 
ATOM      8  C   UNL A   1      32.017  21.923  25.775  1.00  0.00     0.025 C 
ATOM      9  C   UNL A   1      34.207  22.047  26.248  1.00  0.00     0.027 C 
ATOM     10  C   UNL A   1      32.133  22.687  27.069  1.00  0.00    -0.027 C 
ATOM     11  C   UNL A   1      33.174  20.938  26.015  1.00  0.00     0.017 C 
ATOM     12  C   UNL A   1      33.444  22.782  27.335  1.00  0.00    -0.027 C 
BRANCH   7  13
ATOM     13  C   UNL A   1      32.052  22.587  23.295  1.00  0.00     0.228 C 
ATOM     14  N   UNL A   1      31.386  23.558  22.587  1.00  0.00    -0.326 N 
ATOM     15  H   UNL A   1      31.053  23.275  21.705  1.00  0.00     0.169 HD
ATOM     16  O   UNL A   1      32.153  21.464  22.792  1.00  0.00    -0.274 OA
BRANCH  14  17
ATOM     17  C   UNL A   1      31.106  24.896  22.927  1.00  0.00     0.044 A 
ATOM     18  C   UNL A   1      32.763  25.710  21.141  1.00  0.00     0.047 C 
ATOM     19  C   UNL A   1      31.694  25.934  22.178  1.00  0.00    -0.021 A 
ATOM     20  C   UNL A   1      31.275  27.261  22.404  1.00  0.00     0.091 A 
ATOM     21  C   UNL A   1      30.303  27.546  23.373  1.00  0.00     0.269 A 
ATOM     22  C   UNL A   1      30.242  25.224  23.982  1.00  0.00     0.033 A 
ATOM     23  C   UNL A   1      29.810  26.535  24.191  1.00  0.00     0.088 A 
BRANCH  21  24
ATOM     24  N   UNL A   1      29.801  28.915  23.529  1.00  0.00     0.062 N 
ATOM     25  O   UNL A   1      28.723  29.197  22.989  1.00  0.00    -0.258 OA
ATOM     26  O   UNL A   1      30.481  29.703  24.200  1.00  0.00    -0.258 OA
ENDBRANCH  21  24
ENDBRANCH  14  17
ENDBRANCH   7  13
ENDBRANCH   4   6
ENDBRANCH   3   4
ENDBRANCH   2   3
ENDBRANCH   1   2
BRANCH   1  27
ATOM     27  O   UNL A   1      32.730  28.004  26.036  1.00  0.00    -0.374 OA
BRANCH  27  28
ATOM     28  C   UNL A   1      33.237  28.728  27.151  1.00  0.00     0.202 C 
BRANCH  28  29
ATOM     29  C   UNL A   1      33.585  30.194  26.842  1.00  0.00     0.261 C 
BRANCH  29  30
ATOM     30  O   UNL A   1      34.009  30.852  28.048  1.00  0.00    -0.460 OA
BRANCH  30  31
ATOM     31  C   UNL A   1      35.276  31.345  28.029  1.00  0.00     0.338 C 
ATOM     32  O   UNL A   1      35.599  32.465  27.668  1.00  0.00    -0.246 OA
BRANCH  31  33
ATOM     33  C   UNL A   1      36.240  30.231  28.243  1.00  0.00     0.060 A 
ATOM     34  C   UNL A   1      36.395  29.688  29.530  1.00  0.00     0.016 A 
ATOM     35  C   UNL A   1      37.173  29.942  27.246  1.00  0.00     0.016 A 
ATOM     36  C   UNL A   1      37.553  28.968  29.852  1.00  0.00     0.010 A 
ATOM     37  C   UNL A   1      38.344  29.300  27.588  1.00  0.00     0.010 A 
ATOM     38  C   UNL A   1      38.557  28.836  28.894  1.00  0.00    -0.014 A 
BRANCH  38  39
ATOM     39  C   UNL A   1      39.911  28.345  29.151  1.00  0.00     0.031 A 
ATOM     40  C   UNL A   1      40.314  27.005  28.667  1.00  0.00     0.074 A 
ATOM     41  C   UNL A   1      40.866  29.199  29.586  1.00  0.00     0.049 A 
ATOM     42  N   UNL A   1      41.427  26.427  28.967  1.00  0.00    -0.248 NA
ATOM     43  C   UNL A   1      39.472  26.174  27.817  1.00  0.00     0.031 C 
ATOM     44  C   UNL A   1      42.313  29.044  29.479  1.00  0.00     0.029 A 
ATOM     45  N   UNL A   1      40.720  30.385  30.317  1.00  0.00    -0.354 N 
ATOM     46  C   UNL A   1      41.612  25.376  28.101  1.00  0.00     0.074 A 
ATOM     47  C   UNL A   1      40.313  25.184  27.506  1.00  0.00     0.031 C 
ATOM     48  C   UNL A   1      42.904  29.850  30.371  1.00  0.00     0.029 A 
ATOM     49  C   UNL A   1      41.853  30.492  31.137  1.00  0.00     0.049 A 
ATOM     50  H   UNL A   1      39.969  31.018  30.268  1.00  0.00     0.167 HD
ATOM     51  C   UNL A   1      42.886  24.918  27.909  1.00  0.00     0.037 A 
ATOM     52  C   UNL A   1      41.763  30.537  32.489  1.00  0.00     0.037 A 
ATOM     53  C   UNL A   1      43.810  25.540  28.885  1.00  0.00     0.049 A 
ATOM     54  C   UNL A   1      42.520  29.376  33.056  1.00  0.00     0.074 A 
ATOM     55  C   UNL A   1      44.839  26.465  28.776  1.00  0.00     0.029 A 
ATOM     56  N   UNL A   1      43.537  25.439  30.257  1.00  0.00    -0.354 N 
ATOM     57  N   UNL A   1      42.668  28.252  32.401  1.00  0.00    -0.248 NA
ATOM     58  C   UNL A   1      43.308  29.431  34.282  1.00  0.00     0.031 C 
ATOM     59  C   UNL A   1      45.116  26.976  30.075  1.00  0.00     0.029 A 
ATOM     60  C   UNL A   1      44.279  26.349  30.987  1.00  0.00     0.049 A 
ATOM     61  H   UNL A   1      42.899  24.799  30.651  1.00  0.00     0.167 HD
ATOM     62  C   UNL A   1      43.646  27.522  33.002  1.00  0.00     0.074 A 
ATOM     63  C   UNL A   1      43.968  28.259  34.215  1.00  0.00     0.031 C 
ATOM     64  C   UNL A   1      44.204  26.411  32.445  1.00  0.00     0.037 A 
BRANCH  51  65
ATOM     65  C   UNL A   1      43.358  24.111  26.692  1.00  0.00     0.057 A 
ATOM     66  C   UNL A   1      43.085  22.728  26.589  1.00  0.00     0.134 A 
ATOM     67  C   UNL A   1      44.137  24.594  25.621  1.00  0.00     0.134 A 
ATOM     68  F   UNL A   1      42.299  22.097  27.470  1.00  0.00    -0.206 F 
ATOM     69  C   UNL A   1      43.601  21.905  25.569  1.00  0.00     0.040 A 
ATOM     70  C   UNL A   1      44.667  23.785  24.601  1.00  0.00     0.040 A 
ATOM     71  F   UNL A   1      44.415  25.885  25.455  1.00  0.00    -0.206 F 
ATOM     72  C   UNL A   1      44.410  22.429  24.576  1.00  0.00     0.006 A 
ENDBRANCH  51  65
BRANCH  52  73
ATOM     73  C   UNL A   1      40.533  31.214  32.970  1.00  0.00     0.057 A 
ATOM     74  C   UNL A   1      39.459  30.386  33.360  1.00  0.00     0.134 A 
ATOM     75  C   UNL A   1      40.526  32.521  33.466  1.00  0.00     0.134 A 
ATOM     76  F   UNL A   1      39.414  29.108  32.948  1.00  0.00    -0.206 F 
ATOM     77  C   UNL A   1      38.487  30.800  34.279  1.00  0.00     0.040 A 
ATOM     78  C   UNL A   1      39.559  32.946  34.392  1.00  0.00     0.040 A 
ATOM     79  F   UNL A   1      41.520  33.369  33.167  1.00  0.00    -0.206 F 
ATOM     80  C   UNL A   1      38.559  32.075  34.827  1.00  0.00     0.006 A 
ENDBRANCH  52  73
BRANCH  64  81
ATOM     81  C   UNL A   1      44.833  25.335  33.277  1.00  0.00     0.057 A 
ATOM     82  C   UNL A   1      46.219  25.103  33.283  1.00  0.00     0.134 A 
ATOM     83  C   UNL A   1      44.095  24.648  34.257  1.00  0.00     0.134 A 
ATOM     84  F   UNL A   1      47.048  25.769  32.466  1.00  0.00    -0.206 F 
ATOM     85  C   UNL A   1      46.825  24.215  34.174  1.00  0.00     0.040 A 
ATOM     86  C   UNL A   1      44.697  23.795  35.185  1.00  0.00     0.040 A 
ATOM     87  F   UNL A   1      42.768  24.802  34.382  1.00  0.00    -0.206 F 
ATOM     88  C   UNL A   1      46.065  23.570  35.140  1.00  0.00     0.006 A 
ENDBRANCH  64  81
ENDBRANCH  38  39
ENDBRANCH  31  33
ENDBRANCH  30  31
ENDBRANCH  29  30
ENDBRANCH  28  29
ENDBRANCH  27  28
ENDBRANCH   1  27
TORSDOF 17
ENDMDL
MODEL 3
REMARK VINA RESULT:     -11.5      2.436      3.666
REMARK SMILES Cc1cc([N+](=O)[O-])ccc1NC(=O)[C@@H]1[C@@H](C(=O)OCCOCCOC(=O)c2ccc(-c3c4nc(c(-c5c(F)cccc5F)c5ccc([nH]5)c(-c5c(F)cccc5F)c5nc(c(-c6c(F)cccc6F)c6ccc3[nH]6)C=C5)C=C4)cc2)[C@H]2C=C[C@@H]1C2
REMARK SMILES IDX 20 1 19 2 18 3 16 4 17 5 15 6 14 7 84 8 81 9 83 10 85 11
REMARK SMILES IDX 82 12 12 13 11 14 13 16 10 17 1 18 2 19 3 20 4 21 9 22 8 23
REMARK SMILES IDX 5 24 6 25 7 26 21 27 22 28 23 29 24 30 25 31 26 32 27 33
REMARK SMILES IDX 28 34 80 35 29 36 79 37 30 38 31 39 32 40 73 41 33 42 78 43
REMARK SMILES IDX 72 44 74 45 34 46 77 47 71 48 70 49 35 51 61 52 44 53 60 54
REMARK SMILES IDX 45 55 48 56 59 57 75 58 46 59 47 60 58 62 76 63 49 64 36 65
REMARK SMILES IDX 37 66 42 67 38 68 39 69 41 70 43 71 40 72 62 73 63 74 68 75
REMARK SMILES IDX 64 76 65 77 67 78 69 79 66 80 50 81 51 82 56 83 52 84 53 85
REMARK SMILES IDX 55 86 57 87 54 88
REMARK H PARENT 11 15 74 50 48 61
REMARK Flexibility Score: inf
ROOT
ATOM      1  C   UNL A   1      31.430  32.258  26.508  1.00  0.00     0.202 C 
ENDROOT
BRANCH   1   2
ATOM      2  C   UNL A   1      32.395  31.174  26.938  1.00  0.00     0.261 C 
BRANCH   2   3
ATOM      3  O   UNL A   1      31.721  29.909  27.097  1.00  0.00    -0.463 OA
BRANCH   3   4
ATOM      4  C   UNL A   1      32.298  28.822  26.495  1.00  0.00     0.310 C 
ATOM      5  O   UNL A   1      33.365  28.339  26.790  1.00  0.00    -0.252 OA
BRANCH   4   6
ATOM      6  C   UNL A   1      31.331  28.251  25.484  1.00  0.00     0.119 C 
ATOM      7  C   UNL A   1      31.695  26.796  25.087  1.00  0.00     0.100 C 
ATOM      8  C   UNL A   1      31.375  26.783  23.568  1.00  0.00     0.025 C 
ATOM      9  C   UNL A   1      31.259  28.957  24.111  1.00  0.00     0.027 C 
ATOM     10  C   UNL A   1      32.555  27.451  22.912  1.00  0.00    -0.027 C 
ATOM     11  C   UNL A   1      30.368  27.933  23.397  1.00  0.00     0.017 C 
ATOM     12  C   UNL A   1      32.498  28.745  23.261  1.00  0.00    -0.027 C 
BRANCH   7  13
ATOM     13  C   UNL A   1      30.970  25.719  25.869  1.00  0.00     0.228 C 
ATOM     14  N   UNL A   1      31.521  24.466  25.990  1.00  0.00    -0.326 N 
ATOM     15  H   UNL A   1      30.973  23.816  26.485  1.00  0.00     0.169 HD
ATOM     16  O   UNL A   1      29.852  25.913  26.355  1.00  0.00    -0.274 OA
BRANCH  14  17
ATOM     17  C   UNL A   1      32.751  23.969  25.516  1.00  0.00     0.044 A 
ATOM     18  C   UNL A   1      31.565  22.937  23.485  1.00  0.00     0.047 C 
ATOM     19  C   UNL A   1      32.794  23.312  24.270  1.00  0.00    -0.021 A 
ATOM     20  C   UNL A   1      34.047  22.977  23.718  1.00  0.00     0.091 A 
ATOM     21  C   UNL A   1      35.231  23.273  24.407  1.00  0.00     0.269 A 
ATOM     22  C   UNL A   1      33.940  24.125  26.243  1.00  0.00     0.033 A 
ATOM     23  C   UNL A   1      35.182  23.814  25.688  1.00  0.00     0.088 A 
BRANCH  21  24
ATOM     24  N   UNL A   1      36.530  23.011  23.778  1.00  0.00     0.062 N 
ATOM     25  O   UNL A   1      36.570  22.959  22.541  1.00  0.00    -0.258 OA
ATOM     26  O   UNL A   1      37.511  22.871  24.522  1.00  0.00    -0.258 OA
ENDBRANCH  21  24
ENDBRANCH  14  17
ENDBRANCH   7  13
ENDBRANCH   4   6
ENDBRANCH   3   4
ENDBRANCH   2   3
ENDBRANCH   1   2
BRANCH   1  27
ATOM     27  O   UNL A   1      31.753  33.430  27.249  1.00  0.00    -0.374 OA
BRANCH  27  28
ATOM     28  C   UNL A   1      33.086  33.491  27.741  1.00  0.00     0.202 C 
BRANCH  28  29
ATOM     29  C   UNL A   1      33.343  34.656  28.712  1.00  0.00     0.261 C 
BRANCH  29  30
ATOM     30  O   UNL A   1      33.206  34.192  30.067  1.00  0.00    -0.460 OA
BRANCH  30  31
ATOM     31  C   UNL A   1      34.311  34.332  30.846  1.00  0.00     0.338 C 
ATOM     32  O   UNL A   1      34.625  35.336  31.465  1.00  0.00    -0.246 OA
BRANCH  31  33
ATOM     33  C   UNL A   1      35.228  33.183  30.609  1.00  0.00     0.060 A 
ATOM     34  C   UNL A   1      35.180  32.071  31.469  1.00  0.00     0.016 A 
ATOM     35  C   UNL A   1      36.303  33.343  29.734  1.00  0.00     0.016 A 
ATOM     36  C   UNL A   1      36.273  31.198  31.544  1.00  0.00     0.010 A 
ATOM     37  C   UNL A   1      37.405  32.526  29.867  1.00  0.00     0.010 A 
ATOM     38  C   UNL A   1      37.412  31.470  30.790  1.00  0.00    -0.014 A 
BRANCH  38  39
ATOM     39  C   UNL A   1      38.709  30.812  30.949  1.00  0.00     0.031 A 
ATOM     40  C   UNL A   1      39.015  29.588  30.174  1.00  0.00     0.074 A 
ATOM     41  C   UNL A   1      39.716  31.452  31.587  1.00  0.00     0.049 A 
ATOM     42  N   UNL A   1      40.062  28.857  30.351  1.00  0.00    -0.248 NA
ATOM     43  C   UNL A   1      38.138  29.055  29.140  1.00  0.00     0.031 C 
ATOM     44  C   UNL A   1      41.147  31.194  31.473  1.00  0.00     0.029 A 
ATOM     45  N   UNL A   1      39.643  32.445  32.572  1.00  0.00    -0.354 N 
ATOM     46  C   UNL A   1      40.190  28.021  29.268  1.00  0.00     0.074 A 
ATOM     47  C   UNL A   1      38.904  28.091  28.622  1.00  0.00     0.031 C 
ATOM     48  C   UNL A   1      41.771  31.715  32.538  1.00  0.00     0.029 A 
ATOM     49  C   UNL A   1      40.749  32.257  33.413  1.00  0.00     0.049 A 
ATOM     50  H   UNL A   1      38.951  33.139  32.658  1.00  0.00     0.167 HD
ATOM     51  C   UNL A   1      41.427  27.504  28.996  1.00  0.00     0.037 A 
ATOM     52  C   UNL A   1      40.611  31.997  34.738  1.00  0.00     0.037 A 
ATOM     53  C   UNL A   1      42.363  27.798  30.107  1.00  0.00     0.049 A 
ATOM     54  C   UNL A   1      41.245  30.673  35.032  1.00  0.00     0.074 A 
ATOM     55  C   UNL A   1      43.470  28.625  30.234  1.00  0.00     0.029 A 
ATOM     56  N   UNL A   1      42.030  27.409  31.413  1.00  0.00    -0.354 N 
ATOM     57  N   UNL A   1      41.321  29.721  34.136  1.00  0.00    -0.248 NA
ATOM     58  C   UNL A   1      41.987  30.372  36.250  1.00  0.00     0.031 C 
ATOM     59  C   UNL A   1      43.739  28.796  31.621  1.00  0.00     0.029 A 
ATOM     60  C   UNL A   1      42.818  28.055  32.347  1.00  0.00     0.049 A 
ATOM     61  H   UNL A   1      41.326  26.757  31.635  1.00  0.00     0.167 HD
ATOM     62  C   UNL A   1      42.211  28.786  34.569  1.00  0.00     0.074 A 
ATOM     63  C   UNL A   1      42.547  29.192  35.925  1.00  0.00     0.031 C 
ATOM     64  C   UNL A   1      42.693  27.787  33.779  1.00  0.00     0.037 A 
BRANCH  51  65
ATOM     65  C   UNL A   1      41.875  26.959  27.634  1.00  0.00     0.057 A 
ATOM     66  C   UNL A   1      42.106  25.578  27.446  1.00  0.00     0.134 A 
ATOM     67  C   UNL A   1      42.166  27.722  26.484  1.00  0.00     0.134 A 
ATOM     68  F   UNL A   1      41.819  24.680  28.396  1.00  0.00    -0.206 F 
ATOM     69  C   UNL A   1      42.643  25.031  26.264  1.00  0.00     0.040 A 
ATOM     70  C   UNL A   1      42.712  27.193  25.302  1.00  0.00     0.040 A 
ATOM     71  F   UNL A   1      41.914  29.026  26.400  1.00  0.00    -0.206 F 
ATOM     72  C   UNL A   1      42.964  25.840  25.189  1.00  0.00     0.006 A 
ENDBRANCH  51  65
BRANCH  52  73
ATOM     73  C   UNL A   1      39.425  32.655  35.341  1.00  0.00     0.057 A 
ATOM     74  C   UNL A   1      38.366  31.816  35.746  1.00  0.00     0.134 A 
ATOM     75  C   UNL A   1      39.472  33.927  35.921  1.00  0.00     0.134 A 
ATOM     76  F   UNL A   1      38.275  30.569  35.255  1.00  0.00    -0.206 F 
ATOM     77  C   UNL A   1      37.463  32.179  36.751  1.00  0.00     0.040 A 
ATOM     78  C   UNL A   1      38.573  34.301  36.934  1.00  0.00     0.040 A 
ATOM     79  F   UNL A   1      40.457  34.781  35.614  1.00  0.00    -0.206 F 
ATOM     80  C   UNL A   1      37.589  33.415  37.375  1.00  0.00     0.006 A 
ENDBRANCH  52  73
BRANCH  64  81
ATOM     81  C   UNL A   1      43.196  26.495  34.348  1.00  0.00     0.057 A 
ATOM     82  C   UNL A   1      44.566  26.195  34.435  1.00  0.00     0.134 A 
ATOM     83  C   UNL A   1      42.333  25.612  35.022  1.00  0.00     0.134 A 
ATOM     84  F   UNL A   1      45.500  27.009  33.920  1.00  0.00    -0.206 F 
ATOM     85  C   UNL A   1      45.043  25.071  35.110  1.00  0.00     0.040 A 
ATOM     86  C   UNL A   1      42.804  24.511  35.741  1.00  0.00     0.040 A 
ATOM     87  F   UNL A   1      41.006  25.800  35.045  1.00  0.00    -0.206 F 
ATOM     88  C   UNL A   1      44.162  24.233  35.780  1.00  0.00     0.006 A 
ENDBRANCH  64  81
ENDBRANCH  38  39
ENDBRANCH  31  33
ENDBRANCH  30  31
ENDBRANCH  29  30
ENDBRANCH  28  29
ENDBRANCH  27  28
ENDBRANCH   1  27
TORSDOF 17
ENDMDL
