MODEL 1
REMARK VINA RESULT:     -10.8      0.000      0.000
REMARK SMILES CC(C)[C@@H](CNC(=O)[C@@H]1CC[C@@H]2CCCC[C@@H]2[NH2+]1)C(=O)OCCOCCOC(=O)c1ccc(-c2c3nc(c(-c4c(F)cccc4F)c4ccc([nH]4)c(-c4c(F)cccc4F)c4nc(c(-c5c(F)cccc5F)c5ccc2[nH]5)C=C4)C=C3)cc1
REMARK SMILES IDX 23 1 22 2 21 3 19 4 20 5 4 6 2 7 1 8 3 9 5 10 6 11 7 12 8 14
REMARK SMILES IDX 9 15 10 16 18 17 11 18 17 19 12 22 16 23 13 24 15 25 14 26
REMARK SMILES IDX 24 27 25 28 26 29 27 30 28 31 29 32 30 33 31 34 83 35 32 36
REMARK SMILES IDX 82 37 33 38 34 39 35 40 76 41 36 42 81 43 75 44 77 45 37 46
REMARK SMILES IDX 80 47 74 48 73 49 38 51 64 52 47 53 63 54 48 55 51 56 62 57
REMARK SMILES IDX 78 58 49 59 50 60 61 62 79 63 52 64 39 65 40 66 45 67 41 68
REMARK SMILES IDX 42 69 44 70 46 71 43 72 65 73 66 74 71 75 67 76 68 77 70 78
REMARK SMILES IDX 72 79 69 80 53 81 54 82 59 83 55 84 56 85 58 86 60 87 57 88
REMARK H PARENT 6 13 18 20 18 21 77 50 51 61
REMARK Flexibility Score: inf
ROOT
ATOM      1  C   UNL A   1      33.098  29.385  25.926  1.00  0.00     0.202 C 
ENDROOT
BRANCH   1   2
ATOM      2  C   UNL A   1      33.311  27.889  26.187  1.00  0.00     0.261 C 
BRANCH   2   3
ATOM      3  O   UNL A   1      32.520  26.998  25.380  1.00  0.00    -0.463 OA
BRANCH   3   4
ATOM      4  C   UNL A   1      31.217  26.942  25.757  1.00  0.00     0.311 C 
ATOM      5  O   UNL A   1      30.823  26.626  26.878  1.00  0.00    -0.252 OA
BRANCH   4   6
ATOM      6  C   UNL A   1      30.240  27.128  24.624  1.00  0.00     0.121 C 
BRANCH   6   7
ATOM      7  C   UNL A   1      30.389  28.201  23.527  1.00  0.00    -0.001 C 
ATOM      8  C   UNL A   1      31.179  27.620  22.328  1.00  0.00     0.008 C 
ATOM      9  C   UNL A   1      29.039  28.663  22.985  1.00  0.00     0.008 C 
ENDBRANCH   6   7
BRANCH   6  10
ATOM     10  C   UNL A   1      29.981  25.729  24.089  1.00  0.00     0.131 C 
BRANCH  10  11
ATOM     11  N   UNL A   1      30.349  24.583  24.887  1.00  0.00    -0.350 N 
ATOM     12  C   UNL A   1      31.452  23.780  24.794  1.00  0.00     0.278 C 
ATOM     13  H   UNL A   1      29.715  24.346  25.602  1.00  0.00     0.163 HD
ATOM     14  O   UNL A   1      31.719  23.160  25.835  1.00  0.00    -0.268 OA
BRANCH  12  15
ATOM     15  C   UNL A   1      32.238  23.463  23.481  1.00  0.00     0.272 C 
ATOM     16  C   UNL A   1      32.597  21.970  23.366  1.00  0.00     0.076 C 
ATOM     17  N   UNL A   1      33.390  24.285  23.105  1.00  0.00    -0.333 N 
ATOM     18  C   UNL A   1      33.922  21.629  24.051  1.00  0.00     0.016 C 
ATOM     19  C   UNL A   1      34.705  24.000  23.670  1.00  0.00     0.186 C 
ATOM     20  H   UNL A   1      33.162  25.246  23.360  1.00  0.00     0.347 HD
ATOM     21  H   UNL A   1      33.511  24.080  22.114  1.00  0.00     0.347 HD
ATOM     22  C   UNL A   1      35.049  22.515  23.496  1.00  0.00     0.048 C 
ATOM     23  C   UNL A   1      34.897  24.465  25.124  1.00  0.00     0.065 C 
ATOM     24  C   UNL A   1      36.420  22.199  24.114  1.00  0.00     0.010 C 
ATOM     25  C   UNL A   1      36.223  24.079  25.757  1.00  0.00     0.006 C 
ATOM     26  C   UNL A   1      36.528  22.604  25.580  1.00  0.00     0.001 C 
ENDBRANCH  12  15
ENDBRANCH  10  11
ENDBRANCH   6  10
ENDBRANCH   4   6
ENDBRANCH   3   4
ENDBRANCH   2   3
ENDBRANCH   1   2
BRANCH   1  27
ATOM     27  O   UNL A   1      32.126  30.062  26.712  1.00  0.00    -0.374 OA
BRANCH  27  28
ATOM     28  C   UNL A   1      31.412  31.149  26.122  1.00  0.00     0.202 C 
BRANCH  28  29
ATOM     29  C   UNL A   1      31.346  32.453  26.923  1.00  0.00     0.261 C 
BRANCH  29  30
ATOM     30  O   UNL A   1      32.555  33.225  26.769  1.00  0.00    -0.460 OA
BRANCH  30  31
ATOM     31  C   UNL A   1      33.130  33.603  27.927  1.00  0.00     0.338 C 
ATOM     32  O   UNL A   1      32.644  34.322  28.793  1.00  0.00    -0.246 OA
BRANCH  31  33
ATOM     33  C   UNL A   1      34.411  32.906  28.126  1.00  0.00     0.060 A 
ATOM     34  C   UNL A   1      34.367  31.546  28.452  1.00  0.00     0.016 A 
ATOM     35  C   UNL A   1      35.609  33.619  28.208  1.00  0.00     0.016 A 
ATOM     36  C   UNL A   1      35.505  30.914  28.948  1.00  0.00     0.010 A 
ATOM     37  C   UNL A   1      36.752  32.981  28.707  1.00  0.00     0.010 A 
ATOM     38  C   UNL A   1      36.688  31.642  29.138  1.00  0.00    -0.014 A 
BRANCH  38  39
ATOM     39  C   UNL A   1      37.773  31.050  29.963  1.00  0.00     0.031 A 
ATOM     40  C   UNL A   1      38.728  30.071  29.327  1.00  0.00     0.074 A 
ATOM     41  C   UNL A   1      37.963  31.430  31.238  1.00  0.00     0.049 A 
ATOM     42  N   UNL A   1      39.762  29.458  29.848  1.00  0.00    -0.248 NA
ATOM     43  C   UNL A   1      38.488  29.745  27.911  1.00  0.00     0.031 C 
ATOM     44  C   UNL A   1      37.145  32.401  31.962  1.00  0.00     0.029 A 
ATOM     45  N   UNL A   1      38.916  31.045  32.149  1.00  0.00    -0.354 N 
ATOM     46  C   UNL A   1      40.293  28.678  28.829  1.00  0.00     0.074 A 
ATOM     47  C   UNL A   1      39.451  28.867  27.667  1.00  0.00     0.031 C 
ATOM     48  C   UNL A   1      37.634  32.538  33.207  1.00  0.00     0.029 A 
ATOM     49  C   UNL A   1      38.780  31.646  33.376  1.00  0.00     0.049 A 
ATOM     50  H   UNL A   1      39.630  30.399  31.941  1.00  0.00     0.167 HD
ATOM     51  C   UNL A   1      41.391  27.884  28.849  1.00  0.00     0.037 A 
ATOM     52  C   UNL A   1      39.491  31.487  34.508  1.00  0.00     0.037 A 
ATOM     53  C   UNL A   1      42.240  27.695  29.996  1.00  0.00     0.049 A 
ATOM     54  C   UNL A   1      40.663  30.541  34.530  1.00  0.00     0.074 A 
ATOM     55  C   UNL A   1      43.383  26.922  30.105  1.00  0.00     0.029 A 
ATOM     56  N   UNL A   1      42.035  28.282  31.235  1.00  0.00    -0.354 N 
ATOM     57  N   UNL A   1      41.165  29.823  33.555  1.00  0.00    -0.248 NA
ATOM     58  C   UNL A   1      41.367  30.386  35.812  1.00  0.00     0.031 C 
ATOM     59  C   UNL A   1      43.846  27.008  31.423  1.00  0.00     0.029 A 
ATOM     60  C   UNL A   1      43.016  27.868  32.121  1.00  0.00     0.049 A 
ATOM     61  H   UNL A   1      41.301  28.902  31.452  1.00  0.00     0.167 HD
ATOM     62  C   UNL A   1      42.255  29.153  34.098  1.00  0.00     0.074 A 
ATOM     63  C   UNL A   1      42.349  29.557  35.484  1.00  0.00     0.031 C 
ATOM     64  C   UNL A   1      43.103  28.281  33.499  1.00  0.00     0.037 A 
BRANCH  51  65
ATOM     65  C   UNL A   1      41.729  27.140  27.592  1.00  0.00     0.057 A 
ATOM     66  C   UNL A   1      42.512  27.713  26.582  1.00  0.00     0.134 A 
ATOM     67  C   UNL A   1      41.298  25.820  27.406  1.00  0.00     0.134 A 
ATOM     68  F   UNL A   1      42.947  28.977  26.693  1.00  0.00    -0.206 F 
ATOM     69  C   UNL A   1      42.838  27.007  25.422  1.00  0.00     0.040 A 
ATOM     70  C   UNL A   1      41.636  25.096  26.262  1.00  0.00     0.040 A 
ATOM     71  F   UNL A   1      40.549  25.211  28.338  1.00  0.00    -0.206 F 
ATOM     72  C   UNL A   1      42.404  25.692  25.263  1.00  0.00     0.006 A 
ENDBRANCH  51  65
BRANCH  52  73
ATOM     73  C   UNL A   1      39.108  32.233  35.733  1.00  0.00     0.057 A 
ATOM     74  C   UNL A   1      39.589  33.525  35.977  1.00  0.00     0.134 A 
ATOM     75  C   UNL A   1      38.270  31.662  36.697  1.00  0.00     0.134 A 
ATOM     76  F   UNL A   1      40.418  34.113  35.102  1.00  0.00    -0.206 F 
ATOM     77  C   UNL A   1      39.259  34.218  37.143  1.00  0.00     0.040 A 
ATOM     78  C   UNL A   1      37.913  32.353  37.856  1.00  0.00     0.040 A 
ATOM     79  F   UNL A   1      37.783  30.424  36.523  1.00  0.00    -0.206 F 
ATOM     80  C   UNL A   1      38.414  33.632  38.085  1.00  0.00     0.006 A 
ENDBRANCH  52  73
BRANCH  64  81
ATOM     81  C   UNL A   1      44.224  27.728  34.329  1.00  0.00     0.057 A 
ATOM     82  C   UNL A   1      44.104  26.512  35.014  1.00  0.00     0.134 A 
ATOM     83  C   UNL A   1      45.451  28.398  34.408  1.00  0.00     0.134 A 
ATOM     84  F   UNL A   1      42.951  25.829  34.988  1.00  0.00    -0.206 F 
ATOM     85  C   UNL A   1      45.159  25.994  35.767  1.00  0.00     0.040 A 
ATOM     86  C   UNL A   1      46.521  27.876  35.138  1.00  0.00     0.040 A 
ATOM     87  F   UNL A   1      45.636  29.561  33.766  1.00  0.00    -0.206 F 
ATOM     88  C   UNL A   1      46.374  26.673  35.824  1.00  0.00     0.006 A 
ENDBRANCH  64  81
ENDBRANCH  38  39
ENDBRANCH  31  33
ENDBRANCH  30  31
ENDBRANCH  29  30
ENDBRANCH  28  29
ENDBRANCH  27  28
ENDBRANCH   1  27
TORSDOF 18
ENDMDL
MODEL 2
REMARK VINA RESULT:     -10.5      4.038      8.233
REMARK SMILES CC(C)[C@@H](CNC(=O)[C@@H]1CC[C@@H]2CCCC[C@@H]2[NH2+]1)C(=O)OCCOCCOC(=O)c1ccc(-c2c3nc(c(-c4c(F)cccc4F)c4ccc([nH]4)c(-c4c(F)cccc4F)c4nc(c(-c5c(F)cccc5F)c5ccc2[nH]5)C=C4)C=C3)cc1
REMARK SMILES IDX 23 1 22 2 21 3 19 4 20 5 4 6 2 7 1 8 3 9 5 10 6 11 7 12 8 14
REMARK SMILES IDX 9 15 10 16 18 17 11 18 17 19 12 22 16 23 13 24 15 25 14 26
REMARK SMILES IDX 24 27 25 28 26 29 27 30 28 31 29 32 30 33 31 34 83 35 32 36
REMARK SMILES IDX 82 37 33 38 34 39 35 40 76 41 36 42 81 43 75 44 77 45 37 46
REMARK SMILES IDX 80 47 74 48 73 49 38 51 64 52 47 53 63 54 48 55 51 56 62 57
REMARK SMILES IDX 78 58 49 59 50 60 61 62 79 63 52 64 39 65 40 66 45 67 41 68
REMARK SMILES IDX 42 69 44 70 46 71 43 72 65 73 66 74 71 75 67 76 68 77 70 78
REMARK SMILES IDX 72 79 69 80 53 81 54 82 59 83 55 84 56 85 58 86 60 87 57 88
REMARK H PARENT 6 13 18 20 18 21 77 50 51 61
REMARK Flexibility Score: inf
ROOT
ATOM      1  C   UNL A   1      36.814  23.708  26.066  1.00  0.00     0.202 C 
ENDROOT
BRANCH   1   2
ATOM      2  C   UNL A   1      35.717  24.276  25.157  1.00  0.00     0.261 C 
BRANCH   2   3
ATOM      3  O   UNL A   1      34.626  23.383  24.867  1.00  0.00    -0.463 OA
BRANCH   3   4
ATOM      4  C   UNL A   1      34.703  22.817  23.636  1.00  0.00     0.311 C 
ATOM      5  O   UNL A   1      35.576  23.060  22.805  1.00  0.00    -0.252 OA
BRANCH   4   6
ATOM      6  C   UNL A   1      33.509  21.973  23.270  1.00  0.00     0.121 C 
BRANCH   6   7
ATOM      7  C   UNL A   1      32.951  20.843  24.157  1.00  0.00    -0.001 C 
ATOM      8  C   UNL A   1      31.850  21.402  25.092  1.00  0.00     0.008 C 
ATOM      9  C   UNL A   1      32.307  19.729  23.334  1.00  0.00     0.008 C 
ENDBRANCH   6   7
BRANCH   6  10
ATOM     10  C   UNL A   1      32.456  22.961  22.792  1.00  0.00     0.131 C 
BRANCH  10  11
ATOM     11  N   UNL A   1      32.855  24.088  21.983  1.00  0.00    -0.350 N 
ATOM     12  C   UNL A   1      32.559  25.414  22.139  1.00  0.00     0.278 C 
ATOM     13  H   UNL A   1      33.421  23.872  21.207  1.00  0.00     0.163 HD
ATOM     14  O   UNL A   1      33.353  26.183  21.574  1.00  0.00    -0.268 OA
BRANCH  12  15
ATOM     15  C   UNL A   1      31.255  25.986  22.783  1.00  0.00     0.272 C 
ATOM     16  C   UNL A   1      30.926  27.400  22.268  1.00  0.00     0.076 C 
ATOM     17  N   UNL A   1      31.073  25.927  24.234  1.00  0.00    -0.333 N 
ATOM     18  C   UNL A   1      31.616  28.498  23.080  1.00  0.00     0.016 C 
ATOM     19  C   UNL A   1      31.653  26.962  25.085  1.00  0.00     0.186 C 
ATOM     20  H   UNL A   1      31.464  25.037  24.544  1.00  0.00     0.347 HD
ATOM     21  H   UNL A   1      30.069  26.064  24.350  1.00  0.00     0.347 HD
ATOM     22  C   UNL A   1      31.266  28.354  24.570  1.00  0.00     0.048 C 
ATOM     23  C   UNL A   1      33.169  26.837  25.309  1.00  0.00     0.065 C 
ATOM     24  C   UNL A   1      31.896  29.451  25.442  1.00  0.00     0.010 C 
ATOM     25  C   UNL A   1      33.802  27.966  26.104  1.00  0.00     0.006 C 
ATOM     26  C   UNL A   1      33.411  29.328  25.563  1.00  0.00     0.001 C 
ENDBRANCH  12  15
ENDBRANCH  10  11
ENDBRANCH   6  10
ENDBRANCH   4   6
ENDBRANCH   3   4
ENDBRANCH   2   3
ENDBRANCH   1   2
BRANCH   1  27
ATOM     27  O   UNL A   1      37.202  22.354  25.868  1.00  0.00    -0.374 OA
BRANCH  27  28
ATOM     28  C   UNL A   1      38.595  22.049  25.808  1.00  0.00     0.202 C 
BRANCH  28  29
ATOM     29  C   UNL A   1      38.975  20.590  25.535  1.00  0.00     0.261 C 
BRANCH  29  30
ATOM     30  O   UNL A   1      39.864  20.081  26.551  1.00  0.00    -0.460 OA
BRANCH  30  31
ATOM     31  C   UNL A   1      41.151  19.972  26.166  1.00  0.00     0.338 C 
ATOM     32  O   UNL A   1      41.624  19.143  25.396  1.00  0.00    -0.246 OA
BRANCH  31  33
ATOM     33  C   UNL A   1      41.947  21.100  26.676  1.00  0.00     0.060 A 
ATOM     34  C   UNL A   1      41.970  21.305  28.060  1.00  0.00     0.016 A 
ATOM     35  C   UNL A   1      42.472  22.057  25.806  1.00  0.00     0.016 A 
ATOM     36  C   UNL A   1      42.440  22.512  28.575  1.00  0.00     0.010 A 
ATOM     37  C   UNL A   1      42.944  23.270  26.326  1.00  0.00     0.010 A 
ATOM     38  C   UNL A   1      42.871  23.526  27.708  1.00  0.00    -0.014 A 
BRANCH  38  39
ATOM     39  C   UNL A   1      43.051  24.901  28.243  1.00  0.00     0.031 A 
ATOM     40  C   UNL A   1      44.438  25.376  28.595  1.00  0.00     0.074 A 
ATOM     41  C   UNL A   1      42.013  25.750  28.344  1.00  0.00     0.049 A 
ATOM     42  N   UNL A   1      44.830  26.542  29.045  1.00  0.00    -0.248 NA
ATOM     43  C   UNL A   1      45.532  24.409  28.407  1.00  0.00     0.031 C 
ATOM     44  C   UNL A   1      40.629  25.437  27.994  1.00  0.00     0.029 A 
ATOM     45  N   UNL A   1      41.969  27.055  28.766  1.00  0.00    -0.354 N 
ATOM     46  C   UNL A   1      46.208  26.449  29.194  1.00  0.00     0.074 A 
ATOM     47  C   UNL A   1      46.584  25.103  28.817  1.00  0.00     0.031 C 
ATOM     48  C   UNL A   1      39.869  26.524  28.214  1.00  0.00     0.029 A 
ATOM     49  C   UNL A   1      40.708  27.598  28.744  1.00  0.00     0.049 A 
ATOM     50  H   UNL A   1      42.766  27.555  29.055  1.00  0.00     0.167 HD
ATOM     51  C   UNL A   1      47.087  27.398  29.594  1.00  0.00     0.037 A 
ATOM     52  C   UNL A   1      40.277  28.818  29.120  1.00  0.00     0.037 A 
ATOM     53  C   UNL A   1      46.725  28.742  29.963  1.00  0.00     0.049 A 
ATOM     54  C   UNL A   1      41.262  29.834  29.634  1.00  0.00     0.074 A 
ATOM     55  C   UNL A   1      47.550  29.778  30.367  1.00  0.00     0.029 A 
ATOM     56  N   UNL A   1      45.430  29.234  29.978  1.00  0.00    -0.354 N 
ATOM     57  N   UNL A   1      42.564  29.738  29.753  1.00  0.00    -0.248 NA
ATOM     58  C   UNL A   1      40.716  31.129  30.065  1.00  0.00     0.031 C 
ATOM     59  C   UNL A   1      46.748  30.885  30.667  1.00  0.00     0.029 A 
ATOM     60  C   UNL A   1      45.430  30.551  30.408  1.00  0.00     0.049 A 
ATOM     61  H   UNL A   1      44.628  28.723  29.720  1.00  0.00     0.167 HD
ATOM     62  C   UNL A   1      42.993  30.965  30.247  1.00  0.00     0.074 A 
ATOM     63  C   UNL A   1      41.816  31.792  30.396  1.00  0.00     0.031 C 
ATOM     64  C   UNL A   1      44.252  31.368  30.548  1.00  0.00     0.037 A 
BRANCH  51  65
ATOM     65  C   UNL A   1      48.534  27.012  29.674  1.00  0.00     0.057 A 
ATOM     66  C   UNL A   1      49.076  26.409  30.817  1.00  0.00     0.134 A 
ATOM     67  C   UNL A   1      49.387  27.210  28.581  1.00  0.00     0.134 A 
ATOM     68  F   UNL A   1      48.315  26.202  31.901  1.00  0.00    -0.206 F 
ATOM     69  C   UNL A   1      50.420  26.036  30.876  1.00  0.00     0.040 A 
ATOM     70  C   UNL A   1      50.726  26.821  28.619  1.00  0.00     0.040 A 
ATOM     71  F   UNL A   1      48.929  27.777  27.454  1.00  0.00    -0.206 F 
ATOM     72  C   UNL A   1      51.248  26.236  29.772  1.00  0.00     0.006 A 
ENDBRANCH  51  65
BRANCH  52  73
ATOM     73  C   UNL A   1      38.832  29.149  29.039  1.00  0.00     0.057 A 
ATOM     74  C   UNL A   1      38.001  29.058  30.161  1.00  0.00     0.134 A 
ATOM     75  C   UNL A   1      38.247  29.544  27.831  1.00  0.00     0.134 A 
ATOM     76  F   UNL A   1      38.501  28.658  31.340  1.00  0.00    -0.206 F 
ATOM     77  C   UNL A   1      36.636  29.336  30.083  1.00  0.00     0.040 A 
ATOM     78  C   UNL A   1      36.887  29.848  27.744  1.00  0.00     0.040 A 
ATOM     79  F   UNL A   1      38.990  29.644  26.719  1.00  0.00    -0.206 F 
ATOM     80  C   UNL A   1      36.076  29.738  28.871  1.00  0.00     0.006 A 
ENDBRANCH  52  73
BRANCH  64  81
ATOM     81  C   UNL A   1      44.426  32.775  31.041  1.00  0.00     0.057 A 
ATOM     82  C   UNL A   1      44.604  33.848  30.159  1.00  0.00     0.134 A 
ATOM     83  C   UNL A   1      44.374  33.063  32.410  1.00  0.00     0.134 A 
ATOM     84  F   UNL A   1      44.674  33.637  28.837  1.00  0.00    -0.206 F 
ATOM     85  C   UNL A   1      44.744  35.157  30.624  1.00  0.00     0.040 A 
ATOM     86  C   UNL A   1      44.489  34.371  32.885  1.00  0.00     0.040 A 
ATOM     87  F   UNL A   1      44.196  32.082  33.308  1.00  0.00    -0.206 F 
ATOM     88  C   UNL A   1      44.680  35.422  31.991  1.00  0.00     0.006 A 
ENDBRANCH  64  81
ENDBRANCH  38  39
ENDBRANCH  31  33
ENDBRANCH  30  31
ENDBRANCH  29  30
ENDBRANCH  28  29
ENDBRANCH  27  28
ENDBRANCH   1  27
TORSDOF 18
ENDMDL
MODEL 3
REMARK VINA RESULT:     -10.5      1.064      6.232
REMARK SMILES CC(C)[C@@H](CNC(=O)[C@@H]1CC[C@@H]2CCCC[C@@H]2[NH2+]1)C(=O)OCCOCCOC(=O)c1ccc(-c2c3nc(c(-c4c(F)cccc4F)c4ccc([nH]4)c(-c4c(F)cccc4F)c4nc(c(-c5c(F)cccc5F)c5ccc2[nH]5)C=C4)C=C3)cc1
REMARK SMILES IDX 23 1 22 2 21 3 19 4 20 5 4 6 2 7 1 8 3 9 5 10 6 11 7 12 8 14
REMARK SMILES IDX 9 15 10 16 18 17 11 18 17 19 12 22 16 23 13 24 15 25 14 26
REMARK SMILES IDX 24 27 25 28 26 29 27 30 28 31 29 32 30 33 31 34 83 35 32 36
REMARK SMILES IDX 82 37 33 38 34 39 35 40 76 41 36 42 81 43 75 44 77 45 37 46
REMARK SMILES IDX 80 47 74 48 73 49 38 51 64 52 47 53 63 54 48 55 51 56 62 57
REMARK SMILES IDX 78 58 49 59 50 60 61 62 79 63 52 64 39 65 40 66 45 67 41 68
REMARK SMILES IDX 42 69 44 70 46 71 43 72 65 73 66 74 71 75 67 76 68 77 70 78
REMARK SMILES IDX 72 79 69 80 53 81 54 82 59 83 55 84 56 85 58 86 60 87 57 88
REMARK H PARENT 6 13 18 20 18 21 77 50 51 61
REMARK Flexibility Score: inf
ROOT
ATOM      1  C   UNL A   1      33.294  29.683  26.708  1.00  0.00     0.202 C 
ENDROOT
BRANCH   1   2
ATOM      2  C   UNL A   1      33.372  28.172  26.955  1.00  0.00     0.261 C 
BRANCH   2   3
ATOM      3  O   UNL A   1      32.749  27.345  25.955  1.00  0.00    -0.463 OA
BRANCH   3   4
ATOM      4  C   UNL A   1      31.417  27.172  26.150  1.00  0.00     0.311 C 
ATOM      5  O   UNL A   1      30.872  27.103  27.250  1.00  0.00    -0.252 OA
BRANCH   4   6
ATOM      6  C   UNL A   1      30.642  26.882  24.891  1.00  0.00     0.121 C 
BRANCH   6   7
ATOM      7  C   UNL A   1      30.831  27.652  23.568  1.00  0.00    -0.001 C 
ATOM      8  C   UNL A   1      31.026  26.653  22.401  1.00  0.00     0.008 C 
ATOM      9  C   UNL A   1      29.615  28.506  23.219  1.00  0.00     0.008 C 
ENDBRANCH   6   7
BRANCH   6  10
ATOM     10  C   UNL A   1      30.685  25.370  24.736  1.00  0.00     0.131 C 
BRANCH  10  11
ATOM     11  N   UNL A   1      30.772  24.538  25.913  1.00  0.00    -0.350 N 
ATOM     12  C   UNL A   1      31.508  23.405  26.121  1.00  0.00     0.278 C 
ATOM     13  H   UNL A   1      30.222  24.828  26.676  1.00  0.00     0.163 HD
ATOM     14  O   UNL A   1      31.719  23.147  27.316  1.00  0.00    -0.268 OA
BRANCH  12  15
ATOM     15  C   UNL A   1      31.914  22.370  25.023  1.00  0.00     0.272 C 
ATOM     16  C   UNL A   1      32.431  21.052  25.630  1.00  0.00     0.076 C 
ATOM     17  N   UNL A   1      32.778  22.783  23.915  1.00  0.00    -0.333 N 
ATOM     18  C   UNL A   1      33.932  21.087  25.923  1.00  0.00     0.016 C 
ATOM     19  C   UNL A   1      34.228  22.798  24.088  1.00  0.00     0.186 C 
ATOM     20  H   UNL A   1      32.501  23.732  23.664  1.00  0.00     0.347 HD
ATOM     21  H   UNL A   1      32.633  22.052  23.219  1.00  0.00     0.347 HD
ATOM     22  C   UNL A   1      34.711  21.455  24.650  1.00  0.00     0.048 C 
ATOM     23  C   UNL A   1      34.768  23.986  24.902  1.00  0.00     0.065 C 
ATOM     24  C   UNL A   1      36.233  21.471  24.862  1.00  0.00     0.010 C 
ATOM     25  C   UNL A   1      36.261  23.956  25.178  1.00  0.00     0.006 C 
ATOM     26  C   UNL A   1      36.706  22.621  25.745  1.00  0.00     0.001 C 
ENDBRANCH  12  15
ENDBRANCH  10  11
ENDBRANCH   6  10
ENDBRANCH   4   6
ENDBRANCH   3   4
ENDBRANCH   2   3
ENDBRANCH   1   2
BRANCH   1  27
ATOM     27  O   UNL A   1      32.184  30.386  27.251  1.00  0.00    -0.374 OA
BRANCH  27  28
ATOM     28  C   UNL A   1      31.566  31.398  26.456  1.00  0.00     0.202 C 
BRANCH  28  29
ATOM     29  C   UNL A   1      31.776  32.851  26.896  1.00  0.00     0.261 C 
BRANCH  29  30
ATOM     30  O   UNL A   1      33.130  33.075  27.339  1.00  0.00    -0.460 OA
BRANCH  30  31
ATOM     31  C   UNL A   1      33.271  34.080  28.225  1.00  0.00     0.338 C 
ATOM     32  O   UNL A   1      32.530  35.047  28.368  1.00  0.00    -0.246 OA
BRANCH  31  33
ATOM     33  C   UNL A   1      34.381  33.811  29.151  1.00  0.00     0.060 A 
ATOM     34  C   UNL A   1      35.669  34.183  28.747  1.00  0.00     0.016 A 
ATOM     35  C   UNL A   1      34.193  33.017  30.284  1.00  0.00     0.016 A 
ATOM     36  C   UNL A   1      36.780  33.687  29.427  1.00  0.00     0.010 A 
ATOM     37  C   UNL A   1      35.312  32.519  30.965  1.00  0.00     0.010 A 
ATOM     38  C   UNL A   1      36.610  32.802  30.501  1.00  0.00    -0.014 A 
BRANCH  38  39
ATOM     39  C   UNL A   1      37.784  32.034  30.993  1.00  0.00     0.031 A 
ATOM     40  C   UNL A   1      38.291  32.284  32.390  1.00  0.00     0.074 A 
ATOM     41  C   UNL A   1      38.348  31.070  30.244  1.00  0.00     0.049 A 
ATOM     42  N   UNL A   1      39.277  31.709  33.034  1.00  0.00    -0.248 NA
ATOM     43  C   UNL A   1      37.589  33.317  33.170  1.00  0.00     0.031 C 
ATOM     44  C   UNL A   1      37.927  30.692  28.896  1.00  0.00     0.029 A 
ATOM     45  N   UNL A   1      39.396  30.227  30.520  1.00  0.00    -0.354 N 
ATOM     46  C   UNL A   1      39.313  32.308  34.287  1.00  0.00     0.074 A 
ATOM     47  C   UNL A   1      38.272  33.314  34.305  1.00  0.00     0.031 C 
ATOM     48  C   UNL A   1      38.710  29.689  28.463  1.00  0.00     0.029 A 
ATOM     49  C   UNL A   1      39.702  29.373  29.490  1.00  0.00     0.049 A 
ATOM     50  H   UNL A   1      39.881  30.235  31.377  1.00  0.00     0.167 HD
ATOM     51  C   UNL A   1      40.127  32.039  35.335  1.00  0.00     0.037 A 
ATOM     52  C   UNL A   1      40.676  28.450  29.383  1.00  0.00     0.037 A 
ATOM     53  C   UNL A   1      41.159  31.036  35.331  1.00  0.00     0.049 A 
ATOM     54  C   UNL A   1      41.619  28.220  30.534  1.00  0.00     0.074 A 
ATOM     55  C   UNL A   1      42.023  30.682  36.353  1.00  0.00     0.029 A 
ATOM     56  N   UNL A   1      41.470  30.229  34.247  1.00  0.00    -0.354 N 
ATOM     57  N   UNL A   1      41.631  28.780  31.719  1.00  0.00    -0.248 NA
ATOM     58  C   UNL A   1      42.685  27.227  30.332  1.00  0.00     0.031 C 
ATOM     59  C   UNL A   1      42.886  29.690  35.873  1.00  0.00     0.029 A 
ATOM     60  C   UNL A   1      42.529  29.396  34.568  1.00  0.00     0.049 A 
ATOM     61  H   UNL A   1      41.006  30.245  33.379  1.00  0.00     0.167 HD
ATOM     62  C   UNL A   1      42.684  28.191  32.410  1.00  0.00     0.074 A 
ATOM     63  C   UNL A   1      43.282  27.223  31.516  1.00  0.00     0.031 C 
ATOM     64  C   UNL A   1      43.114  28.431  33.672  1.00  0.00     0.037 A 
BRANCH  51  65
ATOM     65  C   UNL A   1      39.947  32.859  36.579  1.00  0.00     0.057 A 
ATOM     66  C   UNL A   1      40.753  33.971  36.853  1.00  0.00     0.134 A 
ATOM     67  C   UNL A   1      38.931  32.554  37.493  1.00  0.00     0.134 A 
ATOM     68  F   UNL A   1      41.751  34.308  36.023  1.00  0.00    -0.206 F 
ATOM     69  C   UNL A   1      40.568  34.739  38.004  1.00  0.00     0.040 A 
ATOM     70  C   UNL A   1      38.721  33.328  38.636  1.00  0.00     0.040 A 
ATOM     71  F   UNL A   1      38.120  31.505  37.286  1.00  0.00    -0.206 F 
ATOM     72  C   UNL A   1      39.545  34.422  38.896  1.00  0.00     0.006 A 
ENDBRANCH  51  65
BRANCH  52  73
ATOM     73  C   UNL A   1      40.826  27.674  28.126  1.00  0.00     0.057 A 
ATOM     74  C   UNL A   1      40.209  26.428  27.963  1.00  0.00     0.134 A 
ATOM     75  C   UNL A   1      41.607  28.153  27.068  1.00  0.00     0.134 A 
ATOM     76  F   UNL A   1      39.471  25.906  28.954  1.00  0.00    -0.206 F 
ATOM     77  C   UNL A   1      40.374  25.679  26.797  1.00  0.00     0.040 A 
ATOM     78  C   UNL A   1      41.761  27.425  25.887  1.00  0.00     0.040 A 
ATOM     79  F   UNL A   1      42.228  29.337  27.167  1.00  0.00    -0.206 F 
ATOM     80  C   UNL A   1      41.148  26.181  25.752  1.00  0.00     0.006 A 
ENDBRANCH  52  73
BRANCH  64  81
ATOM     81  C   UNL A   1      44.269  27.615  34.175  1.00  0.00     0.057 A 
ATOM     82  C   UNL A   1      45.589  28.078  34.097  1.00  0.00     0.134 A 
ATOM     83  C   UNL A   1      44.053  26.371  34.781  1.00  0.00     0.134 A 
ATOM     84  F   UNL A   1      45.863  29.255  33.518  1.00  0.00    -0.206 F 
ATOM     85  C   UNL A   1      46.655  27.321  34.587  1.00  0.00     0.040 A 
ATOM     86  C   UNL A   1      45.110  25.617  35.296  1.00  0.00     0.040 A 
ATOM     87  F   UNL A   1      42.812  25.875  34.897  1.00  0.00    -0.206 F 
ATOM     88  C   UNL A   1      46.416  26.090  35.194  1.00  0.00     0.006 A 
ENDBRANCH  64  81
ENDBRANCH  38  39
ENDBRANCH  31  33
ENDBRANCH  30  31
ENDBRANCH  29  30
ENDBRANCH  28  29
ENDBRANCH  27  28
ENDBRANCH   1  27
TORSDOF 18
ENDMDL
