MODEL 1
REMARK VINA RESULT:     -10.0      0.000      0.000
REMARK SMILES C[C@H]1[NH2+]CC[C@@H]1C(=O)N[C@@H](CC(=O)OCCOCCOC(=O)c1ccc(-c2c3nc(c(-c4c(F)cccc4F)c4ccc([nH]4)c(-c4c(F)cccc4F)c4nc(c(-c5c(F)cccc5F)c5ccc2[nH]5)C=C4)C=C3)cc1)c1cccs1
REMARK SMILES IDX 16 1 15 2 14 3 12 4 13 5 11 6 10 7 9 8 7 9 8 10 6 12 1 13
REMARK SMILES IDX 2 14 3 15 4 16 5 19 77 20 78 21 81 22 79 23 80 24 17 25
REMARK SMILES IDX 18 26 19 27 20 28 21 29 22 30 23 31 24 32 76 33 25 34 75 35
REMARK SMILES IDX 26 36 27 37 28 38 69 39 29 40 74 41 68 42 70 43 30 44 73 45
REMARK SMILES IDX 67 46 66 47 31 49 57 50 40 51 56 52 41 53 44 54 55 55 71 56
REMARK SMILES IDX 42 57 43 58 54 60 72 61 45 62 32 63 33 64 38 65 34 66 35 67
REMARK SMILES IDX 37 68 39 69 36 70 58 71 59 72 64 73 60 74 61 75 63 76 65 77
REMARK SMILES IDX 62 78 46 79 47 80 52 81 48 82 49 83 51 84 53 85 50 86
REMARK H PARENT 9 11 3 17 3 18 70 48 44 59
REMARK Flexibility Score: inf
ROOT
ATOM      1  C   UNL A   1      37.480  21.395  25.054  1.00  0.00     0.202 C 
ENDROOT
BRANCH   1   2
ATOM      2  C   UNL A   1      36.204  22.211  24.800  1.00  0.00     0.261 C 
BRANCH   2   3
ATOM      3  O   UNL A   1      35.147  22.041  25.766  1.00  0.00    -0.463 OA
BRANCH   3   4
ATOM      4  C   UNL A   1      34.587  23.203  26.185  1.00  0.00     0.308 C 
ATOM      5  O   UNL A   1      33.719  23.285  27.050  1.00  0.00    -0.252 OA
BRANCH   4   6
ATOM      6  C   UNL A   1      35.054  24.446  25.474  1.00  0.00     0.153 C 
BRANCH   6   7
ATOM      7  C   UNL A   1      34.100  25.556  25.039  1.00  0.00     0.133 C 
BRANCH   7   8
ATOM      8  N   UNL A   1      33.080  25.878  26.018  1.00  0.00    -0.347 N 
ATOM      9  C   UNL A   1      32.615  27.090  26.444  1.00  0.00     0.229 C 
ATOM     10  O   UNL A   1      31.605  27.063  27.151  1.00  0.00    -0.275 OA
ATOM     11  H   UNL A   1      32.653  25.099  26.441  1.00  0.00     0.164 HD
BRANCH   9  12
ATOM     12  C   UNL A   1      33.400  28.383  26.166  1.00  0.00     0.142 C 
ATOM     13  C   UNL A   1      34.668  30.048  27.609  1.00  0.00     0.076 C 
ATOM     14  C   UNL A   1      33.318  29.373  27.348  1.00  0.00     0.192 C 
ATOM     15  N   UNL A   1      32.325  30.407  26.987  1.00  0.00    -0.343 N 
ATOM     16  C   UNL A   1      31.866  30.142  25.629  1.00  0.00     0.261 C 
ATOM     17  H   UNL A   1      32.756  31.331  27.031  1.00  0.00     0.346 HD
ATOM     18  H   UNL A   1      31.538  30.383  27.635  1.00  0.00     0.346 HD
ATOM     19  C   UNL A   1      32.917  29.252  25.011  1.00  0.00     0.081 C 
ENDBRANCH   9  12
ENDBRANCH   7   8
BRANCH   7  20
ATOM     20  C   UNL A   1      33.502  25.399  23.647  1.00  0.00     0.027 A 
ATOM     21  C   UNL A   1      33.225  24.216  22.979  1.00  0.00     0.017 A 
ATOM     22  S   UNL A   1      33.250  26.744  22.596  1.00  0.00    -0.147 S 
ATOM     23  C   UNL A   1      32.846  24.417  21.618  1.00  0.00     0.012 A 
ATOM     24  C   UNL A   1      32.835  25.749  21.278  1.00  0.00     0.065 A 
ENDBRANCH   7  20
ENDBRANCH   6   7
ENDBRANCH   4   6
ENDBRANCH   3   4
ENDBRANCH   2   3
ENDBRANCH   1   2
BRANCH   1  25
ATOM     25  O   UNL A   1      38.364  21.860  26.068  1.00  0.00    -0.374 OA
BRANCH  25  26
ATOM     26  C   UNL A   1      39.674  21.286  26.113  1.00  0.00     0.202 C 
BRANCH  26  27
ATOM     27  C   UNL A   1      40.797  22.215  26.579  1.00  0.00     0.261 C 
BRANCH  27  28
ATOM     28  O   UNL A   1      40.367  23.584  26.486  1.00  0.00    -0.460 OA
BRANCH  28  29
ATOM     29  C   UNL A   1      41.376  24.479  26.466  1.00  0.00     0.338 C 
ATOM     30  O   UNL A   1      42.380  24.449  25.776  1.00  0.00    -0.246 OA
BRANCH  29  31
ATOM     31  C   UNL A   1      40.994  25.623  27.307  1.00  0.00     0.060 A 
ATOM     32  C   UNL A   1      41.791  26.772  27.263  1.00  0.00     0.016 A 
ATOM     33  C   UNL A   1      39.938  25.521  28.214  1.00  0.00     0.016 A 
ATOM     34  C   UNL A   1      41.570  27.803  28.177  1.00  0.00     0.010 A 
ATOM     35  C   UNL A   1      39.711  26.562  29.121  1.00  0.00     0.010 A 
ATOM     36  C   UNL A   1      40.555  27.687  29.138  1.00  0.00    -0.014 A 
BRANCH  36  37
ATOM     37  C   UNL A   1      40.481  28.672  30.246  1.00  0.00     0.031 A 
ATOM     38  C   UNL A   1      39.451  29.770  30.188  1.00  0.00     0.074 A 
ATOM     39  C   UNL A   1      41.285  28.571  31.319  1.00  0.00     0.049 A 
ATOM     40  N   UNL A   1      39.186  30.706  31.064  1.00  0.00    -0.248 NA
ATOM     41  C   UNL A   1      38.604  29.812  28.985  1.00  0.00     0.031 C 
ATOM     42  C   UNL A   1      42.306  27.545  31.516  1.00  0.00     0.029 A 
ATOM     43  N   UNL A   1      41.362  29.348  32.448  1.00  0.00    -0.354 N 
ATOM     44  C   UNL A   1      38.140  31.444  30.524  1.00  0.00     0.074 A 
ATOM     45  C   UNL A   1      37.840  30.867  29.230  1.00  0.00     0.031 C 
ATOM     46  C   UNL A   1      42.906  27.752  32.702  1.00  0.00     0.029 A 
ATOM     47  C   UNL A   1      42.325  28.936  33.334  1.00  0.00     0.049 A 
ATOM     48  H   UNL A   1      40.779  30.125  32.608  1.00  0.00     0.167 HD
ATOM     49  C   UNL A   1      37.478  32.498  31.058  1.00  0.00     0.037 A 
ATOM     50  C   UNL A   1      42.702  29.459  34.517  1.00  0.00     0.037 A 
ATOM     51  C   UNL A   1      37.772  33.086  32.337  1.00  0.00     0.049 A 
ATOM     52  C   UNL A   1      42.004  30.677  35.054  1.00  0.00     0.074 A 
ATOM     53  C   UNL A   1      37.140  34.145  32.967  1.00  0.00     0.029 A 
ATOM     54  N   UNL A   1      38.792  32.672  33.178  1.00  0.00    -0.354 N 
ATOM     55  N   UNL A   1      40.994  31.343  34.551  1.00  0.00    -0.248 NA
ATOM     56  C   UNL A   1      42.502  31.218  36.330  1.00  0.00     0.031 C 
ATOM     57  C   UNL A   1      37.801  34.394  34.175  1.00  0.00     0.029 A 
ATOM     58  C   UNL A   1      38.823  33.468  34.311  1.00  0.00     0.049 A 
ATOM     59  H   UNL A   1      39.405  31.922  32.998  1.00  0.00     0.167 HD
ATOM     60  C   UNL A   1      40.720  32.362  35.454  1.00  0.00     0.074 A 
ATOM     61  C   UNL A   1      41.665  32.225  36.542  1.00  0.00     0.031 C 
ATOM     62  C   UNL A   1      39.766  33.322  35.389  1.00  0.00     0.037 A 
BRANCH  49  63
ATOM     63  C   UNL A   1      36.367  33.090  30.244  1.00  0.00     0.057 A 
ATOM     64  C   UNL A   1      36.625  33.942  29.164  1.00  0.00     0.134 A 
ATOM     65  C   UNL A   1      35.031  32.786  30.528  1.00  0.00     0.134 A 
ATOM     66  F   UNL A   1      37.885  34.281  28.850  1.00  0.00    -0.206 F 
ATOM     67  C   UNL A   1      35.590  34.489  28.405  1.00  0.00     0.040 A 
ATOM     68  C   UNL A   1      33.988  33.311  29.764  1.00  0.00     0.040 A 
ATOM     69  F   UNL A   1      34.719  31.972  31.548  1.00  0.00    -0.206 F 
ATOM     70  C   UNL A   1      34.266  34.169  28.702  1.00  0.00     0.006 A 
ENDBRANCH  49  63
BRANCH  50  71
ATOM     71  C   UNL A   1      43.800  28.825  35.286  1.00  0.00     0.057 A 
ATOM     72  C   UNL A   1      45.137  29.147  35.032  1.00  0.00     0.134 A 
ATOM     73  C   UNL A   1      43.538  27.874  36.279  1.00  0.00     0.134 A 
ATOM     74  F   UNL A   1      45.449  30.032  34.075  1.00  0.00    -0.206 F 
ATOM     75  C   UNL A   1      46.179  28.539  35.735  1.00  0.00     0.040 A 
ATOM     76  C   UNL A   1      44.568  27.273  37.002  1.00  0.00     0.040 A 
ATOM     77  F   UNL A   1      42.275  27.521  36.561  1.00  0.00    -0.206 F 
ATOM     78  C   UNL A   1      45.894  27.603  36.729  1.00  0.00     0.006 A 
ENDBRANCH  50  71
BRANCH  62  79
ATOM     79  C   UNL A   1      39.679  34.285  36.534  1.00  0.00     0.057 A 
ATOM     80  C   UNL A   1      40.271  35.552  36.477  1.00  0.00     0.134 A 
ATOM     81  C   UNL A   1      38.964  33.955  37.693  1.00  0.00     0.134 A 
ATOM     82  F   UNL A   1      40.980  35.924  35.400  1.00  0.00    -0.206 F 
ATOM     83  C   UNL A   1      40.167  36.453  37.538  1.00  0.00     0.040 A 
ATOM     84  C   UNL A   1      38.838  34.853  38.753  1.00  0.00     0.040 A 
ATOM     85  F   UNL A   1      38.369  32.758  37.808  1.00  0.00    -0.206 F 
ATOM     86  C   UNL A   1      39.444  36.107  38.678  1.00  0.00     0.006 A 
ENDBRANCH  62  79
ENDBRANCH  36  37
ENDBRANCH  29  31
ENDBRANCH  28  29
ENDBRANCH  27  28
ENDBRANCH  26  27
ENDBRANCH  25  26
ENDBRANCH   1  25
TORSDOF 18
ENDMDL
MODEL 2
REMARK VINA RESULT:      -9.9      4.036      7.695
REMARK SMILES C[C@H]1[NH2+]CC[C@@H]1C(=O)N[C@@H](CC(=O)OCCOCCOC(=O)c1ccc(-c2c3nc(c(-c4c(F)cccc4F)c4ccc([nH]4)c(-c4c(F)cccc4F)c4nc(c(-c5c(F)cccc5F)c5ccc2[nH]5)C=C4)C=C3)cc1)c1cccs1
REMARK SMILES IDX 16 1 15 2 14 3 12 4 13 5 11 6 10 7 9 8 7 9 8 10 6 12 1 13
REMARK SMILES IDX 2 14 3 15 4 16 5 19 77 20 78 21 81 22 79 23 80 24 17 25
REMARK SMILES IDX 18 26 19 27 20 28 21 29 22 30 23 31 24 32 76 33 25 34 75 35
REMARK SMILES IDX 26 36 27 37 28 38 69 39 29 40 74 41 68 42 70 43 30 44 73 45
REMARK SMILES IDX 67 46 66 47 31 49 57 50 40 51 56 52 41 53 44 54 55 55 71 56
REMARK SMILES IDX 42 57 43 58 54 60 72 61 45 62 32 63 33 64 38 65 34 66 35 67
REMARK SMILES IDX 37 68 39 69 36 70 58 71 59 72 64 73 60 74 61 75 63 76 65 77
REMARK SMILES IDX 62 78 46 79 47 80 52 81 48 82 49 83 51 84 53 85 50 86
REMARK H PARENT 9 11 3 17 3 18 70 48 44 59
REMARK Flexibility Score: inf
ROOT
ATOM      1  C   UNL A   1      33.665  20.566  25.218  1.00  0.00     0.202 C 
ENDROOT
BRANCH   1   2
ATOM      2  C   UNL A   1      33.479  22.014  25.693  1.00  0.00     0.261 C 
BRANCH   2   3
ATOM      3  O   UNL A   1      32.141  22.542  25.591  1.00  0.00    -0.463 OA
BRANCH   3   4
ATOM      4  C   UNL A   1      31.854  23.508  26.499  1.00  0.00     0.308 C 
ATOM      5  O   UNL A   1      31.414  23.294  27.626  1.00  0.00    -0.252 OA
BRANCH   4   6
ATOM      6  C   UNL A   1      32.053  24.925  26.029  1.00  0.00     0.153 C 
BRANCH   6   7
ATOM      7  C   UNL A   1      33.235  25.349  25.161  1.00  0.00     0.133 C 
BRANCH   7   8
ATOM      8  N   UNL A   1      34.025  26.427  25.721  1.00  0.00    -0.347 N 
ATOM      9  C   UNL A   1      33.634  27.598  26.309  1.00  0.00     0.229 C 
ATOM     10  O   UNL A   1      34.521  28.244  26.869  1.00  0.00    -0.275 OA
ATOM     11  H   UNL A   1      34.999  26.294  25.673  1.00  0.00     0.164 HD
BRANCH   9  12
ATOM     12  C   UNL A   1      32.198  28.125  26.145  1.00  0.00     0.142 C 
ATOM     13  C   UNL A   1      30.753  28.784  24.160  1.00  0.00     0.076 C 
ATOM     14  C   UNL A   1      32.059  29.048  24.915  1.00  0.00     0.192 C 
ATOM     15  N   UNL A   1      32.057  30.441  25.409  1.00  0.00    -0.343 N 
ATOM     16  C   UNL A   1      32.105  30.407  26.865  1.00  0.00     0.261 C 
ATOM     17  H   UNL A   1      31.206  30.915  25.103  1.00  0.00     0.346 HD
ATOM     18  H   UNL A   1      32.862  30.948  25.042  1.00  0.00     0.346 HD
ATOM     19  C   UNL A   1      31.658  29.019  27.254  1.00  0.00     0.081 C 
ENDBRANCH   9  12
ENDBRANCH   7   8
BRANCH   7  20
ATOM     20  C   UNL A   1      32.912  25.604  23.694  1.00  0.00     0.027 A 
ATOM     21  C   UNL A   1      33.661  26.333  22.782  1.00  0.00     0.017 A 
ATOM     22  S   UNL A   1      31.405  25.146  22.989  1.00  0.00    -0.147 S 
ATOM     23  C   UNL A   1      32.987  26.538  21.541  1.00  0.00     0.012 A 
ATOM     24  C   UNL A   1      31.742  25.955  21.529  1.00  0.00     0.065 A 
ENDBRANCH   7  20
ENDBRANCH   6   7
ENDBRANCH   4   6
ENDBRANCH   3   4
ENDBRANCH   2   3
ENDBRANCH   1   2
BRANCH   1  25
ATOM     25  O   UNL A   1      34.953  20.194  24.741  1.00  0.00    -0.374 OA
BRANCH  25  26
ATOM     26  C   UNL A   1      36.078  20.919  25.246  1.00  0.00     0.202 C 
BRANCH  26  27
ATOM     27  C   UNL A   1      37.445  20.261  25.047  1.00  0.00     0.261 C 
BRANCH  27  28
ATOM     28  O   UNL A   1      38.480  21.255  25.129  1.00  0.00    -0.460 OA
BRANCH  28  29
ATOM     29  C   UNL A   1      39.427  20.991  26.052  1.00  0.00     0.338 C 
ATOM     30  O   UNL A   1      39.999  19.931  26.246  1.00  0.00    -0.246 OA
BRANCH  29  31
ATOM     31  C   UNL A   1      39.804  22.256  26.702  1.00  0.00     0.060 A 
ATOM     32  C   UNL A   1      39.143  23.424  26.306  1.00  0.00     0.016 A 
ATOM     33  C   UNL A   1      40.871  22.306  27.598  1.00  0.00     0.016 A 
ATOM     34  C   UNL A   1      39.597  24.662  26.763  1.00  0.00     0.010 A 
ATOM     35  C   UNL A   1      41.316  23.549  28.064  1.00  0.00     0.010 A 
ATOM     36  C   UNL A   1      40.710  24.736  27.613  1.00  0.00    -0.014 A 
BRANCH  36  37
ATOM     37  C   UNL A   1      41.325  26.056  27.901  1.00  0.00     0.031 A 
ATOM     38  C   UNL A   1      42.724  26.337  27.419  1.00  0.00     0.074 A 
ATOM     39  C   UNL A   1      40.637  27.017  28.541  1.00  0.00     0.049 A 
ATOM     40  N   UNL A   1      43.433  27.434  27.523  1.00  0.00    -0.248 NA
ATOM     41  C   UNL A   1      43.411  25.240  26.721  1.00  0.00     0.031 C 
ATOM     42  C   UNL A   1      39.269  26.888  29.038  1.00  0.00     0.029 A 
ATOM     43  N   UNL A   1      41.001  28.296  28.880  1.00  0.00    -0.354 N 
ATOM     44  C   UNL A   1      44.644  27.161  26.901  1.00  0.00     0.074 A 
ATOM     45  C   UNL A   1      44.587  25.787  26.449  1.00  0.00     0.031 C 
ATOM     46  C   UNL A   1      38.906  28.047  29.616  1.00  0.00     0.029 A 
ATOM     47  C   UNL A   1      40.022  28.989  29.546  1.00  0.00     0.049 A 
ATOM     48  H   UNL A   1      41.881  28.680  28.663  1.00  0.00     0.167 HD
ATOM     49  C   UNL A   1      45.704  27.982  26.708  1.00  0.00     0.037 A 
ATOM     50  C   UNL A   1      40.028  30.238  30.051  1.00  0.00     0.037 A 
ATOM     51  C   UNL A   1      45.778  29.345  27.159  1.00  0.00     0.049 A 
ATOM     52  C   UNL A   1      41.247  31.104  29.893  1.00  0.00     0.074 A 
ATOM     53  C   UNL A   1      46.806  30.256  26.992  1.00  0.00     0.029 A 
ATOM     54  N   UNL A   1      44.784  29.990  27.879  1.00  0.00    -0.354 N 
ATOM     55  N   UNL A   1      42.371  30.847  29.271  1.00  0.00    -0.248 NA
ATOM     56  C   UNL A   1      41.195  32.440  30.510  1.00  0.00     0.031 C 
ATOM     57  C   UNL A   1      46.449  31.444  27.641  1.00  0.00     0.029 A 
ATOM     58  C   UNL A   1      45.184  31.280  28.182  1.00  0.00     0.049 A 
ATOM     59  H   UNL A   1      43.922  29.591  28.135  1.00  0.00     0.167 HD
ATOM     60  C   UNL A   1      43.149  31.990  29.400  1.00  0.00     0.074 A 
ATOM     61  C   UNL A   1      42.368  32.948  30.154  1.00  0.00     0.031 C 
ATOM     62  C   UNL A   1      44.398  32.226  28.931  1.00  0.00     0.037 A 
BRANCH  49  63
ATOM     63  C   UNL A   1      46.884  27.412  25.978  1.00  0.00     0.057 A 
ATOM     64  C   UNL A   1      47.905  26.735  26.655  1.00  0.00     0.134 A 
ATOM     65  C   UNL A   1      46.987  27.522  24.587  1.00  0.00     0.134 A 
ATOM     66  F   UNL A   1      47.870  26.608  27.990  1.00  0.00    -0.206 F 
ATOM     67  C   UNL A   1      49.000  26.201  25.973  1.00  0.00     0.040 A 
ATOM     68  C   UNL A   1      48.067  26.977  23.893  1.00  0.00     0.040 A 
ATOM     69  F   UNL A   1      46.038  28.157  23.882  1.00  0.00    -0.206 F 
ATOM     70  C   UNL A   1      49.080  26.318  24.586  1.00  0.00     0.006 A 
ENDBRANCH  49  63
BRANCH  50  71
ATOM     71  C   UNL A   1      38.829  30.754  30.753  1.00  0.00     0.057 A 
ATOM     72  C   UNL A   1      38.647  30.539  32.123  1.00  0.00     0.134 A 
ATOM     73  C   UNL A   1      37.832  31.459  30.069  1.00  0.00     0.134 A 
ATOM     74  F   UNL A   1      39.556  29.847  32.825  1.00  0.00    -0.206 F 
ATOM     75  C   UNL A   1      37.511  31.001  32.789  1.00  0.00     0.040 A 
ATOM     76  C   UNL A   1      36.700  31.943  30.725  1.00  0.00     0.040 A 
ATOM     77  F   UNL A   1      37.949  31.690  28.753  1.00  0.00    -0.206 F 
ATOM     78  C   UNL A   1      36.536  31.712  32.089  1.00  0.00     0.006 A 
ENDBRANCH  50  71
BRANCH  62  79
ATOM     79  C   UNL A   1      44.989  33.578  29.197  1.00  0.00     0.057 A 
ATOM     80  C   UNL A   1      44.753  34.664  28.345  1.00  0.00     0.134 A 
ATOM     81  C   UNL A   1      45.771  33.805  30.336  1.00  0.00     0.134 A 
ATOM     82  F   UNL A   1      44.023  34.508  27.231  1.00  0.00    -0.206 F 
ATOM     83  C   UNL A   1      45.287  35.926  28.610  1.00  0.00     0.040 A 
ATOM     84  C   UNL A   1      46.295  35.067  30.621  1.00  0.00     0.040 A 
ATOM     85  F   UNL A   1      46.029  32.808  31.195  1.00  0.00    -0.206 F 
ATOM     86  C   UNL A   1      46.057  36.132  29.754  1.00  0.00     0.006 A 
ENDBRANCH  62  79
ENDBRANCH  36  37
ENDBRANCH  29  31
ENDBRANCH  28  29
ENDBRANCH  27  28
ENDBRANCH  26  27
ENDBRANCH  25  26
ENDBRANCH   1  25
TORSDOF 18
ENDMDL
MODEL 3
REMARK VINA RESULT:      -9.8      4.634      9.705
REMARK SMILES C[C@H]1[NH2+]CC[C@@H]1C(=O)N[C@@H](CC(=O)OCCOCCOC(=O)c1ccc(-c2c3nc(c(-c4c(F)cccc4F)c4ccc([nH]4)c(-c4c(F)cccc4F)c4nc(c(-c5c(F)cccc5F)c5ccc2[nH]5)C=C4)C=C3)cc1)c1cccs1
REMARK SMILES IDX 16 1 15 2 14 3 12 4 13 5 11 6 10 7 9 8 7 9 8 10 6 12 1 13
REMARK SMILES IDX 2 14 3 15 4 16 5 19 77 20 78 21 81 22 79 23 80 24 17 25
REMARK SMILES IDX 18 26 19 27 20 28 21 29 22 30 23 31 24 32 76 33 25 34 75 35
REMARK SMILES IDX 26 36 27 37 28 38 69 39 29 40 74 41 68 42 70 43 30 44 73 45
REMARK SMILES IDX 67 46 66 47 31 49 57 50 40 51 56 52 41 53 44 54 55 55 71 56
REMARK SMILES IDX 42 57 43 58 54 60 72 61 45 62 32 63 33 64 38 65 34 66 35 67
REMARK SMILES IDX 37 68 39 69 36 70 58 71 59 72 64 73 60 74 61 75 63 76 65 77
REMARK SMILES IDX 62 78 46 79 47 80 52 81 48 82 49 83 51 84 53 85 50 86
REMARK H PARENT 9 11 3 17 3 18 70 48 44 59
REMARK Flexibility Score: inf
ROOT
ATOM      1  C   UNL A   1      34.318  32.055  28.103  1.00  0.00     0.202 C 
ENDROOT
BRANCH   1   2
ATOM      2  C   UNL A   1      33.519  30.877  27.525  1.00  0.00     0.261 C 
BRANCH   2   3
ATOM      3  O   UNL A   1      34.149  29.584  27.619  1.00  0.00    -0.463 OA
BRANCH   3   4
ATOM      4  C   UNL A   1      33.823  28.734  26.613  1.00  0.00     0.308 C 
ATOM      5  O   UNL A   1      34.349  28.737  25.502  1.00  0.00    -0.252 OA
BRANCH   4   6
ATOM      6  C   UNL A   1      32.696  27.779  26.905  1.00  0.00     0.153 C 
BRANCH   6   7
ATOM      7  C   UNL A   1      32.251  26.700  25.920  1.00  0.00     0.133 C 
BRANCH   7   8
ATOM      8  N   UNL A   1      33.327  26.148  25.121  1.00  0.00    -0.347 N 
ATOM      9  C   UNL A   1      33.571  24.860  24.736  1.00  0.00     0.229 C 
ATOM     10  O   UNL A   1      34.460  24.706  23.896  1.00  0.00    -0.275 OA
ATOM     11  H   UNL A   1      33.986  26.807  24.803  1.00  0.00     0.164 HD
BRANCH   9  12
ATOM     12  C   UNL A   1      32.867  23.679  25.427  1.00  0.00     0.142 C 
ATOM     13  C   UNL A   1      33.061  22.570  27.707  1.00  0.00     0.076 C 
ATOM     14  C   UNL A   1      33.800  22.953  26.420  1.00  0.00     0.192 C 
ATOM     15  N   UNL A   1      34.277  21.722  25.755  1.00  0.00    -0.343 N 
ATOM     16  C   UNL A   1      33.625  21.626  24.455  1.00  0.00     0.261 C 
ATOM     17  H   UNL A   1      34.038  20.908  26.321  1.00  0.00     0.346 HD
ATOM     18  H   UNL A   1      35.290  21.752  25.639  1.00  0.00     0.346 HD
ATOM     19  C   UNL A   1      32.416  22.526  24.539  1.00  0.00     0.081 C 
ENDBRANCH   9  12
ENDBRANCH   7   8
BRANCH   7  20
ATOM     20  C   UNL A   1      31.047  27.055  25.058  1.00  0.00     0.027 A 
ATOM     21  C   UNL A   1      29.960  26.248  24.756  1.00  0.00     0.017 A 
ATOM     22  S   UNL A   1      30.964  28.520  24.150  1.00  0.00    -0.147 S 
ATOM     23  C   UNL A   1      29.099  26.814  23.771  1.00  0.00     0.012 A 
ATOM     24  C   UNL A   1      29.541  28.044  23.346  1.00  0.00     0.065 A 
ENDBRANCH   7  20
ENDBRANCH   6   7
ENDBRANCH   4   6
ENDBRANCH   3   4
ENDBRANCH   2   3
ENDBRANCH   1   2
BRANCH   1  25
ATOM     25  O   UNL A   1      33.859  32.622  29.325  1.00  0.00    -0.374 OA
BRANCH  25  26
ATOM     26  C   UNL A   1      34.612  33.709  29.871  1.00  0.00     0.202 C 
BRANCH  26  27
ATOM     27  C   UNL A   1      34.772  33.717  31.392  1.00  0.00     0.261 C 
BRANCH  27  28
ATOM     28  O   UNL A   1      34.830  32.367  31.883  1.00  0.00    -0.460 OA
BRANCH  28  29
ATOM     29  C   UNL A   1      35.850  32.133  32.734  1.00  0.00     0.338 C 
ATOM     30  O   UNL A   1      35.910  32.420  33.917  1.00  0.00    -0.246 OA
BRANCH  29  31
ATOM     31  C   UNL A   1      36.847  31.302  32.041  1.00  0.00     0.060 A 
ATOM     32  C   UNL A   1      37.997  30.926  32.744  1.00  0.00     0.016 A 
ATOM     33  C   UNL A   1      36.707  31.001  30.687  1.00  0.00     0.016 A 
ATOM     34  C   UNL A   1      39.045  30.298  32.070  1.00  0.00     0.010 A 
ATOM     35  C   UNL A   1      37.755  30.360  30.016  1.00  0.00     0.010 A 
ATOM     36  C   UNL A   1      38.947  30.047  30.693  1.00  0.00    -0.014 A 
BRANCH  36  37
ATOM     37  C   UNL A   1      40.148  29.598  29.944  1.00  0.00     0.031 A 
ATOM     38  C   UNL A   1      41.289  30.559  29.740  1.00  0.00     0.074 A 
ATOM     39  C   UNL A   1      40.251  28.338  29.488  1.00  0.00     0.049 A 
ATOM     40  N   UNL A   1      42.445  30.363  29.155  1.00  0.00    -0.248 NA
ATOM     41  C   UNL A   1      41.106  31.919  30.272  1.00  0.00     0.031 C 
ATOM     42  C   UNL A   1      39.234  27.299  29.639  1.00  0.00     0.029 A 
ATOM     43  N   UNL A   1      41.268  27.719  28.806  1.00  0.00    -0.354 N 
ATOM     44  C   UNL A   1      43.127  31.569  29.254  1.00  0.00     0.074 A 
ATOM     45  C   UNL A   1      42.246  32.500  29.925  1.00  0.00     0.031 C 
ATOM     46  C   UNL A   1      39.682  26.167  29.069  1.00  0.00     0.029 A 
ATOM     47  C   UNL A   1      41.006  26.409  28.496  1.00  0.00     0.049 A 
ATOM     48  H   UNL A   1      42.108  28.173  28.563  1.00  0.00     0.167 HD
ATOM     49  C   UNL A   1      44.380  31.873  28.837  1.00  0.00     0.037 A 
ATOM     50  C   UNL A   1      41.746  25.508  27.821  1.00  0.00     0.037 A 
ATOM     51  C   UNL A   1      45.262  30.961  28.160  1.00  0.00     0.049 A 
ATOM     52  C   UNL A   1      43.103  25.893  27.299  1.00  0.00     0.074 A 
ATOM     53  C   UNL A   1      46.555  31.178  27.717  1.00  0.00     0.029 A 
ATOM     54  N   UNL A   1      44.935  29.659  27.818  1.00  0.00    -0.354 N 
ATOM     55  N   UNL A   1      43.750  27.024  27.430  1.00  0.00    -0.248 NA
ATOM     56  C   UNL A   1      43.832  24.870  26.531  1.00  0.00     0.031 C 
ATOM     57  C   UNL A   1      47.000  30.017  27.075  1.00  0.00     0.029 A 
ATOM     58  C   UNL A   1      45.994  29.067  27.149  1.00  0.00     0.049 A 
ATOM     59  H   UNL A   1      44.078  29.218  28.020  1.00  0.00     0.167 HD
ATOM     60  C   UNL A   1      44.968  26.844  26.786  1.00  0.00     0.074 A 
ATOM     61  C   UNL A   1      44.974  25.491  26.268  1.00  0.00     0.031 C 
ATOM     62  C   UNL A   1      45.991  27.720  26.641  1.00  0.00     0.037 A 
BRANCH  49  63
ATOM     63  C   UNL A   1      44.865  33.268  29.097  1.00  0.00     0.057 A 
ATOM     64  C   UNL A   1      44.614  34.310  28.197  1.00  0.00     0.134 A 
ATOM     65  C   UNL A   1      45.569  33.574  30.267  1.00  0.00     0.134 A 
ATOM     66  F   UNL A   1      43.956  34.076  27.051  1.00  0.00    -0.206 F 
ATOM     67  C   UNL A   1      45.063  35.608  28.443  1.00  0.00     0.040 A 
ATOM     68  C   UNL A   1      46.006  34.872  30.533  1.00  0.00     0.040 A 
ATOM     69  F   UNL A   1      45.838  32.619  31.170  1.00  0.00    -0.206 F 
ATOM     70  C   UNL A   1      45.758  35.893  29.618  1.00  0.00     0.006 A 
ENDBRANCH  49  63
BRANCH  50  71
ATOM     71  C   UNL A   1      41.221  24.139  27.603  1.00  0.00     0.057 A 
ATOM     72  C   UNL A   1      41.720  23.051  28.328  1.00  0.00     0.134 A 
ATOM     73  C   UNL A   1      40.223  23.884  26.656  1.00  0.00     0.134 A 
ATOM     74  F   UNL A   1      42.695  23.231  29.230  1.00  0.00    -0.206 F 
ATOM     75  C   UNL A   1      41.249  21.755  28.114  1.00  0.00     0.040 A 
ATOM     76  C   UNL A   1      39.729  22.597  26.445  1.00  0.00     0.040 A 
ATOM     77  F   UNL A   1      39.712  24.886  25.926  1.00  0.00    -0.206 F 
ATOM     78  C   UNL A   1      40.245  21.527  27.173  1.00  0.00     0.006 A 
ENDBRANCH  50  71
BRANCH  62  79
ATOM     79  C   UNL A   1      47.212  27.239  25.916  1.00  0.00     0.057 A 
ATOM     80  C   UNL A   1      47.389  27.461  24.545  1.00  0.00     0.134 A 
ATOM     81  C   UNL A   1      48.238  26.579  26.604  1.00  0.00     0.134 A 
ATOM     82  F   UNL A   1      46.438  28.076  23.828  1.00  0.00    -0.206 F 
ATOM     83  C   UNL A   1      48.539  27.031  23.881  1.00  0.00     0.040 A 
ATOM     84  C   UNL A   1      49.400  26.160  25.955  1.00  0.00     0.040 A 
ATOM     85  F   UNL A   1      48.131  26.341  27.920  1.00  0.00    -0.206 F 
ATOM     86  C   UNL A   1      49.551  26.383  24.587  1.00  0.00     0.006 A 
ENDBRANCH  62  79
ENDBRANCH  36  37
ENDBRANCH  29  31
ENDBRANCH  28  29
ENDBRANCH  27  28
ENDBRANCH  26  27
ENDBRANCH  25  26
ENDBRANCH   1  25
TORSDOF 18
ENDMDL
