MODEL 1
REMARK VINA RESULT:     -11.3      0.000      0.000
REMARK SMILES CCCc1cc2c(cc1Cl)C=C(C(=O)OCCOCCOC(=O)c1ccc(-c3c4nc(c(-c5c(F)cccc5F)c5ccc([nH]5)c(-c5c(F)cccc5F)c5nc(c(-c6c(F)cccc6F)c6ccc3[nH]6)C=C5)C=C4)cc1)[C@H](C(F)(F)F)O2
REMARK SMILES IDX 18 1 17 2 16 3 15 4 13 5 14 6 12 7 4 8 5 9 9 10 6 11 8 12
REMARK SMILES IDX 10 13 7 14 83 15 11 16 78 17 3 18 2 19 1 20 79 21 80 22
REMARK SMILES IDX 81 23 82 24 19 25 20 26 21 27 22 28 23 29 24 30 25 31 77 32
REMARK SMILES IDX 26 33 76 34 27 35 28 36 29 37 70 38 30 39 75 40 69 41 71 42
REMARK SMILES IDX 31 43 74 44 68 45 67 46 32 48 58 49 41 50 57 51 42 52 45 53
REMARK SMILES IDX 56 54 72 55 43 56 44 57 55 59 73 60 46 61 33 62 34 63 39 64
REMARK SMILES IDX 35 65 36 66 38 67 40 68 37 69 59 70 60 71 65 72 61 73 62 74
REMARK SMILES IDX 64 75 66 76 63 77 47 78 48 79 53 80 49 81 50 82 52 83 54 84
REMARK SMILES IDX 51 85
REMARK H PARENT 71 47 45 58
REMARK Flexibility Score: inf
ROOT
ATOM      1  O   UNL A   1      32.451  30.897  26.983  1.00  0.00    -0.374 OA
ENDROOT
BRANCH   1   2
ATOM      2  C   UNL A   1      31.790  29.775  26.402  1.00  0.00     0.202 C 
BRANCH   2   3
ATOM      3  C   UNL A   1      32.187  29.412  24.969  1.00  0.00     0.261 C 
BRANCH   3   4
ATOM      4  O   UNL A   1      33.451  28.729  24.951  1.00  0.00    -0.460 OA
BRANCH   4   5
ATOM      5  C   UNL A   1      33.822  28.265  23.742  1.00  0.00     0.338 C 
ATOM      6  O   UNL A   1      34.343  28.913  22.849  1.00  0.00    -0.246 OA
BRANCH   5   7
ATOM      7  C   UNL A   1      33.625  26.804  23.676  1.00  0.00     0.087 C 
ATOM      8  C   UNL A   1      34.274  21.969  24.830  1.00  0.00    -0.026 A 
ATOM      9  C   UNL A   1      34.036  22.677  23.639  1.00  0.00     0.052 A 
ATOM     10  C   UNL A   1      34.113  22.660  26.047  1.00  0.00     0.045 A 
ATOM     11  C   UNL A   1      33.814  24.053  23.651  1.00  0.00     0.128 A 
ATOM     12  C   UNL A   1      33.837  24.029  26.062  1.00  0.00     0.032 A 
ATOM     13  Cl  UNL A   1      34.300  21.873  27.576  1.00  0.00    -0.084 Cl
ATOM     14  C   UNL A   1      33.738  24.733  24.862  1.00  0.00     0.019 A 
ATOM     15  O   UNL A   1      33.805  24.669  22.431  1.00  0.00    -0.475 OA
ATOM     16  C   UNL A   1      33.710  26.182  24.860  1.00  0.00     0.027 C 
ATOM     17  C   UNL A   1      33.430  26.076  22.370  1.00  0.00     0.316 C 
BRANCH   8  18
ATOM     18  C   UNL A   1      34.739  20.526  24.817  1.00  0.00     0.037 C 
BRANCH  18  19
ATOM     19  C   UNL A   1      33.692  19.427  25.055  1.00  0.00     0.001 C 
ATOM     20  C   UNL A   1      32.572  19.401  24.020  1.00  0.00     0.004 C 
ENDBRANCH  18  19
ENDBRANCH   8  18
BRANCH  17  21
ATOM     21  C   UNL A   1      32.010  26.165  21.775  1.00  0.00     0.430 C 
ATOM     22  F   UNL A   1      31.476  27.402  21.879  1.00  0.00    -0.167 F 
ATOM     23  F   UNL A   1      32.020  25.873  20.449  1.00  0.00    -0.167 F 
ATOM     24  F   UNL A   1      31.153  25.299  22.366  1.00  0.00    -0.167 F 
ENDBRANCH  17  21
ENDBRANCH   5   7
ENDBRANCH   4   5
ENDBRANCH   3   4
ENDBRANCH   2   3
ENDBRANCH   1   2
BRANCH   1  25
ATOM     25  C   UNL A   1      31.780  32.160  26.938  1.00  0.00     0.202 C 
BRANCH  25  26
ATOM     26  C   UNL A   1      32.639  33.422  27.085  1.00  0.00     0.261 C 
BRANCH  26  27
ATOM     27  O   UNL A   1      32.260  34.196  28.238  1.00  0.00    -0.460 OA
BRANCH  27  28
ATOM     28  C   UNL A   1      33.226  35.004  28.736  1.00  0.00     0.338 C 
ATOM     29  O   UNL A   1      33.135  36.194  28.995  1.00  0.00    -0.246 OA
BRANCH  28  30
ATOM     30  C   UNL A   1      34.382  34.181  29.147  1.00  0.00     0.060 A 
ATOM     31  C   UNL A   1      35.685  34.493  28.757  1.00  0.00     0.016 A 
ATOM     32  C   UNL A   1      34.132  33.072  29.965  1.00  0.00     0.016 A 
ATOM     33  C   UNL A   1      36.745  33.704  29.217  1.00  0.00     0.010 A 
ATOM     34  C   UNL A   1      35.190  32.283  30.419  1.00  0.00     0.010 A 
ATOM     35  C   UNL A   1      36.507  32.606  30.065  1.00  0.00    -0.014 A 
BRANCH  35  36
ATOM     36  C   UNL A   1      37.637  31.855  30.667  1.00  0.00     0.031 A 
ATOM     37  C   UNL A   1      38.106  32.138  32.063  1.00  0.00     0.074 A 
ATOM     38  C   UNL A   1      38.270  30.931  29.919  1.00  0.00     0.049 A 
ATOM     39  N   UNL A   1      39.073  31.568  32.739  1.00  0.00    -0.248 NA
ATOM     40  C   UNL A   1      37.407  33.206  32.792  1.00  0.00     0.031 C 
ATOM     41  C   UNL A   1      37.928  30.588  28.539  1.00  0.00     0.029 A 
ATOM     42  N   UNL A   1      39.334  30.116  30.213  1.00  0.00    -0.354 N 
ATOM     43  C   UNL A   1      39.086  32.191  33.980  1.00  0.00     0.074 A 
ATOM     44  C   UNL A   1      38.067  33.220  33.942  1.00  0.00     0.031 C 
ATOM     45  C   UNL A   1      38.751  29.618  28.112  1.00  0.00     0.029 A 
ATOM     46  C   UNL A   1      39.701  29.297  29.172  1.00  0.00     0.049 A 
ATOM     47  H   UNL A   1      39.790  30.118  31.084  1.00  0.00     0.167 HD
ATOM     48  C   UNL A   1      39.865  31.917  35.056  1.00  0.00     0.037 A 
ATOM     49  C   UNL A   1      40.698  28.396  29.082  1.00  0.00     0.037 A 
ATOM     50  C   UNL A   1      40.900  30.913  35.081  1.00  0.00     0.049 A 
ATOM     51  C   UNL A   1      41.599  28.173  30.264  1.00  0.00     0.074 A 
ATOM     52  C   UNL A   1      41.723  30.546  36.131  1.00  0.00     0.029 A 
ATOM     53  N   UNL A   1      41.269  30.129  33.996  1.00  0.00    -0.354 N 
ATOM     54  N   UNL A   1      41.553  28.714  31.458  1.00  0.00    -0.248 NA
ATOM     55  C   UNL A   1      42.695  27.209  30.086  1.00  0.00     0.031 C 
ATOM     56  C   UNL A   1      42.628  29.585  35.668  1.00  0.00     0.029 A 
ATOM     57  C   UNL A   1      42.329  29.306  34.345  1.00  0.00     0.049 A 
ATOM     58  H   UNL A   1      40.841  30.154  33.110  1.00  0.00     0.167 HD
ATOM     59  C   UNL A   1      42.587  28.133  32.180  1.00  0.00     0.074 A 
ATOM     60  C   UNL A   1      43.234  27.186  31.295  1.00  0.00     0.031 C 
ATOM     61  C   UNL A   1      42.965  28.362  33.461  1.00  0.00     0.037 A 
BRANCH  48  62
ATOM     62  C   UNL A   1      39.632  32.727  36.300  1.00  0.00     0.057 A 
ATOM     63  C   UNL A   1      40.389  33.875  36.565  1.00  0.00     0.134 A 
ATOM     64  C   UNL A   1      38.679  32.349  37.258  1.00  0.00     0.134 A 
ATOM     65  F   UNL A   1      41.327  34.288  35.699  1.00  0.00    -0.206 F 
ATOM     66  C   UNL A   1      40.205  34.620  37.731  1.00  0.00     0.040 A 
ATOM     67  C   UNL A   1      38.467  33.102  38.415  1.00  0.00     0.040 A 
ATOM     68  F   UNL A   1      37.916  31.262  37.066  1.00  0.00    -0.206 F 
ATOM     69  C   UNL A   1      39.235  34.238  38.656  1.00  0.00     0.006 A 
ENDBRANCH  48  62
BRANCH  49  70
ATOM     70  C   UNL A   1      40.903  27.629  27.826  1.00  0.00     0.057 A 
ATOM     71  C   UNL A   1      41.715  28.117  26.795  1.00  0.00     0.134 A 
ATOM     72  C   UNL A   1      40.324  26.368  27.649  1.00  0.00     0.134 A 
ATOM     73  F   UNL A   1      42.292  29.323  26.899  1.00  0.00    -0.206 F 
ATOM     74  C   UNL A   1      41.946  27.377  25.635  1.00  0.00     0.040 A 
ATOM     75  C   UNL A   1      40.572  25.602  26.508  1.00  0.00     0.040 A 
ATOM     76  F   UNL A   1      39.552  25.838  28.609  1.00  0.00    -0.206 F 
ATOM     77  C   UNL A   1      41.385  26.109  25.496  1.00  0.00     0.006 A 
ENDBRANCH  49  70
BRANCH  61  78
ATOM     78  C   UNL A   1      44.108  27.546  33.997  1.00  0.00     0.057 A 
ATOM     79  C   UNL A   1      43.877  26.287  34.569  1.00  0.00     0.134 A 
ATOM     80  C   UNL A   1      45.430  28.010  33.976  1.00  0.00     0.134 A 
ATOM     81  F   UNL A   1      42.635  25.784  34.630  1.00  0.00    -0.206 F 
ATOM     82  C   UNL A   1      44.917  25.524  35.102  1.00  0.00     0.040 A 
ATOM     83  C   UNL A   1      46.483  27.242  34.477  1.00  0.00     0.040 A 
ATOM     84  F   UNL A   1      45.724  29.199  33.428  1.00  0.00    -0.206 F 
ATOM     85  C   UNL A   1      46.226  25.997  35.049  1.00  0.00     0.006 A 
ENDBRANCH  61  78
ENDBRANCH  35  36
ENDBRANCH  28  30
ENDBRANCH  27  28
ENDBRANCH  26  27
ENDBRANCH  25  26
ENDBRANCH   1  25
TORSDOF 17
ENDMDL
MODEL 2
REMARK VINA RESULT:     -11.0      1.560      2.153
REMARK SMILES CCCc1cc2c(cc1Cl)C=C(C(=O)OCCOCCOC(=O)c1ccc(-c3c4nc(c(-c5c(F)cccc5F)c5ccc([nH]5)c(-c5c(F)cccc5F)c5nc(c(-c6c(F)cccc6F)c6ccc3[nH]6)C=C5)C=C4)cc1)[C@H](C(F)(F)F)O2
REMARK SMILES IDX 18 1 17 2 16 3 15 4 13 5 14 6 12 7 4 8 5 9 9 10 6 11 8 12
REMARK SMILES IDX 10 13 7 14 83 15 11 16 78 17 3 18 2 19 1 20 79 21 80 22
REMARK SMILES IDX 81 23 82 24 19 25 20 26 21 27 22 28 23 29 24 30 25 31 77 32
REMARK SMILES IDX 26 33 76 34 27 35 28 36 29 37 70 38 30 39 75 40 69 41 71 42
REMARK SMILES IDX 31 43 74 44 68 45 67 46 32 48 58 49 41 50 57 51 42 52 45 53
REMARK SMILES IDX 56 54 72 55 43 56 44 57 55 59 73 60 46 61 33 62 34 63 39 64
REMARK SMILES IDX 35 65 36 66 38 67 40 68 37 69 59 70 60 71 65 72 61 73 62 74
REMARK SMILES IDX 64 75 66 76 63 77 47 78 48 79 53 80 49 81 50 82 52 83 54 84
REMARK SMILES IDX 51 85
REMARK H PARENT 71 47 45 58
REMARK Flexibility Score: inf
ROOT
ATOM      1  O   UNL A   1      31.851  30.719  27.055  1.00  0.00    -0.374 OA
ENDROOT
BRANCH   1   2
ATOM      2  C   UNL A   1      32.005  29.621  26.159  1.00  0.00     0.202 C 
BRANCH   2   3
ATOM      3  C   UNL A   1      33.114  29.743  25.111  1.00  0.00     0.261 C 
BRANCH   3   4
ATOM      4  O   UNL A   1      33.780  28.483  24.930  1.00  0.00    -0.460 OA
BRANCH   4   5
ATOM      5  C   UNL A   1      33.829  28.051  23.655  1.00  0.00     0.338 C 
ATOM      6  O   UNL A   1      34.067  28.731  22.670  1.00  0.00    -0.246 OA
BRANCH   5   7
ATOM      7  C   UNL A   1      33.673  26.584  23.609  1.00  0.00     0.087 C 
ATOM      8  C   UNL A   1      34.396  21.790  24.883  1.00  0.00    -0.026 A 
ATOM      9  C   UNL A   1      34.190  22.470  23.670  1.00  0.00     0.052 A 
ATOM     10  C   UNL A   1      34.166  22.498  26.078  1.00  0.00     0.045 A 
ATOM     11  C   UNL A   1      33.933  23.839  23.646  1.00  0.00     0.128 A 
ATOM     12  C   UNL A   1      33.854  23.859  26.055  1.00  0.00     0.032 A 
ATOM     13  Cl  UNL A   1      34.308  21.745  27.629  1.00  0.00    -0.084 Cl
ATOM     14  C   UNL A   1      33.788  24.539  24.838  1.00  0.00     0.019 A 
ATOM     15  O   UNL A   1      33.960  24.432  22.414  1.00  0.00    -0.475 OA
ATOM     16  C   UNL A   1      33.723  25.986  24.807  1.00  0.00     0.027 C 
ATOM     17  C   UNL A   1      33.552  25.827  22.311  1.00  0.00     0.316 C 
BRANCH   8  18
ATOM     18  C   UNL A   1      34.898  20.360  24.917  1.00  0.00     0.037 C 
BRANCH  18  19
ATOM     19  C   UNL A   1      33.901  19.236  24.596  1.00  0.00     0.001 C 
ATOM     20  C   UNL A   1      32.454  19.570  24.943  1.00  0.00     0.004 C 
ENDBRANCH  18  19
ENDBRANCH   8  18
BRANCH  17  21
ATOM     21  C   UNL A   1      32.156  25.867  21.654  1.00  0.00     0.430 C 
ATOM     22  F   UNL A   1      31.303  24.965  22.188  1.00  0.00    -0.167 F 
ATOM     23  F   UNL A   1      31.572  27.081  21.826  1.00  0.00    -0.167 F 
ATOM     24  F   UNL A   1      32.211  25.637  20.322  1.00  0.00    -0.167 F 
ENDBRANCH  17  21
ENDBRANCH   5   7
ENDBRANCH   4   5
ENDBRANCH   3   4
ENDBRANCH   2   3
ENDBRANCH   1   2
BRANCH   1  25
ATOM     25  C   UNL A   1      31.272  31.921  26.540  1.00  0.00     0.202 C 
BRANCH  25  26
ATOM     26  C   UNL A   1      31.973  33.244  26.876  1.00  0.00     0.261 C 
BRANCH  26  27
ATOM     27  O   UNL A   1      32.289  33.341  28.278  1.00  0.00    -0.460 OA
BRANCH  27  28
ATOM     28  C   UNL A   1      33.083  34.384  28.620  1.00  0.00     0.338 C 
ATOM     29  O   UNL A   1      32.775  35.565  28.663  1.00  0.00    -0.246 OA
BRANCH  28  30
ATOM     30  C   UNL A   1      34.352  33.867  29.171  1.00  0.00     0.060 A 
ATOM     31  C   UNL A   1      34.385  33.031  30.287  1.00  0.00     0.016 A 
ATOM     32  C   UNL A   1      35.539  34.231  28.521  1.00  0.00     0.016 A 
ATOM     33  C   UNL A   1      35.614  32.534  30.735  1.00  0.00     0.010 A 
ATOM     34  C   UNL A   1      36.763  33.739  28.972  1.00  0.00     0.010 A 
ATOM     35  C   UNL A   1      36.809  32.869  30.071  1.00  0.00    -0.014 A 
BRANCH  35  36
ATOM     36  C   UNL A   1      38.093  32.233  30.454  1.00  0.00     0.031 A 
ATOM     37  C   UNL A   1      39.024  32.883  31.435  1.00  0.00     0.074 A 
ATOM     38  C   UNL A   1      38.437  31.068  29.872  1.00  0.00     0.049 A 
ATOM     39  N   UNL A   1      40.179  32.457  31.882  1.00  0.00    -0.248 NA
ATOM     40  C   UNL A   1      38.610  34.184  31.977  1.00  0.00     0.031 C 
ATOM     41  C   UNL A   1      37.632  30.354  28.881  1.00  0.00     0.029 A 
ATOM     42  N   UNL A   1      39.552  30.283  30.027  1.00  0.00    -0.354 N 
ATOM     43  C   UNL A   1      40.622  33.424  32.774  1.00  0.00     0.074 A 
ATOM     44  C   UNL A   1      39.636  34.487  32.761  1.00  0.00     0.031 C 
ATOM     45  C   UNL A   1      38.268  29.225  28.532  1.00  0.00     0.029 A 
ATOM     46  C   UNL A   1      39.540  29.154  29.244  1.00  0.00     0.049 A 
ATOM     47  H   UNL A   1      40.289  30.508  30.639  1.00  0.00     0.167 HD
ATOM     48  C   UNL A   1      41.739  33.419  33.544  1.00  0.00     0.037 A 
ATOM     49  C   UNL A   1      40.456  28.177  29.110  1.00  0.00     0.037 A 
ATOM     50  C   UNL A   1      42.734  32.376  33.531  1.00  0.00     0.049 A 
ATOM     51  C   UNL A   1      41.724  28.240  29.915  1.00  0.00     0.074 A 
ATOM     52  C   UNL A   1      43.884  32.271  34.293  1.00  0.00     0.029 A 
ATOM     53  N   UNL A   1      42.708  31.266  32.698  1.00  0.00    -0.354 N 
ATOM     54  N   UNL A   1      42.096  29.122  30.812  1.00  0.00    -0.248 NA
ATOM     55  C   UNL A   1      42.704  27.167  29.691  1.00  0.00     0.031 C 
ATOM     56  C   UNL A   1      44.584  31.131  33.880  1.00  0.00     0.029 A 
ATOM     57  C   UNL A   1      43.838  30.491  32.904  1.00  0.00     0.049 A 
ATOM     58  H   UNL A   1      41.991  31.060  32.054  1.00  0.00     0.167 HD
ATOM     59  C   UNL A   1      43.330  28.692  31.280  1.00  0.00     0.074 A 
ATOM     60  C   UNL A   1      43.639  27.463  30.580  1.00  0.00     0.031 C 
ATOM     61  C   UNL A   1      44.136  29.265  32.208  1.00  0.00     0.037 A 
BRANCH  48  62
ATOM     62  C   UNL A   1      41.948  34.589  34.463  1.00  0.00     0.057 A 
ATOM     63  C   UNL A   1      42.632  35.732  34.030  1.00  0.00     0.134 A 
ATOM     64  C   UNL A   1      41.503  34.571  35.793  1.00  0.00     0.134 A 
ATOM     65  F   UNL A   1      43.097  35.814  32.774  1.00  0.00    -0.206 F 
ATOM     66  C   UNL A   1      42.861  36.814  34.882  1.00  0.00     0.040 A 
ATOM     67  C   UNL A   1      41.702  35.658  36.646  1.00  0.00     0.040 A 
ATOM     68  F   UNL A   1      40.837  33.509  36.273  1.00  0.00    -0.206 F 
ATOM     69  C   UNL A   1      42.388  36.782  36.192  1.00  0.00     0.006 A 
ENDBRANCH  48  62
BRANCH  49  70
ATOM     70  C   UNL A   1      40.216  27.047  28.177  1.00  0.00     0.057 A 
ATOM     71  C   UNL A   1      40.766  27.031  26.889  1.00  0.00     0.134 A 
ATOM     72  C   UNL A   1      39.464  25.934  28.570  1.00  0.00     0.134 A 
ATOM     73  F   UNL A   1      41.490  28.070  26.449  1.00  0.00    -0.206 F 
ATOM     74  C   UNL A   1      40.580  25.949  26.028  1.00  0.00     0.040 A 
ATOM     75  C   UNL A   1      39.296  24.830  27.731  1.00  0.00     0.040 A 
ATOM     76  F   UNL A   1      38.927  25.881  29.798  1.00  0.00    -0.206 F 
ATOM     77  C   UNL A   1      39.854  24.838  26.454  1.00  0.00     0.006 A 
ENDBRANCH  49  70
BRANCH  61  78
ATOM     78  C   UNL A   1      45.411  28.546  32.550  1.00  0.00     0.057 A 
ATOM     79  C   UNL A   1      46.595  28.826  31.855  1.00  0.00     0.134 A 
ATOM     80  C   UNL A   1      45.467  27.559  33.543  1.00  0.00     0.134 A 
ATOM     81  F   UNL A   1      46.614  29.754  30.886  1.00  0.00    -0.206 F 
ATOM     82  C   UNL A   1      47.784  28.151  32.133  1.00  0.00     0.040 A 
ATOM     83  C   UNL A   1      46.657  26.898  33.851  1.00  0.00     0.040 A 
ATOM     84  F   UNL A   1      44.373  27.252  34.258  1.00  0.00    -0.206 F 
ATOM     85  C   UNL A   1      47.820  27.188  33.139  1.00  0.00     0.006 A 
ENDBRANCH  61  78
ENDBRANCH  35  36
ENDBRANCH  28  30
ENDBRANCH  27  28
ENDBRANCH  26  27
ENDBRANCH  25  26
ENDBRANCH   1  25
TORSDOF 17
ENDMDL
MODEL 3
REMARK VINA RESULT:     -11.0      4.495      9.516
REMARK SMILES CCCc1cc2c(cc1Cl)C=C(C(=O)OCCOCCOC(=O)c1ccc(-c3c4nc(c(-c5c(F)cccc5F)c5ccc([nH]5)c(-c5c(F)cccc5F)c5nc(c(-c6c(F)cccc6F)c6ccc3[nH]6)C=C5)C=C4)cc1)[C@H](C(F)(F)F)O2
REMARK SMILES IDX 18 1 17 2 16 3 15 4 13 5 14 6 12 7 4 8 5 9 9 10 6 11 8 12
REMARK SMILES IDX 10 13 7 14 83 15 11 16 78 17 3 18 2 19 1 20 79 21 80 22
REMARK SMILES IDX 81 23 82 24 19 25 20 26 21 27 22 28 23 29 24 30 25 31 77 32
REMARK SMILES IDX 26 33 76 34 27 35 28 36 29 37 70 38 30 39 75 40 69 41 71 42
REMARK SMILES IDX 31 43 74 44 68 45 67 46 32 48 58 49 41 50 57 51 42 52 45 53
REMARK SMILES IDX 56 54 72 55 43 56 44 57 55 59 73 60 46 61 33 62 34 63 39 64
REMARK SMILES IDX 35 65 36 66 38 67 40 68 37 69 59 70 60 71 65 72 61 73 62 74
REMARK SMILES IDX 64 75 66 76 63 77 47 78 48 79 53 80 49 81 50 82 52 83 54 84
REMARK SMILES IDX 51 85
REMARK H PARENT 71 47 45 58
REMARK Flexibility Score: inf
ROOT
ATOM      1  O   UNL A   1      35.319  22.016  25.772  1.00  0.00    -0.374 OA
ENDROOT
BRANCH   1   2
ATOM      2  C   UNL A   1      34.622  21.774  26.992  1.00  0.00     0.202 C 
BRANCH   2   3
ATOM      3  C   UNL A   1      33.104  21.971  26.963  1.00  0.00     0.261 C 
BRANCH   3   4
ATOM      4  O   UNL A   1      32.772  23.366  27.057  1.00  0.00    -0.460 OA
BRANCH   4   5
ATOM      5  C   UNL A   1      31.494  23.662  26.752  1.00  0.00     0.338 C 
ATOM      6  O   UNL A   1      30.502  23.281  27.351  1.00  0.00    -0.246 OA
BRANCH   5   7
ATOM      7  C   UNL A   1      31.448  24.633  25.641  1.00  0.00     0.087 C 
ATOM      8  C   UNL A   1      30.308  28.867  23.213  1.00  0.00    -0.026 A 
ATOM      9  C   UNL A   1      30.414  27.515  22.844  1.00  0.00     0.052 A 
ATOM     10  C   UNL A   1      30.809  29.244  24.474  1.00  0.00     0.045 A 
ATOM     11  C   UNL A   1      30.841  26.551  23.755  1.00  0.00     0.128 A 
ATOM     12  C   UNL A   1      31.289  28.285  25.369  1.00  0.00     0.032 A 
ATOM     13  Cl  UNL A   1      30.808  30.891  25.003  1.00  0.00    -0.084 Cl
ATOM     14  C   UNL A   1      31.256  26.933  25.027  1.00  0.00     0.019 A 
ATOM     15  O   UNL A   1      30.704  25.250  23.359  1.00  0.00    -0.475 OA
ATOM     16  C   UNL A   1      31.504  25.915  26.027  1.00  0.00     0.027 C 
ATOM     17  C   UNL A   1      31.270  24.207  24.206  1.00  0.00     0.316 C 
BRANCH   8  18
ATOM     18  C   UNL A   1      29.635  29.886  22.314  1.00  0.00     0.037 C 
BRANCH  18  19
ATOM     19  C   UNL A   1      28.110  30.042  22.413  1.00  0.00     0.001 C 
ATOM     20  C   UNL A   1      27.659  31.153  23.357  1.00  0.00     0.004 C 
ENDBRANCH  18  19
ENDBRANCH   8  18
BRANCH  17  21
ATOM     21  C   UNL A   1      32.542  23.673  23.516  1.00  0.00     0.430 C 
ATOM     22  F   UNL A   1      32.705  22.341  23.680  1.00  0.00    -0.167 F 
ATOM     23  F   UNL A   1      32.491  23.880  22.175  1.00  0.00    -0.167 F 
ATOM     24  F   UNL A   1      33.663  24.281  23.970  1.00  0.00    -0.167 F 
ENDBRANCH  17  21
ENDBRANCH   5   7
ENDBRANCH   4   5
ENDBRANCH   3   4
ENDBRANCH   2   3
ENDBRANCH   1   2
BRANCH   1  25
ATOM     25  C   UNL A   1      35.635  20.888  24.952  1.00  0.00     0.202 C 
BRANCH  25  26
ATOM     26  C   UNL A   1      37.031  20.271  25.105  1.00  0.00     0.261 C 
BRANCH  26  27
ATOM     27  O   UNL A   1      38.058  21.278  25.163  1.00  0.00    -0.460 OA
BRANCH  27  28
ATOM     28  C   UNL A   1      39.087  21.007  26.001  1.00  0.00     0.338 C 
ATOM     29  O   UNL A   1      39.615  19.924  26.197  1.00  0.00    -0.246 OA
BRANCH  28  30
ATOM     30  C   UNL A   1      39.655  22.277  26.498  1.00  0.00     0.060 A 
ATOM     31  C   UNL A   1      40.750  22.305  27.361  1.00  0.00     0.016 A 
ATOM     32  C   UNL A   1      39.065  23.469  26.060  1.00  0.00     0.016 A 
ATOM     33  C   UNL A   1      41.275  23.539  27.762  1.00  0.00     0.010 A 
ATOM     34  C   UNL A   1      39.586  24.698  26.465  1.00  0.00     0.010 A 
ATOM     35  C   UNL A   1      40.709  24.743  27.303  1.00  0.00    -0.014 A 
BRANCH  35  36
ATOM     36  C   UNL A   1      41.347  26.046  27.610  1.00  0.00     0.031 A 
ATOM     37  C   UNL A   1      42.760  26.339  27.203  1.00  0.00     0.074 A 
ATOM     38  C   UNL A   1      40.645  26.962  28.306  1.00  0.00     0.049 A 
ATOM     39  N   UNL A   1      43.463  27.429  27.388  1.00  0.00    -0.248 NA
ATOM     40  C   UNL A   1      43.483  25.266  26.505  1.00  0.00     0.031 C 
ATOM     41  C   UNL A   1      39.275  26.783  28.786  1.00  0.00     0.029 A 
ATOM     42  N   UNL A   1      40.988  28.220  28.732  1.00  0.00    -0.354 N 
ATOM     43  C   UNL A   1      44.703  27.185  26.812  1.00  0.00     0.074 A 
ATOM     44  C   UNL A   1      44.674  25.821  26.320  1.00  0.00     0.031 C 
ATOM     45  C   UNL A   1      38.884  27.899  29.421  1.00  0.00     0.029 A 
ATOM     46  C   UNL A   1      39.987  28.855  29.427  1.00  0.00     0.049 A 
ATOM     47  H   UNL A   1      41.866  28.628  28.557  1.00  0.00     0.167 HD
ATOM     48  C   UNL A   1      45.761  28.024  26.690  1.00  0.00     0.037 A 
ATOM     49  C   UNL A   1      39.966  30.068  30.011  1.00  0.00     0.037 A 
ATOM     50  C   UNL A   1      45.798  29.369  27.208  1.00  0.00     0.049 A 
ATOM     51  C   UNL A   1      41.184  30.946  29.931  1.00  0.00     0.074 A 
ATOM     52  C   UNL A   1      46.815  30.304  27.111  1.00  0.00     0.029 A 
ATOM     53  N   UNL A   1      44.780  29.966  27.939  1.00  0.00    -0.354 N 
ATOM     54  N   UNL A   1      42.323  30.732  29.318  1.00  0.00    -0.248 NA
ATOM     55  C   UNL A   1      41.112  32.240  30.626  1.00  0.00     0.031 C 
ATOM     56  C   UNL A   1      46.438  31.442  27.833  1.00  0.00     0.029 A 
ATOM     57  C   UNL A   1      45.160  31.242  28.328  1.00  0.00     0.049 A 
ATOM     58  H   UNL A   1      43.916  29.545  28.152  1.00  0.00     0.167 HD
ATOM     59  C   UNL A   1      43.086  31.874  29.524  1.00  0.00     0.074 A 
ATOM     60  C   UNL A   1      42.275  32.784  30.306  1.00  0.00     0.031 C 
ATOM     61  C   UNL A   1      44.346  32.144  29.102  1.00  0.00     0.037 A 
BRANCH  48  62
ATOM     62  C   UNL A   1      46.974  27.505  25.972  1.00  0.00     0.057 A 
ATOM     63  C   UNL A   1      48.025  26.903  26.676  1.00  0.00     0.134 A 
ATOM     64  C   UNL A   1      47.121  27.635  24.584  1.00  0.00     0.134 A 
ATOM     65  F   UNL A   1      47.957  26.756  28.008  1.00  0.00    -0.206 F 
ATOM     66  C   UNL A   1      49.172  26.444  26.027  1.00  0.00     0.040 A 
ATOM     67  C   UNL A   1      48.252  27.155  23.920  1.00  0.00     0.040 A 
ATOM     68  F   UNL A   1      46.152  28.199  23.846  1.00  0.00    -0.206 F 
ATOM     69  C   UNL A   1      49.284  26.562  24.643  1.00  0.00     0.006 A 
ENDBRANCH  48  62
BRANCH  49  70
ATOM     70  C   UNL A   1      38.750  30.535  30.724  1.00  0.00     0.057 A 
ATOM     71  C   UNL A   1      37.757  31.276  30.071  1.00  0.00     0.134 A 
ATOM     72  C   UNL A   1      38.532  30.210  32.068  1.00  0.00     0.134 A 
ATOM     73  F   UNL A   1      37.909  31.627  28.786  1.00  0.00    -0.206 F 
ATOM     74  C   UNL A   1      36.593  31.675  30.728  1.00  0.00     0.040 A 
ATOM     75  C   UNL A   1      37.357  30.574  32.728  1.00  0.00     0.040 A 
ATOM     76  F   UNL A   1      39.436  29.484  32.742  1.00  0.00    -0.206 F 
ATOM     77  C   UNL A   1      36.384  31.312  32.057  1.00  0.00     0.006 A 
ENDBRANCH  49  70
BRANCH  61  78
ATOM     78  C   UNL A   1      44.910  33.495  29.442  1.00  0.00     0.057 A 
ATOM     79  C   UNL A   1      44.709  34.587  28.587  1.00  0.00     0.134 A 
ATOM     80  C   UNL A   1      45.673  33.715  30.597  1.00  0.00     0.134 A 
ATOM     81  F   UNL A   1      43.995  34.447  27.460  1.00  0.00    -0.206 F 
ATOM     82  C   UNL A   1      45.249  35.844  28.865  1.00  0.00     0.040 A 
ATOM     83  C   UNL A   1      46.192  34.975  30.902  1.00  0.00     0.040 A 
ATOM     84  F   UNL A   1      45.891  32.717  31.467  1.00  0.00    -0.206 F 
ATOM     85  C   UNL A   1      45.986  36.042  30.030  1.00  0.00     0.006 A 
ENDBRANCH  61  78
ENDBRANCH  35  36
ENDBRANCH  28  30
ENDBRANCH  27  28
ENDBRANCH  26  27
ENDBRANCH  25  26
ENDBRANCH   1  25
TORSDOF 17
ENDMDL
