MODEL 1
REMARK VINA RESULT:     -11.8      0.000      0.000
REMARK SMILES O=C(OCCOCCOC(=O)c1ccccc1/N=C/c1coc2ccccc2c1=O)c1ccc(-c2c3nc(c(-c4c(F)cccc4F)c4ccc([nH]4)c(-c4c(F)cccc4F)c4nc(c(-c5c(F)cccc5F)c5ccc2[nH]5)C=C4)C=C3)cc1
REMARK SMILES IDX 6 1 5 2 4 3 3 4 2 5 1 6 31 7 32 8 84 9 33 10 83 11 34 12
REMARK SMILES IDX 35 13 36 14 77 15 37 16 82 17 76 18 78 19 38 20 81 21 75 22
REMARK SMILES IDX 74 23 39 25 65 26 48 27 64 28 49 29 52 30 63 31 79 32 50 33
REMARK SMILES IDX 51 34 62 36 80 37 53 38 40 39 41 40 46 41 42 42 43 43 45 44
REMARK SMILES IDX 47 45 44 46 66 47 67 48 72 49 68 50 69 51 71 52 73 53 70 54
REMARK SMILES IDX 54 55 55 56 60 57 56 58 57 59 59 60 61 61 58 62 7 63 8 64
REMARK SMILES IDX 9 65 10 66 11 67 12 68 13 69 17 70 14 71 16 72 15 73 18 74
REMARK SMILES IDX 19 75 20 76 21 77 29 78 22 79 28 80 30 81 23 82 27 83 24 84
REMARK SMILES IDX 26 85 25 86
REMARK H PARENT 78 24 52 35
REMARK Flexibility Score: inf
ROOT
ATOM      1  O   UNL A   1      32.962  30.900  27.627  1.00  0.00    -0.374 OA
ENDROOT
BRANCH   1   2
ATOM      2  C   UNL A   1      31.929  31.611  26.969  1.00  0.00     0.202 C 
BRANCH   2   3
ATOM      3  C   UNL A   1      32.252  33.083  26.711  1.00  0.00     0.261 C 
BRANCH   3   4
ATOM      4  O   UNL A   1      32.141  33.853  27.924  1.00  0.00    -0.460 OA
BRANCH   4   5
ATOM      5  C   UNL A   1      33.132  34.481  28.605  1.00  0.00     0.338 C 
ATOM      6  O   UNL A   1      33.039  35.687  28.823  1.00  0.00    -0.246 OA
BRANCH   5   7
ATOM      7  C   UNL A   1      34.360  33.779  29.081  1.00  0.00     0.060 A 
ATOM      8  C   UNL A   1      34.331  32.622  29.853  1.00  0.00     0.016 A 
ATOM      9  C   UNL A   1      35.612  34.244  28.652  1.00  0.00     0.016 A 
ATOM     10  C   UNL A   1      35.472  31.966  30.247  1.00  0.00     0.010 A 
ATOM     11  C   UNL A   1      36.784  33.568  29.013  1.00  0.00     0.010 A 
ATOM     12  C   UNL A   1      36.706  32.428  29.821  1.00  0.00    -0.014 A 
BRANCH  12  13
ATOM     13  C   UNL A   1      37.861  31.742  30.412  1.00  0.00     0.031 A 
ATOM     14  C   UNL A   1      38.118  31.957  31.867  1.00  0.00     0.074 A 
ATOM     15  C   UNL A   1      38.461  30.761  29.712  1.00  0.00     0.049 A 
ATOM     16  N   UNL A   1      39.062  31.467  32.620  1.00  0.00    -0.248 NA
ATOM     17  C   UNL A   1      37.162  32.824  32.583  1.00  0.00     0.031 C 
ATOM     18  C   UNL A   1      38.105  30.360  28.344  1.00  0.00     0.029 A 
ATOM     19  N   UNL A   1      39.447  29.882  30.065  1.00  0.00    -0.354 N 
ATOM     20  C   UNL A   1      38.835  31.990  33.884  1.00  0.00     0.074 A 
ATOM     21  C   UNL A   1      37.668  32.836  33.806  1.00  0.00     0.031 C 
ATOM     22  C   UNL A   1      38.846  29.298  27.989  1.00  0.00     0.029 A 
ATOM     23  C   UNL A   1      39.786  29.008  29.062  1.00  0.00     0.049 A 
ATOM     24  H   UNL A   1      39.871  29.877  30.954  1.00  0.00     0.167 HD
ATOM     25  C   UNL A   1      39.557  31.777  35.006  1.00  0.00     0.037 A 
ATOM     26  C   UNL A   1      40.789  28.112  29.013  1.00  0.00     0.037 A 
ATOM     27  C   UNL A   1      40.711  30.923  35.032  1.00  0.00     0.049 A 
ATOM     28  C   UNL A   1      41.663  28.003  30.231  1.00  0.00     0.074 A 
ATOM     29  C   UNL A   1      41.610  30.705  36.056  1.00  0.00     0.029 A 
ATOM     30  N   UNL A   1      41.115  30.133  33.961  1.00  0.00    -0.354 N 
ATOM     31  N   UNL A   1      41.537  28.600  31.396  1.00  0.00    -0.248 NA
ATOM     32  C   UNL A   1      42.829  27.120  30.131  1.00  0.00     0.031 C 
ATOM     33  C   UNL A   1      42.584  29.815  35.588  1.00  0.00     0.029 A 
ATOM     34  C   UNL A   1      42.259  29.435  34.293  1.00  0.00     0.049 A 
ATOM     35  H   UNL A   1      40.653  30.079  33.093  1.00  0.00     0.167 HD
ATOM     36  C   UNL A   1      42.596  28.156  32.171  1.00  0.00     0.074 A 
ATOM     37  C   UNL A   1      43.334  27.212  31.353  1.00  0.00     0.031 C 
ATOM     38  C   UNL A   1      42.946  28.500  33.435  1.00  0.00     0.037 A 
BRANCH  25  39
ATOM     39  C   UNL A   1      39.160  32.549  36.227  1.00  0.00     0.057 A 
ATOM     40  C   UNL A   1      39.692  33.811  36.522  1.00  0.00     0.134 A 
ATOM     41  C   UNL A   1      38.272  31.989  37.155  1.00  0.00     0.134 A 
ATOM     42  F   UNL A   1      40.581  34.384  35.697  1.00  0.00    -0.206 F 
ATOM     43  C   UNL A   1      39.370  34.480  37.705  1.00  0.00     0.040 A 
ATOM     44  C   UNL A   1      37.925  32.658  38.330  1.00  0.00     0.040 A 
ATOM     45  F   UNL A   1      37.743  30.776  36.944  1.00  0.00    -0.206 F 
ATOM     46  C   UNL A   1      38.479  33.905  38.611  1.00  0.00     0.006 A 
ENDBRANCH  25  39
BRANCH  26  47
ATOM     47  C   UNL A   1      41.082  27.351  27.768  1.00  0.00     0.057 A 
ATOM     48  C   UNL A   1      40.582  26.061  27.554  1.00  0.00     0.134 A 
ATOM     49  C   UNL A   1      41.929  27.874  26.781  1.00  0.00     0.134 A 
ATOM     50  F   UNL A   1      39.779  25.489  28.463  1.00  0.00    -0.206 F 
ATOM     51  C   UNL A   1      40.939  25.311  26.430  1.00  0.00     0.040 A 
ATOM     52  C   UNL A   1      42.267  27.151  25.635  1.00  0.00     0.040 A 
ATOM     53  F   UNL A   1      42.450  29.103  26.914  1.00  0.00    -0.206 F 
ATOM     54  C   UNL A   1      41.783  25.858  25.465  1.00  0.00     0.006 A 
ENDBRANCH  26  47
BRANCH  38  55
ATOM     55  C   UNL A   1      44.156  27.818  33.999  1.00  0.00     0.057 A 
ATOM     56  C   UNL A   1      45.432  28.385  33.908  1.00  0.00     0.134 A 
ATOM     57  C   UNL A   1      44.030  26.592  34.661  1.00  0.00     0.134 A 
ATOM     58  F   UNL A   1      45.616  29.551  33.270  1.00  0.00    -0.206 F 
ATOM     59  C   UNL A   1      46.550  27.737  34.430  1.00  0.00     0.040 A 
ATOM     60  C   UNL A   1      45.134  25.953  35.218  1.00  0.00     0.040 A 
ATOM     61  F   UNL A   1      42.829  26.006  34.790  1.00  0.00    -0.206 F 
ATOM     62  C   UNL A   1      46.400  26.521  35.094  1.00  0.00     0.006 A 
ENDBRANCH  38  55
ENDBRANCH  12  13
ENDBRANCH   5   7
ENDBRANCH   4   5
ENDBRANCH   3   4
ENDBRANCH   2   3
ENDBRANCH   1   2
BRANCH   1  63
ATOM     63  C   UNL A   1      33.953  30.267  26.809  1.00  0.00     0.202 C 
BRANCH  63  64
ATOM     64  C   UNL A   1      34.003  28.827  27.276  1.00  0.00     0.261 C 
BRANCH  64  65
ATOM     65  O   UNL A   1      33.115  28.127  26.398  1.00  0.00    -0.460 OA
BRANCH  65  66
ATOM     66  C   UNL A   1      31.895  27.809  26.885  1.00  0.00     0.340 C 
ATOM     67  O   UNL A   1      31.503  27.881  28.039  1.00  0.00    -0.246 OA
BRANCH  66  68
ATOM     68  C   UNL A   1      31.049  27.439  25.746  1.00  0.00     0.085 A 
ATOM     69  C   UNL A   1      31.033  28.351  24.672  1.00  0.00     0.018 A 
ATOM     70  C   UNL A   1      30.395  26.198  25.662  1.00  0.00     0.077 A 
ATOM     71  C   UNL A   1      30.385  28.026  23.485  1.00  0.00     0.001 A 
ATOM     72  C   UNL A   1      29.694  25.930  24.474  1.00  0.00     0.029 A 
ATOM     73  C   UNL A   1      29.698  26.821  23.392  1.00  0.00     0.002 A 
BRANCH  70  74
ATOM     74  N   UNL A   1      30.663  25.071  26.460  1.00  0.00    -0.255 NA
ATOM     75  C   UNL A   1      31.784  24.430  26.527  1.00  0.00     0.127 C 
BRANCH  75  76
ATOM     76  C   UNL A   1      31.803  22.921  26.731  1.00  0.00     0.076 A 
ATOM     77  C   UNL A   1      31.337  22.211  25.686  1.00  0.00     0.209 A 
ATOM     78  C   UNL A   1      33.197  22.365  26.959  1.00  0.00     0.201 A 
ATOM     79  O   UNL A   1      32.073  22.095  24.484  1.00  0.00    -0.463 OA
ATOM     80  C   UNL A   1      34.066  22.559  25.783  1.00  0.00     0.065 A 
ATOM     81  O   UNL A   1      33.567  21.829  27.993  1.00  0.00    -0.288 OA
ATOM     82  C   UNL A   1      33.398  22.495  24.552  1.00  0.00     0.137 A 
ATOM     83  C   UNL A   1      35.338  23.117  25.900  1.00  0.00     0.016 A 
ATOM     84  C   UNL A   1      34.002  22.997  23.409  1.00  0.00     0.048 A 
ATOM     85  C   UNL A   1      35.921  23.665  24.756  1.00  0.00     0.001 A 
ATOM     86  C   UNL A   1      35.254  23.609  23.521  1.00  0.00     0.004 A 
ENDBRANCH  75  76
ENDBRANCH  70  74
ENDBRANCH  66  68
ENDBRANCH  65  66
ENDBRANCH  64  65
ENDBRANCH  63  64
ENDBRANCH   1  63
TORSDOF 16
ENDMDL
MODEL 2
REMARK VINA RESULT:     -11.6      3.310      8.517
REMARK SMILES O=C(OCCOCCOC(=O)c1ccccc1/N=C/c1coc2ccccc2c1=O)c1ccc(-c2c3nc(c(-c4c(F)cccc4F)c4ccc([nH]4)c(-c4c(F)cccc4F)c4nc(c(-c5c(F)cccc5F)c5ccc2[nH]5)C=C4)C=C3)cc1
REMARK SMILES IDX 6 1 5 2 4 3 3 4 2 5 1 6 31 7 32 8 84 9 33 10 83 11 34 12
REMARK SMILES IDX 35 13 36 14 77 15 37 16 82 17 76 18 78 19 38 20 81 21 75 22
REMARK SMILES IDX 74 23 39 25 65 26 48 27 64 28 49 29 52 30 63 31 79 32 50 33
REMARK SMILES IDX 51 34 62 36 80 37 53 38 40 39 41 40 46 41 42 42 43 43 45 44
REMARK SMILES IDX 47 45 44 46 66 47 67 48 72 49 68 50 69 51 71 52 73 53 70 54
REMARK SMILES IDX 54 55 55 56 60 57 56 58 57 59 59 60 61 61 58 62 7 63 8 64
REMARK SMILES IDX 9 65 10 66 11 67 12 68 13 69 17 70 14 71 16 72 15 73 18 74
REMARK SMILES IDX 19 75 20 76 21 77 29 78 22 79 28 80 30 81 23 82 27 83 24 84
REMARK SMILES IDX 26 85 25 86
REMARK H PARENT 78 24 52 35
REMARK Flexibility Score: inf
ROOT
ATOM      1  O   UNL A   1      43.244  21.002  25.583  1.00  0.00    -0.374 OA
ENDROOT
BRANCH   1   2
ATOM      2  C   UNL A   1      44.513  21.387  25.085  1.00  0.00     0.202 C 
BRANCH   2   3
ATOM      3  C   UNL A   1      44.456  22.464  24.000  1.00  0.00     0.261 C 
BRANCH   3   4
ATOM      4  O   UNL A   1      43.839  23.666  24.503  1.00  0.00    -0.460 OA
BRANCH   4   5
ATOM      5  C   UNL A   1      44.436  24.704  25.139  1.00  0.00     0.338 C 
ATOM      6  O   UNL A   1      45.563  25.052  24.795  1.00  0.00    -0.246 OA
BRANCH   5   7
ATOM      7  C   UNL A   1      43.796  25.437  26.272  1.00  0.00     0.060 A 
ATOM      8  C   UNL A   1      43.567  26.809  26.267  1.00  0.00     0.016 A 
ATOM      9  C   UNL A   1      43.307  24.699  27.360  1.00  0.00     0.016 A 
ATOM     10  C   UNL A   1      42.939  27.459  27.301  1.00  0.00     0.010 A 
ATOM     11  C   UNL A   1      42.631  25.339  28.407  1.00  0.00     0.010 A 
ATOM     12  C   UNL A   1      42.457  26.727  28.374  1.00  0.00    -0.014 A 
BRANCH  12  13
ATOM     13  C   UNL A   1      41.932  27.531  29.484  1.00  0.00     0.031 A 
ATOM     14  C   UNL A   1      42.768  27.629  30.718  1.00  0.00     0.074 A 
ATOM     15  C   UNL A   1      40.885  28.347  29.256  1.00  0.00     0.049 A 
ATOM     16  N   UNL A   1      42.531  28.273  31.825  1.00  0.00    -0.248 NA
ATOM     17  C   UNL A   1      44.064  26.925  30.691  1.00  0.00     0.031 C 
ATOM     18  C   UNL A   1      40.154  28.448  27.986  1.00  0.00     0.029 A 
ATOM     19  N   UNL A   1      40.293  29.286  30.052  1.00  0.00    -0.354 N 
ATOM     20  C   UNL A   1      43.629  28.026  32.636  1.00  0.00     0.074 A 
ATOM     21  C   UNL A   1      44.535  27.174  31.902  1.00  0.00     0.031 C 
ATOM     22  C   UNL A   1      39.229  29.416  28.086  1.00  0.00     0.029 A 
ATOM     23  C   UNL A   1      39.242  29.933  29.447  1.00  0.00     0.049 A 
ATOM     24  H   UNL A   1      40.592  29.482  30.970  1.00  0.00     0.167 HD
ATOM     25  C   UNL A   1      43.843  28.476  33.892  1.00  0.00     0.037 A 
ATOM     26  C   UNL A   1      38.361  30.805  29.969  1.00  0.00     0.037 A 
ATOM     27  C   UNL A   1      42.910  29.325  34.578  1.00  0.00     0.049 A 
ATOM     28  C   UNL A   1      38.546  31.174  31.415  1.00  0.00     0.074 A 
ATOM     29  C   UNL A   1      42.930  29.759  35.888  1.00  0.00     0.029 A 
ATOM     30  N   UNL A   1      41.780  29.874  33.985  1.00  0.00    -0.354 N 
ATOM     31  N   UNL A   1      39.514  30.835  32.238  1.00  0.00    -0.248 NA
ATOM     32  C   UNL A   1      37.515  32.025  32.017  1.00  0.00     0.031 C 
ATOM     33  C   UNL A   1      41.786  30.538  36.098  1.00  0.00     0.029 A 
ATOM     34  C   UNL A   1      41.084  30.635  34.904  1.00  0.00     0.049 A 
ATOM     35  H   UNL A   1      41.513  29.741  33.045  1.00  0.00     0.167 HD
ATOM     36  C   UNL A   1      39.217  31.440  33.449  1.00  0.00     0.074 A 
ATOM     37  C   UNL A   1      37.996  32.196  33.240  1.00  0.00     0.031 C 
ATOM     38  C   UNL A   1      39.874  31.372  34.633  1.00  0.00     0.037 A 
BRANCH  25  39
ATOM     39  C   UNL A   1      45.069  27.976  34.594  1.00  0.00     0.057 A 
ATOM     40  C   UNL A   1      46.288  28.665  34.558  1.00  0.00     0.134 A 
ATOM     41  C   UNL A   1      45.040  26.751  35.271  1.00  0.00     0.134 A 
ATOM     42  F   UNL A   1      46.395  29.824  33.889  1.00  0.00    -0.206 F 
ATOM     43  C   UNL A   1      47.439  28.144  35.152  1.00  0.00     0.040 A 
ATOM     44  C   UNL A   1      46.179  26.230  35.889  1.00  0.00     0.040 A 
ATOM     45  F   UNL A   1      43.911  26.030  35.326  1.00  0.00    -0.206 F 
ATOM     46  C   UNL A   1      47.384  26.924  35.825  1.00  0.00     0.006 A 
ENDBRANCH  25  39
BRANCH  26  47
ATOM     47  C   UNL A   1      37.196  31.289  29.180  1.00  0.00     0.057 A 
ATOM     48  C   UNL A   1      37.154  32.578  28.636  1.00  0.00     0.134 A 
ATOM     49  C   UNL A   1      36.058  30.489  29.003  1.00  0.00     0.134 A 
ATOM     50  F   UNL A   1      38.200  33.406  28.781  1.00  0.00    -0.206 F 
ATOM     51  C   UNL A   1      36.019  33.063  27.981  1.00  0.00     0.040 A 
ATOM     52  C   UNL A   1      34.929  30.947  28.320  1.00  0.00     0.040 A 
ATOM     53  F   UNL A   1      36.020  29.242  29.498  1.00  0.00    -0.206 F 
ATOM     54  C   UNL A   1      34.902  32.245  27.820  1.00  0.00     0.006 A 
ENDBRANCH  26  47
BRANCH  38  55
ATOM     55  C   UNL A   1      39.291  32.166  35.762  1.00  0.00     0.057 A 
ATOM     56  C   UNL A   1      39.644  33.502  35.983  1.00  0.00     0.134 A 
ATOM     57  C   UNL A   1      38.347  31.588  36.619  1.00  0.00     0.134 A 
ATOM     58  F   UNL A   1      40.555  34.105  35.205  1.00  0.00    -0.206 F 
ATOM     59  C   UNL A   1      39.099  34.229  37.041  1.00  0.00     0.040 A 
ATOM     60  C   UNL A   1      37.771  32.314  37.657  1.00  0.00     0.040 A 
ATOM     61  F   UNL A   1      37.962  30.313  36.448  1.00  0.00    -0.206 F 
ATOM     62  C   UNL A   1      38.154  33.635  37.876  1.00  0.00     0.006 A 
ENDBRANCH  38  55
ENDBRANCH  12  13
ENDBRANCH   5   7
ENDBRANCH   4   5
ENDBRANCH   3   4
ENDBRANCH   2   3
ENDBRANCH   1   2
BRANCH   1  63
ATOM     63  C   UNL A   1      42.945  19.602  25.617  1.00  0.00     0.202 C 
BRANCH  63  64
ATOM     64  C   UNL A   1      41.560  19.499  26.221  1.00  0.00     0.261 C 
BRANCH  64  65
ATOM     65  O   UNL A   1      40.958  20.775  25.977  1.00  0.00    -0.460 OA
BRANCH  65  66
ATOM     66  C   UNL A   1      39.616  20.799  25.814  1.00  0.00     0.340 C 
ATOM     67  O   UNL A   1      38.885  19.892  25.448  1.00  0.00    -0.246 OA
BRANCH  66  68
ATOM     68  C   UNL A   1      39.142  22.113  26.260  1.00  0.00     0.085 A 
ATOM     69  C   UNL A   1      40.049  22.860  27.037  1.00  0.00     0.018 A 
ATOM     70  C   UNL A   1      37.917  22.657  25.837  1.00  0.00     0.077 A 
ATOM     71  C   UNL A   1      39.758  24.177  27.383  1.00  0.00     0.001 A 
ATOM     72  C   UNL A   1      37.626  23.966  26.261  1.00  0.00     0.029 A 
ATOM     73  C   UNL A   1      38.536  24.724  27.010  1.00  0.00     0.002 A 
BRANCH  70  74
ATOM     74  N   UNL A   1      37.138  22.194  24.762  1.00  0.00    -0.255 NA
ATOM     75  C   UNL A   1      36.360  22.909  24.017  1.00  0.00     0.127 C 
BRANCH  75  76
ATOM     76  C   UNL A   1      35.063  22.328  23.470  1.00  0.00     0.076 A 
ATOM     77  C   UNL A   1      34.274  21.753  24.397  1.00  0.00     0.209 A 
ATOM     78  C   UNL A   1      34.167  23.368  22.822  1.00  0.00     0.201 A 
ATOM     79  O   UNL A   1      33.570  22.525  25.350  1.00  0.00    -0.463 OA
ATOM     80  C   UNL A   1      33.704  24.378  23.793  1.00  0.00     0.065 A 
ATOM     81  O   UNL A   1      33.869  23.383  21.637  1.00  0.00    -0.288 OA
ATOM     82  C   UNL A   1      33.506  23.885  25.090  1.00  0.00     0.137 A 
ATOM     83  C   UNL A   1      33.814  25.743  23.535  1.00  0.00     0.016 A 
ATOM     84  C   UNL A   1      33.416  24.763  26.159  1.00  0.00     0.048 A 
ATOM     85  C   UNL A   1      33.772  26.621  24.620  1.00  0.00     0.001 A 
ATOM     86  C   UNL A   1      33.580  26.132  25.922  1.00  0.00     0.004 A 
ENDBRANCH  75  76
ENDBRANCH  70  74
ENDBRANCH  66  68
ENDBRANCH  65  66
ENDBRANCH  64  65
ENDBRANCH  63  64
ENDBRANCH   1  63
TORSDOF 16
ENDMDL
MODEL 3
REMARK VINA RESULT:     -11.4      4.371      9.561
REMARK SMILES O=C(OCCOCCOC(=O)c1ccccc1/N=C/c1coc2ccccc2c1=O)c1ccc(-c2c3nc(c(-c4c(F)cccc4F)c4ccc([nH]4)c(-c4c(F)cccc4F)c4nc(c(-c5c(F)cccc5F)c5ccc2[nH]5)C=C4)C=C3)cc1
REMARK SMILES IDX 6 1 5 2 4 3 3 4 2 5 1 6 31 7 32 8 84 9 33 10 83 11 34 12
REMARK SMILES IDX 35 13 36 14 77 15 37 16 82 17 76 18 78 19 38 20 81 21 75 22
REMARK SMILES IDX 74 23 39 25 65 26 48 27 64 28 49 29 52 30 63 31 79 32 50 33
REMARK SMILES IDX 51 34 62 36 80 37 53 38 40 39 41 40 46 41 42 42 43 43 45 44
REMARK SMILES IDX 47 45 44 46 66 47 67 48 72 49 68 50 69 51 71 52 73 53 70 54
REMARK SMILES IDX 54 55 55 56 60 57 56 58 57 59 59 60 61 61 58 62 7 63 8 64
REMARK SMILES IDX 9 65 10 66 11 67 12 68 13 69 17 70 14 71 16 72 15 73 18 74
REMARK SMILES IDX 19 75 20 76 21 77 29 78 22 79 28 80 30 81 23 82 27 83 24 84
REMARK SMILES IDX 26 85 25 86
REMARK H PARENT 78 24 52 35
REMARK Flexibility Score: inf
ROOT
ATOM      1  O   UNL A   1      37.930  21.021  24.746  1.00  0.00    -0.374 OA
ENDROOT
BRANCH   1   2
ATOM      2  C   UNL A   1      38.115  19.630  24.941  1.00  0.00     0.202 C 
BRANCH   2   3
ATOM      3  C   UNL A   1      39.117  19.284  26.044  1.00  0.00     0.261 C 
BRANCH   3   4
ATOM      4  O   UNL A   1      40.399  18.942  25.483  1.00  0.00    -0.460 OA
BRANCH   4   5
ATOM      5  C   UNL A   1      41.626  19.330  25.912  1.00  0.00     0.338 C 
ATOM      6  O   UNL A   1      42.555  18.526  25.883  1.00  0.00    -0.246 OA
BRANCH   5   7
ATOM      7  C   UNL A   1      41.901  20.694  26.454  1.00  0.00     0.060 A 
ATOM      8  C   UNL A   1      42.096  21.813  25.650  1.00  0.00     0.016 A 
ATOM      9  C   UNL A   1      41.866  20.887  27.842  1.00  0.00     0.016 A 
ATOM     10  C   UNL A   1      42.307  23.068  26.168  1.00  0.00     0.010 A 
ATOM     11  C   UNL A   1      42.042  22.165  28.387  1.00  0.00     0.010 A 
ATOM     12  C   UNL A   1      42.271  23.255  27.540  1.00  0.00    -0.014 A 
BRANCH  12  13
ATOM     13  C   UNL A   1      42.647  24.600  27.991  1.00  0.00     0.031 A 
ATOM     14  C   UNL A   1      44.094  24.965  27.933  1.00  0.00     0.074 A 
ATOM     15  C   UNL A   1      41.679  25.518  28.172  1.00  0.00     0.049 A 
ATOM     16  N   UNL A   1      44.677  26.081  28.267  1.00  0.00    -0.248 NA
ATOM     17  C   UNL A   1      45.010  23.940  27.397  1.00  0.00     0.031 C 
ATOM     18  C   UNL A   1      40.238  25.266  28.032  1.00  0.00     0.029 A 
ATOM     19  N   UNL A   1      41.752  26.854  28.448  1.00  0.00    -0.354 N 
ATOM     20  C   UNL A   1      46.026  25.882  28.015  1.00  0.00     0.074 A 
ATOM     21  C   UNL A   1      46.184  24.542  27.501  1.00  0.00     0.031 C 
ATOM     22  C   UNL A   1      39.570  26.418  28.199  1.00  0.00     0.029 A 
ATOM     23  C   UNL A   1      40.524  27.462  28.547  1.00  0.00     0.049 A 
ATOM     24  H   UNL A   1      42.604  27.335  28.564  1.00  0.00     0.167 HD
ATOM     25  C   UNL A   1      47.038  26.755  28.210  1.00  0.00     0.037 A 
ATOM     26  C   UNL A   1      40.219  28.713  28.934  1.00  0.00     0.037 A 
ATOM     27  C   UNL A   1      46.829  28.080  28.722  1.00  0.00     0.049 A 
ATOM     28  C   UNL A   1      41.370  29.617  29.282  1.00  0.00     0.074 A 
ATOM     29  C   UNL A   1      47.761  29.030  29.086  1.00  0.00     0.029 A 
ATOM     30  N   UNL A   1      45.573  28.639  28.935  1.00  0.00    -0.354 N 
ATOM     31  N   UNL A   1      42.660  29.390  29.176  1.00  0.00    -0.248 NA
ATOM     32  C   UNL A   1      41.033  30.938  29.822  1.00  0.00     0.031 C 
ATOM     33  C   UNL A   1      47.067  30.150  29.561  1.00  0.00     0.029 A 
ATOM     34  C   UNL A   1      45.704  29.919  29.439  1.00  0.00     0.049 A 
ATOM     35  H   UNL A   1      44.716  28.189  28.753  1.00  0.00     0.167 HD
ATOM     36  C   UNL A   1      43.290  30.541  29.623  1.00  0.00     0.074 A 
ATOM     37  C   UNL A   1      42.235  31.477  29.967  1.00  0.00     0.031 C 
ATOM     38  C   UNL A   1      44.613  30.807  29.756  1.00  0.00     0.037 A 
BRANCH  25  39
ATOM     39  C   UNL A   1      48.427  26.255  27.955  1.00  0.00     0.057 A 
ATOM     40  C   UNL A   1      49.181  25.600  28.938  1.00  0.00     0.134 A 
ATOM     41  C   UNL A   1      49.042  26.485  26.718  1.00  0.00     0.134 A 
ATOM     42  F   UNL A   1      48.667  25.387  30.160  1.00  0.00    -0.206 F 
ATOM     43  C   UNL A   1      50.503  25.212  28.707  1.00  0.00     0.040 A 
ATOM     44  C   UNL A   1      50.354  26.081  26.467  1.00  0.00     0.040 A 
ATOM     45  F   UNL A   1      48.384  27.124  25.740  1.00  0.00    -0.206 F 
ATOM     46  C   UNL A   1      51.091  25.448  27.465  1.00  0.00     0.006 A 
ENDBRANCH  25  39
BRANCH  26  47
ATOM     47  C   UNL A   1      38.805  29.141  29.114  1.00  0.00     0.057 A 
ATOM     48  C   UNL A   1      38.136  28.991  30.334  1.00  0.00     0.134 A 
ATOM     49  C   UNL A   1      38.062  29.657  28.043  1.00  0.00     0.134 A 
ATOM     50  F   UNL A   1      38.778  28.488  31.399  1.00  0.00    -0.206 F 
ATOM     51  C   UNL A   1      36.780  29.303  30.473  1.00  0.00     0.040 A 
ATOM     52  C   UNL A   1      36.716  30.006  28.175  1.00  0.00     0.040 A 
ATOM     53  F   UNL A   1      38.632  29.829  26.840  1.00  0.00    -0.206 F 
ATOM     54  C   UNL A   1      36.067  29.814  29.390  1.00  0.00     0.006 A 
ENDBRANCH  26  47
BRANCH  38  55
ATOM     55  C   UNL A   1      44.968  32.172  30.261  1.00  0.00     0.057 A 
ATOM     56  C   UNL A   1      45.131  33.259  29.395  1.00  0.00     0.134 A 
ATOM     57  C   UNL A   1      45.122  32.399  31.633  1.00  0.00     0.134 A 
ATOM     58  F   UNL A   1      45.011  33.099  28.069  1.00  0.00    -0.206 F 
ATOM     59  C   UNL A   1      45.468  34.524  29.877  1.00  0.00     0.040 A 
ATOM     60  C   UNL A   1      45.424  33.665  32.128  1.00  0.00     0.040 A 
ATOM     61  F   UNL A   1      44.967  31.397  32.512  1.00  0.00    -0.206 F 
ATOM     62  C   UNL A   1      45.608  34.729  31.248  1.00  0.00     0.006 A 
ENDBRANCH  38  55
ENDBRANCH  12  13
ENDBRANCH   5   7
ENDBRANCH   4   5
ENDBRANCH   3   4
ENDBRANCH   2   3
ENDBRANCH   1   2
BRANCH   1  63
ATOM     63  C   UNL A   1      38.467  21.904  25.737  1.00  0.00     0.202 C 
BRANCH  63  64
ATOM     64  C   UNL A   1      37.456  23.024  25.870  1.00  0.00     0.261 C 
BRANCH  64  65
ATOM     65  O   UNL A   1      36.401  22.675  24.968  1.00  0.00    -0.460 OA
BRANCH  65  66
ATOM     66  C   UNL A   1      35.200  23.261  25.173  1.00  0.00     0.340 C 
ATOM     67  O   UNL A   1      34.946  24.235  25.864  1.00  0.00    -0.246 OA
BRANCH  66  68
ATOM     68  C   UNL A   1      34.224  22.574  24.321  1.00  0.00     0.085 A 
ATOM     69  C   UNL A   1      33.960  21.231  24.652  1.00  0.00     0.018 A 
ATOM     70  C   UNL A   1      33.496  23.239  23.319  1.00  0.00     0.077 A 
ATOM     71  C   UNL A   1      32.943  20.535  24.004  1.00  0.00     0.001 A 
ATOM     72  C   UNL A   1      32.522  22.488  22.640  1.00  0.00     0.029 A 
ATOM     73  C   UNL A   1      32.236  21.159  22.983  1.00  0.00     0.002 A 
BRANCH  70  74
ATOM     74  N   UNL A   1      33.376  24.634  23.177  1.00  0.00    -0.255 NA
ATOM     75  C   UNL A   1      32.274  25.309  23.165  1.00  0.00     0.127 C 
BRANCH  75  76
ATOM     76  C   UNL A   1      32.134  26.548  22.291  1.00  0.00     0.076 A 
ATOM     77  C   UNL A   1      30.963  27.200  22.429  1.00  0.00     0.209 A 
ATOM     78  C   UNL A   1      33.180  27.609  22.583  1.00  0.00     0.201 A 
ATOM     79  O   UNL A   1      30.665  27.944  23.594  1.00  0.00    -0.463 OA
ATOM     80  C   UNL A   1      33.054  28.144  23.952  1.00  0.00     0.065 A 
ATOM     81  O   UNL A   1      34.035  27.974  21.790  1.00  0.00    -0.288 OA
ATOM     82  C   UNL A   1      31.738  28.201  24.432  1.00  0.00     0.137 A 
ATOM     83  C   UNL A   1      34.152  28.230  24.806  1.00  0.00     0.016 A 
ATOM     84  C   UNL A   1      31.502  28.343  25.791  1.00  0.00     0.048 A 
ATOM     85  C   UNL A   1      33.909  28.324  26.178  1.00  0.00     0.001 A 
ATOM     86  C   UNL A   1      32.594  28.375  26.665  1.00  0.00     0.004 A 
ENDBRANCH  75  76
ENDBRANCH  70  74
ENDBRANCH  66  68
ENDBRANCH  65  66
ENDBRANCH  64  65
ENDBRANCH  63  64
ENDBRANCH   1  63
TORSDOF 16
ENDMDL
