MODEL 1
REMARK VINA RESULT:      -9.9      0.000      0.000
REMARK SMILES O=CN1CCC[C@@H](C(=O)OCCOCCOC(=O)c2ccc(-c3c4nc(c(-c5c(F)cccc5F)c5ccc([nH]5)c(-c5c(F)cccc5F)c5nc(c(-c6c(F)cccc6F)c6ccc3[nH]6)C=C5)C=C4)cc2)C1
REMARK SMILES IDX 14 1 13 2 12 3 11 4 10 5 8 6 9 7 7 8 3 9 4 10 73 11 5 12
REMARK SMILES IDX 6 13 2 14 1 15 15 16 16 17 17 18 18 19 19 20 20 21 72 22
REMARK SMILES IDX 21 23 71 24 22 25 23 26 24 27 65 28 25 29 70 30 64 31 66 32
REMARK SMILES IDX 26 33 69 34 63 35 62 36 27 38 53 39 36 40 52 41 37 42 40 43
REMARK SMILES IDX 51 44 67 45 38 46 39 47 50 49 68 50 41 51 28 52 29 53 34 54
REMARK SMILES IDX 30 55 31 56 33 57 35 58 32 59 54 60 55 61 60 62 56 63 57 64
REMARK SMILES IDX 59 65 61 66 58 67 42 68 43 69 48 70 44 71 45 72 47 73 49 74
REMARK SMILES IDX 46 75
REMARK H PARENT 66 37 40 48
REMARK Flexibility Score: inf
ROOT
ATOM      1  C   UNL A   1      33.900  34.948  30.373  1.00  0.00     0.202 C 
ENDROOT
BRANCH   1   2
ATOM      2  O   UNL A   1      32.978  34.470  29.389  1.00  0.00    -0.374 OA
BRANCH   2   3
ATOM      3  C   UNL A   1      33.510  34.089  28.123  1.00  0.00     0.202 C 
BRANCH   3   4
ATOM      4  C   UNL A   1      34.050  32.661  28.005  1.00  0.00     0.261 C 
BRANCH   4   5
ATOM      5  O   UNL A   1      33.023  31.731  27.629  1.00  0.00    -0.463 OA
BRANCH   5   6
ATOM      6  C   UNL A   1      33.466  30.500  27.248  1.00  0.00     0.310 C 
ATOM      7  O   UNL A   1      34.582  30.060  27.487  1.00  0.00    -0.252 OA
BRANCH   6   8
ATOM      8  C   UNL A   1      32.368  29.685  26.585  1.00  0.00     0.119 C 
ATOM      9  N   UNL A   1      31.641  28.603  24.482  1.00  0.00    -0.344 N 
ATOM     10  C   UNL A   1      31.634  27.273  25.067  1.00  0.00     0.119 C 
ATOM     11  C   UNL A   1      32.558  29.580  25.069  1.00  0.00     0.134 C 
ATOM     12  C   UNL A   1      31.321  27.367  26.553  1.00  0.00     0.022 C 
ATOM     13  C   UNL A   1      32.309  28.298  27.248  1.00  0.00     0.019 C 
BRANCH   9  14
ATOM     14  C   UNL A   1      30.814  28.933  23.430  1.00  0.00     0.339 C 
ATOM     15  O   UNL A   1      29.795  29.606  23.503  1.00  0.00    -0.279 OA
ENDBRANCH   9  14
ENDBRANCH   6   8
ENDBRANCH   5   6
ENDBRANCH   4   5
ENDBRANCH   3   4
ENDBRANCH   2   3
ENDBRANCH   1   2
BRANCH   1  16
ATOM     16  C   UNL A   1      34.084  34.087  31.629  1.00  0.00     0.261 C 
BRANCH  16  17
ATOM     17  O   UNL A   1      34.738  32.840  31.330  1.00  0.00    -0.460 OA
BRANCH  17  18
ATOM     18  C   UNL A   1      35.611  32.403  32.267  1.00  0.00     0.338 C 
ATOM     19  O   UNL A   1      35.480  32.443  33.483  1.00  0.00    -0.246 OA
BRANCH  18  20
ATOM     20  C   UNL A   1      36.703  31.664  31.613  1.00  0.00     0.060 A 
ATOM     21  C   UNL A   1      37.629  31.003  32.432  1.00  0.00     0.016 A 
ATOM     22  C   UNL A   1      36.851  31.661  30.225  1.00  0.00     0.016 A 
ATOM     23  C   UNL A   1      38.725  30.358  31.866  1.00  0.00     0.010 A 
ATOM     24  C   UNL A   1      37.962  31.028  29.660  1.00  0.00     0.010 A 
ATOM     25  C   UNL A   1      38.915  30.395  30.478  1.00  0.00    -0.014 A 
BRANCH  25  26
ATOM     26  C   UNL A   1      40.170  29.877  29.888  1.00  0.00     0.031 A 
ATOM     27  C   UNL A   1      41.331  30.811  29.707  1.00  0.00     0.074 A 
ATOM     28  C   UNL A   1      40.270  28.589  29.514  1.00  0.00     0.049 A 
ATOM     29  N   UNL A   1      42.486  30.596  29.132  1.00  0.00    -0.248 NA
ATOM     30  C   UNL A   1      41.166  32.171  30.246  1.00  0.00     0.031 C 
ATOM     31  C   UNL A   1      39.228  27.578  29.682  1.00  0.00     0.029 A 
ATOM     32  N   UNL A   1      41.296  27.918  28.899  1.00  0.00    -0.354 N 
ATOM     33  C   UNL A   1      43.184  31.793  29.232  1.00  0.00     0.074 A 
ATOM     34  C   UNL A   1      42.315  32.737  29.904  1.00  0.00     0.031 C 
ATOM     35  C   UNL A   1      39.660  26.418  29.159  1.00  0.00     0.029 A 
ATOM     36  C   UNL A   1      40.993  26.616  28.590  1.00  0.00     0.049 A 
ATOM     37  H   UNL A   1      42.167  28.332  28.699  1.00  0.00     0.167 HD
ATOM     38  C   UNL A   1      44.436  32.078  28.804  1.00  0.00     0.037 A 
ATOM     39  C   UNL A   1      41.696  25.701  27.897  1.00  0.00     0.037 A 
ATOM     40  C   UNL A   1      45.294  31.139  28.132  1.00  0.00     0.049 A 
ATOM     41  C   UNL A   1      43.050  26.069  27.350  1.00  0.00     0.074 A 
ATOM     42  C   UNL A   1      46.590  31.323  27.682  1.00  0.00     0.029 A 
ATOM     43  N   UNL A   1      44.936  29.840  27.804  1.00  0.00    -0.354 N 
ATOM     44  N   UNL A   1      43.711  27.195  27.469  1.00  0.00    -0.248 NA
ATOM     45  C   UNL A   1      43.751  25.042  26.566  1.00  0.00     0.031 C 
ATOM     46  C   UNL A   1      46.998  30.151  27.037  1.00  0.00     0.029 A 
ATOM     47  C   UNL A   1      45.974  29.221  27.127  1.00  0.00     0.049 A 
ATOM     48  H   UNL A   1      44.072  29.420  28.020  1.00  0.00     0.167 HD
ATOM     49  C   UNL A   1      44.912  27.004  26.797  1.00  0.00     0.074 A 
ATOM     50  C   UNL A   1      44.894  25.651  26.281  1.00  0.00     0.031 C 
ATOM     51  C   UNL A   1      45.939  27.872  26.623  1.00  0.00     0.037 A 
BRANCH  38  52
ATOM     52  C   UNL A   1      44.942  33.472  29.026  1.00  0.00     0.057 A 
ATOM     53  C   UNL A   1      44.721  34.496  28.097  1.00  0.00     0.134 A 
ATOM     54  C   UNL A   1      45.633  33.800  30.199  1.00  0.00     0.134 A 
ATOM     55  F   UNL A   1      44.078  34.244  26.947  1.00  0.00    -0.206 F 
ATOM     56  C   UNL A   1      45.187  35.794  28.318  1.00  0.00     0.040 A 
ATOM     57  C   UNL A   1      46.083  35.098  30.442  1.00  0.00     0.040 A 
ATOM     58  F   UNL A   1      45.875  32.866  31.131  1.00  0.00    -0.206 F 
ATOM     59  C   UNL A   1      45.865  36.099  29.497  1.00  0.00     0.006 A 
ENDBRANCH  38  52
BRANCH  39  60
ATOM     60  C   UNL A   1      41.123  24.354  27.650  1.00  0.00     0.057 A 
ATOM     61  C   UNL A   1      41.607  23.226  28.319  1.00  0.00     0.134 A 
ATOM     62  C   UNL A   1      40.090  24.162  26.723  1.00  0.00     0.134 A 
ATOM     63  F   UNL A   1      42.612  23.343  29.200  1.00  0.00    -0.206 F 
ATOM     64  C   UNL A   1      41.094  21.952  28.069  1.00  0.00     0.040 A 
ATOM     65  C   UNL A   1      39.552  22.897  26.480  1.00  0.00     0.040 A 
ATOM     66  F   UNL A   1      39.584  25.203  26.046  1.00  0.00    -0.206 F 
ATOM     67  C   UNL A   1      40.059  21.787  27.150  1.00  0.00     0.006 A 
ENDBRANCH  39  60
BRANCH  51  68
ATOM     68  C   UNL A   1      47.138  27.380  25.866  1.00  0.00     0.057 A 
ATOM     69  C   UNL A   1      48.176  26.686  26.499  1.00  0.00     0.134 A 
ATOM     70  C   UNL A   1      47.226  27.555  24.478  1.00  0.00     0.134 A 
ATOM     71  F   UNL A   1      48.156  26.498  27.827  1.00  0.00    -0.206 F 
ATOM     72  C   UNL A   1      49.267  26.195  25.781  1.00  0.00     0.040 A 
ATOM     73  C   UNL A   1      48.300  27.048  23.747  1.00  0.00     0.040 A 
ATOM     74  F   UNL A   1      46.261  28.204  23.811  1.00  0.00    -0.206 F 
ATOM     75  C   UNL A   1      49.327  26.368  24.399  1.00  0.00     0.006 A 
ENDBRANCH  51  68
ENDBRANCH  25  26
ENDBRANCH  18  20
ENDBRANCH  17  18
ENDBRANCH  16  17
ENDBRANCH   1  16
TORSDOF 15
ENDMDL
MODEL 2
REMARK VINA RESULT:      -9.9      4.098      6.140
REMARK SMILES O=CN1CCC[C@@H](C(=O)OCCOCCOC(=O)c2ccc(-c3c4nc(c(-c5c(F)cccc5F)c5ccc([nH]5)c(-c5c(F)cccc5F)c5nc(c(-c6c(F)cccc6F)c6ccc3[nH]6)C=C5)C=C4)cc2)C1
REMARK SMILES IDX 14 1 13 2 12 3 11 4 10 5 8 6 9 7 7 8 3 9 4 10 73 11 5 12
REMARK SMILES IDX 6 13 2 14 1 15 15 16 16 17 17 18 18 19 19 20 20 21 72 22
REMARK SMILES IDX 21 23 71 24 22 25 23 26 24 27 65 28 25 29 70 30 64 31 66 32
REMARK SMILES IDX 26 33 69 34 63 35 62 36 27 38 53 39 36 40 52 41 37 42 40 43
REMARK SMILES IDX 51 44 67 45 38 46 39 47 50 49 68 50 41 51 28 52 29 53 34 54
REMARK SMILES IDX 30 55 31 56 33 57 35 58 32 59 54 60 55 61 60 62 56 63 57 64
REMARK SMILES IDX 59 65 61 66 58 67 42 68 43 69 48 70 44 71 45 72 47 73 49 74
REMARK SMILES IDX 46 75
REMARK H PARENT 66 37 40 48
REMARK Flexibility Score: inf
ROOT
ATOM      1  C   UNL A   1      34.453  35.071  27.930  1.00  0.00     0.202 C 
ENDROOT
BRANCH   1   2
ATOM      2  O   UNL A   1      34.069  36.079  28.870  1.00  0.00    -0.374 OA
BRANCH   2   3
ATOM      3  C   UNL A   1      32.903  35.838  29.651  1.00  0.00     0.202 C 
BRANCH   3   4
ATOM      4  C   UNL A   1      32.906  36.387  31.081  1.00  0.00     0.261 C 
BRANCH   4   5
ATOM      5  O   UNL A   1      33.319  35.396  32.033  1.00  0.00    -0.463 OA
BRANCH   5   6
ATOM      6  C   UNL A   1      34.372  35.751  32.820  1.00  0.00     0.310 C 
ATOM      7  O   UNL A   1      34.402  36.746  33.533  1.00  0.00    -0.252 OA
BRANCH   6   8
ATOM      8  C   UNL A   1      35.473  34.704  32.799  1.00  0.00     0.119 C 
ATOM      9  N   UNL A   1      36.442  32.761  33.986  1.00  0.00    -0.344 N 
ATOM     10  C   UNL A   1      36.193  31.851  32.880  1.00  0.00     0.119 C 
ATOM     11  C   UNL A   1      35.549  33.914  34.108  1.00  0.00     0.134 C 
ATOM     12  C   UNL A   1      36.240  32.615  31.566  1.00  0.00     0.022 C 
ATOM     13  C   UNL A   1      35.254  33.777  31.589  1.00  0.00     0.019 C 
BRANCH   9  14
ATOM     14  C   UNL A   1      37.477  32.555  34.871  1.00  0.00     0.339 C 
ATOM     15  O   UNL A   1      37.403  31.951  35.932  1.00  0.00    -0.279 OA
ENDBRANCH   9  14
ENDBRANCH   6   8
ENDBRANCH   5   6
ENDBRANCH   4   5
ENDBRANCH   3   4
ENDBRANCH   2   3
ENDBRANCH   1   2
BRANCH   1  16
ATOM     16  C   UNL A   1      34.027  33.631  28.241  1.00  0.00     0.261 C 
BRANCH  16  17
ATOM     17  O   UNL A   1      34.940  32.671  27.680  1.00  0.00    -0.460 OA
BRANCH  17  18
ATOM     18  C   UNL A   1      34.604  31.374  27.866  1.00  0.00     0.338 C 
ATOM     19  O   UNL A   1      33.529  30.841  27.626  1.00  0.00    -0.246 OA
BRANCH  18  20
ATOM     20  C   UNL A   1      35.806  30.603  28.226  1.00  0.00     0.060 A 
ATOM     21  C   UNL A   1      35.717  29.720  29.311  1.00  0.00     0.016 A 
ATOM     22  C   UNL A   1      37.014  30.780  27.550  1.00  0.00     0.016 A 
ATOM     23  C   UNL A   1      36.846  29.029  29.742  1.00  0.00     0.010 A 
ATOM     24  C   UNL A   1      38.150  30.099  27.996  1.00  0.00     0.010 A 
ATOM     25  C   UNL A   1      38.077  29.240  29.107  1.00  0.00    -0.014 A 
BRANCH  25  26
ATOM     26  C   UNL A   1      39.314  28.657  29.675  1.00  0.00     0.031 A 
ATOM     27  C   UNL A   1      39.930  29.294  30.886  1.00  0.00     0.074 A 
ATOM     28  C   UNL A   1      39.881  27.575  29.113  1.00  0.00     0.049 A 
ATOM     29  N   UNL A   1      41.053  29.007  31.492  1.00  0.00    -0.248 NA
ATOM     30  C   UNL A   1      39.180  30.403  31.496  1.00  0.00     0.031 C 
ATOM     31  C   UNL A   1      39.351  26.845  27.963  1.00  0.00     0.029 A 
ATOM     32  N   UNL A   1      41.042  26.915  29.427  1.00  0.00    -0.354 N 
ATOM     33  C   UNL A   1      41.150  29.903  32.549  1.00  0.00     0.074 A 
ATOM     34  C   UNL A   1      39.982  30.757  32.489  1.00  0.00     0.031 C 
ATOM     35  C   UNL A   1      40.197  25.848  27.653  1.00  0.00     0.029 A 
ATOM     36  C   UNL A   1      41.345  25.895  28.559  1.00  0.00     0.049 A 
ATOM     37  H   UNL A   1      41.604  27.150  30.200  1.00  0.00     0.167 HD
ATOM     38  C   UNL A   1      42.123  30.003  33.484  1.00  0.00     0.037 A 
ATOM     39  C   UNL A   1      42.439  25.115  28.484  1.00  0.00     0.037 A 
ATOM     40  C   UNL A   1      43.285  29.156  33.537  1.00  0.00     0.049 A 
ATOM     41  C   UNL A   1      43.552  25.306  29.480  1.00  0.00     0.074 A 
ATOM     42  C   UNL A   1      44.316  29.161  34.460  1.00  0.00     0.029 A 
ATOM     43  N   UNL A   1      43.575  28.159  32.617  1.00  0.00    -0.354 N 
ATOM     44  N   UNL A   1      43.624  26.139  30.490  1.00  0.00    -0.248 NA
ATOM     45  C   UNL A   1      44.738  24.451  29.322  1.00  0.00     0.031 C 
ATOM     46  C   UNL A   1      45.254  28.200  34.071  1.00  0.00     0.029 A 
ATOM     47  C   UNL A   1      44.785  27.564  32.932  1.00  0.00     0.049 A 
ATOM     48  H   UNL A   1      43.005  27.911  31.854  1.00  0.00     0.167 HD
ATOM     49  C   UNL A   1      44.849  25.895  31.099  1.00  0.00     0.074 A 
ATOM     50  C   UNL A   1      45.483  24.828  30.353  1.00  0.00     0.031 C 
ATOM     51  C   UNL A   1      45.400  26.501  32.179  1.00  0.00     0.037 A 
BRANCH  38  52
ATOM     52  C   UNL A   1      41.986  31.087  34.512  1.00  0.00     0.057 A 
ATOM     53  C   UNL A   1      42.587  32.341  34.351  1.00  0.00     0.134 A 
ATOM     54  C   UNL A   1      41.215  30.882  35.663  1.00  0.00     0.134 A 
ATOM     55  F   UNL A   1      43.350  32.595  33.277  1.00  0.00    -0.206 F 
ATOM     56  C   UNL A   1      42.444  33.347  35.309  1.00  0.00     0.040 A 
ATOM     57  C   UNL A   1      41.044  31.887  36.616  1.00  0.00     0.040 A 
ATOM     58  F   UNL A   1      40.608  29.704  35.876  1.00  0.00    -0.206 F 
ATOM     59  C   UNL A   1      41.665  33.123  36.443  1.00  0.00     0.006 A 
ENDBRANCH  38  52
BRANCH  39  60
ATOM     60  C   UNL A   1      42.554  24.099  27.408  1.00  0.00     0.057 A 
ATOM     61  C   UNL A   1      42.129  22.781  27.605  1.00  0.00     0.134 A 
ATOM     62  C   UNL A   1      43.113  24.418  26.163  1.00  0.00     0.134 A 
ATOM     63  F   UNL A   1      41.610  22.409  28.785  1.00  0.00    -0.206 F 
ATOM     64  C   UNL A   1      42.264  21.813  26.609  1.00  0.00     0.040 A 
ATOM     65  C   UNL A   1      43.232  23.466  25.150  1.00  0.00     0.040 A 
ATOM     66  F   UNL A   1      43.542  25.664  25.912  1.00  0.00    -0.206 F 
ATOM     67  C   UNL A   1      42.812  22.157  25.374  1.00  0.00     0.006 A 
ENDBRANCH  39  60
BRANCH  51  68
ATOM     68  C   UNL A   1      46.742  26.009  32.637  1.00  0.00     0.057 A 
ATOM     69  C   UNL A   1      46.869  25.015  33.615  1.00  0.00     0.134 A 
ATOM     70  C   UNL A   1      47.917  26.497  32.051  1.00  0.00     0.134 A 
ATOM     71  F   UNL A   1      45.782  24.517  34.222  1.00  0.00    -0.206 F 
ATOM     72  C   UNL A   1      48.119  24.533  34.004  1.00  0.00     0.040 A 
ATOM     73  C   UNL A   1      49.171  26.006  32.416  1.00  0.00     0.040 A 
ATOM     74  F   UNL A   1      47.864  27.444  31.103  1.00  0.00    -0.206 F 
ATOM     75  C   UNL A   1      49.275  25.023  33.398  1.00  0.00     0.006 A 
ENDBRANCH  51  68
ENDBRANCH  25  26
ENDBRANCH  18  20
ENDBRANCH  17  18
ENDBRANCH  16  17
ENDBRANCH   1  16
TORSDOF 15
ENDMDL
MODEL 3
REMARK VINA RESULT:      -9.7      2.513      3.976
REMARK SMILES O=CN1CCC[C@@H](C(=O)OCCOCCOC(=O)c2ccc(-c3c4nc(c(-c5c(F)cccc5F)c5ccc([nH]5)c(-c5c(F)cccc5F)c5nc(c(-c6c(F)cccc6F)c6ccc3[nH]6)C=C5)C=C4)cc2)C1
REMARK SMILES IDX 14 1 13 2 12 3 11 4 10 5 8 6 9 7 7 8 3 9 4 10 73 11 5 12
REMARK SMILES IDX 6 13 2 14 1 15 15 16 16 17 17 18 18 19 19 20 20 21 72 22
REMARK SMILES IDX 21 23 71 24 22 25 23 26 24 27 65 28 25 29 70 30 64 31 66 32
REMARK SMILES IDX 26 33 69 34 63 35 62 36 27 38 53 39 36 40 52 41 37 42 40 43
REMARK SMILES IDX 51 44 67 45 38 46 39 47 50 49 68 50 41 51 28 52 29 53 34 54
REMARK SMILES IDX 30 55 31 56 33 57 35 58 32 59 54 60 55 61 60 62 56 63 57 64
REMARK SMILES IDX 59 65 61 66 58 67 42 68 43 69 48 70 44 71 45 72 47 73 49 74
REMARK SMILES IDX 46 75
REMARK H PARENT 66 37 40 48
REMARK Flexibility Score: inf
ROOT
ATOM      1  C   UNL A   1      32.174  30.207  26.037  1.00  0.00     0.202 C 
ENDROOT
BRANCH   1   2
ATOM      2  O   UNL A   1      33.006  29.551  25.076  1.00  0.00    -0.374 OA
BRANCH   2   3
ATOM      3  C   UNL A   1      32.815  28.152  24.890  1.00  0.00     0.202 C 
BRANCH   3   4
ATOM      4  C   UNL A   1      32.460  27.687  23.475  1.00  0.00     0.261 C 
BRANCH   4   5
ATOM      5  O   UNL A   1      31.980  28.768  22.661  1.00  0.00    -0.463 OA
BRANCH   5   6
ATOM      6  C   UNL A   1      30.650  28.733  22.375  1.00  0.00     0.310 C 
ATOM      7  O   UNL A   1      30.000  27.708  22.217  1.00  0.00    -0.252 OA
BRANCH   6   8
ATOM      8  C   UNL A   1      30.033  30.122  22.385  1.00  0.00     0.119 C 
ATOM      9  N   UNL A   1      28.175  31.517  21.535  1.00  0.00    -0.344 N 
ATOM     10  C   UNL A   1      27.649  31.781  22.863  1.00  0.00     0.119 C 
ATOM     11  C   UNL A   1      28.913  30.267  21.350  1.00  0.00     0.134 C 
ATOM     12  C   UNL A   1      28.783  31.760  23.877  1.00  0.00     0.022 C 
ATOM     13  C   UNL A   1      29.536  30.436  23.807  1.00  0.00     0.019 C 
BRANCH   9  14
ATOM     14  C   UNL A   1      27.996  32.407  20.498  1.00  0.00     0.339 C 
ATOM     15  O   UNL A   1      27.361  33.450  20.550  1.00  0.00    -0.279 OA
ENDBRANCH   9  14
ENDBRANCH   6   8
ENDBRANCH   5   6
ENDBRANCH   4   5
ENDBRANCH   3   4
ENDBRANCH   2   3
ENDBRANCH   1   2
BRANCH   1  16
ATOM     16  C   UNL A   1      32.862  30.752  27.295  1.00  0.00     0.261 C 
BRANCH  16  17
ATOM     17  O   UNL A   1      34.195  30.230  27.444  1.00  0.00    -0.460 OA
BRANCH  17  18
ATOM     18  C   UNL A   1      34.952  30.834  28.388  1.00  0.00     0.338 C 
ATOM     19  O   UNL A   1      34.600  31.684  29.194  1.00  0.00    -0.246 OA
BRANCH  18  20
ATOM     20  C   UNL A   1      36.266  30.173  28.459  1.00  0.00     0.060 A 
ATOM     21  C   UNL A   1      36.679  29.671  29.701  1.00  0.00     0.016 A 
ATOM     22  C   UNL A   1      37.102  30.093  27.345  1.00  0.00     0.016 A 
ATOM     23  C   UNL A   1      37.946  29.109  29.840  1.00  0.00     0.010 A 
ATOM     24  C   UNL A   1      38.380  29.546  27.491  1.00  0.00     0.010 A 
ATOM     25  C   UNL A   1      38.816  29.073  28.742  1.00  0.00    -0.014 A 
BRANCH  25  26
ATOM     26  C   UNL A   1      40.223  28.653  28.926  1.00  0.00     0.031 A 
ATOM     27  C   UNL A   1      41.215  29.643  29.464  1.00  0.00     0.074 A 
ATOM     28  C   UNL A   1      40.612  27.405  28.612  1.00  0.00     0.049 A 
ATOM     29  N   UNL A   1      42.508  29.520  29.620  1.00  0.00    -0.248 NA
ATOM     30  C   UNL A   1      40.677  30.947  29.883  1.00  0.00     0.031 C 
ATOM     31  C   UNL A   1      39.732  26.345  28.124  1.00  0.00     0.029 A 
ATOM     32  N   UNL A   1      41.855  26.827  28.641  1.00  0.00    -0.354 N 
ATOM     33  C   UNL A   1      42.940  30.731  30.146  1.00  0.00     0.074 A 
ATOM     34  C   UNL A   1      41.775  31.583  30.264  1.00  0.00     0.031 C 
ATOM     35  C   UNL A   1      40.468  25.248  27.877  1.00  0.00     0.029 A 
ATOM     36  C   UNL A   1      41.874  25.542  28.155  1.00  0.00     0.049 A 
ATOM     37  H   UNL A   1      42.657  27.288  28.978  1.00  0.00     0.167 HD
ATOM     38  C   UNL A   1      44.195  31.097  30.500  1.00  0.00     0.037 A 
ATOM     39  C   UNL A   1      42.911  24.715  27.928  1.00  0.00     0.037 A 
ATOM     40  C   UNL A   1      45.350  30.250  30.376  1.00  0.00     0.049 A 
ATOM     41  C   UNL A   1      44.309  25.178  28.244  1.00  0.00     0.074 A 
ATOM     42  C   UNL A   1      46.661  30.519  30.731  1.00  0.00     0.029 A 
ATOM     43  N   UNL A   1      45.334  28.969  29.844  1.00  0.00    -0.354 N 
ATOM     44  N   UNL A   1      44.705  26.314  28.763  1.00  0.00    -0.248 NA
ATOM     45  C   UNL A   1      45.403  24.246  27.936  1.00  0.00     0.031 C 
ATOM     46  C   UNL A   1      47.445  29.420  30.368  1.00  0.00     0.029 A 
ATOM     47  C   UNL A   1      46.617  28.447  29.831  1.00  0.00     0.049 A 
ATOM     48  H   UNL A   1      44.530  28.500  29.524  1.00  0.00     0.167 HD
ATOM     49  C   UNL A   1      46.088  26.225  28.864  1.00  0.00     0.074 A 
ATOM     50  C   UNL A   1      46.462  24.919  28.363  1.00  0.00     0.031 C 
ATOM     51  C   UNL A   1      46.970  27.143  29.330  1.00  0.00     0.037 A 
BRANCH  38  52
ATOM     52  C   UNL A   1      44.385  32.487  31.031  1.00  0.00     0.057 A 
ATOM     53  C   UNL A   1      44.324  32.772  32.400  1.00  0.00     0.134 A 
ATOM     54  C   UNL A   1      44.665  33.548  30.161  1.00  0.00     0.134 A 
ATOM     55  F   UNL A   1      44.045  31.801  33.284  1.00  0.00    -0.206 F 
ATOM     56  C   UNL A   1      44.514  34.067  32.885  1.00  0.00     0.040 A 
ATOM     57  C   UNL A   1      44.880  34.843  30.635  1.00  0.00     0.040 A 
ATOM     58  F   UNL A   1      44.742  33.343  28.837  1.00  0.00    -0.206 F 
ATOM     59  C   UNL A   1      44.799  35.106  32.001  1.00  0.00     0.006 A 
ENDBRANCH  38  52
BRANCH  39  60
ATOM     60  C   UNL A   1      42.675  23.372  27.342  1.00  0.00     0.057 A 
ATOM     61  C   UNL A   1      42.742  23.160  25.961  1.00  0.00     0.134 A 
ATOM     62  C   UNL A   1      42.356  22.272  28.149  1.00  0.00     0.134 A 
ATOM     63  F   UNL A   1      43.018  24.181  25.135  1.00  0.00    -0.206 F 
ATOM     64  C   UNL A   1      42.490  21.907  25.401  1.00  0.00     0.040 A 
ATOM     65  C   UNL A   1      42.125  21.008  27.604  1.00  0.00     0.040 A 
ATOM     66  F   UNL A   1      42.274  22.409  29.481  1.00  0.00    -0.206 F 
ATOM     67  C   UNL A   1      42.185  20.825  26.225  1.00  0.00     0.006 A 
ENDBRANCH  39  60
BRANCH  51  68
ATOM     68  C   UNL A   1      48.421  26.761  29.345  1.00  0.00     0.057 A 
ATOM     69  C   UNL A   1      48.981  26.032  30.403  1.00  0.00     0.134 A 
ATOM     70  C   UNL A   1      49.254  27.077  28.264  1.00  0.00     0.134 A 
ATOM     71  F   UNL A   1      48.239  25.710  31.473  1.00  0.00    -0.206 F 
ATOM     72  C   UNL A   1      50.320  25.644  30.389  1.00  0.00     0.040 A 
ATOM     73  C   UNL A   1      50.589  26.674  28.229  1.00  0.00     0.040 A 
ATOM     74  F   UNL A   1      48.777  27.766  27.216  1.00  0.00    -0.206 F 
ATOM     75  C   UNL A   1      51.127  25.957  29.296  1.00  0.00     0.006 A 
ENDBRANCH  51  68
ENDBRANCH  25  26
ENDBRANCH  18  20
ENDBRANCH  17  18
ENDBRANCH  16  17
ENDBRANCH   1  16
TORSDOF 15
ENDMDL
