MODEL 1
REMARK VINA RESULT:     -12.5      0.000      0.000
REMARK SMILES Cc1cc(C(=O)OCCOCCOC(=O)c2ccc(-c3c4nc(c(-c5c(F)cccc5F)c5ccc([nH]5)c(-c5c(F)cccc5F)c5nc(c(-c6c(F)cccc6F)c6ccc3[nH]6)C=C5)C=C4)cc2)ccc1NC(=O)c1ccc(=O)n(CCOc2ccccc2)n1
REMARK SMILES IDX 8 1 7 2 5 3 6 4 4 5 1 6 2 7 3 8 72 9 71 10 70 11 73 12 74 13
REMARK SMILES IDX 75 15 76 16 77 17 91 18 78 19 81 20 79 21 80 22 82 23 83 24
REMARK SMILES IDX 84 25 85 26 86 27 90 28 87 29 89 30 88 31 9 32 10 33 11 34
REMARK SMILES IDX 12 35 13 36 14 37 15 38 16 39 17 40 69 41 18 42 68 43 19 44
REMARK SMILES IDX 20 45 21 46 62 47 22 48 67 49 61 50 63 51 23 52 66 53 60 54
REMARK SMILES IDX 59 55 24 57 50 58 33 59 49 60 34 61 37 62 48 63 64 64 35 65
REMARK SMILES IDX 36 66 47 68 65 69 38 70 25 71 26 72 31 73 27 74 28 75 30 76
REMARK SMILES IDX 32 77 29 78 51 79 52 80 57 81 53 82 54 83 56 84 58 85 55 86
REMARK SMILES IDX 39 87 40 88 45 89 41 90 42 91 44 92 46 93 43 94
REMARK H PARENT 73 14 63 56 37 67
REMARK Flexibility Score: inf
ROOT
ATOM      1  C   UNL A   1      32.962  31.269  27.253  1.00  0.00     0.261 C 
ENDROOT
BRANCH   1   2
ATOM      2  O   UNL A   1      33.299  29.958  26.769  1.00  0.00    -0.460 OA
BRANCH   2   3
ATOM      3  C   UNL A   1      32.391  28.941  26.863  1.00  0.00     0.338 C 
ATOM      4  O   UNL A   1      31.794  28.548  27.836  1.00  0.00    -0.246 OA
BRANCH   3   5
ATOM      5  C   UNL A   1      32.209  28.448  25.480  1.00  0.00     0.060 A 
ATOM      6  C   UNL A   1      29.794  26.523  23.292  1.00  0.00     0.046 C 
ATOM      7  C   UNL A   1      31.066  27.192  23.728  1.00  0.00    -0.027 A 
ATOM      8  C   UNL A   1      31.172  27.600  25.085  1.00  0.00     0.021 A 
ATOM      9  C   UNL A   1      32.054  27.603  22.822  1.00  0.00     0.044 A 
ATOM     10  C   UNL A   1      32.805  28.691  23.188  1.00  0.00     0.027 A 
ATOM     11  C   UNL A   1      32.990  29.029  24.498  1.00  0.00     0.018 A 
BRANCH   9  12
ATOM     12  N   UNL A   1      32.354  26.945  21.609  1.00  0.00    -0.320 N 
ATOM     13  C   UNL A   1      32.836  25.637  21.428  1.00  0.00     0.276 C 
ATOM     14  H   UNL A   1      32.206  27.467  20.788  1.00  0.00     0.170 HD
ATOM     15  O   UNL A   1      33.046  25.183  20.307  1.00  0.00    -0.267 OA
BRANCH  13  16
ATOM     16  C   UNL A   1      33.168  24.749  22.638  1.00  0.00     0.149 A 
ATOM     17  C   UNL A   1      34.394  25.149  23.373  1.00  0.00     0.042 A 
ATOM     18  N   UNL A   1      32.368  23.791  23.023  1.00  0.00    -0.164 NA
ATOM     19  C   UNL A   1      34.362  24.909  24.686  1.00  0.00     0.076 A 
ATOM     20  N   UNL A   1      32.571  23.332  24.340  1.00  0.00    -0.226 N 
ATOM     21  C   UNL A   1      33.229  24.144  25.261  1.00  0.00     0.266 A 
ATOM     22  O   UNL A   1      33.003  24.224  26.466  1.00  0.00    -0.268 OA
BRANCH  20  23
ATOM     23  C   UNL A   1      31.777  22.191  24.814  1.00  0.00     0.190 C 
BRANCH  23  24
ATOM     24  C   UNL A   1      32.295  20.811  24.340  1.00  0.00     0.253 C 
BRANCH  24  25
ATOM     25  O   UNL A   1      32.141  19.734  25.298  1.00  0.00    -0.492 OA
BRANCH  25  26
ATOM     26  C   UNL A   1      32.700  18.562  24.874  1.00  0.00     0.119 A 
ATOM     27  C   UNL A   1      33.214  18.407  23.593  1.00  0.00     0.046 A 
ATOM     28  C   UNL A   1      32.644  17.462  25.713  1.00  0.00     0.046 A 
ATOM     29  C   UNL A   1      33.814  17.190  23.233  1.00  0.00     0.004 A 
ATOM     30  C   UNL A   1      33.317  16.284  25.403  1.00  0.00     0.004 A 
ATOM     31  C   UNL A   1      33.920  16.153  24.160  1.00  0.00     0.000 A 
ENDBRANCH  25  26
ENDBRANCH  24  25
ENDBRANCH  23  24
ENDBRANCH  20  23
ENDBRANCH  13  16
ENDBRANCH   9  12
ENDBRANCH   3   5
ENDBRANCH   2   3
ENDBRANCH   1   2
BRANCH   1  32
ATOM     32  C   UNL A   1      34.045  31.909  28.050  1.00  0.00     0.202 C 
BRANCH  32  33
ATOM     33  O   UNL A   1      33.997  33.281  27.706  1.00  0.00    -0.374 OA
BRANCH  33  34
ATOM     34  C   UNL A   1      33.061  34.047  28.431  1.00  0.00     0.202 C 
BRANCH  34  35
ATOM     35  C   UNL A   1      33.726  35.000  29.435  1.00  0.00     0.261 C 
BRANCH  35  36
ATOM     36  O   UNL A   1      33.583  34.464  30.770  1.00  0.00    -0.460 OA
BRANCH  36  37
ATOM     37  C   UNL A   1      34.718  34.352  31.518  1.00  0.00     0.338 C 
ATOM     38  O   UNL A   1      35.178  35.220  32.242  1.00  0.00    -0.246 OA
BRANCH  37  39
ATOM     39  C   UNL A   1      35.486  33.142  31.090  1.00  0.00     0.060 A 
ATOM     40  C   UNL A   1      35.333  31.922  31.783  1.00  0.00     0.016 A 
ATOM     41  C   UNL A   1      36.591  33.329  30.266  1.00  0.00     0.016 A 
ATOM     42  C   UNL A   1      36.376  30.978  31.800  1.00  0.00     0.010 A 
ATOM     43  C   UNL A   1      37.648  32.448  30.370  1.00  0.00     0.010 A 
ATOM     44  C   UNL A   1      37.579  31.294  31.175  1.00  0.00    -0.014 A 
BRANCH  44  45
ATOM     45  C   UNL A   1      38.881  30.639  31.388  1.00  0.00     0.031 A 
ATOM     46  C   UNL A   1      39.208  29.492  30.510  1.00  0.00     0.074 A 
ATOM     47  C   UNL A   1      39.882  31.250  32.080  1.00  0.00     0.049 A 
ATOM     48  N   UNL A   1      40.307  28.837  30.587  1.00  0.00    -0.248 NA
ATOM     49  C   UNL A   1      38.320  28.957  29.476  1.00  0.00     0.031 C 
ATOM     50  C   UNL A   1      41.337  31.110  31.921  1.00  0.00     0.029 A 
ATOM     51  N   UNL A   1      39.809  32.220  33.086  1.00  0.00    -0.354 N 
ATOM     52  C   UNL A   1      40.434  28.078  29.453  1.00  0.00     0.074 A 
ATOM     53  C   UNL A   1      39.123  28.081  28.862  1.00  0.00     0.031 C 
ATOM     54  C   UNL A   1      41.975  31.682  32.961  1.00  0.00     0.029 A 
ATOM     55  C   UNL A   1      40.954  32.134  33.889  1.00  0.00     0.049 A 
ATOM     56  H   UNL A   1      39.071  32.861  33.208  1.00  0.00     0.167 HD
ATOM     57  C   UNL A   1      41.682  27.646  29.128  1.00  0.00     0.037 A 
ATOM     58  C   UNL A   1      40.839  31.893  35.219  1.00  0.00     0.037 A 
ATOM     59  C   UNL A   1      42.616  27.932  30.234  1.00  0.00     0.049 A 
ATOM     60  C   UNL A   1      41.433  30.536  35.425  1.00  0.00     0.074 A 
ATOM     61  C   UNL A   1      43.665  28.817  30.409  1.00  0.00     0.029 A 
ATOM     62  N   UNL A   1      42.296  27.459  31.513  1.00  0.00    -0.354 N 
ATOM     63  N   UNL A   1      41.445  29.631  34.477  1.00  0.00    -0.248 NA
ATOM     64  C   UNL A   1      42.257  30.174  36.571  1.00  0.00     0.031 C 
ATOM     65  C   UNL A   1      43.892  28.948  31.817  1.00  0.00     0.029 A 
ATOM     66  C   UNL A   1      43.006  28.120  32.498  1.00  0.00     0.049 A 
ATOM     67  H   UNL A   1      41.644  26.743  31.688  1.00  0.00     0.167 HD
ATOM     68  C   UNL A   1      42.386  28.700  34.780  1.00  0.00     0.074 A 
ATOM     69  C   UNL A   1      42.814  29.031  36.131  1.00  0.00     0.031 C 
ATOM     70  C   UNL A   1      42.838  27.758  33.905  1.00  0.00     0.037 A 
BRANCH  57  71
ATOM     71  C   UNL A   1      42.107  27.084  27.787  1.00  0.00     0.057 A 
ATOM     72  C   UNL A   1      42.018  27.882  26.629  1.00  0.00     0.134 A 
ATOM     73  C   UNL A   1      42.542  25.764  27.537  1.00  0.00     0.134 A 
ATOM     74  F   UNL A   1      41.591  29.151  26.689  1.00  0.00    -0.206 F 
ATOM     75  C   UNL A   1      42.348  27.415  25.346  1.00  0.00     0.040 A 
ATOM     76  C   UNL A   1      42.920  25.300  26.267  1.00  0.00     0.040 A 
ATOM     77  F   UNL A   1      42.577  24.824  28.486  1.00  0.00    -0.206 F 
ATOM     78  C   UNL A   1      42.819  26.125  25.161  1.00  0.00     0.006 A 
ENDBRANCH  57  71
BRANCH  58  79
ATOM     79  C   UNL A   1      39.622  32.564  35.780  1.00  0.00     0.057 A 
ATOM     80  C   UNL A   1      38.632  31.699  36.301  1.00  0.00     0.134 A 
ATOM     81  C   UNL A   1      39.658  33.853  36.323  1.00  0.00     0.134 A 
ATOM     82  F   UNL A   1      38.517  30.454  35.816  1.00  0.00    -0.206 F 
ATOM     83  C   UNL A   1      37.851  32.029  37.418  1.00  0.00     0.040 A 
ATOM     84  C   UNL A   1      38.869  34.199  37.437  1.00  0.00     0.040 A 
ATOM     85  F   UNL A   1      40.570  34.742  35.904  1.00  0.00    -0.206 F 
ATOM     86  C   UNL A   1      38.006  33.272  38.021  1.00  0.00     0.006 A 
ENDBRANCH  58  79
BRANCH  70  87
ATOM     87  C   UNL A   1      43.169  26.376  34.386  1.00  0.00     0.057 A 
ATOM     88  C   UNL A   1      42.217  25.523  34.972  1.00  0.00     0.134 A 
ATOM     89  C   UNL A   1      44.410  25.782  34.087  1.00  0.00     0.134 A 
ATOM     90  F   UNL A   1      40.951  25.908  35.188  1.00  0.00    -0.206 F 
ATOM     91  C   UNL A   1      42.506  24.204  35.317  1.00  0.00     0.040 A 
ATOM     92  C   UNL A   1      44.682  24.443  34.360  1.00  0.00     0.040 A 
ATOM     93  F   UNL A   1      45.395  26.457  33.480  1.00  0.00    -0.206 F 
ATOM     94  C   UNL A   1      43.739  23.656  35.000  1.00  0.00     0.006 A 
ENDBRANCH  70  87
ENDBRANCH  44  45
ENDBRANCH  37  39
ENDBRANCH  36  37
ENDBRANCH  35  36
ENDBRANCH  34  35
ENDBRANCH  33  34
ENDBRANCH  32  33
ENDBRANCH   1  32
TORSDOF 20
ENDMDL
MODEL 2
REMARK VINA RESULT:     -12.4      2.503      4.498
REMARK SMILES Cc1cc(C(=O)OCCOCCOC(=O)c2ccc(-c3c4nc(c(-c5c(F)cccc5F)c5ccc([nH]5)c(-c5c(F)cccc5F)c5nc(c(-c6c(F)cccc6F)c6ccc3[nH]6)C=C5)C=C4)cc2)ccc1NC(=O)c1ccc(=O)n(CCOc2ccccc2)n1
REMARK SMILES IDX 8 1 7 2 5 3 6 4 4 5 1 6 2 7 3 8 72 9 71 10 70 11 73 12 74 13
REMARK SMILES IDX 75 15 76 16 77 17 91 18 78 19 81 20 79 21 80 22 82 23 83 24
REMARK SMILES IDX 84 25 85 26 86 27 90 28 87 29 89 30 88 31 9 32 10 33 11 34
REMARK SMILES IDX 12 35 13 36 14 37 15 38 16 39 17 40 69 41 18 42 68 43 19 44
REMARK SMILES IDX 20 45 21 46 62 47 22 48 67 49 61 50 63 51 23 52 66 53 60 54
REMARK SMILES IDX 59 55 24 57 50 58 33 59 49 60 34 61 37 62 48 63 64 64 35 65
REMARK SMILES IDX 36 66 47 68 65 69 38 70 25 71 26 72 31 73 27 74 28 75 30 76
REMARK SMILES IDX 32 77 29 78 51 79 52 80 57 81 53 82 54 83 56 84 58 85 55 86
REMARK SMILES IDX 39 87 40 88 45 89 41 90 42 91 44 92 46 93 43 94
REMARK H PARENT 73 14 63 56 37 67
REMARK Flexibility Score: inf
ROOT
ATOM      1  C   UNL A   1      33.514  34.457  29.008  1.00  0.00     0.261 C 
ENDROOT
BRANCH   1   2
ATOM      2  O   UNL A   1      33.673  33.556  27.899  1.00  0.00    -0.460 OA
BRANCH   2   3
ATOM      3  C   UNL A   1      34.648  32.597  27.933  1.00  0.00     0.338 C 
ATOM      4  O   UNL A   1      35.816  32.718  28.210  1.00  0.00    -0.246 OA
BRANCH   3   5
ATOM      5  C   UNL A   1      33.956  31.324  27.634  1.00  0.00     0.060 A 
ATOM      6  C   UNL A   1      31.157  29.869  25.543  1.00  0.00     0.046 C 
ATOM      7  C   UNL A   1      32.216  29.958  26.604  1.00  0.00    -0.027 A 
ATOM      8  C   UNL A   1      32.802  31.229  26.854  1.00  0.00     0.021 A 
ATOM      9  C   UNL A   1      32.781  28.826  27.208  1.00  0.00     0.044 A 
ATOM     10  C   UNL A   1      34.076  28.946  27.641  1.00  0.00     0.027 A 
ATOM     11  C   UNL A   1      34.614  30.156  27.976  1.00  0.00     0.018 A 
BRANCH   9  12
ATOM     12  N   UNL A   1      32.094  27.615  27.442  1.00  0.00    -0.320 N 
ATOM     13  C   UNL A   1      32.152  26.426  26.692  1.00  0.00     0.276 C 
ATOM     14  H   UNL A   1      31.502  27.600  28.227  1.00  0.00     0.170 HD
ATOM     15  O   UNL A   1      31.505  25.435  27.016  1.00  0.00    -0.267 OA
BRANCH  13  16
ATOM     16  C   UNL A   1      32.990  26.351  25.406  1.00  0.00     0.149 A 
ATOM     17  C   UNL A   1      34.086  25.350  25.447  1.00  0.00     0.042 A 
ATOM     18  N   UNL A   1      32.681  27.050  24.346  1.00  0.00    -0.164 NA
ATOM     19  C   UNL A   1      34.369  24.783  24.271  1.00  0.00     0.076 A 
ATOM     20  N   UNL A   1      33.262  26.604  23.142  1.00  0.00    -0.226 N 
ATOM     21  C   UNL A   1      33.717  25.291  23.040  1.00  0.00     0.266 A 
ATOM     22  O   UNL A   1      33.687  24.576  22.041  1.00  0.00    -0.268 OA
BRANCH  20  23
ATOM     23  C   UNL A   1      33.042  27.394  21.923  1.00  0.00     0.190 C 
BRANCH  23  24
ATOM     24  C   UNL A   1      31.882  28.414  22.025  1.00  0.00     0.253 C 
BRANCH  24  25
ATOM     25  O   UNL A   1      30.555  27.833  22.078  1.00  0.00    -0.492 OA
BRANCH  25  26
ATOM     26  C   UNL A   1      29.588  28.747  22.389  1.00  0.00     0.119 A 
ATOM     27  C   UNL A   1      28.345  28.371  22.883  1.00  0.00     0.046 A 
ATOM     28  C   UNL A   1      29.817  30.079  22.090  1.00  0.00     0.046 A 
ATOM     29  C   UNL A   1      27.410  29.360  23.223  1.00  0.00     0.004 A 
ATOM     30  C   UNL A   1      28.938  31.073  22.510  1.00  0.00     0.004 A 
ATOM     31  C   UNL A   1      27.733  30.712  23.095  1.00  0.00     0.000 A 
ENDBRANCH  25  26
ENDBRANCH  24  25
ENDBRANCH  23  24
ENDBRANCH  20  23
ENDBRANCH  13  16
ENDBRANCH   9  12
ENDBRANCH   3   5
ENDBRANCH   2   3
ENDBRANCH   1   2
BRANCH   1  32
ATOM     32  C   UNL A   1      34.028  35.829  28.741  1.00  0.00     0.202 C 
BRANCH  32  33
ATOM     33  O   UNL A   1      33.516  36.627  29.792  1.00  0.00    -0.374 OA
BRANCH  33  34
ATOM     34  C   UNL A   1      32.444  36.055  30.509  1.00  0.00     0.202 C 
BRANCH  34  35
ATOM     35  C   UNL A   1      32.584  36.237  32.028  1.00  0.00     0.261 C 
BRANCH  35  36
ATOM     36  O   UNL A   1      33.186  35.053  32.599  1.00  0.00    -0.460 OA
BRANCH  36  37
ATOM     37  C   UNL A   1      34.525  35.102  32.855  1.00  0.00     0.338 C 
ATOM     38  O   UNL A   1      35.127  36.069  33.295  1.00  0.00    -0.246 OA
BRANCH  37  39
ATOM     39  C   UNL A   1      35.201  33.922  32.233  1.00  0.00     0.060 A 
ATOM     40  C   UNL A   1      35.010  32.631  32.769  1.00  0.00     0.016 A 
ATOM     41  C   UNL A   1      36.277  34.160  31.384  1.00  0.00     0.016 A 
ATOM     42  C   UNL A   1      35.996  31.640  32.607  1.00  0.00     0.010 A 
ATOM     43  C   UNL A   1      37.284  33.220  31.316  1.00  0.00     0.010 A 
ATOM     44  C   UNL A   1      37.186  31.975  31.967  1.00  0.00    -0.014 A 
BRANCH  44  45
ATOM     45  C   UNL A   1      38.456  31.231  32.023  1.00  0.00     0.031 A 
ATOM     46  C   UNL A   1      38.594  30.067  31.118  1.00  0.00     0.074 A 
ATOM     47  C   UNL A   1      39.574  31.770  32.585  1.00  0.00     0.049 A 
ATOM     48  N   UNL A   1      39.647  29.338  31.064  1.00  0.00    -0.248 NA
ATOM     49  C   UNL A   1      37.553  29.597  30.203  1.00  0.00     0.031 C 
ATOM     50  C   UNL A   1      40.985  31.531  32.250  1.00  0.00     0.029 A 
ATOM     51  N   UNL A   1      39.690  32.740  33.586  1.00  0.00    -0.354 N 
ATOM     52  C   UNL A   1      39.583  28.575  29.927  1.00  0.00     0.074 A 
ATOM     53  C   UNL A   1      38.213  28.671  29.500  1.00  0.00     0.031 C 
ATOM     54  C   UNL A   1      41.782  32.054  33.202  1.00  0.00     0.029 A 
ATOM     55  C   UNL A   1      40.915  32.573  34.246  1.00  0.00     0.049 A 
ATOM     56  H   UNL A   1      39.018  33.429  33.794  1.00  0.00     0.167 HD
ATOM     57  C   UNL A   1      40.750  28.060  29.455  1.00  0.00     0.037 A 
ATOM     58  C   UNL A   1      40.947  32.336  35.581  1.00  0.00     0.037 A 
ATOM     59  C   UNL A   1      41.829  28.278  30.438  1.00  0.00     0.049 A 
ATOM     60  C   UNL A   1      41.467  30.941  35.720  1.00  0.00     0.074 A 
ATOM     61  C   UNL A   1      42.949  29.089  30.479  1.00  0.00     0.029 A 
ATOM     62  N   UNL A   1      41.635  27.824  31.748  1.00  0.00    -0.354 N 
ATOM     63  N   UNL A   1      41.302  30.040  34.783  1.00  0.00    -0.248 NA
ATOM     64  C   UNL A   1      42.398  30.520  36.760  1.00  0.00     0.031 C 
ATOM     65  C   UNL A   1      43.354  29.199  31.848  1.00  0.00     0.029 A 
ATOM     66  C   UNL A   1      42.503  28.432  32.637  1.00  0.00     0.049 A 
ATOM     67  H   UNL A   1      40.962  27.154  32.006  1.00  0.00     0.167 HD
ATOM     68  C   UNL A   1      42.206  29.046  34.974  1.00  0.00     0.074 A 
ATOM     69  C   UNL A   1      42.817  29.343  36.261  1.00  0.00     0.031 C 
ATOM     70  C   UNL A   1      42.483  28.078  34.056  1.00  0.00     0.037 A 
BRANCH  57  71
ATOM     71  C   UNL A   1      40.969  27.474  28.076  1.00  0.00     0.057 A 
ATOM     72  C   UNL A   1      40.565  26.153  27.799  1.00  0.00     0.134 A 
ATOM     73  C   UNL A   1      41.626  28.106  26.997  1.00  0.00     0.134 A 
ATOM     74  F   UNL A   1      39.956  25.402  28.727  1.00  0.00    -0.206 F 
ATOM     75  C   UNL A   1      40.778  25.526  26.560  1.00  0.00     0.040 A 
ATOM     76  C   UNL A   1      41.802  27.508  25.739  1.00  0.00     0.040 A 
ATOM     77  F   UNL A   1      42.187  29.314  27.103  1.00  0.00    -0.206 F 
ATOM     78  C   UNL A   1      41.382  26.209  25.516  1.00  0.00     0.006 A 
ENDBRANCH  57  71
BRANCH  58  79
ATOM     79  C   UNL A   1      39.856  33.087  36.282  1.00  0.00     0.057 A 
ATOM     80  C   UNL A   1      38.784  32.301  36.764  1.00  0.00     0.134 A 
ATOM     81  C   UNL A   1      40.087  34.290  36.958  1.00  0.00     0.134 A 
ATOM     82  F   UNL A   1      38.484  31.144  36.157  1.00  0.00    -0.206 F 
ATOM     83  C   UNL A   1      38.105  32.597  37.956  1.00  0.00     0.040 A 
ATOM     84  C   UNL A   1      39.402  34.604  38.147  1.00  0.00     0.040 A 
ATOM     85  F   UNL A   1      41.088  35.099  36.583  1.00  0.00    -0.206 F 
ATOM     86  C   UNL A   1      38.451  33.733  38.678  1.00  0.00     0.006 A 
ENDBRANCH  58  79
BRANCH  70  87
ATOM     87  C   UNL A   1      42.775  26.675  34.500  1.00  0.00     0.057 A 
ATOM     88  C   UNL A   1      41.813  25.854  35.114  1.00  0.00     0.134 A 
ATOM     89  C   UNL A   1      43.975  26.034  34.138  1.00  0.00     0.134 A 
ATOM     90  F   UNL A   1      40.576  26.287  35.392  1.00  0.00    -0.206 F 
ATOM     91  C   UNL A   1      42.060  24.517  35.425  1.00  0.00     0.040 A 
ATOM     92  C   UNL A   1      44.201  24.680  34.378  1.00  0.00     0.040 A 
ATOM     93  F   UNL A   1      44.962  26.678  33.498  1.00  0.00    -0.206 F 
ATOM     94  C   UNL A   1      43.253  23.923  35.047  1.00  0.00     0.006 A 
ENDBRANCH  70  87
ENDBRANCH  44  45
ENDBRANCH  37  39
ENDBRANCH  36  37
ENDBRANCH  35  36
ENDBRANCH  34  35
ENDBRANCH  33  34
ENDBRANCH  32  33
ENDBRANCH   1  32
TORSDOF 20
ENDMDL
MODEL 3
REMARK VINA RESULT:     -12.3      1.246      1.854
REMARK SMILES Cc1cc(C(=O)OCCOCCOC(=O)c2ccc(-c3c4nc(c(-c5c(F)cccc5F)c5ccc([nH]5)c(-c5c(F)cccc5F)c5nc(c(-c6c(F)cccc6F)c6ccc3[nH]6)C=C5)C=C4)cc2)ccc1NC(=O)c1ccc(=O)n(CCOc2ccccc2)n1
REMARK SMILES IDX 8 1 7 2 5 3 6 4 4 5 1 6 2 7 3 8 72 9 71 10 70 11 73 12 74 13
REMARK SMILES IDX 75 15 76 16 77 17 91 18 78 19 81 20 79 21 80 22 82 23 83 24
REMARK SMILES IDX 84 25 85 26 86 27 90 28 87 29 89 30 88 31 9 32 10 33 11 34
REMARK SMILES IDX 12 35 13 36 14 37 15 38 16 39 17 40 69 41 18 42 68 43 19 44
REMARK SMILES IDX 20 45 21 46 62 47 22 48 67 49 61 50 63 51 23 52 66 53 60 54
REMARK SMILES IDX 59 55 24 57 50 58 33 59 49 60 34 61 37 62 48 63 64 64 35 65
REMARK SMILES IDX 36 66 47 68 65 69 38 70 25 71 26 72 31 73 27 74 28 75 30 76
REMARK SMILES IDX 32 77 29 78 51 79 52 80 57 81 53 82 54 83 56 84 58 85 55 86
REMARK SMILES IDX 39 87 40 88 45 89 41 90 42 91 44 92 46 93 43 94
REMARK H PARENT 73 14 63 56 37 67
REMARK Flexibility Score: inf
ROOT
ATOM      1  C   UNL A   1      32.887  31.850  27.490  1.00  0.00     0.261 C 
ENDROOT
BRANCH   1   2
ATOM      2  O   UNL A   1      33.044  30.775  26.548  1.00  0.00    -0.460 OA
BRANCH   2   3
ATOM      3  C   UNL A   1      32.285  29.644  26.670  1.00  0.00     0.338 C 
ATOM      4  O   UNL A   1      31.732  29.207  27.650  1.00  0.00    -0.246 OA
BRANCH   3   5
ATOM      5  C   UNL A   1      32.199  29.080  25.305  1.00  0.00     0.060 A 
ATOM      6  C   UNL A   1      29.737  27.611  22.834  1.00  0.00     0.046 C 
ATOM      7  C   UNL A   1      31.055  27.983  23.449  1.00  0.00    -0.027 A 
ATOM      8  C   UNL A   1      31.051  28.482  24.781  1.00  0.00     0.021 A 
ATOM      9  C   UNL A   1      32.245  28.046  22.711  1.00  0.00     0.044 A 
ATOM     10  C   UNL A   1      33.187  28.944  23.143  1.00  0.00     0.027 A 
ATOM     11  C   UNL A   1      33.248  29.351  24.445  1.00  0.00     0.018 A 
BRANCH   9  12
ATOM     12  N   UNL A   1      32.548  27.220  21.606  1.00  0.00    -0.320 N 
ATOM     13  C   UNL A   1      32.921  25.864  21.613  1.00  0.00     0.276 C 
ATOM     14  H   UNL A   1      32.491  27.647  20.721  1.00  0.00     0.170 HD
ATOM     15  O   UNL A   1      33.148  25.259  20.570  1.00  0.00    -0.267 OA
BRANCH  13  16
ATOM     16  C   UNL A   1      33.108  25.110  22.939  1.00  0.00     0.149 A 
ATOM     17  C   UNL A   1      34.007  25.788  23.907  1.00  0.00     0.042 A 
ATOM     18  N   UNL A   1      32.443  24.017  23.204  1.00  0.00    -0.164 NA
ATOM     19  C   UNL A   1      33.695  25.591  25.191  1.00  0.00     0.076 A 
ATOM     20  N   UNL A   1      32.398  23.657  24.566  1.00  0.00    -0.226 N 
ATOM     21  C   UNL A   1      32.630  24.622  25.544  1.00  0.00     0.266 A 
ATOM     22  O   UNL A   1      32.099  24.693  26.649  1.00  0.00    -0.268 OA
BRANCH  20  23
ATOM     23  C   UNL A   1      31.753  22.390  24.935  1.00  0.00     0.190 C 
BRANCH  23  24
ATOM     24  C   UNL A   1      32.725  21.309  25.467  1.00  0.00     0.253 C 
BRANCH  24  25
ATOM     25  O   UNL A   1      33.829  20.987  24.584  1.00  0.00    -0.492 OA
BRANCH  25  26
ATOM     26  C   UNL A   1      34.891  21.834  24.730  1.00  0.00     0.119 A 
ATOM     27  C   UNL A   1      35.611  22.315  23.644  1.00  0.00     0.046 A 
ATOM     28  C   UNL A   1      35.331  22.125  26.010  1.00  0.00     0.046 A 
ATOM     29  C   UNL A   1      36.665  23.216  23.859  1.00  0.00     0.004 A 
ATOM     30  C   UNL A   1      36.311  23.088  26.233  1.00  0.00     0.004 A 
ATOM     31  C   UNL A   1      36.972  23.650  25.150  1.00  0.00     0.000 A 
ENDBRANCH  25  26
ENDBRANCH  24  25
ENDBRANCH  23  24
ENDBRANCH  20  23
ENDBRANCH  13  16
ENDBRANCH   9  12
ENDBRANCH   3   5
ENDBRANCH   2   3
ENDBRANCH   1   2
BRANCH   1  32
ATOM     32  C   UNL A   1      34.177  32.374  28.018  1.00  0.00     0.202 C 
BRANCH  32  33
ATOM     33  O   UNL A   1      34.088  33.780  27.881  1.00  0.00    -0.374 OA
BRANCH  33  34
ATOM     34  C   UNL A   1      33.065  34.391  28.635  1.00  0.00     0.202 C 
BRANCH  34  35
ATOM     35  C   UNL A   1      33.610  35.279  29.763  1.00  0.00     0.261 C 
BRANCH  35  36
ATOM     36  O   UNL A   1      33.553  34.553  31.012  1.00  0.00    -0.460 OA
BRANCH  36  37
ATOM     37  C   UNL A   1      34.718  34.432  31.712  1.00  0.00     0.338 C 
ATOM     38  O   UNL A   1      35.205  35.290  32.431  1.00  0.00    -0.246 OA
BRANCH  37  39
ATOM     39  C   UNL A   1      35.470  33.230  31.235  1.00  0.00     0.060 A 
ATOM     40  C   UNL A   1      35.300  31.986  31.878  1.00  0.00     0.016 A 
ATOM     41  C   UNL A   1      36.578  33.436  30.421  1.00  0.00     0.016 A 
ATOM     42  C   UNL A   1      36.331  31.028  31.857  1.00  0.00     0.010 A 
ATOM     43  C   UNL A   1      37.623  32.538  30.488  1.00  0.00     0.010 A 
ATOM     44  C   UNL A   1      37.539  31.354  31.246  1.00  0.00    -0.014 A 
BRANCH  44  45
ATOM     45  C   UNL A   1      38.832  30.673  31.432  1.00  0.00     0.031 A 
ATOM     46  C   UNL A   1      39.115  29.515  30.555  1.00  0.00     0.074 A 
ATOM     47  C   UNL A   1      39.861  31.268  32.097  1.00  0.00     0.049 A 
ATOM     48  N   UNL A   1      40.202  28.837  30.609  1.00  0.00    -0.248 NA
ATOM     49  C   UNL A   1      38.192  28.992  29.545  1.00  0.00     0.031 C 
ATOM     50  C   UNL A   1      41.308  31.097  31.904  1.00  0.00     0.029 A 
ATOM     51  N   UNL A   1      39.831  32.245  33.098  1.00  0.00    -0.354 N 
ATOM     52  C   UNL A   1      40.286  28.070  29.478  1.00  0.00     0.074 A 
ATOM     53  C   UNL A   1      38.962  28.096  28.917  1.00  0.00     0.031 C 
ATOM     54  C   UNL A   1      41.982  31.662  32.926  1.00  0.00     0.029 A 
ATOM     55  C   UNL A   1      40.993  32.140  33.875  1.00  0.00     0.049 A 
ATOM     56  H   UNL A   1      39.110  32.901  33.234  1.00  0.00     0.167 HD
ATOM     57  C   UNL A   1      41.518  27.610  29.127  1.00  0.00     0.037 A 
ATOM     58  C   UNL A   1      40.905  31.909  35.209  1.00  0.00     0.037 A 
ATOM     59  C   UNL A   1      42.483  27.884  30.208  1.00  0.00     0.049 A 
ATOM     60  C   UNL A   1      41.476  30.541  35.409  1.00  0.00     0.074 A 
ATOM     61  C   UNL A   1      43.553  28.749  30.353  1.00  0.00     0.029 A 
ATOM     62  N   UNL A   1      42.184  27.425  31.497  1.00  0.00    -0.354 N 
ATOM     63  N   UNL A   1      41.447  29.631  34.467  1.00  0.00    -0.248 NA
ATOM     64  C   UNL A   1      42.319  30.169  36.538  1.00  0.00     0.031 C 
ATOM     65  C   UNL A   1      43.816  28.883  31.754  1.00  0.00     0.029 A 
ATOM     66  C   UNL A   1      42.929  28.077  32.461  1.00  0.00     0.049 A 
ATOM     67  H   UNL A   1      41.522  26.724  31.693  1.00  0.00     0.167 HD
ATOM     68  C   UNL A   1      42.375  28.683  34.753  1.00  0.00     0.074 A 
ATOM     69  C   UNL A   1      42.842  29.013  36.092  1.00  0.00     0.031 C 
ATOM     70  C   UNL A   1      42.787  27.727  33.875  1.00  0.00     0.037 A 
BRANCH  57  71
ATOM     71  C   UNL A   1      41.900  27.032  27.779  1.00  0.00     0.057 A 
ATOM     72  C   UNL A   1      41.563  25.701  27.463  1.00  0.00     0.134 A 
ATOM     73  C   UNL A   1      42.652  27.682  26.777  1.00  0.00     0.134 A 
ATOM     74  F   UNL A   1      40.877  24.934  28.322  1.00  0.00    -0.206 F 
ATOM     75  C   UNL A   1      41.924  25.082  26.256  1.00  0.00     0.040 A 
ATOM     76  C   UNL A   1      42.978  27.091  25.546  1.00  0.00     0.040 A 
ATOM     77  F   UNL A   1      43.166  28.905  26.940  1.00  0.00    -0.206 F 
ATOM     78  C   UNL A   1      42.619  25.782  25.281  1.00  0.00     0.006 A 
ENDBRANCH  57  71
BRANCH  58  79
ATOM     79  C   UNL A   1      39.715  32.608  35.794  1.00  0.00     0.057 A 
ATOM     80  C   UNL A   1      38.674  31.766  36.250  1.00  0.00     0.134 A 
ATOM     81  C   UNL A   1      39.809  33.859  36.414  1.00  0.00     0.134 A 
ATOM     82  F   UNL A   1      38.503  30.560  35.690  1.00  0.00    -0.206 F 
ATOM     83  C   UNL A   1      37.894  32.069  37.375  1.00  0.00     0.040 A 
ATOM     84  C   UNL A   1      39.021  34.179  37.537  1.00  0.00     0.040 A 
ATOM     85  F   UNL A   1      40.771  34.723  36.060  1.00  0.00    -0.206 F 
ATOM     86  C   UNL A   1      38.103  33.264  38.053  1.00  0.00     0.006 A 
ENDBRANCH  58  79
BRANCH  70  87
ATOM     87  C   UNL A   1      43.102  26.341  34.356  1.00  0.00     0.057 A 
ATOM     88  C   UNL A   1      42.147  25.511  34.969  1.00  0.00     0.134 A 
ATOM     89  C   UNL A   1      44.323  25.720  34.032  1.00  0.00     0.134 A 
ATOM     90  F   UNL A   1      40.894  25.922  35.212  1.00  0.00    -0.206 F 
ATOM     91  C   UNL A   1      42.417  24.188  35.315  1.00  0.00     0.040 A 
ATOM     92  C   UNL A   1      44.575  24.378  34.307  1.00  0.00     0.040 A 
ATOM     93  F   UNL A   1      45.308  26.372  33.398  1.00  0.00    -0.206 F 
ATOM     94  C   UNL A   1      43.631  23.614  34.974  1.00  0.00     0.006 A 
ENDBRANCH  70  87
ENDBRANCH  44  45
ENDBRANCH  37  39
ENDBRANCH  36  37
ENDBRANCH  35  36
ENDBRANCH  34  35
ENDBRANCH  33  34
ENDBRANCH  32  33
ENDBRANCH   1  32
TORSDOF 20
ENDMDL
