MODEL 1
REMARK VINA RESULT:      -8.0      0.000      0.000
REMARK SMILES COC(=O)[C@H]1CC[C@]2(C)[C@H](CC[C@]3(C)[C@H]2CC=C2[C@H]4CC(C)(C)CC[C@]4(C(=O)OCCOCCOC(=O)c4ccc(-c5c6nc(c(-c7c(F)cccc7F)c7ccc([nH]7)c(-c7c(F)cccc7F)c7nc(c(-c8c(F)cccc8F)c8ccc5[nH]8)C=C7)C=C6)cc4)CC[C@@]23C)C1(C)C
REMARK SMILES IDX 32 1 31 2 30 3 29 4 27 5 28 6 26 7 5 8 6 9 96 10 7 11 10 12
REMARK SMILES IDX 97 13 98 14 8 15 11 16 15 17 9 18 12 19 16 20 13 21 17 22
REMARK SMILES IDX 94 23 14 24 18 25 93 26 95 27 19 28 92 29 20 30 21 31 25 32
REMARK SMILES IDX 24 33 22 34 23 35 3 36 4 37 2 38 1 39 33 40 34 41 35 42
REMARK SMILES IDX 36 43 37 44 38 45 39 46 91 47 40 48 90 49 41 50 42 51 43 52
REMARK SMILES IDX 84 53 44 54 89 55 83 56 85 57 45 58 88 59 82 60 81 61 46 63
REMARK SMILES IDX 72 64 55 65 71 66 56 67 59 68 70 69 86 70 57 71 58 72 69 74
REMARK SMILES IDX 87 75 60 76 47 77 48 78 53 79 49 80 50 81 52 82 54 83 51 84
REMARK SMILES IDX 73 85 74 86 79 87 75 88 76 89 78 90 80 91 77 92 61 93 62 94
REMARK SMILES IDX 67 95 63 96 64 97 66 98 68 99 65 100
REMARK H PARENT 85 62 59 73
REMARK Flexibility Score: inf
ROOT
ATOM      1  O   UNL A   1      47.549  24.111  27.196  1.00  0.00    -0.374 OA
ENDROOT
BRANCH   1   2
ATOM      2  C   UNL A   1      47.525  25.119  28.208  1.00  0.00     0.202 C 
BRANCH   2   3
ATOM      3  C   UNL A   1      47.609  26.639  27.735  1.00  0.00     0.261 C 
BRANCH   3   4
ATOM      4  O   UNL A   1      46.784  27.643  28.462  1.00  0.00    -0.463 OA
BRANCH   4   5
ATOM      5  C   UNL A   1      47.000  28.493  29.523  1.00  0.00     0.312 C 
ATOM      6  O   UNL A   1      46.747  28.191  30.680  1.00  0.00    -0.252 OA
BRANCH   5   7
ATOM      7  C   UNL A   1      47.543  29.970  29.054  1.00  0.00     0.075 C 
ATOM      8  C   UNL A   1      43.320  34.514  33.450  1.00  0.00     0.105 C 
ATOM      9  C   UNL A   1      42.270  33.485  32.982  1.00  0.00     0.016 C 
ATOM     10  C   UNL A   1      44.711  33.929  33.053  1.00  0.00    -0.019 C 
ATOM     11  C   UNL A   1      42.249  33.202  31.477  1.00  0.00     0.008 C 
ATOM     12  C   UNL A   1      44.579  33.784  31.395  1.00  0.00     0.002 C 
ATOM     13  C   UNL A   1      44.877  32.728  34.066  1.00  0.00     0.012 C 
ATOM     14  C   UNL A   1      45.877  34.827  33.507  1.00  0.00     0.012 C 
ATOM     15  C   UNL A   1      43.590  32.687  30.923  1.00  0.00    -0.026 C 
ATOM     16  C   UNL A   1      45.754  34.044  30.448  1.00  0.00     0.005 C 
ATOM     17  C   UNL A   1      43.358  32.620  29.317  1.00  0.00     0.006 C 
ATOM     18  C   UNL A   1      43.736  31.301  31.633  1.00  0.00     0.012 C 
ATOM     19  C   UNL A   1      45.500  34.069  28.920  1.00  0.00     0.008 C 
ATOM     20  C   UNL A   1      42.896  31.195  28.979  1.00  0.00     0.032 C 
ATOM     21  C   UNL A   1      44.526  33.068  28.249  1.00  0.00    -0.020 C 
ATOM     22  C   UNL A   1      44.108  30.310  28.966  1.00  0.00    -0.027 C 
ATOM     23  C   UNL A   1      45.199  31.725  27.574  1.00  0.00    -0.006 C 
ATOM     24  C   UNL A   1      43.781  33.863  27.119  1.00  0.00     0.012 C 
ATOM     25  C   UNL A   1      45.286  30.925  28.834  1.00  0.00    -0.063 C 
ATOM     26  C   UNL A   1      46.585  31.412  26.908  1.00  0.00     0.013 C 
ATOM     27  C   UNL A   1      44.233  31.176  26.394  1.00  0.00     0.017 C 
ATOM     28  C   UNL A   1      46.628  30.989  29.667  1.00  0.00     0.033 C 
ATOM     29  C   UNL A   1      47.559  30.303  27.512  1.00  0.00     0.020 C 
ATOM     30  C   UNL A   1      46.830  30.967  31.244  1.00  0.00     0.015 C 
ATOM     31  C   UNL A   1      48.273  31.303  31.775  1.00  0.00    -0.035 C 
ATOM     32  C   UNL A   1      49.012  30.285  29.514  1.00  0.00     0.020 C 
ATOM     33  C   UNL A   1      49.338  30.549  30.978  1.00  0.00     0.007 C 
ATOM     34  C   UNL A   1      48.433  30.878  33.258  1.00  0.00     0.011 C 
ATOM     35  C   UNL A   1      48.569  32.823  31.776  1.00  0.00     0.011 C 
BRANCH   8  36
ATOM     36  C   UNL A   1      43.253  36.012  33.083  1.00  0.00     0.309 C 
ATOM     37  O   UNL A   1      43.451  36.394  31.931  1.00  0.00    -0.252 OA
BRANCH  36  38
ATOM     38  O   UNL A   1      42.904  36.853  34.083  1.00  0.00    -0.469 OA
ATOM     39  C   UNL A   1      43.268  36.386  35.394  1.00  0.00     0.282 C 
ENDBRANCH  36  38
ENDBRANCH   8  36
ENDBRANCH   5   7
ENDBRANCH   4   5
ENDBRANCH   3   4
ENDBRANCH   2   3
ENDBRANCH   1   2
BRANCH   1  40
ATOM     40  C   UNL A   1      46.309  23.810  26.556  1.00  0.00     0.202 C 
BRANCH  40  41
ATOM     41  C   UNL A   1      46.205  24.113  25.033  1.00  0.00     0.261 C 
BRANCH  41  42
ATOM     42  O   UNL A   1      45.026  24.861  24.630  1.00  0.00    -0.460 OA
BRANCH  42  43
ATOM     43  C   UNL A   1      43.806  24.364  24.965  1.00  0.00     0.338 C 
ATOM     44  O   UNL A   1      43.321  23.309  24.545  1.00  0.00    -0.246 OA
BRANCH  43  45
ATOM     45  C   UNL A   1      43.050  25.235  25.928  1.00  0.00     0.060 A 
ATOM     46  C   UNL A   1      43.410  26.576  26.081  1.00  0.00     0.016 A 
ATOM     47  C   UNL A   1      42.041  24.729  26.766  1.00  0.00     0.016 A 
ATOM     48  C   UNL A   1      42.813  27.382  27.086  1.00  0.00     0.010 A 
ATOM     49  C   UNL A   1      41.421  25.551  27.751  1.00  0.00     0.010 A 
ATOM     50  C   UNL A   1      41.832  26.882  27.967  1.00  0.00    -0.014 A 
BRANCH  50  51
ATOM     51  C   UNL A   1      41.413  27.704  29.188  1.00  0.00     0.031 A 
ATOM     52  C   UNL A   1      42.185  27.588  30.447  1.00  0.00     0.074 A 
ATOM     53  C   UNL A   1      40.401  28.603  29.241  1.00  0.00     0.049 A 
ATOM     54  N   UNL A   1      41.979  28.233  31.562  1.00  0.00    -0.248 NA
ATOM     55  C   UNL A   1      43.279  26.617  30.479  1.00  0.00     0.031 C 
ATOM     56  C   UNL A   1      39.471  28.689  28.176  1.00  0.00     0.029 A 
ATOM     57  N   UNL A   1      39.915  29.557  30.114  1.00  0.00    -0.354 N 
ATOM     58  C   UNL A   1      42.922  27.754  32.439  1.00  0.00     0.074 A 
ATOM     59  C   UNL A   1      43.665  26.721  31.741  1.00  0.00     0.031 C 
ATOM     60  C   UNL A   1      38.596  29.683  28.344  1.00  0.00     0.029 A 
ATOM     61  C   UNL A   1      38.828  30.274  29.623  1.00  0.00     0.049 A 
ATOM     62  H   UNL A   1      40.302  29.716  31.006  1.00  0.00     0.167 HD
ATOM     63  C   UNL A   1      43.146  28.165  33.704  1.00  0.00     0.037 A 
ATOM     64  C   UNL A   1      38.028  31.251  30.099  1.00  0.00     0.037 A 
ATOM     65  C   UNL A   1      42.378  29.171  34.394  1.00  0.00     0.049 A 
ATOM     66  C   UNL A   1      38.248  31.623  31.512  1.00  0.00     0.074 A 
ATOM     67  C   UNL A   1      42.574  29.658  35.673  1.00  0.00     0.029 A 
ATOM     68  N   UNL A   1      41.260  29.828  33.889  1.00  0.00    -0.354 N 
ATOM     69  N   UNL A   1      39.174  31.165  32.310  1.00  0.00    -0.248 NA
ATOM     70  C   UNL A   1      37.305  32.565  32.118  1.00  0.00     0.031 C 
ATOM     71  C   UNL A   1      41.553  30.567  35.962  1.00  0.00     0.029 A 
ATOM     72  C   UNL A   1      40.749  30.699  34.844  1.00  0.00     0.049 A 
ATOM     73  H   UNL A   1      40.886  29.696  32.988  1.00  0.00     0.167 HD
ATOM     74  C   UNL A   1      38.925  31.750  33.527  1.00  0.00     0.074 A 
ATOM     75  C   UNL A   1      37.779  32.624  33.354  1.00  0.00     0.031 C 
ATOM     76  C   UNL A   1      39.597  31.552  34.681  1.00  0.00     0.037 A 
BRANCH  63  77
ATOM     77  C   UNL A   1      44.271  27.485  34.410  1.00  0.00     0.057 A 
ATOM     78  C   UNL A   1      44.079  26.288  35.116  1.00  0.00     0.134 A 
ATOM     79  C   UNL A   1      45.547  28.054  34.421  1.00  0.00     0.134 A 
ATOM     80  F   UNL A   1      42.865  25.717  35.172  1.00  0.00    -0.206 F 
ATOM     81  C   UNL A   1      45.117  25.696  35.832  1.00  0.00     0.040 A 
ATOM     82  C   UNL A   1      46.600  27.453  35.106  1.00  0.00     0.040 A 
ATOM     83  F   UNL A   1      45.786  29.207  33.777  1.00  0.00    -0.206 F 
ATOM     84  C   UNL A   1      46.384  26.276  35.822  1.00  0.00     0.006 A 
ENDBRANCH  63  77
BRANCH  64  85
ATOM     85  C   UNL A   1      36.883  31.836  29.327  1.00  0.00     0.057 A 
ATOM     86  C   UNL A   1      36.945  33.102  28.731  1.00  0.00     0.134 A 
ATOM     87  C   UNL A   1      35.669  31.149  29.204  1.00  0.00     0.134 A 
ATOM     88  F   UNL A   1      38.048  33.854  28.860  1.00  0.00    -0.206 F 
ATOM     89  C   UNL A   1      35.859  33.645  28.029  1.00  0.00     0.040 A 
ATOM     90  C   UNL A   1      34.593  31.654  28.467  1.00  0.00     0.040 A 
ATOM     91  F   UNL A   1      35.512  29.973  29.821  1.00  0.00    -0.206 F 
ATOM     92  C   UNL A   1      34.684  32.910  27.878  1.00  0.00     0.006 A 
ENDBRANCH  64  85
BRANCH  76  93
ATOM     93  C   UNL A   1      39.123  32.360  35.839  1.00  0.00     0.057 A 
ATOM     94  C   UNL A   1      39.572  33.667  36.065  1.00  0.00     0.134 A 
ATOM     95  C   UNL A   1      38.224  31.805  36.755  1.00  0.00     0.134 A 
ATOM     96  F   UNL A   1      40.474  34.229  35.245  1.00  0.00    -0.206 F 
ATOM     97  C   UNL A   1      39.148  34.392  37.176  1.00  0.00     0.040 A 
ATOM     98  C   UNL A   1      37.769  32.532  37.851  1.00  0.00     0.040 A 
ATOM     99  F   UNL A   1      37.780  30.549  36.598  1.00  0.00    -0.206 F 
ATOM    100  C   UNL A   1      38.235  33.827  38.066  1.00  0.00     0.006 A 
ENDBRANCH  76  93
ENDBRANCH  50  51
ENDBRANCH  43  45
ENDBRANCH  42  43
ENDBRANCH  41  42
ENDBRANCH  40  41
ENDBRANCH   1  40
TORSDOF 16
ENDMDL
MODEL 2
REMARK VINA RESULT:      -7.8      0.406      5.542
REMARK SMILES COC(=O)[C@H]1CC[C@]2(C)[C@H](CC[C@]3(C)[C@H]2CC=C2[C@H]4CC(C)(C)CC[C@]4(C(=O)OCCOCCOC(=O)c4ccc(-c5c6nc(c(-c7c(F)cccc7F)c7ccc([nH]7)c(-c7c(F)cccc7F)c7nc(c(-c8c(F)cccc8F)c8ccc5[nH]8)C=C7)C=C6)cc4)CC[C@@]23C)C1(C)C
REMARK SMILES IDX 32 1 31 2 30 3 29 4 27 5 28 6 26 7 5 8 6 9 96 10 7 11 10 12
REMARK SMILES IDX 97 13 98 14 8 15 11 16 15 17 9 18 12 19 16 20 13 21 17 22
REMARK SMILES IDX 94 23 14 24 18 25 93 26 95 27 19 28 92 29 20 30 21 31 25 32
REMARK SMILES IDX 24 33 22 34 23 35 3 36 4 37 2 38 1 39 33 40 34 41 35 42
REMARK SMILES IDX 36 43 37 44 38 45 39 46 91 47 40 48 90 49 41 50 42 51 43 52
REMARK SMILES IDX 84 53 44 54 89 55 83 56 85 57 45 58 88 59 82 60 81 61 46 63
REMARK SMILES IDX 72 64 55 65 71 66 56 67 59 68 70 69 86 70 57 71 58 72 69 74
REMARK SMILES IDX 87 75 60 76 47 77 48 78 53 79 49 80 50 81 52 82 54 83 51 84
REMARK SMILES IDX 73 85 74 86 79 87 75 88 76 89 78 90 80 91 77 92 61 93 62 94
REMARK SMILES IDX 67 95 63 96 64 97 66 98 68 99 65 100
REMARK H PARENT 85 62 59 73
REMARK Flexibility Score: inf
ROOT
ATOM      1  O   UNL A   1      47.628  24.206  26.907  1.00  0.00    -0.374 OA
ENDROOT
BRANCH   1   2
ATOM      2  C   UNL A   1      47.877  25.410  27.634  1.00  0.00     0.202 C 
BRANCH   2   3
ATOM      3  C   UNL A   1      47.112  26.726  27.162  1.00  0.00     0.261 C 
BRANCH   3   4
ATOM      4  O   UNL A   1      46.428  27.547  28.200  1.00  0.00    -0.463 OA
BRANCH   4   5
ATOM      5  C   UNL A   1      46.842  28.259  29.303  1.00  0.00     0.312 C 
ATOM      6  O   UNL A   1      46.704  27.852  30.448  1.00  0.00    -0.252 OA
BRANCH   5   7
ATOM      7  C   UNL A   1      47.450  29.734  28.917  1.00  0.00     0.075 C 
ATOM      8  C   UNL A   1      43.683  34.167  33.812  1.00  0.00     0.105 C 
ATOM      9  C   UNL A   1      42.556  33.235  33.320  1.00  0.00     0.016 C 
ATOM     10  C   UNL A   1      45.020  33.537  33.312  1.00  0.00    -0.019 C 
ATOM     11  C   UNL A   1      42.457  33.065  31.801  1.00  0.00     0.008 C 
ATOM     12  C   UNL A   1      44.812  33.522  31.655  1.00  0.00     0.002 C 
ATOM     13  C   UNL A   1      45.158  32.257  34.228  1.00  0.00     0.012 C 
ATOM     14  C   UNL A   1      46.254  34.334  33.775  1.00  0.00     0.012 C 
ATOM     15  C   UNL A   1      43.743  32.519  31.152  1.00  0.00    -0.026 C 
ATOM     16  C   UNL A   1      45.960  33.786  30.677  1.00  0.00     0.005 C 
ATOM     17  C   UNL A   1      43.441  32.584  29.557  1.00  0.00     0.006 C 
ATOM     18  C   UNL A   1      43.836  31.078  31.753  1.00  0.00     0.012 C 
ATOM     19  C   UNL A   1      45.645  33.937  29.168  1.00  0.00     0.008 C 
ATOM     20  C   UNL A   1      42.883  31.214  29.140  1.00  0.00     0.032 C 
ATOM     21  C   UNL A   1      44.588  33.044  28.472  1.00  0.00    -0.020 C 
ATOM     22  C   UNL A   1      44.040  30.268  29.009  1.00  0.00    -0.027 C 
ATOM     23  C   UNL A   1      45.154  31.720  27.673  1.00  0.00    -0.006 C 
ATOM     24  C   UNL A   1      43.844  33.960  27.437  1.00  0.00     0.012 C 
ATOM     25  C   UNL A   1      45.245  30.825  28.868  1.00  0.00    -0.063 C 
ATOM     26  C   UNL A   1      46.490  31.381  26.924  1.00  0.00     0.013 C 
ATOM     27  C   UNL A   1      44.109  31.313  26.502  1.00  0.00     0.017 C 
ATOM     28  C   UNL A   1      46.622  30.754  29.642  1.00  0.00     0.033 C 
ATOM     29  C   UNL A   1      47.422  30.178  27.403  1.00  0.00     0.020 C 
ATOM     30  C   UNL A   1      46.887  30.604  31.202  1.00  0.00     0.015 C 
ATOM     31  C   UNL A   1      48.368  30.820  31.690  1.00  0.00    -0.035 C 
ATOM     32  C   UNL A   1      48.953  29.933  29.331  1.00  0.00     0.020 C 
ATOM     33  C   UNL A   1      49.354  30.070  30.794  1.00  0.00     0.007 C 
ATOM     34  C   UNL A   1      48.563  30.280  33.130  1.00  0.00     0.011 C 
ATOM     35  C   UNL A   1      48.751  32.318  31.786  1.00  0.00     0.011 C 
BRANCH   8  36
ATOM     36  C   UNL A   1      43.688  35.689  33.556  1.00  0.00     0.309 C 
ATOM     37  O   UNL A   1      43.915  36.145  32.437  1.00  0.00    -0.252 OA
BRANCH  36  38
ATOM     38  O   UNL A   1      43.367  36.470  34.613  1.00  0.00    -0.469 OA
ATOM     39  C   UNL A   1      43.561  35.835  35.890  1.00  0.00     0.282 C 
ENDBRANCH  36  38
ENDBRANCH   8  36
ENDBRANCH   5   7
ENDBRANCH   4   5
ENDBRANCH   3   4
ENDBRANCH   2   3
ENDBRANCH   1   2
BRANCH   1  40
ATOM     40  C   UNL A   1      46.282  23.968  26.495  1.00  0.00     0.202 C 
BRANCH  40  41
ATOM     41  C   UNL A   1      45.981  24.057  24.971  1.00  0.00     0.261 C 
BRANCH  41  42
ATOM     42  O   UNL A   1      44.794  24.818  24.617  1.00  0.00    -0.460 OA
BRANCH  42  43
ATOM     43  C   UNL A   1      43.585  24.343  25.018  1.00  0.00     0.338 C 
ATOM     44  O   UNL A   1      43.080  23.275  24.662  1.00  0.00    -0.246 OA
BRANCH  43  45
ATOM     45  C   UNL A   1      42.871  25.259  25.971  1.00  0.00     0.060 A 
ATOM     46  C   UNL A   1      43.331  26.565  26.157  1.00  0.00     0.016 A 
ATOM     47  C   UNL A   1      41.798  24.824  26.769  1.00  0.00     0.016 A 
ATOM     48  C   UNL A   1      42.769  27.402  27.156  1.00  0.00     0.010 A 
ATOM     49  C   UNL A   1      41.214  25.680  27.748  1.00  0.00     0.010 A 
ATOM     50  C   UNL A   1      41.723  26.971  27.998  1.00  0.00    -0.014 A 
BRANCH  50  51
ATOM     51  C   UNL A   1      41.331  27.807  29.218  1.00  0.00     0.031 A 
ATOM     52  C   UNL A   1      40.158  28.708  29.141  1.00  0.00     0.074 A 
ATOM     53  C   UNL A   1      41.931  27.784  30.433  1.00  0.00     0.049 A 
ATOM     54  N   UNL A   1      39.678  29.463  30.090  1.00  0.00    -0.248 NA
ATOM     55  C   UNL A   1      39.471  28.809  27.852  1.00  0.00     0.031 C 
ATOM     56  C   UNL A   1      43.166  27.110  30.603  1.00  0.00     0.029 A 
ATOM     57  N   UNL A   1      41.711  28.286  31.701  1.00  0.00    -0.354 N 
ATOM     58  C   UNL A   1      38.621  30.133  29.523  1.00  0.00     0.074 A 
ATOM     59  C   UNL A   1      38.567  29.737  28.128  1.00  0.00     0.031 C 
ATOM     60  C   UNL A   1      43.572  27.105  31.874  1.00  0.00     0.029 A 
ATOM     61  C   UNL A   1      42.659  27.893  32.640  1.00  0.00     0.049 A 
ATOM     62  H   UNL A   1      40.950  28.872  31.921  1.00  0.00     0.167 HD
ATOM     63  C   UNL A   1      37.771  30.985  30.132  1.00  0.00     0.037 A 
ATOM     64  C   UNL A   1      42.873  28.138  33.950  1.00  0.00     0.037 A 
ATOM     65  C   UNL A   1      37.858  31.393  31.512  1.00  0.00     0.049 A 
ATOM     66  C   UNL A   1      41.974  29.134  34.566  1.00  0.00     0.074 A 
ATOM     67  C   UNL A   1      37.004  32.234  32.202  1.00  0.00     0.029 A 
ATOM     68  N   UNL A   1      38.855  31.021  32.408  1.00  0.00    -0.354 N 
ATOM     69  N   UNL A   1      40.960  29.733  34.003  1.00  0.00    -0.248 NA
ATOM     70  C   UNL A   1      42.264  29.548  35.940  1.00  0.00     0.031 C 
ATOM     71  C   UNL A   1      37.507  32.411  33.493  1.00  0.00     0.029 A 
ATOM     72  C   UNL A   1      38.643  31.635  33.637  1.00  0.00     0.049 A 
ATOM     73  H   UNL A   1      39.600  30.412  32.202  1.00  0.00     0.167 HD
ATOM     74  C   UNL A   1      40.489  30.613  34.945  1.00  0.00     0.074 A 
ATOM     75  C   UNL A   1      41.308  30.445  36.133  1.00  0.00     0.031 C 
ATOM     76  C   UNL A   1      39.469  31.486  34.810  1.00  0.00     0.037 A 
BRANCH  63  77
ATOM     77  C   UNL A   1      36.687  31.538  29.267  1.00  0.00     0.057 A 
ATOM     78  C   UNL A   1      35.602  30.751  28.856  1.00  0.00     0.134 A 
ATOM     79  C   UNL A   1      36.753  32.855  28.808  1.00  0.00     0.134 A 
ATOM     80  F   UNL A   1      35.509  29.466  29.235  1.00  0.00    -0.206 F 
ATOM     81  C   UNL A   1      34.632  31.252  27.990  1.00  0.00     0.040 A 
ATOM     82  C   UNL A   1      35.770  33.378  27.969  1.00  0.00     0.040 A 
ATOM     83  F   UNL A   1      37.777  33.650  29.156  1.00  0.00    -0.206 F 
ATOM     84  C   UNL A   1      34.712  32.572  27.551  1.00  0.00     0.006 A 
ENDBRANCH  63  77
BRANCH  64  85
ATOM     85  C   UNL A   1      44.029  27.574  34.721  1.00  0.00     0.057 A 
ATOM     86  C   UNL A   1      45.317  28.121  34.657  1.00  0.00     0.134 A 
ATOM     87  C   UNL A   1      43.877  26.431  35.515  1.00  0.00     0.134 A 
ATOM     88  F   UNL A   1      45.562  29.175  33.866  1.00  0.00    -0.206 F 
ATOM     89  C   UNL A   1      46.393  27.569  35.368  1.00  0.00     0.040 A 
ATOM     90  C   UNL A   1      44.927  25.896  36.269  1.00  0.00     0.040 A 
ATOM     91  F   UNL A   1      42.694  25.807  35.554  1.00  0.00    -0.206 F 
ATOM     92  C   UNL A   1      46.194  26.465  36.194  1.00  0.00     0.006 A 
ENDBRANCH  64  85
BRANCH  76  93
ATOM     93  C   UNL A   1      39.156  32.292  36.024  1.00  0.00     0.057 A 
ATOM     94  C   UNL A   1      39.697  33.568  36.226  1.00  0.00     0.134 A 
ATOM     95  C   UNL A   1      38.322  31.765  37.015  1.00  0.00     0.134 A 
ATOM     96  F   UNL A   1      40.542  34.099  35.329  1.00  0.00    -0.206 F 
ATOM     97  C   UNL A   1      39.424  34.289  37.385  1.00  0.00     0.040 A 
ATOM     98  C   UNL A   1      38.018  32.490  38.163  1.00  0.00     0.040 A 
ATOM     99  F   UNL A   1      37.797  30.538  36.882  1.00  0.00    -0.206 F 
ATOM    100  C   UNL A   1      38.574  33.754  38.352  1.00  0.00     0.006 A 
ENDBRANCH  76  93
ENDBRANCH  50  51
ENDBRANCH  43  45
ENDBRANCH  42  43
ENDBRANCH  41  42
ENDBRANCH  40  41
ENDBRANCH   1  40
TORSDOF 16
ENDMDL
MODEL 3
REMARK VINA RESULT:      -7.7      3.649      8.952
REMARK SMILES COC(=O)[C@H]1CC[C@]2(C)[C@H](CC[C@]3(C)[C@H]2CC=C2[C@H]4CC(C)(C)CC[C@]4(C(=O)OCCOCCOC(=O)c4ccc(-c5c6nc(c(-c7c(F)cccc7F)c7ccc([nH]7)c(-c7c(F)cccc7F)c7nc(c(-c8c(F)cccc8F)c8ccc5[nH]8)C=C7)C=C6)cc4)CC[C@@]23C)C1(C)C
REMARK SMILES IDX 32 1 31 2 30 3 29 4 27 5 28 6 26 7 5 8 6 9 96 10 7 11 10 12
REMARK SMILES IDX 97 13 98 14 8 15 11 16 15 17 9 18 12 19 16 20 13 21 17 22
REMARK SMILES IDX 94 23 14 24 18 25 93 26 95 27 19 28 92 29 20 30 21 31 25 32
REMARK SMILES IDX 24 33 22 34 23 35 3 36 4 37 2 38 1 39 33 40 34 41 35 42
REMARK SMILES IDX 36 43 37 44 38 45 39 46 91 47 40 48 90 49 41 50 42 51 43 52
REMARK SMILES IDX 84 53 44 54 89 55 83 56 85 57 45 58 88 59 82 60 81 61 46 63
REMARK SMILES IDX 72 64 55 65 71 66 56 67 59 68 70 69 86 70 57 71 58 72 69 74
REMARK SMILES IDX 87 75 60 76 47 77 48 78 53 79 49 80 50 81 52 82 54 83 51 84
REMARK SMILES IDX 73 85 74 86 79 87 75 88 76 89 78 90 80 91 77 92 61 93 62 94
REMARK SMILES IDX 67 95 63 96 64 97 66 98 68 99 65 100
REMARK H PARENT 85 62 59 73
REMARK Flexibility Score: inf
ROOT
ATOM      1  O   UNL A   1      51.287  21.098  32.825  1.00  0.00    -0.374 OA
ENDROOT
BRANCH   1   2
ATOM      2  C   UNL A   1      50.361  20.680  33.830  1.00  0.00     0.202 C 
BRANCH   2   3
ATOM      3  C   UNL A   1      50.380  21.462  35.219  1.00  0.00     0.261 C 
BRANCH   3   4
ATOM      4  O   UNL A   1      49.075  21.871  35.808  1.00  0.00    -0.463 OA
BRANCH   4   5
ATOM      5  C   UNL A   1      47.998  22.607  35.365  1.00  0.00     0.312 C 
ATOM      6  O   UNL A   1      48.053  23.352  34.398  1.00  0.00    -0.252 OA
BRANCH   5   7
ATOM      7  C   UNL A   1      46.677  22.440  36.325  1.00  0.00     0.075 C 
ATOM      8  C   UNL A   1      43.143  29.053  35.067  1.00  0.00     0.105 C 
ATOM      9  C   UNL A   1      44.608  29.516  35.215  1.00  0.00     0.016 C 
ATOM     10  C   UNL A   1      43.188  27.499  34.939  1.00  0.00    -0.019 C 
ATOM     11  C   UNL A   1      45.354  28.965  36.434  1.00  0.00     0.008 C 
ATOM     12  C   UNL A   1      43.914  27.042  36.371  1.00  0.00     0.002 C 
ATOM     13  C   UNL A   1      43.800  27.293  33.497  1.00  0.00     0.012 C 
ATOM     14  C   UNL A   1      41.790  26.886  34.728  1.00  0.00     0.012 C 
ATOM     15  C   UNL A   1      45.412  27.427  36.483  1.00  0.00    -0.026 C 
ATOM     16  C   UNL A   1      43.517  25.773  37.130  1.00  0.00     0.005 C 
ATOM     17  C   UNL A   1      46.097  27.101  37.919  1.00  0.00     0.006 C 
ATOM     18  C   UNL A   1      46.289  27.084  35.234  1.00  0.00     0.012 C 
ATOM     19  C   UNL A   1      44.107  25.520  38.539  1.00  0.00     0.008 C 
ATOM     20  C   UNL A   1      47.608  26.955  37.684  1.00  0.00     0.032 C 
ATOM     21  C   UNL A   1      45.583  25.859  38.867  1.00  0.00    -0.020 C 
ATOM     22  C   UNL A   1      47.854  25.587  37.116  1.00  0.00    -0.027 C 
ATOM     23  C   UNL A   1      46.661  24.617  38.780  1.00  0.00    -0.006 C 
ATOM     24  C   UNL A   1      45.596  26.416  40.334  1.00  0.00     0.012 C 
ATOM     25  C   UNL A   1      46.885  24.688  37.303  1.00  0.00    -0.063 C 
ATOM     26  C   UNL A   1      46.567  23.068  39.008  1.00  0.00     0.013 C 
ATOM     27  C   UNL A   1      47.920  24.930  39.752  1.00  0.00     0.017 C 
ATOM     28  C   UNL A   1      45.994  23.775  36.369  1.00  0.00     0.033 C 
ATOM     29  C   UNL A   1      46.898  22.039  37.835  1.00  0.00     0.020 C 
ATOM     30  C   UNL A   1      45.407  24.090  34.926  1.00  0.00     0.015 C 
ATOM     31  C   UNL A   1      44.344  23.078  34.359  1.00  0.00    -0.035 C 
ATOM     32  C   UNL A   1      45.643  21.374  35.809  1.00  0.00     0.020 C 
ATOM     33  C   UNL A   1      44.799  21.633  34.568  1.00  0.00     0.007 C 
ATOM     34  C   UNL A   1      44.146  23.274  32.834  1.00  0.00     0.011 C 
ATOM     35  C   UNL A   1      42.934  23.295  34.961  1.00  0.00     0.011 C 
BRANCH   8  36
ATOM     36  C   UNL A   1      42.026  29.470  36.046  1.00  0.00     0.309 C 
ATOM     37  O   UNL A   1      42.285  30.054  37.097  1.00  0.00    -0.252 OA
BRANCH  36  38
ATOM     38  O   UNL A   1      40.759  29.212  35.646  1.00  0.00    -0.469 OA
ATOM     39  C   UNL A   1      40.235  30.169  34.708  1.00  0.00     0.282 C 
ENDBRANCH  36  38
ENDBRANCH   8  36
ENDBRANCH   5   7
ENDBRANCH   4   5
ENDBRANCH   3   4
ENDBRANCH   2   3
ENDBRANCH   1   2
BRANCH   1  40
ATOM     40  C   UNL A   1      52.501  21.697  33.276  1.00  0.00     0.202 C 
BRANCH  40  41
ATOM     41  C   UNL A   1      52.752  23.180  32.874  1.00  0.00     0.261 C 
BRANCH  41  42
ATOM     42  O   UNL A   1      51.671  23.814  32.139  1.00  0.00    -0.460 OA
BRANCH  42  43
ATOM     43  C   UNL A   1      51.855  25.087  31.700  1.00  0.00     0.338 C 
ATOM     44  O   UNL A   1      52.947  25.623  31.492  1.00  0.00    -0.246 OA
BRANCH  43  45
ATOM     45  C   UNL A   1      50.571  25.834  31.478  1.00  0.00     0.060 A 
ATOM     46  C   UNL A   1      49.592  25.844  32.475  1.00  0.00     0.016 A 
ATOM     47  C   UNL A   1      50.264  26.456  30.255  1.00  0.00     0.016 A 
ATOM     48  C   UNL A   1      48.314  26.415  32.237  1.00  0.00     0.010 A 
ATOM     49  C   UNL A   1      48.992  27.057  30.033  1.00  0.00     0.010 A 
ATOM     50  C   UNL A   1      47.969  27.002  31.003  1.00  0.00    -0.014 A 
BRANCH  50  51
ATOM     51  C   UNL A   1      46.512  27.365  30.710  1.00  0.00     0.031 A 
ATOM     52  C   UNL A   1      46.002  28.704  31.088  1.00  0.00     0.074 A 
ATOM     53  C   UNL A   1      45.604  26.588  30.074  1.00  0.00     0.049 A 
ATOM     54  N   UNL A   1      44.804  29.178  30.887  1.00  0.00    -0.248 NA
ATOM     55  C   UNL A   1      46.917  29.595  31.804  1.00  0.00     0.031 C 
ATOM     56  C   UNL A   1      45.892  25.224  29.816  1.00  0.00     0.029 A 
ATOM     57  N   UNL A   1      44.327  26.705  29.558  1.00  0.00    -0.354 N 
ATOM     58  C   UNL A   1      44.811  30.433  31.447  1.00  0.00     0.074 A 
ATOM     59  C   UNL A   1      46.118  30.623  32.047  1.00  0.00     0.031 C 
ATOM     60  C   UNL A   1      44.934  24.628  29.105  1.00  0.00     0.029 A 
ATOM     61  C   UNL A   1      43.862  25.555  28.928  1.00  0.00     0.049 A 
ATOM     62  H   UNL A   1      43.793  27.530  29.630  1.00  0.00     0.167 HD
ATOM     63  C   UNL A   1      43.812  31.340  31.435  1.00  0.00     0.037 A 
ATOM     64  C   UNL A   1      42.714  25.192  28.319  1.00  0.00     0.037 A 
ATOM     65  C   UNL A   1      42.507  31.123  30.862  1.00  0.00     0.049 A 
ATOM     66  C   UNL A   1      41.615  26.176  28.392  1.00  0.00     0.074 A 
ATOM     67  C   UNL A   1      41.455  32.017  30.789  1.00  0.00     0.029 A 
ATOM     68  N   UNL A   1      42.058  29.938  30.288  1.00  0.00    -0.354 N 
ATOM     69  N   UNL A   1      41.665  27.373  28.909  1.00  0.00    -0.248 NA
ATOM     70  C   UNL A   1      40.305  25.765  27.882  1.00  0.00     0.031 C 
ATOM     71  C   UNL A   1      40.358  31.364  30.221  1.00  0.00     0.029 A 
ATOM     72  C   UNL A   1      40.737  30.078  29.880  1.00  0.00     0.049 A 
ATOM     73  H   UNL A   1      42.597  29.120  30.187  1.00  0.00     0.167 HD
ATOM     74  C   UNL A   1      40.388  27.868  28.805  1.00  0.00     0.074 A 
ATOM     75  C   UNL A   1      39.590  26.851  28.142  1.00  0.00     0.031 C 
ATOM     76  C   UNL A   1      39.936  29.062  29.242  1.00  0.00     0.037 A 
BRANCH  63  77
ATOM     77  C   UNL A   1      44.120  32.643  32.094  1.00  0.00     0.057 A 
ATOM     78  C   UNL A   1      44.838  33.649  31.433  1.00  0.00     0.134 A 
ATOM     79  C   UNL A   1      43.732  32.875  33.416  1.00  0.00     0.134 A 
ATOM     80  F   UNL A   1      45.270  33.465  30.175  1.00  0.00    -0.206 F 
ATOM     81  C   UNL A   1      45.184  34.834  32.078  1.00  0.00     0.040 A 
ATOM     82  C   UNL A   1      44.043  34.071  34.060  1.00  0.00     0.040 A 
ATOM     83  F   UNL A   1      43.057  31.941  34.104  1.00  0.00    -0.206 F 
ATOM     84  C   UNL A   1      44.779  35.050  33.394  1.00  0.00     0.006 A 
ENDBRANCH  63  77
BRANCH  64  85
ATOM     85  C   UNL A   1      42.481  23.832  27.731  1.00  0.00     0.057 A 
ATOM     86  C   UNL A   1      42.257  22.697  28.521  1.00  0.00     0.134 A 
ATOM     87  C   UNL A   1      42.525  23.627  26.347  1.00  0.00     0.134 A 
ATOM     88  F   UNL A   1      42.269  22.795  29.859  1.00  0.00    -0.206 F 
ATOM     89  C   UNL A   1      42.062  21.428  27.957  1.00  0.00     0.040 A 
ATOM     90  C   UNL A   1      42.284  22.378  25.765  1.00  0.00     0.040 A 
ATOM     91  F   UNL A   1      42.819  24.651  25.538  1.00  0.00    -0.206 F 
ATOM     92  C   UNL A   1      42.055  21.270  26.573  1.00  0.00     0.006 A 
ENDBRANCH  64  85
BRANCH  76  93
ATOM     93  C   UNL A   1      38.502  29.344  28.952  1.00  0.00     0.057 A 
ATOM     94  C   UNL A   1      38.053  29.650  27.662  1.00  0.00     0.134 A 
ATOM     95  C   UNL A   1      37.566  29.335  29.990  1.00  0.00     0.134 A 
ATOM     96  F   UNL A   1      38.919  29.722  26.638  1.00  0.00    -0.206 F 
ATOM     97  C   UNL A   1      36.715  29.950  27.418  1.00  0.00     0.040 A 
ATOM     98  C   UNL A   1      36.221  29.602  29.752  1.00  0.00     0.040 A 
ATOM     99  F   UNL A   1      37.947  29.070  31.249  1.00  0.00    -0.206 F 
ATOM    100  C   UNL A   1      35.795  29.915  28.463  1.00  0.00     0.006 A 
ENDBRANCH  76  93
ENDBRANCH  50  51
ENDBRANCH  43  45
ENDBRANCH  42  43
ENDBRANCH  41  42
ENDBRANCH  40  41
ENDBRANCH   1  40
TORSDOF 16
ENDMDL
