MODEL 1
REMARK VINA RESULT:     -11.4      0.000      0.000
REMARK SMILES Cc1c(Cl)cc2c(c1C)O[C@H](C(F)(F)F)C(C(=O)OCCOCCOC(=O)c1ccc(-c3c4nc(c(-c5c(F)cccc5F)c5ccc([nH]5)c(-c5c(F)cccc5F)c5nc(c(-c6c(F)cccc6F)c6ccc3[nH]6)C=C5)C=C4)cc1)=C2
REMARK SMILES IDX 23 1 22 2 21 3 20 4 19 5 17 6 18 7 16 8 1 9 2 10 3 11 8 12
REMARK SMILES IDX 4 13 5 14 7 15 9 16 6 17 10 18 82 19 11 20 12 21 13 22 14 23
REMARK SMILES IDX 15 24 24 25 25 26 26 27 27 28 28 29 29 30 81 31 30 32 80 33
REMARK SMILES IDX 31 34 32 35 33 36 74 37 34 38 79 39 73 40 75 41 35 42 78 43
REMARK SMILES IDX 72 44 71 45 36 47 62 48 45 49 61 50 46 51 49 52 60 53 76 54
REMARK SMILES IDX 47 55 48 56 59 58 77 59 50 60 37 61 38 62 43 63 39 64 40 65
REMARK SMILES IDX 42 66 44 67 41 68 63 69 64 70 69 71 65 72 66 73 68 74 70 75
REMARK SMILES IDX 67 76 51 77 52 78 57 79 53 80 54 81 56 82 58 83 55 84
REMARK H PARENT 75 46 49 57
REMARK Flexibility Score: inf
ROOT
ATOM      1  C   UNL A   1      35.427  20.375  24.967  1.00  0.00     0.202 C 
ENDROOT
BRANCH   1   2
ATOM      2  O   UNL A   1      34.062  20.343  25.386  1.00  0.00    -0.374 OA
BRANCH   2   3
ATOM      3  C   UNL A   1      33.688  21.164  26.491  1.00  0.00     0.202 C 
BRANCH   3   4
ATOM      4  C   UNL A   1      32.796  22.367  26.171  1.00  0.00     0.261 C 
BRANCH   4   5
ATOM      5  O   UNL A   1      33.576  23.557  25.973  1.00  0.00    -0.460 OA
BRANCH   5   6
ATOM      6  C   UNL A   1      33.615  23.996  24.694  1.00  0.00     0.338 C 
ATOM      7  O   UNL A   1      33.904  23.344  23.702  1.00  0.00    -0.246 OA
BRANCH   6   8
ATOM      8  C   UNL A   1      33.132  25.387  24.627  1.00  0.00     0.087 C 
ATOM      9  C   UNL A   1      31.412  31.484  26.130  1.00  0.00     0.046 C 
ATOM     10  C   UNL A   1      32.075  30.154  25.872  1.00  0.00    -0.026 A 
ATOM     11  C   UNL A   1      33.212  29.762  26.606  1.00  0.00     0.045 A 
ATOM     12  C   UNL A   1      31.516  29.236  24.943  1.00  0.00    -0.004 A 
ATOM     13  Cl  UNL A   1      33.948  30.779  27.797  1.00  0.00    -0.084 Cl
ATOM     14  C   UNL A   1      33.784  28.501  26.427  1.00  0.00     0.032 A 
ATOM     15  C   UNL A   1      32.126  27.975  24.754  1.00  0.00     0.131 A 
ATOM     16  C   UNL A   1      30.280  29.558  24.138  1.00  0.00     0.049 C 
ATOM     17  C   UNL A   1      33.231  27.602  25.519  1.00  0.00     0.019 A 
ATOM     18  O   UNL A   1      31.583  27.157  23.799  1.00  0.00    -0.475 OA
ATOM     19  C   UNL A   1      33.757  26.252  25.434  1.00  0.00     0.027 C 
ATOM     20  C   UNL A   1      31.989  25.762  23.727  1.00  0.00     0.316 C 
BRANCH  20  21
ATOM     21  C   UNL A   1      30.744  24.889  23.948  1.00  0.00     0.430 C 
ATOM     22  F   UNL A   1      29.625  25.515  23.507  1.00  0.00    -0.167 F 
ATOM     23  F   UNL A   1      30.822  23.720  23.273  1.00  0.00    -0.167 F 
ATOM     24  F   UNL A   1      30.555  24.594  25.253  1.00  0.00    -0.167 F 
ENDBRANCH  20  21
ENDBRANCH   6   8
ENDBRANCH   5   6
ENDBRANCH   4   5
ENDBRANCH   3   4
ENDBRANCH   2   3
ENDBRANCH   1   2
BRANCH   1  25
ATOM     25  C   UNL A   1      36.362  21.323  25.727  1.00  0.00     0.261 C 
BRANCH  25  26
ATOM     26  O   UNL A   1      37.609  21.518  25.036  1.00  0.00    -0.460 OA
BRANCH  26  27
ATOM     27  C   UNL A   1      38.710  21.184  25.750  1.00  0.00     0.338 C 
ATOM     28  O   UNL A   1      39.301  20.114  25.750  1.00  0.00    -0.246 OA
BRANCH  27  29
ATOM     29  C   UNL A   1      39.247  22.370  26.438  1.00  0.00     0.060 A 
ATOM     30  C   UNL A   1      38.679  23.612  26.126  1.00  0.00     0.016 A 
ATOM     31  C   UNL A   1      40.354  22.284  27.284  1.00  0.00     0.016 A 
ATOM     32  C   UNL A   1      39.253  24.783  26.615  1.00  0.00     0.010 A 
ATOM     33  C   UNL A   1      40.939  23.461  27.761  1.00  0.00     0.010 A 
ATOM     34  C   UNL A   1      40.416  24.715  27.393  1.00  0.00    -0.014 A 
BRANCH  34  35
ATOM     35  C   UNL A   1      41.186  25.951  27.658  1.00  0.00     0.031 A 
ATOM     36  C   UNL A   1      40.529  27.055  28.441  1.00  0.00     0.074 A 
ATOM     37  C   UNL A   1      42.461  26.075  27.250  1.00  0.00     0.049 A 
ATOM     38  N   UNL A   1      40.988  28.241  28.747  1.00  0.00    -0.248 NA
ATOM     39  C   UNL A   1      39.176  26.781  28.951  1.00  0.00     0.031 C 
ATOM     40  C   UNL A   1      43.225  25.050  26.546  1.00  0.00     0.029 A 
ATOM     41  N   UNL A   1      43.334  27.126  27.376  1.00  0.00    -0.354 N 
ATOM     42  C   UNL A   1      39.984  28.853  29.486  1.00  0.00     0.074 A 
ATOM     43  C   UNL A   1      38.880  27.921  29.559  1.00  0.00     0.031 C 
ATOM     44  C   UNL A   1      44.459  25.525  26.294  1.00  0.00     0.029 A 
ATOM     45  C   UNL A   1      44.554  26.897  26.791  1.00  0.00     0.049 A 
ATOM     46  H   UNL A   1      43.108  27.962  27.842  1.00  0.00     0.167 HD
ATOM     47  C   UNL A   1      39.984  30.079  30.062  1.00  0.00     0.037 A 
ATOM     48  C   UNL A   1      45.617  27.712  26.654  1.00  0.00     0.037 A 
ATOM     49  C   UNL A   1      41.078  31.009  29.982  1.00  0.00     0.049 A 
ATOM     50  C   UNL A   1      45.555  29.110  27.211  1.00  0.00     0.074 A 
ATOM     51  C   UNL A   1      41.169  32.281  30.519  1.00  0.00     0.029 A 
ATOM     52  N   UNL A   1      42.272  30.765  29.321  1.00  0.00    -0.354 N 
ATOM     53  N   UNL A   1      44.594  29.687  27.889  1.00  0.00    -0.248 NA
ATOM     54  C   UNL A   1      46.724  29.969  26.975  1.00  0.00     0.031 C 
ATOM     55  C   UNL A   1      42.403  32.824  30.147  1.00  0.00     0.029 A 
ATOM     56  C   UNL A   1      43.098  31.873  29.417  1.00  0.00     0.049 A 
ATOM     57  H   UNL A   1      42.498  29.931  28.852  1.00  0.00     0.167 HD
ATOM     58  C   UNL A   1      45.045  30.970  28.175  1.00  0.00     0.074 A 
ATOM     59  C   UNL A   1      46.375  31.080  27.611  1.00  0.00     0.031 C 
ATOM     60  C   UNL A   1      44.416  31.968  28.843  1.00  0.00     0.037 A 
BRANCH  47  61
ATOM     61  C   UNL A   1      38.753  30.490  30.811  1.00  0.00     0.057 A 
ATOM     62  C   UNL A   1      37.689  31.143  30.176  1.00  0.00     0.134 A 
ATOM     63  C   UNL A   1      38.613  30.199  32.173  1.00  0.00     0.134 A 
ATOM     64  F   UNL A   1      37.769  31.467  28.875  1.00  0.00    -0.206 F 
ATOM     65  C   UNL A   1      36.534  31.501  30.872  1.00  0.00     0.040 A 
ATOM     66  C   UNL A   1      37.454  30.532  32.875  1.00  0.00     0.040 A 
ATOM     67  F   UNL A   1      39.597  29.576  32.841  1.00  0.00    -0.206 F 
ATOM     68  C   UNL A   1      36.411  31.188  32.224  1.00  0.00     0.006 A 
ENDBRANCH  47  61
BRANCH  48  69
ATOM     69  C   UNL A   1      46.829  27.235  25.943  1.00  0.00     0.057 A 
ATOM     70  C   UNL A   1      46.989  27.443  24.568  1.00  0.00     0.134 A 
ATOM     71  C   UNL A   1      47.850  26.556  26.617  1.00  0.00     0.134 A 
ATOM     72  F   UNL A   1      46.033  28.065  23.864  1.00  0.00    -0.206 F 
ATOM     73  C   UNL A   1      48.119  26.986  23.887  1.00  0.00     0.040 A 
ATOM     74  C   UNL A   1      48.995  26.112  25.953  1.00  0.00     0.040 A 
ATOM     75  F   UNL A   1      47.754  26.321  27.934  1.00  0.00    -0.206 F 
ATOM     76  C   UNL A   1      49.129  26.323  24.582  1.00  0.00     0.006 A 
ENDBRANCH  48  69
BRANCH  60  77
ATOM     77  C   UNL A   1      45.158  33.261  29.010  1.00  0.00     0.057 A 
ATOM     78  C   UNL A   1      45.012  34.314  28.098  1.00  0.00     0.134 A 
ATOM     79  C   UNL A   1      45.985  33.474  30.120  1.00  0.00     0.134 A 
ATOM     80  F   UNL A   1      44.243  34.169  27.009  1.00  0.00    -0.206 F 
ATOM     81  C   UNL A   1      45.677  35.528  28.276  1.00  0.00     0.040 A 
ATOM     82  C   UNL A   1      46.635  34.692  30.321  1.00  0.00     0.040 A 
ATOM     83  F   UNL A   1      46.158  32.509  31.036  1.00  0.00    -0.206 F 
ATOM     84  C   UNL A   1      46.486  35.722  29.395  1.00  0.00     0.006 A 
ENDBRANCH  60  77
ENDBRANCH  34  35
ENDBRANCH  27  29
ENDBRANCH  26  27
ENDBRANCH  25  26
ENDBRANCH   1  25
TORSDOF 15
ENDMDL
MODEL 2
REMARK VINA RESULT:     -11.4      3.723      7.494
REMARK SMILES Cc1c(Cl)cc2c(c1C)O[C@H](C(F)(F)F)C(C(=O)OCCOCCOC(=O)c1ccc(-c3c4nc(c(-c5c(F)cccc5F)c5ccc([nH]5)c(-c5c(F)cccc5F)c5nc(c(-c6c(F)cccc6F)c6ccc3[nH]6)C=C5)C=C4)cc1)=C2
REMARK SMILES IDX 23 1 22 2 21 3 20 4 19 5 17 6 18 7 16 8 1 9 2 10 3 11 8 12
REMARK SMILES IDX 4 13 5 14 7 15 9 16 6 17 10 18 82 19 11 20 12 21 13 22 14 23
REMARK SMILES IDX 15 24 24 25 25 26 26 27 27 28 28 29 29 30 81 31 30 32 80 33
REMARK SMILES IDX 31 34 32 35 33 36 74 37 34 38 79 39 73 40 75 41 35 42 78 43
REMARK SMILES IDX 72 44 71 45 36 47 62 48 45 49 61 50 46 51 49 52 60 53 76 54
REMARK SMILES IDX 47 55 48 56 59 58 77 59 50 60 37 61 38 62 43 63 39 64 40 65
REMARK SMILES IDX 42 66 44 67 41 68 63 69 64 70 69 71 65 72 66 73 68 74 70 75
REMARK SMILES IDX 67 76 51 77 52 78 57 79 53 80 54 81 56 82 58 83 55 84
REMARK H PARENT 75 46 49 57
REMARK Flexibility Score: inf
ROOT
ATOM      1  C   UNL A   1      41.597  20.900  26.144  1.00  0.00     0.202 C 
ENDROOT
BRANCH   1   2
ATOM      2  O   UNL A   1      40.457  21.543  26.717  1.00  0.00    -0.374 OA
BRANCH   2   3
ATOM      3  C   UNL A   1      39.195  21.342  26.084  1.00  0.00     0.202 C 
BRANCH   3   4
ATOM      4  C   UNL A   1      38.249  22.545  26.060  1.00  0.00     0.261 C 
BRANCH   4   5
ATOM      5  O   UNL A   1      37.217  22.379  25.073  1.00  0.00    -0.460 OA
BRANCH   5   6
ATOM      6  C   UNL A   1      35.964  22.305  25.579  1.00  0.00     0.338 C 
ATOM      7  O   UNL A   1      35.585  21.598  26.500  1.00  0.00    -0.246 OA
BRANCH   6   8
ATOM      8  C   UNL A   1      35.103  23.311  24.931  1.00  0.00     0.087 C 
ATOM      9  C   UNL A   1      31.021  28.261  23.824  1.00  0.00     0.046 C 
ATOM     10  C   UNL A   1      32.137  27.318  24.200  1.00  0.00    -0.026 A 
ATOM     11  C   UNL A   1      32.991  27.610  25.282  1.00  0.00     0.045 A 
ATOM     12  C   UNL A   1      32.294  26.078  23.526  1.00  0.00    -0.004 A 
ATOM     13  Cl  UNL A   1      32.861  29.067  26.205  1.00  0.00    -0.084 Cl
ATOM     14  C   UNL A   1      33.976  26.706  25.684  1.00  0.00     0.032 A 
ATOM     15  C   UNL A   1      33.314  25.188  23.929  1.00  0.00     0.131 A 
ATOM     16  C   UNL A   1      31.401  25.667  22.379  1.00  0.00     0.049 C 
ATOM     17  C   UNL A   1      34.125  25.489  25.023  1.00  0.00     0.019 A 
ATOM     18  O   UNL A   1      33.462  24.037  23.200  1.00  0.00    -0.475 OA
ATOM     19  C   UNL A   1      35.065  24.507  25.530  1.00  0.00     0.027 C 
ATOM     20  C   UNL A   1      34.308  22.966  23.704  1.00  0.00     0.316 C 
BRANCH  20  21
ATOM     21  C   UNL A   1      33.437  21.714  23.888  1.00  0.00     0.430 C 
ATOM     22  F   UNL A   1      32.533  21.597  22.885  1.00  0.00    -0.167 F 
ATOM     23  F   UNL A   1      34.175  20.580  23.875  1.00  0.00    -0.167 F 
ATOM     24  F   UNL A   1      32.750  21.740  25.052  1.00  0.00    -0.167 F 
ENDBRANCH  20  21
ENDBRANCH   6   8
ENDBRANCH   5   6
ENDBRANCH   4   5
ENDBRANCH   3   4
ENDBRANCH   2   3
ENDBRANCH   1   2
BRANCH   1  25
ATOM     25  C   UNL A   1      42.852  21.758  25.953  1.00  0.00     0.261 C 
BRANCH  25  26
ATOM     26  O   UNL A   1      42.649  22.801  24.983  1.00  0.00    -0.460 OA
BRANCH  26  27
ATOM     27  C   UNL A   1      43.446  23.884  25.141  1.00  0.00     0.338 C 
ATOM     28  O   UNL A   1      44.526  24.097  24.607  1.00  0.00    -0.246 OA
BRANCH  27  29
ATOM     29  C   UNL A   1      42.756  24.911  25.938  1.00  0.00     0.060 A 
ATOM     30  C   UNL A   1      43.418  26.130  26.136  1.00  0.00     0.016 A 
ATOM     31  C   UNL A   1      41.539  24.649  26.570  1.00  0.00     0.016 A 
ATOM     32  C   UNL A   1      42.892  27.073  27.016  1.00  0.00     0.010 A 
ATOM     33  C   UNL A   1      41.021  25.590  27.465  1.00  0.00     0.010 A 
ATOM     34  C   UNL A   1      41.718  26.785  27.723  1.00  0.00    -0.014 A 
BRANCH  34  35
ATOM     35  C   UNL A   1      41.328  27.645  28.863  1.00  0.00     0.031 A 
ATOM     36  C   UNL A   1      42.119  27.552  30.139  1.00  0.00     0.074 A 
ATOM     37  C   UNL A   1      40.319  28.527  28.755  1.00  0.00     0.049 A 
ATOM     38  N   UNL A   1      41.931  28.165  31.279  1.00  0.00    -0.248 NA
ATOM     39  C   UNL A   1      43.281  26.649  30.125  1.00  0.00     0.031 C 
ATOM     40  C   UNL A   1      39.525  28.758  27.551  1.00  0.00     0.029 A 
ATOM     41  N   UNL A   1      39.794  29.392  29.680  1.00  0.00    -0.354 N 
ATOM     42  C   UNL A   1      42.949  27.726  32.115  1.00  0.00     0.074 A 
ATOM     43  C   UNL A   1      43.737  26.773  31.363  1.00  0.00     0.031 C 
ATOM     44  C   UNL A   1      38.605  29.704  27.813  1.00  0.00     0.029 A 
ATOM     45  C   UNL A   1      38.727  30.116  29.210  1.00  0.00     0.049 A 
ATOM     46  H   UNL A   1      40.148  29.486  30.593  1.00  0.00     0.167 HD
ATOM     47  C   UNL A   1      43.211  28.090  33.392  1.00  0.00     0.037 A 
ATOM     48  C   UNL A   1      37.927  30.994  29.845  1.00  0.00     0.037 A 
ATOM     49  C   UNL A   1      42.424  29.031  34.143  1.00  0.00     0.049 A 
ATOM     50  C   UNL A   1      38.174  31.306  31.297  1.00  0.00     0.074 A 
ATOM     51  C   UNL A   1      42.599  29.455  35.448  1.00  0.00     0.029 A 
ATOM     52  N   UNL A   1      41.308  29.692  33.652  1.00  0.00    -0.354 N 
ATOM     53  N   UNL A   1      39.126  30.869  32.086  1.00  0.00    -0.248 NA
ATOM     54  C   UNL A   1      37.229  32.225  31.948  1.00  0.00     0.031 C 
ATOM     55  C   UNL A   1      41.565  30.343  35.761  1.00  0.00     0.029 A 
ATOM     56  C   UNL A   1      40.772  30.505  34.637  1.00  0.00     0.049 A 
ATOM     57  H   UNL A   1      40.950  29.597  32.741  1.00  0.00     0.167 HD
ATOM     58  C   UNL A   1      38.907  31.471  33.319  1.00  0.00     0.074 A 
ATOM     59  C   UNL A   1      37.740  32.318  33.168  1.00  0.00     0.031 C 
ATOM     60  C   UNL A   1      39.606  31.336  34.472  1.00  0.00     0.037 A 
BRANCH  47  61
ATOM     61  C   UNL A   1      44.389  27.453  34.065  1.00  0.00     0.057 A 
ATOM     62  C   UNL A   1      45.661  28.036  34.030  1.00  0.00     0.134 A 
ATOM     63  C   UNL A   1      44.243  26.261  34.786  1.00  0.00     0.134 A 
ATOM     64  F   UNL A   1      45.871  29.169  33.341  1.00  0.00    -0.206 F 
ATOM     65  C   UNL A   1      46.750  27.452  34.680  1.00  0.00     0.040 A 
ATOM     66  C   UNL A   1      45.318  25.679  35.458  1.00  0.00     0.040 A 
ATOM     67  F   UNL A   1      43.050  25.651  34.858  1.00  0.00    -0.206 F 
ATOM     68  C   UNL A   1      46.577  26.274  35.403  1.00  0.00     0.006 A 
ENDBRANCH  47  61
BRANCH  48  69
ATOM     69  C   UNL A   1      36.803  31.632  29.116  1.00  0.00     0.057 A 
ATOM     70  C   UNL A   1      35.631  30.924  28.833  1.00  0.00     0.134 A 
ATOM     71  C   UNL A   1      36.877  32.960  28.680  1.00  0.00     0.134 A 
ATOM     72  F   UNL A   1      35.512  29.640  29.202  1.00  0.00    -0.206 F 
ATOM     73  C   UNL A   1      34.573  31.511  28.135  1.00  0.00     0.040 A 
ATOM     74  C   UNL A   1      35.819  33.567  28.001  1.00  0.00     0.040 A 
ATOM     75  F   UNL A   1      37.976  33.692  28.917  1.00  0.00    -0.206 F 
ATOM     76  C   UNL A   1      34.663  32.839  27.723  1.00  0.00     0.006 A 
ENDBRANCH  48  69
BRANCH  60  77
ATOM     77  C   UNL A   1      39.138  32.123  35.659  1.00  0.00     0.057 A 
ATOM     78  C   UNL A   1      39.525  33.455  35.857  1.00  0.00     0.134 A 
ATOM     79  C   UNL A   1      38.249  31.562  36.586  1.00  0.00     0.134 A 
ATOM     80  F   UNL A   1      40.382  34.046  35.011  1.00  0.00    -0.206 F 
ATOM     81  C   UNL A   1      39.058  34.195  36.944  1.00  0.00     0.040 A 
ATOM     82  C   UNL A   1      37.757  32.301  37.663  1.00  0.00     0.040 A 
ATOM     83  F   UNL A   1      37.831  30.295  36.448  1.00  0.00    -0.206 F 
ATOM     84  C   UNL A   1      38.165  33.620  37.847  1.00  0.00     0.006 A 
ENDBRANCH  60  77
ENDBRANCH  34  35
ENDBRANCH  27  29
ENDBRANCH  26  27
ENDBRANCH  25  26
ENDBRANCH   1  25
TORSDOF 15
ENDMDL
MODEL 3
REMARK VINA RESULT:     -11.1      2.836      7.004
REMARK SMILES Cc1c(Cl)cc2c(c1C)O[C@H](C(F)(F)F)C(C(=O)OCCOCCOC(=O)c1ccc(-c3c4nc(c(-c5c(F)cccc5F)c5ccc([nH]5)c(-c5c(F)cccc5F)c5nc(c(-c6c(F)cccc6F)c6ccc3[nH]6)C=C5)C=C4)cc1)=C2
REMARK SMILES IDX 23 1 22 2 21 3 20 4 19 5 17 6 18 7 16 8 1 9 2 10 3 11 8 12
REMARK SMILES IDX 4 13 5 14 7 15 9 16 6 17 10 18 82 19 11 20 12 21 13 22 14 23
REMARK SMILES IDX 15 24 24 25 25 26 26 27 27 28 28 29 29 30 81 31 30 32 80 33
REMARK SMILES IDX 31 34 32 35 33 36 74 37 34 38 79 39 73 40 75 41 35 42 78 43
REMARK SMILES IDX 72 44 71 45 36 47 62 48 45 49 61 50 46 51 49 52 60 53 76 54
REMARK SMILES IDX 47 55 48 56 59 58 77 59 50 60 37 61 38 62 43 63 39 64 40 65
REMARK SMILES IDX 42 66 44 67 41 68 63 69 64 70 69 71 65 72 66 73 68 74 70 75
REMARK SMILES IDX 67 76 51 77 52 78 57 79 53 80 54 81 56 82 58 83 55 84
REMARK H PARENT 75 46 49 57
REMARK Flexibility Score: inf
ROOT
ATOM      1  C   UNL A   1      32.151  30.417  26.877  1.00  0.00     0.202 C 
ENDROOT
BRANCH   1   2
ATOM      2  O   UNL A   1      32.305  30.150  25.483  1.00  0.00    -0.374 OA
BRANCH   2   3
ATOM      3  C   UNL A   1      33.166  29.078  25.103  1.00  0.00     0.202 C 
BRANCH   3   4
ATOM      4  C   UNL A   1      32.609  28.093  24.072  1.00  0.00     0.261 C 
BRANCH   4   5
ATOM      5  O   UNL A   1      33.158  26.778  24.258  1.00  0.00    -0.460 OA
BRANCH   5   6
ATOM      6  C   UNL A   1      32.394  25.951  25.007  1.00  0.00     0.338 C 
ATOM      7  O   UNL A   1      31.277  26.181  25.447  1.00  0.00    -0.246 OA
BRANCH   6   8
ATOM      8  C   UNL A   1      33.052  24.639  25.136  1.00  0.00     0.087 C 
ATOM      9  C   UNL A   1      37.387  19.783  25.002  1.00  0.00     0.046 C 
ATOM     10  C   UNL A   1      36.574  21.036  25.212  1.00  0.00    -0.026 A 
ATOM     11  C   UNL A   1      37.201  22.254  25.539  1.00  0.00     0.045 A 
ATOM     12  C   UNL A   1      35.169  21.030  25.001  1.00  0.00    -0.004 A 
ATOM     13  Cl  UNL A   1      38.910  22.388  25.773  1.00  0.00    -0.084 Cl
ATOM     14  C   UNL A   1      36.464  23.433  25.658  1.00  0.00     0.032 A 
ATOM     15  C   UNL A   1      34.435  22.228  25.153  1.00  0.00     0.131 A 
ATOM     16  C   UNL A   1      34.419  19.777  24.614  1.00  0.00     0.049 C 
ATOM     17  C   UNL A   1      35.087  23.425  25.446  1.00  0.00     0.019 A 
ATOM     18  O   UNL A   1      33.075  22.149  25.002  1.00  0.00    -0.475 OA
ATOM     19  C   UNL A   1      34.353  24.677  25.448  1.00  0.00     0.027 C 
ATOM     20  C   UNL A   1      32.290  23.369  24.890  1.00  0.00     0.316 C 
BRANCH  20  21
ATOM     21  C   UNL A   1      31.575  23.354  23.531  1.00  0.00     0.430 C 
ATOM     22  F   UNL A   1      32.177  24.194  22.654  1.00  0.00    -0.167 F 
ATOM     23  F   UNL A   1      31.597  22.126  22.963  1.00  0.00    -0.167 F 
ATOM     24  F   UNL A   1      30.281  23.732  23.633  1.00  0.00    -0.167 F 
ENDBRANCH  20  21
ENDBRANCH   6   8
ENDBRANCH   5   6
ENDBRANCH   4   5
ENDBRANCH   3   4
ENDBRANCH   2   3
ENDBRANCH   1   2
BRANCH   1  25
ATOM     25  C   UNL A   1      33.081  31.472  27.486  1.00  0.00     0.261 C 
BRANCH  25  26
ATOM     26  O   UNL A   1      34.463  31.076  27.417  1.00  0.00    -0.460 OA
BRANCH  26  27
ATOM     27  C   UNL A   1      35.138  31.172  28.587  1.00  0.00     0.338 C 
ATOM     28  O   UNL A   1      34.775  31.735  29.611  1.00  0.00    -0.246 OA
BRANCH  27  29
ATOM     29  C   UNL A   1      36.348  30.335  28.546  1.00  0.00     0.060 A 
ATOM     30  C   UNL A   1      36.761  29.734  29.743  1.00  0.00     0.016 A 
ATOM     31  C   UNL A   1      37.123  30.228  27.389  1.00  0.00     0.016 A 
ATOM     32  C   UNL A   1      37.985  29.072  29.803  1.00  0.00     0.010 A 
ATOM     33  C   UNL A   1      38.358  29.576  27.456  1.00  0.00     0.010 A 
ATOM     34  C   UNL A   1      38.811  29.034  28.673  1.00  0.00    -0.014 A 
BRANCH  34  35
ATOM     35  C   UNL A   1      40.219  28.600  28.818  1.00  0.00     0.031 A 
ATOM     36  C   UNL A   1      41.213  29.562  29.409  1.00  0.00     0.074 A 
ATOM     37  C   UNL A   1      40.602  27.358  28.474  1.00  0.00     0.049 A 
ATOM     38  N   UNL A   1      42.501  29.422  29.583  1.00  0.00    -0.248 NA
ATOM     39  C   UNL A   1      40.680  30.855  29.869  1.00  0.00     0.031 C 
ATOM     40  C   UNL A   1      39.719  26.316  27.958  1.00  0.00     0.029 A 
ATOM     41  N   UNL A   1      41.839  26.768  28.513  1.00  0.00    -0.354 N 
ATOM     42  C   UNL A   1      42.932  30.603  30.174  1.00  0.00     0.074 A 
ATOM     43  C   UNL A   1      41.774  31.462  30.303  1.00  0.00     0.031 C 
ATOM     44  C   UNL A   1      40.446  25.209  27.720  1.00  0.00     0.029 A 
ATOM     45  C   UNL A   1      41.848  25.481  28.037  1.00  0.00     0.049 A 
ATOM     46  H   UNL A   1      42.644  27.223  28.850  1.00  0.00     0.167 HD
ATOM     47  C   UNL A   1      44.178  30.939  30.582  1.00  0.00     0.037 A 
ATOM     48  C   UNL A   1      42.876  24.629  27.857  1.00  0.00     0.037 A 
ATOM     49  C   UNL A   1      45.330  30.090  30.446  1.00  0.00     0.049 A 
ATOM     50  C   UNL A   1      44.270  25.064  28.221  1.00  0.00     0.074 A 
ATOM     51  C   UNL A   1      46.639  30.345  30.815  1.00  0.00     0.029 A 
ATOM     52  N   UNL A   1      45.310  28.817  29.895  1.00  0.00    -0.354 N 
ATOM     53  N   UNL A   1      44.671  26.190  28.759  1.00  0.00    -0.248 NA
ATOM     54  C   UNL A   1      45.355  24.111  27.944  1.00  0.00     0.031 C 
ATOM     55  C   UNL A   1      47.419  29.243  30.450  1.00  0.00     0.029 A 
ATOM     56  C   UNL A   1      46.588  28.284  29.894  1.00  0.00     0.049 A 
ATOM     57  H   UNL A   1      44.508  28.362  29.554  1.00  0.00     0.167 HD
ATOM     58  C   UNL A   1      46.049  26.077  28.900  1.00  0.00     0.074 A 
ATOM     59  C   UNL A   1      46.412  24.764  28.407  1.00  0.00     0.031 C 
ATOM     60  C   UNL A   1      46.934  26.979  29.392  1.00  0.00     0.037 A 
BRANCH  47  61
ATOM     61  C   UNL A   1      44.362  32.294  31.196  1.00  0.00     0.057 A 
ATOM     62  C   UNL A   1      44.260  32.496  32.577  1.00  0.00     0.134 A 
ATOM     63  C   UNL A   1      44.682  33.402  30.401  1.00  0.00     0.134 A 
ATOM     64  F   UNL A   1      43.938  31.478  33.391  1.00  0.00    -0.206 F 
ATOM     65  C   UNL A   1      44.457  33.755  33.148  1.00  0.00     0.040 A 
ATOM     66  C   UNL A   1      44.903  34.661  30.961  1.00  0.00     0.040 A 
ATOM     67  F   UNL A   1      44.794  33.276  29.070  1.00  0.00    -0.206 F 
ATOM     68  C   UNL A   1      44.788  34.840  32.339  1.00  0.00     0.006 A 
ENDBRANCH  47  61
BRANCH  48  69
ATOM     69  C   UNL A   1      42.629  23.281  27.289  1.00  0.00     0.057 A 
ATOM     70  C   UNL A   1      42.281  22.203  28.111  1.00  0.00     0.134 A 
ATOM     71  C   UNL A   1      42.741  23.036  25.916  1.00  0.00     0.134 A 
ATOM     72  F   UNL A   1      42.183  22.370  29.438  1.00  0.00    -0.206 F 
ATOM     73  C   UNL A   1      42.060  20.927  27.588  1.00  0.00     0.040 A 
ATOM     74  C   UNL A   1      42.502  21.770  25.376  1.00  0.00     0.040 A 
ATOM     75  F   UNL A   1      43.075  24.026  25.075  1.00  0.00    -0.206 F 
ATOM     76  C   UNL A   1      42.164  20.710  26.216  1.00  0.00     0.006 A 
ENDBRANCH  48  69
BRANCH  60  77
ATOM     77  C   UNL A   1      48.378  26.576  29.431  1.00  0.00     0.057 A 
ATOM     78  C   UNL A   1      49.257  26.891  28.387  1.00  0.00     0.134 A 
ATOM     79  C   UNL A   1      48.907  25.913  30.547  1.00  0.00     0.134 A 
ATOM     80  F   UNL A   1      48.810  27.516  27.287  1.00  0.00    -0.206 F 
ATOM     81  C   UNL A   1      50.608  26.546  28.444  1.00  0.00     0.040 A 
ATOM     82  C   UNL A   1      50.261  25.585  30.625  1.00  0.00     0.040 A 
ATOM     83  F   UNL A   1      48.120  25.592  31.585  1.00  0.00    -0.206 F 
ATOM     84  C   UNL A   1      51.115  25.897  29.569  1.00  0.00     0.006 A 
ENDBRANCH  60  77
ENDBRANCH  34  35
ENDBRANCH  27  29
ENDBRANCH  26  27
ENDBRANCH  25  26
ENDBRANCH   1  25
TORSDOF 15
ENDMDL
