MODEL 1
REMARK VINA RESULT:     -12.4      0.000      0.000
REMARK SMILES O=C1C[C@@H](C(=O)Nc2cccc(C(=O)OCCOCCOC(=O)c3ccc(-c4c5nc(c(-c6c(F)cccc6F)c6ccc([nH]6)c(-c6c(F)cccc6F)c6nc(c(-c7c(F)cccc7F)c7ccc4[nH]7)C=C6)C=C5)cc3)c2)[C@H](c2ccccc2)O1
REMARK SMILES IDX 17 1 16 2 15 3 13 4 14 5 12 6 8 7 9 8 78 9 10 10 11 11 7 12
REMARK SMILES IDX 5 13 6 14 4 16 1 17 2 18 3 19 86 20 79 21 80 22 81 23 85 24
REMARK SMILES IDX 82 25 84 26 83 27 18 28 19 29 20 30 21 31 22 32 23 33 24 34
REMARK SMILES IDX 25 35 77 36 26 37 76 38 27 39 28 40 29 41 70 42 30 43 75 44
REMARK SMILES IDX 69 45 71 46 31 47 74 48 68 49 67 50 32 52 58 53 41 54 57 55
REMARK SMILES IDX 42 56 45 57 56 58 72 59 43 60 44 61 55 63 73 64 46 65 33 66
REMARK SMILES IDX 34 67 39 68 35 69 36 70 38 71 40 72 37 73 59 74 60 75 65 76
REMARK SMILES IDX 61 77 62 78 64 79 66 80 63 81 47 82 48 83 53 84 49 85 50 86
REMARK SMILES IDX 52 87 54 88 51 89
REMARK H PARENT 7 15 71 51 45 62
REMARK Flexibility Score: inf
ROOT
ATOM      1  C   UNL A   1      42.707  19.857  26.424  1.00  0.00     0.202 C 
ENDROOT
BRANCH   1   2
ATOM      2  C   UNL A   1      41.859  21.026  26.937  1.00  0.00     0.261 C 
BRANCH   2   3
ATOM      3  O   UNL A   1      40.528  20.598  27.256  1.00  0.00    -0.460 OA
BRANCH   3   4
ATOM      4  C   UNL A   1      39.743  20.300  26.194  1.00  0.00     0.338 C 
ATOM      5  O   UNL A   1      39.628  19.210  25.648  1.00  0.00    -0.246 OA
BRANCH   4   6
ATOM      6  C   UNL A   1      38.917  21.474  25.821  1.00  0.00     0.062 A 
ATOM      7  C   UNL A   1      36.925  22.409  24.820  1.00  0.00     0.042 A 
ATOM      8  C   UNL A   1      37.266  23.663  25.339  1.00  0.00     0.026 A 
ATOM      9  C   UNL A   1      37.814  21.349  24.970  1.00  0.00     0.041 A 
ATOM     10  C   UNL A   1      38.411  23.815  26.124  1.00  0.00     0.003 A 
ATOM     11  C   UNL A   1      39.215  22.711  26.397  1.00  0.00     0.016 A 
BRANCH   7  12
ATOM     12  N   UNL A   1      35.679  22.283  24.188  1.00  0.00    -0.326 N 
ATOM     13  C   UNL A   1      34.436  22.739  24.538  1.00  0.00     0.232 C 
ATOM     14  O   UNL A   1      33.491  22.395  23.823  1.00  0.00    -0.274 OA
ATOM     15  H   UNL A   1      35.704  21.778  23.343  1.00  0.00     0.169 HD
BRANCH  13  16
ATOM     16  C   UNL A   1      34.236  23.746  25.669  1.00  0.00     0.135 C 
ATOM     17  O   UNL A   1      32.502  22.206  28.344  1.00  0.00    -0.252 OA
ATOM     18  C   UNL A   1      32.888  22.853  27.385  1.00  0.00     0.307 C 
ATOM     19  C   UNL A   1      34.319  23.085  27.030  1.00  0.00     0.140 C 
ATOM     20  O   UNL A   1      32.059  23.541  26.551  1.00  0.00    -0.457 OA
ATOM     21  C   UNL A   1      32.824  24.321  25.623  1.00  0.00     0.220 C 
BRANCH  21  22
ATOM     22  C   UNL A   1      32.767  25.802  25.980  1.00  0.00    -0.007 A 
ATOM     23  C   UNL A   1      31.647  26.400  26.573  1.00  0.00     0.007 A 
ATOM     24  C   UNL A   1      33.886  26.612  25.729  1.00  0.00     0.007 A 
ATOM     25  C   UNL A   1      31.668  27.748  26.946  1.00  0.00     0.000 A 
ATOM     26  C   UNL A   1      33.922  27.948  26.134  1.00  0.00     0.000 A 
ATOM     27  C   UNL A   1      32.813  28.516  26.747  1.00  0.00     0.000 A 
ENDBRANCH  21  22
ENDBRANCH  13  16
ENDBRANCH   7  12
ENDBRANCH   4   6
ENDBRANCH   3   4
ENDBRANCH   2   3
ENDBRANCH   1   2
BRANCH   1  28
ATOM     28  O   UNL A   1      43.449  20.067  25.224  1.00  0.00    -0.374 OA
BRANCH  28  29
ATOM     29  C   UNL A   1      44.414  21.117  25.202  1.00  0.00     0.202 C 
BRANCH  29  30
ATOM     30  C   UNL A   1      44.261  22.206  24.136  1.00  0.00     0.261 C 
BRANCH  30  31
ATOM     31  O   UNL A   1      43.457  23.311  24.577  1.00  0.00    -0.460 OA
BRANCH  31  32
ATOM     32  C   UNL A   1      44.174  24.382  24.992  1.00  0.00     0.338 C 
ATOM     33  O   UNL A   1      45.294  24.711  24.629  1.00  0.00    -0.246 OA
BRANCH  32  34
ATOM     34  C   UNL A   1      43.353  25.240  25.861  1.00  0.00     0.060 A 
ATOM     35  C   UNL A   1      43.787  26.558  26.052  1.00  0.00     0.016 A 
ATOM     36  C   UNL A   1      42.246  24.746  26.554  1.00  0.00     0.016 A 
ATOM     37  C   UNL A   1      43.150  27.371  26.985  1.00  0.00     0.010 A 
ATOM     38  C   UNL A   1      41.613  25.562  27.498  1.00  0.00     0.010 A 
ATOM     39  C   UNL A   1      42.089  26.864  27.745  1.00  0.00    -0.014 A 
BRANCH  39  40
ATOM     40  C   UNL A   1      41.595  27.645  28.903  1.00  0.00     0.031 A 
ATOM     41  C   UNL A   1      42.303  27.518  30.224  1.00  0.00     0.074 A 
ATOM     42  C   UNL A   1      40.566  28.500  28.765  1.00  0.00     0.049 A 
ATOM     43  N   UNL A   1      42.037  28.094  31.368  1.00  0.00    -0.248 NA
ATOM     44  C   UNL A   1      43.472  26.623  30.258  1.00  0.00     0.031 C 
ATOM     45  C   UNL A   1      39.828  28.742  27.527  1.00  0.00     0.029 A 
ATOM     46  N   UNL A   1      39.964  29.322  29.683  1.00  0.00    -0.354 N 
ATOM     47  C   UNL A   1      43.007  27.642  32.253  1.00  0.00     0.074 A 
ATOM     48  C   UNL A   1      43.845  26.712  31.527  1.00  0.00     0.031 C 
ATOM     49  C   UNL A   1      38.859  29.642  27.766  1.00  0.00     0.029 A 
ATOM     50  C   UNL A   1      38.894  30.019  29.179  1.00  0.00     0.049 A 
ATOM     51  H   UNL A   1      40.270  29.406  30.615  1.00  0.00     0.167 HD
ATOM     52  C   UNL A   1      43.195  27.984  33.550  1.00  0.00     0.037 A 
ATOM     53  C   UNL A   1      38.029  30.847  29.793  1.00  0.00     0.037 A 
ATOM     54  C   UNL A   1      42.357  28.903  34.274  1.00  0.00     0.049 A 
ATOM     55  C   UNL A   1      38.211  31.150  31.258  1.00  0.00     0.074 A 
ATOM     56  C   UNL A   1      42.453  29.299  35.597  1.00  0.00     0.029 A 
ATOM     57  N   UNL A   1      41.268  29.569  33.734  1.00  0.00    -0.354 N 
ATOM     58  N   UNL A   1      39.137  30.723  32.083  1.00  0.00    -0.248 NA
ATOM     59  C   UNL A   1      37.232  32.055  31.876  1.00  0.00     0.031 C 
ATOM     60  C   UNL A   1      41.399  30.178  35.867  1.00  0.00     0.029 A 
ATOM     61  C   UNL A   1      40.677  30.366  34.700  1.00  0.00     0.049 A 
ATOM     62  H   UNL A   1      40.962  29.489  32.802  1.00  0.00     0.167 HD
ATOM     63  C   UNL A   1      38.870  31.329  33.304  1.00  0.00     0.074 A 
ATOM     64  C   UNL A   1      37.704  32.166  33.109  1.00  0.00     0.031 C 
ATOM     65  C   UNL A   1      39.528  31.206  34.482  1.00  0.00     0.037 A 
BRANCH  52  66
ATOM     66  C   UNL A   1      44.349  27.355  34.271  1.00  0.00     0.057 A 
ATOM     67  C   UNL A   1      44.201  26.165  34.996  1.00  0.00     0.134 A 
ATOM     68  C   UNL A   1      45.630  27.916  34.203  1.00  0.00     0.134 A 
ATOM     69  F   UNL A   1      42.996  25.586  35.112  1.00  0.00    -0.206 F 
ATOM     70  C   UNL A   1      45.284  25.563  35.639  1.00  0.00     0.040 A 
ATOM     71  C   UNL A   1      46.725  27.311  34.823  1.00  0.00     0.040 A 
ATOM     72  F   UNL A   1      45.841  29.052  33.523  1.00  0.00    -0.206 F 
ATOM     73  C   UNL A   1      46.553  26.132  35.546  1.00  0.00     0.006 A 
ENDBRANCH  52  66
BRANCH  53  74
ATOM     74  C   UNL A   1      36.892  31.435  29.040  1.00  0.00     0.057 A 
ATOM     75  C   UNL A   1      36.892  32.777  28.645  1.00  0.00     0.134 A 
ATOM     76  C   UNL A   1      35.754  30.675  28.739  1.00  0.00     0.134 A 
ATOM     77  F   UNL A   1      37.942  33.563  28.925  1.00  0.00    -0.206 F 
ATOM     78  C   UNL A   1      35.793  33.350  28.001  1.00  0.00     0.040 A 
ATOM     79  C   UNL A   1      34.661  31.227  28.072  1.00  0.00     0.040 A 
ATOM     80  F   UNL A   1      35.692  29.381  29.088  1.00  0.00    -0.206 F 
ATOM     81  C   UNL A   1      34.674  32.572  27.711  1.00  0.00     0.006 A 
ENDBRANCH  53  74
BRANCH  65  82
ATOM     82  C   UNL A   1      39.033  32.026  35.637  1.00  0.00     0.057 A 
ATOM     83  C   UNL A   1      38.203  31.486  36.628  1.00  0.00     0.134 A 
ATOM     84  C   UNL A   1      39.426  33.363  35.781  1.00  0.00     0.134 A 
ATOM     85  F   UNL A   1      37.782  30.216  36.544  1.00  0.00    -0.206 F 
ATOM     86  C   UNL A   1      37.762  32.254  37.707  1.00  0.00     0.040 A 
ATOM     87  C   UNL A   1      39.013  34.133  36.868  1.00  0.00     0.040 A 
ATOM     88  F   UNL A   1      40.229  33.938  34.871  1.00  0.00    -0.206 F 
ATOM     89  C   UNL A   1      38.174  33.580  37.833  1.00  0.00     0.006 A 
ENDBRANCH  65  82
ENDBRANCH  39  40
ENDBRANCH  32  34
ENDBRANCH  31  32
ENDBRANCH  30  31
ENDBRANCH  29  30
ENDBRANCH  28  29
ENDBRANCH   1  28
TORSDOF 17
ENDMDL
MODEL 2
REMARK VINA RESULT:     -12.0      1.436      2.951
REMARK SMILES O=C1C[C@@H](C(=O)Nc2cccc(C(=O)OCCOCCOC(=O)c3ccc(-c4c5nc(c(-c6c(F)cccc6F)c6ccc([nH]6)c(-c6c(F)cccc6F)c6nc(c(-c7c(F)cccc7F)c7ccc4[nH]7)C=C6)C=C5)cc3)c2)[C@H](c2ccccc2)O1
REMARK SMILES IDX 17 1 16 2 15 3 13 4 14 5 12 6 8 7 9 8 78 9 10 10 11 11 7 12
REMARK SMILES IDX 5 13 6 14 4 16 1 17 2 18 3 19 86 20 79 21 80 22 81 23 85 24
REMARK SMILES IDX 82 25 84 26 83 27 18 28 19 29 20 30 21 31 22 32 23 33 24 34
REMARK SMILES IDX 25 35 77 36 26 37 76 38 27 39 28 40 29 41 70 42 30 43 75 44
REMARK SMILES IDX 69 45 71 46 31 47 74 48 68 49 67 50 32 52 58 53 41 54 57 55
REMARK SMILES IDX 42 56 45 57 56 58 72 59 43 60 44 61 55 63 73 64 46 65 33 66
REMARK SMILES IDX 34 67 39 68 35 69 36 70 38 71 40 72 37 73 59 74 60 75 65 76
REMARK SMILES IDX 61 77 62 78 64 79 66 80 63 81 47 82 48 83 53 84 49 85 50 86
REMARK SMILES IDX 52 87 54 88 51 89
REMARK H PARENT 7 15 71 51 45 62
REMARK Flexibility Score: inf
ROOT
ATOM      1  C   UNL A   1      42.699  19.744  25.883  1.00  0.00     0.202 C 
ENDROOT
BRANCH   1   2
ATOM      2  C   UNL A   1      41.218  19.468  26.163  1.00  0.00     0.261 C 
BRANCH   2   3
ATOM      3  O   UNL A   1      40.480  20.692  26.290  1.00  0.00    -0.460 OA
BRANCH   3   4
ATOM      4  C   UNL A   1      39.223  20.667  25.790  1.00  0.00     0.338 C 
ATOM      5  O   UNL A   1      38.632  19.696  25.334  1.00  0.00    -0.246 OA
BRANCH   4   6
ATOM      6  C   UNL A   1      38.574  21.989  25.966  1.00  0.00     0.062 A 
ATOM      7  C   UNL A   1      36.585  23.330  26.272  1.00  0.00     0.042 A 
ATOM      8  C   UNL A   1      37.390  24.444  26.534  1.00  0.00     0.026 A 
ATOM      9  C   UNL A   1      37.186  22.138  25.877  1.00  0.00     0.041 A 
ATOM     10  C   UNL A   1      38.782  24.323  26.546  1.00  0.00     0.003 A 
ATOM     11  C   UNL A   1      39.372  23.086  26.301  1.00  0.00     0.016 A 
BRANCH   7  12
ATOM     12  N   UNL A   1      35.201  23.472  26.443  1.00  0.00    -0.326 N 
ATOM     13  C   UNL A   1      34.145  23.031  25.691  1.00  0.00     0.232 C 
ATOM     14  O   UNL A   1      33.018  23.387  26.042  1.00  0.00    -0.274 OA
ATOM     15  H   UNL A   1      34.943  23.979  27.247  1.00  0.00     0.169 HD
BRANCH  13  16
ATOM     16  C   UNL A   1      34.329  22.022  24.557  1.00  0.00     0.135 C 
ATOM     17  O   UNL A   1      33.324  23.479  21.491  1.00  0.00    -0.252 OA
ATOM     18  C   UNL A   1      33.464  22.848  22.526  1.00  0.00     0.307 C 
ATOM     19  C   UNL A   1      34.751  22.699  23.269  1.00  0.00     0.140 C 
ATOM     20  O   UNL A   1      32.478  22.106  23.101  1.00  0.00    -0.457 OA
ATOM     21  C   UNL A   1      32.998  21.365  24.211  1.00  0.00     0.220 C 
BRANCH  21  22
ATOM     22  C   UNL A   1      33.130  19.887  23.866  1.00  0.00    -0.007 A 
ATOM     23  C   UNL A   1      32.337  19.256  22.897  1.00  0.00     0.007 A 
ATOM     24  C   UNL A   1      34.100  19.112  24.523  1.00  0.00     0.007 A 
ATOM     25  C   UNL A   1      32.543  17.913  22.566  1.00  0.00     0.000 A 
ATOM     26  C   UNL A   1      34.332  17.782  24.167  1.00  0.00     0.000 A 
ATOM     27  C   UNL A   1      33.555  17.182  23.184  1.00  0.00     0.000 A 
ENDBRANCH  21  22
ENDBRANCH  13  16
ENDBRANCH   7  12
ENDBRANCH   4   6
ENDBRANCH   3   4
ENDBRANCH   2   3
ENDBRANCH   1   2
BRANCH   1  28
ATOM     28  O   UNL A   1      43.029  21.007  25.307  1.00  0.00    -0.374 OA
BRANCH  28  29
ATOM     29  C   UNL A   1      44.396  21.272  25.000  1.00  0.00     0.202 C 
BRANCH  29  30
ATOM     30  C   UNL A   1      44.712  22.510  24.155  1.00  0.00     0.261 C 
BRANCH  30  31
ATOM     31  O   UNL A   1      43.879  23.634  24.477  1.00  0.00    -0.460 OA
BRANCH  31  32
ATOM     32  C   UNL A   1      44.548  24.671  25.034  1.00  0.00     0.338 C 
ATOM     33  O   UNL A   1      45.672  25.064  24.758  1.00  0.00    -0.246 OA
BRANCH  32  34
ATOM     34  C   UNL A   1      43.667  25.412  25.952  1.00  0.00     0.060 A 
ATOM     35  C   UNL A   1      43.787  26.807  25.965  1.00  0.00     0.016 A 
ATOM     36  C   UNL A   1      42.818  24.761  26.848  1.00  0.00     0.016 A 
ATOM     37  C   UNL A   1      43.103  27.555  26.920  1.00  0.00     0.010 A 
ATOM     38  C   UNL A   1      42.139  25.512  27.813  1.00  0.00     0.010 A 
ATOM     39  C   UNL A   1      42.312  26.908  27.877  1.00  0.00    -0.014 A 
BRANCH  39  40
ATOM     40  C   UNL A   1      41.802  27.683  29.033  1.00  0.00     0.031 A 
ATOM     41  C   UNL A   1      42.528  27.592  30.347  1.00  0.00     0.074 A 
ATOM     42  C   UNL A   1      40.744  28.501  28.898  1.00  0.00     0.049 A 
ATOM     43  N   UNL A   1      42.254  28.170  31.489  1.00  0.00    -0.248 NA
ATOM     44  C   UNL A   1      43.727  26.738  30.378  1.00  0.00     0.031 C 
ATOM     45  C   UNL A   1      39.986  28.706  27.665  1.00  0.00     0.029 A 
ATOM     46  N   UNL A   1      40.123  29.311  29.815  1.00  0.00    -0.354 N 
ATOM     47  C   UNL A   1      43.247  27.759  32.368  1.00  0.00     0.074 A 
ATOM     48  C   UNL A   1      44.109  26.850  31.642  1.00  0.00     0.031 C 
ATOM     49  C   UNL A   1      38.989  29.576  27.907  1.00  0.00     0.029 A 
ATOM     50  C   UNL A   1      39.025  29.966  29.315  1.00  0.00     0.049 A 
ATOM     51  H   UNL A   1      40.436  29.413  30.743  1.00  0.00     0.167 HD
ATOM     52  C   UNL A   1      43.437  28.119  33.660  1.00  0.00     0.037 A 
ATOM     53  C   UNL A   1      38.139  30.771  29.932  1.00  0.00     0.037 A 
ATOM     54  C   UNL A   1      42.576  29.015  34.385  1.00  0.00     0.049 A 
ATOM     55  C   UNL A   1      38.325  31.092  31.391  1.00  0.00     0.074 A 
ATOM     56  C   UNL A   1      42.671  29.427  35.702  1.00  0.00     0.029 A 
ATOM     57  N   UNL A   1      41.459  29.640  33.850  1.00  0.00    -0.354 N 
ATOM     58  N   UNL A   1      39.274  30.705  32.211  1.00  0.00    -0.248 NA
ATOM     59  C   UNL A   1      37.322  31.969  32.012  1.00  0.00     0.031 C 
ATOM     60  C   UNL A   1      41.591  30.272  35.975  1.00  0.00     0.029 A 
ATOM     61  C   UNL A   1      40.851  30.425  34.815  1.00  0.00     0.049 A 
ATOM     62  H   UNL A   1      41.146  29.541  32.922  1.00  0.00     0.167 HD
ATOM     63  C   UNL A   1      38.998  31.313  33.429  1.00  0.00     0.074 A 
ATOM     64  C   UNL A   1      37.802  32.108  33.239  1.00  0.00     0.031 C 
ATOM     65  C   UNL A   1      39.672  31.223  34.601  1.00  0.00     0.037 A 
BRANCH  52  66
ATOM     66  C   UNL A   1      44.618  27.536  34.375  1.00  0.00     0.057 A 
ATOM     67  C   UNL A   1      44.541  26.305  35.039  1.00  0.00     0.134 A 
ATOM     68  C   UNL A   1      45.859  28.186  34.360  1.00  0.00     0.134 A 
ATOM     69  F   UNL A   1      43.378  25.639  35.102  1.00  0.00    -0.206 F 
ATOM     70  C   UNL A   1      45.651  25.748  35.676  1.00  0.00     0.040 A 
ATOM     71  C   UNL A   1      46.982  27.628  34.974  1.00  0.00     0.040 A 
ATOM     72  F   UNL A   1      46.002  29.366  33.740  1.00  0.00    -0.206 F 
ATOM     73  C   UNL A   1      46.879  26.406  35.637  1.00  0.00     0.006 A 
ENDBRANCH  52  66
BRANCH  53  74
ATOM     74  C   UNL A   1      36.975  31.312  29.185  1.00  0.00     0.057 A 
ATOM     75  C   UNL A   1      35.866  30.515  28.881  1.00  0.00     0.134 A 
ATOM     76  C   UNL A   1      36.966  32.633  28.718  1.00  0.00     0.134 A 
ATOM     77  F   UNL A   1      35.825  29.235  29.280  1.00  0.00    -0.206 F 
ATOM     78  C   UNL A   1      34.803  31.001  28.117  1.00  0.00     0.040 A 
ATOM     79  C   UNL A   1      35.899  33.140  27.977  1.00  0.00     0.040 A 
ATOM     80  F   UNL A   1      37.998  33.450  28.978  1.00  0.00    -0.206 F 
ATOM     81  C   UNL A   1      34.818  32.319  27.665  1.00  0.00     0.006 A 
ENDBRANCH  53  74
BRANCH  65  82
ATOM     82  C   UNL A   1      39.161  32.036  35.754  1.00  0.00     0.057 A 
ATOM     83  C   UNL A   1      38.282  31.504  36.705  1.00  0.00     0.134 A 
ATOM     84  C   UNL A   1      39.587  33.359  35.936  1.00  0.00     0.134 A 
ATOM     85  F   UNL A   1      37.827  30.249  36.583  1.00  0.00    -0.206 F 
ATOM     86  C   UNL A   1      37.826  32.265  37.783  1.00  0.00     0.040 A 
ATOM     87  C   UNL A   1      39.159  34.121  37.023  1.00  0.00     0.040 A 
ATOM     88  F   UNL A   1      40.438  33.926  35.066  1.00  0.00    -0.206 F 
ATOM     89  C   UNL A   1      38.271  33.576  37.948  1.00  0.00     0.006 A 
ENDBRANCH  65  82
ENDBRANCH  39  40
ENDBRANCH  32  34
ENDBRANCH  31  32
ENDBRANCH  30  31
ENDBRANCH  29  30
ENDBRANCH  28  29
ENDBRANCH   1  28
TORSDOF 17
ENDMDL
MODEL 3
REMARK VINA RESULT:     -11.9      1.395      2.748
REMARK SMILES O=C1C[C@@H](C(=O)Nc2cccc(C(=O)OCCOCCOC(=O)c3ccc(-c4c5nc(c(-c6c(F)cccc6F)c6ccc([nH]6)c(-c6c(F)cccc6F)c6nc(c(-c7c(F)cccc7F)c7ccc4[nH]7)C=C6)C=C5)cc3)c2)[C@H](c2ccccc2)O1
REMARK SMILES IDX 17 1 16 2 15 3 13 4 14 5 12 6 8 7 9 8 78 9 10 10 11 11 7 12
REMARK SMILES IDX 5 13 6 14 4 16 1 17 2 18 3 19 86 20 79 21 80 22 81 23 85 24
REMARK SMILES IDX 82 25 84 26 83 27 18 28 19 29 20 30 21 31 22 32 23 33 24 34
REMARK SMILES IDX 25 35 77 36 26 37 76 38 27 39 28 40 29 41 70 42 30 43 75 44
REMARK SMILES IDX 69 45 71 46 31 47 74 48 68 49 67 50 32 52 58 53 41 54 57 55
REMARK SMILES IDX 42 56 45 57 56 58 72 59 43 60 44 61 55 63 73 64 46 65 33 66
REMARK SMILES IDX 34 67 39 68 35 69 36 70 38 71 40 72 37 73 59 74 60 75 65 76
REMARK SMILES IDX 61 77 62 78 64 79 66 80 63 81 47 82 48 83 53 84 49 85 50 86
REMARK SMILES IDX 52 87 54 88 51 89
REMARK H PARENT 7 15 71 51 45 62
REMARK Flexibility Score: inf
ROOT
ATOM      1  C   UNL A   1      40.766  21.520  27.222  1.00  0.00     0.202 C 
ENDROOT
BRANCH   1   2
ATOM      2  C   UNL A   1      39.999  21.808  25.927  1.00  0.00     0.261 C 
BRANCH   2   3
ATOM      3  O   UNL A   1      38.593  21.946  26.180  1.00  0.00    -0.460 OA
BRANCH   3   4
ATOM      4  C   UNL A   1      38.125  23.215  26.182  1.00  0.00     0.338 C 
ATOM      5  O   UNL A   1      38.622  24.181  26.747  1.00  0.00    -0.246 OA
BRANCH   4   6
ATOM      6  C   UNL A   1      36.944  23.328  25.291  1.00  0.00     0.062 A 
ATOM      7  C   UNL A   1      34.798  24.308  24.760  1.00  0.00     0.042 A 
ATOM      8  C   UNL A   1      34.851  23.711  23.496  1.00  0.00     0.026 A 
ATOM      9  C   UNL A   1      35.793  24.016  25.689  1.00  0.00     0.041 A 
ATOM     10  C   UNL A   1      35.962  22.954  23.117  1.00  0.00     0.003 A 
ATOM     11  C   UNL A   1      37.027  22.795  24.002  1.00  0.00     0.016 A 
BRANCH   7  12
ATOM     12  N   UNL A   1      33.742  25.194  25.018  1.00  0.00    -0.326 N 
ATOM     13  C   UNL A   1      32.385  25.012  25.006  1.00  0.00     0.232 C 
ATOM     14  O   UNL A   1      31.684  26.011  25.188  1.00  0.00    -0.274 OA
ATOM     15  H   UNL A   1      34.028  26.107  25.249  1.00  0.00     0.169 HD
BRANCH  13  16
ATOM     16  C   UNL A   1      31.758  23.621  24.921  1.00  0.00     0.135 C 
ATOM     17  O   UNL A   1      29.527  23.152  27.629  1.00  0.00    -0.252 OA
ATOM     18  C   UNL A   1      30.438  23.158  26.819  1.00  0.00     0.307 C 
ATOM     19  C   UNL A   1      30.322  23.623  25.405  1.00  0.00     0.140 C 
ATOM     20  O   UNL A   1      31.676  22.647  27.066  1.00  0.00    -0.457 OA
ATOM     21  C   UNL A   1      32.467  22.662  25.871  1.00  0.00     0.220 C 
BRANCH  21  22
ATOM     22  C   UNL A   1      32.622  21.258  25.302  1.00  0.00    -0.007 A 
ATOM     23  C   UNL A   1      32.849  20.130  26.104  1.00  0.00     0.007 A 
ATOM     24  C   UNL A   1      32.512  21.063  23.916  1.00  0.00     0.007 A 
ATOM     25  C   UNL A   1      32.915  18.852  25.541  1.00  0.00     0.000 A 
ATOM     26  C   UNL A   1      32.540  19.783  23.356  1.00  0.00     0.000 A 
ATOM     27  C   UNL A   1      32.737  18.675  24.171  1.00  0.00     0.000 A 
ENDBRANCH  21  22
ENDBRANCH  13  16
ENDBRANCH   7  12
ENDBRANCH   4   6
ENDBRANCH   3   4
ENDBRANCH   2   3
ENDBRANCH   1   2
BRANCH   1  28
ATOM     28  O   UNL A   1      42.073  20.962  27.095  1.00  0.00    -0.374 OA
BRANCH  28  29
ATOM     29  C   UNL A   1      42.665  20.919  25.799  1.00  0.00     0.202 C 
BRANCH  29  30
ATOM     30  C   UNL A   1      43.799  21.904  25.497  1.00  0.00     0.261 C 
BRANCH  30  31
ATOM     31  O   UNL A   1      43.351  23.073  24.794  1.00  0.00    -0.460 OA
BRANCH  31  32
ATOM     32  C   UNL A   1      44.046  24.195  25.096  1.00  0.00     0.338 C 
ATOM     33  O   UNL A   1      45.125  24.545  24.641  1.00  0.00    -0.246 OA
BRANCH  32  34
ATOM     34  C   UNL A   1      43.245  25.073  25.964  1.00  0.00     0.060 A 
ATOM     35  C   UNL A   1      43.651  26.410  26.070  1.00  0.00     0.016 A 
ATOM     36  C   UNL A   1      42.187  24.586  26.734  1.00  0.00     0.016 A 
ATOM     37  C   UNL A   1      43.038  27.250  26.995  1.00  0.00     0.010 A 
ATOM     38  C   UNL A   1      41.579  25.430  27.669  1.00  0.00     0.010 A 
ATOM     39  C   UNL A   1      42.030  26.754  27.830  1.00  0.00    -0.014 A 
BRANCH  39  40
ATOM     40  C   UNL A   1      41.571  27.577  28.974  1.00  0.00     0.031 A 
ATOM     41  C   UNL A   1      42.295  27.468  30.288  1.00  0.00     0.074 A 
ATOM     42  C   UNL A   1      40.562  28.453  28.827  1.00  0.00     0.049 A 
ATOM     43  N   UNL A   1      42.060  28.080  31.420  1.00  0.00    -0.248 NA
ATOM     44  C   UNL A   1      43.443  26.546  30.330  1.00  0.00     0.031 C 
ATOM     45  C   UNL A   1      39.812  28.680  27.593  1.00  0.00     0.029 A 
ATOM     46  N   UNL A   1      39.993  29.314  29.731  1.00  0.00    -0.354 N 
ATOM     47  C   UNL A   1      43.032  27.628  32.303  1.00  0.00     0.074 A 
ATOM     48  C   UNL A   1      43.836  26.658  31.591  1.00  0.00     0.031 C 
ATOM     49  C   UNL A   1      38.868  29.610  27.822  1.00  0.00     0.029 A 
ATOM     50  C   UNL A   1      38.933  30.023  29.224  1.00  0.00     0.049 A 
ATOM     51  H   UNL A   1      40.315  29.414  30.657  1.00  0.00     0.167 HD
ATOM     52  C   UNL A   1      43.247  27.999  33.588  1.00  0.00     0.037 A 
ATOM     53  C   UNL A   1      38.097  30.888  29.828  1.00  0.00     0.037 A 
ATOM     54  C   UNL A   1      42.442  28.957  34.299  1.00  0.00     0.049 A 
ATOM     55  C   UNL A   1      38.308  31.224  31.281  1.00  0.00     0.074 A 
ATOM     56  C   UNL A   1      42.566  29.385  35.609  1.00  0.00     0.029 A 
ATOM     57  N   UNL A   1      41.361  29.635  33.756  1.00  0.00    -0.354 N 
ATOM     58  N   UNL A   1      39.235  30.797  32.105  1.00  0.00    -0.248 NA
ATOM     59  C   UNL A   1      37.360  32.169  31.889  1.00  0.00     0.031 C 
ATOM     60  C   UNL A   1      41.538  30.297  35.870  1.00  0.00     0.029 A 
ATOM     61  C   UNL A   1      40.804  30.471  34.708  1.00  0.00     0.049 A 
ATOM     62  H   UNL A   1      41.040  29.538  32.831  1.00  0.00     0.167 HD
ATOM     63  C   UNL A   1      39.000  31.442  33.313  1.00  0.00     0.074 A 
ATOM     64  C   UNL A   1      37.852  32.302  33.112  1.00  0.00     0.031 C 
ATOM     65  C   UNL A   1      39.672  31.333  34.484  1.00  0.00     0.037 A 
BRANCH  52  66
ATOM     66  C   UNL A   1      44.395  27.361  34.310  1.00  0.00     0.057 A 
ATOM     67  C   UNL A   1      44.235  26.180  35.045  1.00  0.00     0.134 A 
ATOM     68  C   UNL A   1      45.684  27.905  34.231  1.00  0.00     0.134 A 
ATOM     69  F   UNL A   1      43.024  25.617  35.171  1.00  0.00    -0.206 F 
ATOM     70  C   UNL A   1      45.313  25.569  35.689  1.00  0.00     0.040 A 
ATOM     71  C   UNL A   1      46.774  27.291  34.852  1.00  0.00     0.040 A 
ATOM     72  F   UNL A   1      45.906  29.033  33.541  1.00  0.00    -0.206 F 
ATOM     73  C   UNL A   1      46.589  26.120  35.585  1.00  0.00     0.006 A 
ENDBRANCH  52  66
BRANCH  53  74
ATOM     74  C   UNL A   1      36.964  31.483  29.075  1.00  0.00     0.057 A 
ATOM     75  C   UNL A   1      36.997  32.810  28.631  1.00  0.00     0.134 A 
ATOM     76  C   UNL A   1      35.798  30.748  28.823  1.00  0.00     0.134 A 
ATOM     77  F   UNL A   1      38.076  33.573  28.863  1.00  0.00    -0.206 F 
ATOM     78  C   UNL A   1      35.903  33.393  27.988  1.00  0.00     0.040 A 
ATOM     79  C   UNL A   1      34.709  31.310  28.157  1.00  0.00     0.040 A 
ATOM     80  F   UNL A   1      35.704  29.471  29.220  1.00  0.00    -0.206 F 
ATOM     81  C   UNL A   1      34.755  32.641  27.747  1.00  0.00     0.006 A 
ENDBRANCH  53  74
BRANCH  65  82
ATOM     82  C   UNL A   1      39.214  32.195  35.624  1.00  0.00     0.057 A 
ATOM     83  C   UNL A   1      39.672  33.507  35.792  1.00  0.00     0.134 A 
ATOM     84  C   UNL A   1      38.270  31.717  36.543  1.00  0.00     0.134 A 
ATOM     85  F   UNL A   1      40.583  34.022  34.954  1.00  0.00    -0.206 F 
ATOM     86  C   UNL A   1      39.225  34.306  36.847  1.00  0.00     0.040 A 
ATOM     87  C   UNL A   1      37.798  32.513  37.586  1.00  0.00     0.040 A 
ATOM     88  F   UNL A   1      37.784  30.470  36.432  1.00  0.00    -0.206 F 
ATOM     89  C   UNL A   1      38.280  33.811  37.743  1.00  0.00     0.006 A 
ENDBRANCH  65  82
ENDBRANCH  39  40
ENDBRANCH  32  34
ENDBRANCH  31  32
ENDBRANCH  30  31
ENDBRANCH  29  30
ENDBRANCH  28  29
ENDBRANCH   1  28
TORSDOF 17
ENDMDL
