MODEL 1
REMARK VINA RESULT:     -10.0      0.000      0.000
REMARK SMILES CC(C)[C@H](CO)Nc1ccc(C(=O)OCCOCCOC(=O)c2ccc(-c3c4nc(c(-c5c(F)cccc5F)c5ccc([nH]5)c(-c5c(F)cccc5F)c5nc(c(-c6c(F)cccc6F)c6ccc3[nH]6)C=C5)C=C4)cc2)cc1
REMARK SMILES IDX 16 1 15 2 14 3 12 4 13 5 11 6 8 7 9 8 78 9 10 10 77 11 7 12
REMARK SMILES IDX 4 14 2 15 1 16 3 17 5 18 6 19 17 21 18 22 19 23 20 24 21 25
REMARK SMILES IDX 22 26 23 27 24 28 76 29 25 30 75 31 26 32 27 33 28 34 69 35
REMARK SMILES IDX 29 36 74 37 68 38 70 39 30 40 73 41 67 42 66 43 31 45 57 46
REMARK SMILES IDX 40 47 56 48 41 49 44 50 55 51 71 52 42 53 43 54 54 56 72 57
REMARK SMILES IDX 45 58 32 59 33 60 38 61 34 62 35 63 37 64 39 65 36 66 58 67
REMARK SMILES IDX 59 68 64 69 60 70 61 71 63 72 65 73 62 74 46 75 47 76 52 77
REMARK SMILES IDX 48 78 49 79 51 80 53 81 50 82
REMARK H PARENT 7 13 6 20 70 44 44 55
REMARK Flexibility Score: inf
ROOT
ATOM      1  C   UNL A   1      33.492  35.393  30.010  1.00  0.00     0.202 C 
ENDROOT
BRANCH   1   2
ATOM      2  C   UNL A   1      33.274  34.450  28.823  1.00  0.00     0.261 C 
BRANCH   2   3
ATOM      3  O   UNL A   1      33.935  33.191  29.035  1.00  0.00    -0.460 OA
BRANCH   3   4
ATOM      4  C   UNL A   1      34.760  32.804  28.032  1.00  0.00     0.338 C 
ATOM      5  O   UNL A   1      35.696  33.438  27.569  1.00  0.00    -0.246 OA
BRANCH   4   6
ATOM      6  C   UNL A   1      34.470  31.407  27.635  1.00  0.00     0.060 A 
ATOM      7  C   UNL A   1      33.760  28.760  26.980  1.00  0.00     0.034 A 
ATOM      8  C   UNL A   1      32.798  29.773  27.003  1.00  0.00     0.026 A 
ATOM      9  C   UNL A   1      35.092  29.107  27.239  1.00  0.00     0.026 A 
ATOM     10  C   UNL A   1      33.143  31.083  27.339  1.00  0.00     0.018 A 
ATOM     11  C   UNL A   1      35.456  30.422  27.552  1.00  0.00     0.018 A 
BRANCH   7  12
ATOM     12  N   UNL A   1      33.348  27.451  26.794  1.00  0.00    -0.380 N 
ATOM     13  H   UNL A   1      33.065  26.923  27.575  1.00  0.00     0.160 HD
BRANCH  12  14
ATOM     14  C   UNL A   1      33.319  26.829  25.463  1.00  0.00     0.107 C 
BRANCH  14  15
ATOM     15  C   UNL A   1      31.870  26.629  24.934  1.00  0.00     0.007 C 
ATOM     16  C   UNL A   1      30.790  26.534  26.016  1.00  0.00     0.009 C 
ATOM     17  C   UNL A   1      31.511  27.757  23.959  1.00  0.00     0.009 C 
ENDBRANCH  14  15
BRANCH  14  18
ATOM     18  C   UNL A   1      34.099  25.490  25.517  1.00  0.00     0.181 C 
BRANCH  18  19
ATOM     19  O   UNL A   1      33.343  24.432  26.106  1.00  0.00    -0.394 OA
ATOM     20  H   UNL A   1      33.265  24.584  27.061  1.00  0.00     0.210 HD
ENDBRANCH  18  19
ENDBRANCH  14  18
ENDBRANCH  12  14
ENDBRANCH   7  12
ENDBRANCH   4   6
ENDBRANCH   3   4
ENDBRANCH   2   3
ENDBRANCH   1   2
BRANCH   1  21
ATOM     21  O   UNL A   1      33.012  34.924  31.270  1.00  0.00    -0.374 OA
BRANCH  21  22
ATOM     22  C   UNL A   1      33.971  34.819  32.325  1.00  0.00     0.202 C 
BRANCH  22  23
ATOM     23  C   UNL A   1      34.078  33.444  32.992  1.00  0.00     0.261 C 
BRANCH  23  24
ATOM     24  O   UNL A   1      35.032  32.601  32.321  1.00  0.00    -0.460 OA
BRANCH  24  25
ATOM     25  C   UNL A   1      36.123  32.280  33.053  1.00  0.00     0.338 C 
ATOM     26  O   UNL A   1      36.272  32.408  34.261  1.00  0.00    -0.246 OA
BRANCH  25  27
ATOM     27  C   UNL A   1      37.103  31.565  32.214  1.00  0.00     0.060 A 
ATOM     28  C   UNL A   1      38.150  30.905  32.869  1.00  0.00     0.016 A 
ATOM     29  C   UNL A   1      37.042  31.587  30.819  1.00  0.00     0.016 A 
ATOM     30  C   UNL A   1      39.165  30.304  32.131  1.00  0.00     0.010 A 
ATOM     31  C   UNL A   1      38.068  30.987  30.078  1.00  0.00     0.010 A 
ATOM     32  C   UNL A   1      39.150  30.371  30.731  1.00  0.00    -0.014 A 
BRANCH  32  33
ATOM     33  C   UNL A   1      40.331  29.895  29.970  1.00  0.00     0.031 A 
ATOM     34  C   UNL A   1      41.482  30.832  29.730  1.00  0.00     0.074 A 
ATOM     35  C   UNL A   1      40.396  28.623  29.537  1.00  0.00     0.049 A 
ATOM     36  N   UNL A   1      42.614  30.614  29.109  1.00  0.00    -0.248 NA
ATOM     37  C   UNL A   1      41.339  32.198  30.259  1.00  0.00     0.031 C 
ATOM     38  C   UNL A   1      39.357  27.612  29.728  1.00  0.00     0.029 A 
ATOM     39  N   UNL A   1      41.384  27.968  28.845  1.00  0.00    -0.354 N 
ATOM     40  C   UNL A   1      43.318  31.809  29.175  1.00  0.00     0.074 A 
ATOM     41  C   UNL A   1      42.472  32.761  29.865  1.00  0.00     0.031 C 
ATOM     42  C   UNL A   1      39.761  26.461  29.162  1.00  0.00     0.029 A 
ATOM     43  C   UNL A   1      41.074  26.662  28.551  1.00  0.00     0.049 A 
ATOM     44  H   UNL A   1      42.232  28.392  28.585  1.00  0.00     0.167 HD
ATOM     45  C   UNL A   1      44.560  32.087  28.713  1.00  0.00     0.037 A 
ATOM     46  C   UNL A   1      41.768  25.739  27.857  1.00  0.00     0.037 A 
ATOM     47  C   UNL A   1      45.403  31.143  28.028  1.00  0.00     0.049 A 
ATOM     48  C   UNL A   1      43.123  26.091  27.304  1.00  0.00     0.074 A 
ATOM     49  C   UNL A   1      46.689  31.324  27.547  1.00  0.00     0.029 A 
ATOM     50  N   UNL A   1      45.042  29.840  27.719  1.00  0.00    -0.354 N 
ATOM     51  N   UNL A   1      43.793  27.213  27.406  1.00  0.00    -0.248 NA
ATOM     52  C   UNL A   1      43.820  25.042  26.546  1.00  0.00     0.031 C 
ATOM     53  C   UNL A   1      47.088  30.145  26.906  1.00  0.00     0.029 A 
ATOM     54  C   UNL A   1      46.069  29.215  27.031  1.00  0.00     0.049 A 
ATOM     55  H   UNL A   1      44.182  29.422  27.955  1.00  0.00     0.167 HD
ATOM     56  C   UNL A   1      44.997  26.999  26.746  1.00  0.00     0.074 A 
ATOM     57  C   UNL A   1      44.972  25.634  26.264  1.00  0.00     0.031 C 
ATOM     58  C   UNL A   1      46.030  27.856  26.553  1.00  0.00     0.037 A 
BRANCH  45  59
ATOM     59  C   UNL A   1      45.079  33.480  28.917  1.00  0.00     0.057 A 
ATOM     60  C   UNL A   1      45.839  33.828  30.042  1.00  0.00     0.134 A 
ATOM     61  C   UNL A   1      44.851  34.475  27.958  1.00  0.00     0.134 A 
ATOM     62  F   UNL A   1      46.082  32.925  31.003  1.00  0.00    -0.206 F 
ATOM     63  C   UNL A   1      46.338  35.120  30.213  1.00  0.00     0.040 A 
ATOM     64  C   UNL A   1      45.365  35.763  28.106  1.00  0.00     0.040 A 
ATOM     65  F   UNL A   1      44.135  34.206  26.856  1.00  0.00    -0.206 F 
ATOM     66  C   UNL A   1      46.107  36.091  29.239  1.00  0.00     0.006 A 
ENDBRANCH  45  59
BRANCH  46  67
ATOM     67  C   UNL A   1      41.190  24.391  27.633  1.00  0.00     0.057 A 
ATOM     68  C   UNL A   1      41.655  23.274  28.336  1.00  0.00     0.134 A 
ATOM     69  C   UNL A   1      40.178  24.182  26.686  1.00  0.00     0.134 A 
ATOM     70  F   UNL A   1      42.639  23.406  29.237  1.00  0.00    -0.206 F 
ATOM     71  C   UNL A   1      41.148  21.996  28.095  1.00  0.00     0.040 A 
ATOM     72  C   UNL A   1      39.645  22.915  26.453  1.00  0.00     0.040 A 
ATOM     73  F   UNL A   1      39.691  25.213  25.979  1.00  0.00    -0.206 F 
ATOM     74  C   UNL A   1      40.137  21.815  27.153  1.00  0.00     0.006 A 
ENDBRANCH  46  67
BRANCH  58  75
ATOM     75  C   UNL A   1      47.224  27.333  25.810  1.00  0.00     0.057 A 
ATOM     76  C   UNL A   1      47.374  27.520  24.430  1.00  0.00     0.134 A 
ATOM     77  C   UNL A   1      48.245  26.654  26.486  1.00  0.00     0.134 A 
ATOM     78  F   UNL A   1      46.425  28.152  23.721  1.00  0.00    -0.206 F 
ATOM     79  C   UNL A   1      48.484  27.025  23.743  1.00  0.00     0.040 A 
ATOM     80  C   UNL A   1      49.372  26.176  25.814  1.00  0.00     0.040 A 
ATOM     81  F   UNL A   1      48.169  26.449  27.809  1.00  0.00    -0.206 F 
ATOM     82  C   UNL A   1      49.490  26.355  24.437  1.00  0.00     0.006 A 
ENDBRANCH  58  75
ENDBRANCH  32  33
ENDBRANCH  25  27
ENDBRANCH  24  25
ENDBRANCH  23  24
ENDBRANCH  22  23
ENDBRANCH  21  22
ENDBRANCH   1  21
TORSDOF 19
ENDMDL
MODEL 2
REMARK VINA RESULT:     -10.0      4.936     10.621
REMARK SMILES CC(C)[C@H](CO)Nc1ccc(C(=O)OCCOCCOC(=O)c2ccc(-c3c4nc(c(-c5c(F)cccc5F)c5ccc([nH]5)c(-c5c(F)cccc5F)c5nc(c(-c6c(F)cccc6F)c6ccc3[nH]6)C=C5)C=C4)cc2)cc1
REMARK SMILES IDX 16 1 15 2 14 3 12 4 13 5 11 6 8 7 9 8 78 9 10 10 77 11 7 12
REMARK SMILES IDX 4 14 2 15 1 16 3 17 5 18 6 19 17 21 18 22 19 23 20 24 21 25
REMARK SMILES IDX 22 26 23 27 24 28 76 29 25 30 75 31 26 32 27 33 28 34 69 35
REMARK SMILES IDX 29 36 74 37 68 38 70 39 30 40 73 41 67 42 66 43 31 45 57 46
REMARK SMILES IDX 40 47 56 48 41 49 44 50 55 51 71 52 42 53 43 54 54 56 72 57
REMARK SMILES IDX 45 58 32 59 33 60 38 61 34 62 35 63 37 64 39 65 36 66 58 67
REMARK SMILES IDX 59 68 64 69 60 70 61 71 63 72 65 73 62 74 46 75 47 76 52 77
REMARK SMILES IDX 48 78 49 79 51 80 53 81 50 82
REMARK H PARENT 7 13 6 20 70 44 44 55
REMARK Flexibility Score: inf
ROOT
ATOM      1  C   UNL A   1      42.995  19.314  25.963  1.00  0.00     0.202 C 
ENDROOT
BRANCH   1   2
ATOM      2  C   UNL A   1      41.676  19.419  26.734  1.00  0.00     0.261 C 
BRANCH   2   3
ATOM      3  O   UNL A   1      40.784  20.355  26.105  1.00  0.00    -0.460 OA
BRANCH   3   4
ATOM      4  C   UNL A   1      40.451  21.425  26.866  1.00  0.00     0.338 C 
ATOM      5  O   UNL A   1      41.085  21.878  27.808  1.00  0.00    -0.246 OA
BRANCH   4   6
ATOM      6  C   UNL A   1      39.250  22.095  26.318  1.00  0.00     0.060 A 
ATOM      7  C   UNL A   1      36.943  23.456  25.442  1.00  0.00     0.034 A 
ATOM      8  C   UNL A   1      37.896  24.102  26.234  1.00  0.00     0.026 A 
ATOM      9  C   UNL A   1      37.192  22.133  25.054  1.00  0.00     0.026 A 
ATOM     10  C   UNL A   1      39.035  23.428  26.680  1.00  0.00     0.018 A 
ATOM     11  C   UNL A   1      38.342  21.453  25.474  1.00  0.00     0.018 A 
BRANCH   7  12
ATOM     12  N   UNL A   1      35.759  24.112  25.153  1.00  0.00    -0.380 N 
ATOM     13  H   UNL A   1      35.785  25.071  24.930  1.00  0.00     0.160 HD
BRANCH  12  14
ATOM     14  C   UNL A   1      34.464  23.418  25.167  1.00  0.00     0.107 C 
BRANCH  14  15
ATOM     15  C   UNL A   1      33.530  23.886  24.013  1.00  0.00     0.007 C 
ATOM     16  C   UNL A   1      34.077  25.031  23.156  1.00  0.00     0.009 C 
ATOM     17  C   UNL A   1      33.184  22.697  23.108  1.00  0.00     0.009 C 
ENDBRANCH  14  15
BRANCH  14  18
ATOM     18  C   UNL A   1      33.802  23.615  26.555  1.00  0.00     0.181 C 
BRANCH  18  19
ATOM     19  O   UNL A   1      34.213  22.637  27.508  1.00  0.00    -0.394 OA
ATOM     20  H   UNL A   1      34.577  23.081  28.291  1.00  0.00     0.210 HD
ENDBRANCH  18  19
ENDBRANCH  14  18
ENDBRANCH  12  14
ENDBRANCH   7  12
ENDBRANCH   4   6
ENDBRANCH   3   4
ENDBRANCH   2   3
ENDBRANCH   1   2
BRANCH   1  21
ATOM     21  O   UNL A   1      43.224  20.326  24.983  1.00  0.00    -0.374 OA
BRANCH  21  22
ATOM     22  C   UNL A   1      44.396  21.127  25.147  1.00  0.00     0.202 C 
BRANCH  22  23
ATOM     23  C   UNL A   1      44.507  22.342  24.220  1.00  0.00     0.261 C 
BRANCH  23  24
ATOM     24  O   UNL A   1      43.699  23.439  24.686  1.00  0.00    -0.460 OA
BRANCH  24  25
ATOM     25  C   UNL A   1      44.392  24.544  25.045  1.00  0.00     0.338 C 
ATOM     26  O   UNL A   1      45.445  24.947  24.571  1.00  0.00    -0.246 OA
BRANCH  25  27
ATOM     27  C   UNL A   1      43.608  25.341  26.007  1.00  0.00     0.060 A 
ATOM     28  C   UNL A   1      44.003  26.669  26.214  1.00  0.00     0.016 A 
ATOM     29  C   UNL A   1      42.552  24.794  26.739  1.00  0.00     0.016 A 
ATOM     30  C   UNL A   1      43.373  27.440  27.188  1.00  0.00     0.010 A 
ATOM     31  C   UNL A   1      41.924  25.569  27.722  1.00  0.00     0.010 A 
ATOM     32  C   UNL A   1      42.353  26.885  27.972  1.00  0.00    -0.014 A 
BRANCH  32  33
ATOM     33  C   UNL A   1      41.827  27.653  29.126  1.00  0.00     0.031 A 
ATOM     34  C   UNL A   1      42.523  27.560  30.455  1.00  0.00     0.074 A 
ATOM     35  C   UNL A   1      40.764  28.465  28.978  1.00  0.00     0.049 A 
ATOM     36  N   UNL A   1      42.242  28.163  31.584  1.00  0.00    -0.248 NA
ATOM     37  C   UNL A   1      43.692  26.668  30.524  1.00  0.00     0.031 C 
ATOM     38  C   UNL A   1      40.019  28.661  27.735  1.00  0.00     0.029 A 
ATOM     39  N   UNL A   1      40.130  29.276  29.885  1.00  0.00    -0.354 N 
ATOM     40  C   UNL A   1      43.197  27.727  32.493  1.00  0.00     0.074 A 
ATOM     41  C   UNL A   1      44.045  26.783  31.796  1.00  0.00     0.031 C 
ATOM     42  C   UNL A   1      39.023  29.536  27.959  1.00  0.00     0.029 A 
ATOM     43  C   UNL A   1      39.048  29.942  29.363  1.00  0.00     0.049 A 
ATOM     44  H   UNL A   1      40.422  29.372  30.819  1.00  0.00     0.167 HD
ATOM     45  C   UNL A   1      43.360  28.088  33.788  1.00  0.00     0.037 A 
ATOM     46  C   UNL A   1      38.171  30.775  29.956  1.00  0.00     0.037 A 
ATOM     47  C   UNL A   1      42.519  29.028  34.482  1.00  0.00     0.049 A 
ATOM     48  C   UNL A   1      38.341  31.117  31.412  1.00  0.00     0.074 A 
ATOM     49  C   UNL A   1      42.623  29.479  35.787  1.00  0.00     0.029 A 
ATOM     50  N   UNL A   1      41.413  29.656  33.930  1.00  0.00    -0.354 N 
ATOM     51  N   UNL A   1      39.271  30.727  32.251  1.00  0.00    -0.248 NA
ATOM     52  C   UNL A   1      37.342  32.021  32.000  1.00  0.00     0.031 C 
ATOM     53  C   UNL A   1      41.552  30.344  36.039  1.00  0.00     0.029 A 
ATOM     54  C   UNL A   1      40.810  30.470  34.876  1.00  0.00     0.049 A 
ATOM     55  H   UNL A   1      41.103  29.540  33.003  1.00  0.00     0.167 HD
ATOM     56  C   UNL A   1      38.982  31.355  33.457  1.00  0.00     0.074 A 
ATOM     57  C   UNL A   1      37.803  32.165  33.235  1.00  0.00     0.031 C 
ATOM     58  C   UNL A   1      39.634  31.267  34.643  1.00  0.00     0.037 A 
BRANCH  45  59
ATOM     59  C   UNL A   1      44.485  27.450  34.548  1.00  0.00     0.057 A 
ATOM     60  C   UNL A   1      45.750  28.046  34.635  1.00  0.00     0.134 A 
ATOM     61  C   UNL A   1      44.289  26.245  35.235  1.00  0.00     0.134 A 
ATOM     62  F   UNL A   1      46.006  29.194  33.990  1.00  0.00    -0.206 F 
ATOM     63  C   UNL A   1      46.785  27.458  35.364  1.00  0.00     0.040 A 
ATOM     64  C   UNL A   1      45.309  25.659  35.986  1.00  0.00     0.040 A 
ATOM     65  F   UNL A   1      43.100  25.625  35.195  1.00  0.00    -0.206 F 
ATOM     66  C   UNL A   1      46.563  26.263  36.049  1.00  0.00     0.006 A 
ENDBRANCH  45  59
BRANCH  46  67
ATOM     67  C   UNL A   1      37.041  31.340  29.178  1.00  0.00     0.057 A 
ATOM     68  C   UNL A   1      37.060  32.663  28.723  1.00  0.00     0.134 A 
ATOM     69  C   UNL A   1      35.900  30.576  28.895  1.00  0.00     0.134 A 
ATOM     70  F   UNL A   1      38.113  33.450  28.984  1.00  0.00    -0.206 F 
ATOM     71  C   UNL A   1      35.979  33.214  28.032  1.00  0.00     0.040 A 
ATOM     72  C   UNL A   1      34.824  31.106  28.183  1.00  0.00     0.040 A 
ATOM     73  F   UNL A   1      35.821  29.301  29.304  1.00  0.00    -0.206 F 
ATOM     74  C   UNL A   1      34.859  32.432  27.756  1.00  0.00     0.006 A 
ENDBRANCH  46  67
BRANCH  58  75
ATOM     75  C   UNL A   1      39.096  32.085  35.781  1.00  0.00     0.057 A 
ATOM     76  C   UNL A   1      38.231  31.539  36.738  1.00  0.00     0.134 A 
ATOM     77  C   UNL A   1      39.466  33.427  35.934  1.00  0.00     0.134 A 
ATOM     78  F   UNL A   1      37.828  30.262  36.641  1.00  0.00    -0.206 F 
ATOM     79  C   UNL A   1      37.730  32.306  37.790  1.00  0.00     0.040 A 
ATOM     80  C   UNL A   1      38.991  34.198  36.997  1.00  0.00     0.040 A 
ATOM     81  F   UNL A   1      40.299  34.010  35.059  1.00  0.00    -0.206 F 
ATOM     82  C   UNL A   1      38.114  33.639  37.924  1.00  0.00     0.006 A 
ENDBRANCH  58  75
ENDBRANCH  32  33
ENDBRANCH  25  27
ENDBRANCH  24  25
ENDBRANCH  23  24
ENDBRANCH  22  23
ENDBRANCH  21  22
ENDBRANCH   1  21
TORSDOF 19
ENDMDL
MODEL 3
REMARK VINA RESULT:     -10.0      4.948     10.269
REMARK SMILES CC(C)[C@H](CO)Nc1ccc(C(=O)OCCOCCOC(=O)c2ccc(-c3c4nc(c(-c5c(F)cccc5F)c5ccc([nH]5)c(-c5c(F)cccc5F)c5nc(c(-c6c(F)cccc6F)c6ccc3[nH]6)C=C5)C=C4)cc2)cc1
REMARK SMILES IDX 16 1 15 2 14 3 12 4 13 5 11 6 8 7 9 8 78 9 10 10 77 11 7 12
REMARK SMILES IDX 4 14 2 15 1 16 3 17 5 18 6 19 17 21 18 22 19 23 20 24 21 25
REMARK SMILES IDX 22 26 23 27 24 28 76 29 25 30 75 31 26 32 27 33 28 34 69 35
REMARK SMILES IDX 29 36 74 37 68 38 70 39 30 40 73 41 67 42 66 43 31 45 57 46
REMARK SMILES IDX 40 47 56 48 41 49 44 50 55 51 71 52 42 53 43 54 54 56 72 57
REMARK SMILES IDX 45 58 32 59 33 60 38 61 34 62 35 63 37 64 39 65 36 66 58 67
REMARK SMILES IDX 59 68 64 69 60 70 61 71 63 72 65 73 62 74 46 75 47 76 52 77
REMARK SMILES IDX 48 78 49 79 51 80 53 81 50 82
REMARK H PARENT 7 13 6 20 70 44 44 55
REMARK Flexibility Score: inf
ROOT
ATOM      1  C   UNL A   1      40.537  20.250  26.138  1.00  0.00     0.202 C 
ENDROOT
BRANCH   1   2
ATOM      2  C   UNL A   1      39.964  21.608  26.554  1.00  0.00     0.261 C 
BRANCH   2   3
ATOM      3  O   UNL A   1      38.743  21.891  25.849  1.00  0.00    -0.460 OA
BRANCH   3   4
ATOM      4  C   UNL A   1      38.200  23.104  26.112  1.00  0.00     0.338 C 
ATOM      5  O   UNL A   1      38.677  23.981  26.817  1.00  0.00    -0.246 OA
BRANCH   4   6
ATOM      6  C   UNL A   1      36.976  23.308  25.305  1.00  0.00     0.060 A 
ATOM      7  C   UNL A   1      34.755  23.705  23.616  1.00  0.00     0.034 A 
ATOM      8  C   UNL A   1      35.803  22.864  23.233  1.00  0.00     0.026 A 
ATOM      9  C   UNL A   1      34.815  24.302  24.882  1.00  0.00     0.026 A 
ATOM     10  C   UNL A   1      36.911  22.674  24.061  1.00  0.00     0.018 A 
ATOM     11  C   UNL A   1      35.909  24.100  25.733  1.00  0.00     0.018 A 
BRANCH   7  12
ATOM     12  N   UNL A   1      33.754  23.985  22.701  1.00  0.00    -0.380 N 
ATOM     13  H   UNL A   1      33.644  23.399  21.917  1.00  0.00     0.160 HD
BRANCH  12  14
ATOM     14  C   UNL A   1      32.850  25.131  22.867  1.00  0.00     0.107 C 
BRANCH  14  15
ATOM     15  C   UNL A   1      31.366  24.695  23.030  1.00  0.00     0.007 C 
ATOM     16  C   UNL A   1      31.159  23.308  23.645  1.00  0.00     0.009 C 
ATOM     17  C   UNL A   1      30.606  25.736  23.862  1.00  0.00     0.009 C 
ENDBRANCH  14  15
BRANCH  14  18
ATOM     18  C   UNL A   1      33.035  26.096  21.667  1.00  0.00     0.181 C 
BRANCH  18  19
ATOM     19  O   UNL A   1      33.173  25.412  20.422  1.00  0.00    -0.394 OA
ATOM     20  H   UNL A   1      32.606  25.834  19.757  1.00  0.00     0.210 HD
ENDBRANCH  18  19
ENDBRANCH  14  18
ENDBRANCH  12  14
ENDBRANCH   7  12
ENDBRANCH   4   6
ENDBRANCH   3   4
ENDBRANCH   2   3
ENDBRANCH   1   2
BRANCH   1  21
ATOM     21  O   UNL A   1      41.891  20.261  25.684  1.00  0.00    -0.374 OA
BRANCH  21  22
ATOM     22  C   UNL A   1      42.736  21.287  26.208  1.00  0.00     0.202 C 
BRANCH  22  23
ATOM     23  C   UNL A   1      43.706  21.925  25.208  1.00  0.00     0.261 C 
BRANCH  23  24
ATOM     24  O   UNL A   1      43.223  23.197  24.738  1.00  0.00    -0.460 OA
BRANCH  24  25
ATOM     25  C   UNL A   1      43.997  24.257  25.068  1.00  0.00     0.338 C 
ATOM     26  O   UNL A   1      45.072  24.573  24.578  1.00  0.00    -0.246 OA
BRANCH  25  27
ATOM     27  C   UNL A   1      43.281  25.128  26.020  1.00  0.00     0.060 A 
ATOM     28  C   UNL A   1      43.822  26.397  26.260  1.00  0.00     0.016 A 
ATOM     29  C   UNL A   1      42.145  24.699  26.710  1.00  0.00     0.016 A 
ATOM     30  C   UNL A   1      43.256  27.224  27.227  1.00  0.00     0.010 A 
ATOM     31  C   UNL A   1      41.581  25.530  27.686  1.00  0.00     0.010 A 
ATOM     32  C   UNL A   1      42.153  26.784  27.971  1.00  0.00    -0.014 A 
BRANCH  32  33
ATOM     33  C   UNL A   1      41.684  27.593  29.121  1.00  0.00     0.031 A 
ATOM     34  C   UNL A   1      42.410  27.503  30.434  1.00  0.00     0.074 A 
ATOM     35  C   UNL A   1      40.647  28.439  28.981  1.00  0.00     0.049 A 
ATOM     36  N   UNL A   1      42.179  28.138  31.556  1.00  0.00    -0.248 NA
ATOM     37  C   UNL A   1      43.549  26.572  30.492  1.00  0.00     0.031 C 
ATOM     38  C   UNL A   1      39.877  28.636  27.754  1.00  0.00     0.029 A 
ATOM     39  N   UNL A   1      40.065  29.291  29.886  1.00  0.00    -0.354 N 
ATOM     40  C   UNL A   1      43.141  27.687  32.450  1.00  0.00     0.074 A 
ATOM     41  C   UNL A   1      43.938  26.699  31.753  1.00  0.00     0.031 C 
ATOM     42  C   UNL A   1      38.919  29.550  27.983  1.00  0.00     0.029 A 
ATOM     43  C   UNL A   1      38.994  29.984  29.378  1.00  0.00     0.049 A 
ATOM     44  H   UNL A   1      40.384  29.395  30.811  1.00  0.00     0.167 HD
ATOM     45  C   UNL A   1      43.350  28.069  33.732  1.00  0.00     0.037 A 
ATOM     46  C   UNL A   1      38.162  30.859  29.974  1.00  0.00     0.037 A 
ATOM     47  C   UNL A   1      42.560  29.052  34.427  1.00  0.00     0.049 A 
ATOM     48  C   UNL A   1      38.381  31.225  31.418  1.00  0.00     0.074 A 
ATOM     49  C   UNL A   1      42.713  29.525  35.719  1.00  0.00     0.029 A 
ATOM     50  N   UNL A   1      41.463  29.707  33.890  1.00  0.00    -0.354 N 
ATOM     51  N   UNL A   1      39.317  30.820  32.241  1.00  0.00    -0.248 NA
ATOM     52  C   UNL A   1      37.430  32.176  32.011  1.00  0.00     0.031 C 
ATOM     53  C   UNL A   1      41.680  30.433  35.979  1.00  0.00     0.029 A 
ATOM     54  C   UNL A   1      40.913  30.561  34.832  1.00  0.00     0.049 A 
ATOM     55  H   UNL A   1      41.126  29.584  32.973  1.00  0.00     0.167 HD
ATOM     56  C   UNL A   1      39.082  31.481  33.440  1.00  0.00     0.074 A 
ATOM     57  C   UNL A   1      37.926  32.328  33.231  1.00  0.00     0.031 C 
ATOM     58  C   UNL A   1      39.760  31.395  34.612  1.00  0.00     0.037 A 
BRANCH  45  59
ATOM     59  C   UNL A   1      44.471  27.407  34.478  1.00  0.00     0.057 A 
ATOM     60  C   UNL A   1      45.745  27.982  34.560  1.00  0.00     0.134 A 
ATOM     61  C   UNL A   1      44.262  26.199  35.156  1.00  0.00     0.134 A 
ATOM     62  F   UNL A   1      46.014  29.131  33.922  1.00  0.00    -0.206 F 
ATOM     63  C   UNL A   1      46.777  27.371  35.276  1.00  0.00     0.040 A 
ATOM     64  C   UNL A   1      45.278  25.591  35.894  1.00  0.00     0.040 A 
ATOM     65  F   UNL A   1      43.063  25.598  35.121  1.00  0.00    -0.206 F 
ATOM     66  C   UNL A   1      46.542  26.175  35.951  1.00  0.00     0.006 A 
ENDBRANCH  45  59
BRANCH  46  67
ATOM     67  C   UNL A   1      37.033  31.448  29.212  1.00  0.00     0.057 A 
ATOM     68  C   UNL A   1      37.094  32.754  28.713  1.00  0.00     0.134 A 
ATOM     69  C   UNL A   1      35.852  30.727  28.990  1.00  0.00     0.134 A 
ATOM     70  F   UNL A   1      38.188  33.502  28.915  1.00  0.00    -0.206 F 
ATOM     71  C   UNL A   1      36.017  33.329  28.037  1.00  0.00     0.040 A 
ATOM     72  C   UNL A   1      34.777  31.280  28.294  1.00  0.00     0.040 A 
ATOM     73  F   UNL A   1      35.731  29.470  29.444  1.00  0.00    -0.206 F 
ATOM     74  C   UNL A   1      34.855  32.589  27.822  1.00  0.00     0.006 A 
ENDBRANCH  46  67
BRANCH  58  75
ATOM     75  C   UNL A   1      39.281  32.254  35.745  1.00  0.00     0.057 A 
ATOM     76  C   UNL A   1      39.729  33.570  35.914  1.00  0.00     0.134 A 
ATOM     77  C   UNL A   1      38.345  31.766  36.666  1.00  0.00     0.134 A 
ATOM     78  F   UNL A   1      40.635  34.094  35.073  1.00  0.00    -0.206 F 
ATOM     79  C   UNL A   1      39.284  34.362  36.974  1.00  0.00     0.040 A 
ATOM     80  C   UNL A   1      37.874  32.557  37.716  1.00  0.00     0.040 A 
ATOM     81  F   UNL A   1      37.868  30.517  36.557  1.00  0.00    -0.206 F 
ATOM     82  C   UNL A   1      38.350  33.856  37.876  1.00  0.00     0.006 A 
ENDBRANCH  58  75
ENDBRANCH  32  33
ENDBRANCH  25  27
ENDBRANCH  24  25
ENDBRANCH  23  24
ENDBRANCH  22  23
ENDBRANCH  21  22
ENDBRANCH   1  21
TORSDOF 19
ENDMDL
