MODEL 1
REMARK VINA RESULT:     -11.5      0.000      0.000
REMARK SMILES Cc1cc(-c2cc(C(=O)OCCOCCOC(=O)c3ccc(-c4c5nc(c(-c6c(F)cccc6F)c6ccc([nH]6)c(-c6c(F)cccc6F)c6nc(c(-c7c(F)cccc7F)c7ccc4[nH]7)C=C6)C=C5)cc3)c[nH]c2=O)ccc1Cl
REMARK SMILES IDX 14 1 13 2 12 3 11 4 10 5 8 6 9 7 7 8 5 9 6 10 75 11 74 12
REMARK SMILES IDX 76 13 73 14 4 16 1 17 2 18 3 19 79 20 78 21 80 22 77 23
REMARK SMILES IDX 15 24 16 25 17 26 18 27 19 28 20 29 72 30 21 31 71 32 22 33
REMARK SMILES IDX 23 34 24 35 65 36 25 37 70 38 64 39 66 40 26 41 69 42 63 43
REMARK SMILES IDX 62 44 27 46 53 47 36 48 52 49 37 50 40 51 51 52 67 53 38 54
REMARK SMILES IDX 39 55 50 57 68 58 41 59 28 60 29 61 34 62 30 63 31 64 33 65
REMARK SMILES IDX 35 66 32 67 54 68 55 69 60 70 56 71 57 72 59 73 61 74 58 75
REMARK SMILES IDX 42 76 43 77 48 78 44 79 45 80 47 81 49 82 46 83
REMARK H PARENT 74 15 66 45 40 56
REMARK Flexibility Score: inf
ROOT
ATOM      1  C   UNL A   1      45.493  21.810  25.356  1.00  0.00     0.202 C 
ENDROOT
BRANCH   1   2
ATOM      2  O   UNL A   1      45.261  20.403  25.452  1.00  0.00    -0.374 OA
BRANCH   2   3
ATOM      3  C   UNL A   1      44.020  19.921  24.935  1.00  0.00     0.202 C 
BRANCH   3   4
ATOM      4  C   UNL A   1      43.034  19.407  25.988  1.00  0.00     0.261 C 
BRANCH   4   5
ATOM      5  O   UNL A   1      41.999  20.378  26.232  1.00  0.00    -0.460 OA
BRANCH   5   6
ATOM      6  C   UNL A   1      40.738  19.968  25.944  1.00  0.00     0.339 C 
ATOM      7  O   UNL A   1      40.381  18.818  25.739  1.00  0.00    -0.246 OA
BRANCH   6   8
ATOM      8  C   UNL A   1      39.794  21.111  26.057  1.00  0.00     0.077 A 
ATOM      9  C   UNL A   1      37.692  22.250  25.525  1.00  0.00     0.048 A 
ATOM     10  C   UNL A   1      38.529  21.201  25.353  1.00  0.00     0.031 A 
ATOM     11  C   UNL A   1      38.149  23.375  26.427  1.00  0.00     0.255 A 
ATOM     12  N   UNL A   1      39.375  23.211  27.028  1.00  0.00    -0.328 N 
ATOM     13  O   UNL A   1      37.485  24.386  26.631  1.00  0.00    -0.269 OA
ATOM     14  C   UNL A   1      40.175  22.112  26.866  1.00  0.00     0.101 A 
ATOM     15  H   UNL A   1      39.700  23.933  27.614  1.00  0.00     0.169 HD
BRANCH   9  16
ATOM     16  C   UNL A   1      36.359  22.283  24.878  1.00  0.00    -0.012 A 
ATOM     17  C   UNL A   1      33.047  20.379  25.032  1.00  0.00     0.046 C 
ATOM     18  C   UNL A   1      34.092  21.374  24.607  1.00  0.00    -0.032 A 
ATOM     19  C   UNL A   1      35.336  21.401  25.266  1.00  0.00     0.014 A 
ATOM     20  C   UNL A   1      33.875  22.263  23.544  1.00  0.00     0.044 A 
ATOM     21  C   UNL A   1      34.876  23.151  23.151  1.00  0.00     0.021 A 
ATOM     22  Cl  UNL A   1      32.385  22.289  22.673  1.00  0.00    -0.084 Cl
ATOM     23  C   UNL A   1      36.109  23.157  23.809  1.00  0.00     0.010 A 
ENDBRANCH   9  16
ENDBRANCH   6   8
ENDBRANCH   5   6
ENDBRANCH   4   5
ENDBRANCH   3   4
ENDBRANCH   2   3
ENDBRANCH   1   2
BRANCH   1  24
ATOM     24  C   UNL A   1      44.806  22.518  24.184  1.00  0.00     0.261 C 
BRANCH  24  25
ATOM     25  O   UNL A   1      43.940  23.572  24.641  1.00  0.00    -0.460 OA
BRANCH  25  26
ATOM     26  C   UNL A   1      44.580  24.690  25.053  1.00  0.00     0.338 C 
ATOM     27  O   UNL A   1      45.638  25.137  24.631  1.00  0.00    -0.246 OA
BRANCH  26  28
ATOM     28  C   UNL A   1      43.736  25.439  26.004  1.00  0.00     0.060 A 
ATOM     29  C   UNL A   1      44.045  26.790  26.204  1.00  0.00     0.016 A 
ATOM     30  C   UNL A   1      42.711  24.831  26.733  1.00  0.00     0.016 A 
ATOM     31  C   UNL A   1      43.370  27.522  27.178  1.00  0.00     0.010 A 
ATOM     32  C   UNL A   1      42.035  25.569  27.714  1.00  0.00     0.010 A 
ATOM     33  C   UNL A   1      42.388  26.907  27.965  1.00  0.00    -0.014 A 
BRANCH  33  34
ATOM     34  C   UNL A   1      41.836  27.642  29.129  1.00  0.00     0.031 A 
ATOM     35  C   UNL A   1      42.539  27.556  30.455  1.00  0.00     0.074 A 
ATOM     36  C   UNL A   1      40.754  28.428  28.990  1.00  0.00     0.049 A 
ATOM     37  N   UNL A   1      42.263  28.164  31.582  1.00  0.00    -0.248 NA
ATOM     38  C   UNL A   1      43.709  26.667  30.522  1.00  0.00     0.031 C 
ATOM     39  C   UNL A   1      40.000  28.616  27.752  1.00  0.00     0.029 A 
ATOM     40  N   UNL A   1      40.110  29.225  29.903  1.00  0.00    -0.354 N 
ATOM     41  C   UNL A   1      43.222  27.732  32.489  1.00  0.00     0.074 A 
ATOM     42  C   UNL A   1      44.067  26.786  31.793  1.00  0.00     0.031 C 
ATOM     43  C   UNL A   1      38.996  29.480  27.980  1.00  0.00     0.029 A 
ATOM     44  C   UNL A   1      39.026  29.890  29.384  1.00  0.00     0.049 A 
ATOM     45  H   UNL A   1      40.396  29.311  30.839  1.00  0.00     0.167 HD
ATOM     46  C   UNL A   1      43.391  28.099  33.782  1.00  0.00     0.037 A 
ATOM     47  C   UNL A   1      38.158  30.732  29.975  1.00  0.00     0.037 A 
ATOM     48  C   UNL A   1      42.556  29.044  34.475  1.00  0.00     0.049 A 
ATOM     49  C   UNL A   1      38.339  31.083  31.427  1.00  0.00     0.074 A 
ATOM     50  C   UNL A   1      42.672  29.508  35.775  1.00  0.00     0.029 A 
ATOM     51  N   UNL A   1      41.442  29.663  33.929  1.00  0.00    -0.354 N 
ATOM     52  N   UNL A   1      39.276  30.706  32.261  1.00  0.00    -0.248 NA
ATOM     53  C   UNL A   1      37.339  31.987  32.017  1.00  0.00     0.031 C 
ATOM     54  C   UNL A   1      41.600  30.371  36.029  1.00  0.00     0.029 A 
ATOM     55  C   UNL A   1      40.844  30.482  34.873  1.00  0.00     0.049 A 
ATOM     56  H   UNL A   1      41.124  29.539  33.006  1.00  0.00     0.167 HD
ATOM     57  C   UNL A   1      38.997  31.344  33.464  1.00  0.00     0.074 A 
ATOM     58  C   UNL A   1      37.811  32.146  33.245  1.00  0.00     0.031 C 
ATOM     59  C   UNL A   1      39.663  31.274  34.643  1.00  0.00     0.037 A 
BRANCH  46  60
ATOM     60  C   UNL A   1      44.516  27.456  34.539  1.00  0.00     0.057 A 
ATOM     61  C   UNL A   1      45.772  28.066  34.662  1.00  0.00     0.134 A 
ATOM     62  C   UNL A   1      44.331  26.223  35.177  1.00  0.00     0.134 A 
ATOM     63  F   UNL A   1      46.018  29.241  34.062  1.00  0.00    -0.206 F 
ATOM     64  C   UNL A   1      46.810  27.462  35.373  1.00  0.00     0.040 A 
ATOM     65  C   UNL A   1      45.354  25.620  35.911  1.00  0.00     0.040 A 
ATOM     66  F   UNL A   1      43.152  25.588  35.103  1.00  0.00    -0.206 F 
ATOM     67  C   UNL A   1      46.600  26.238  36.006  1.00  0.00     0.006 A 
ENDBRANCH  46  60
BRANCH  47  68
ATOM     68  C   UNL A   1      37.037  31.313  29.195  1.00  0.00     0.057 A 
ATOM     69  C   UNL A   1      37.089  32.628  28.721  1.00  0.00     0.134 A 
ATOM     70  C   UNL A   1      35.878  30.575  28.928  1.00  0.00     0.134 A 
ATOM     71  F   UNL A   1      38.165  33.391  28.967  1.00  0.00    -0.206 F 
ATOM     72  C   UNL A   1      36.023  33.197  28.023  1.00  0.00     0.040 A 
ATOM     73  C   UNL A   1      34.813  31.123  28.211  1.00  0.00     0.040 A 
ATOM     74  F   UNL A   1      35.767  29.308  29.355  1.00  0.00    -0.206 F 
ATOM     75  C   UNL A   1      34.881  32.441  27.763  1.00  0.00     0.006 A 
ENDBRANCH  47  68
BRANCH  59  76
ATOM     76  C   UNL A   1      39.136  32.107  35.775  1.00  0.00     0.057 A 
ATOM     77  C   UNL A   1      39.497  33.451  35.936  1.00  0.00     0.134 A 
ATOM     78  C   UNL A   1      38.242  31.562  36.707  1.00  0.00     0.134 A 
ATOM     79  F   UNL A   1      40.359  34.029  35.085  1.00  0.00    -0.206 F 
ATOM     80  C   UNL A   1      39.016  34.212  37.001  1.00  0.00     0.040 A 
ATOM     81  C   UNL A   1      37.733  32.322  37.761  1.00  0.00     0.040 A 
ATOM     82  F   UNL A   1      37.847  30.284  36.605  1.00  0.00    -0.206 F 
ATOM     83  C   UNL A   1      38.127  33.650  37.916  1.00  0.00     0.006 A 
ENDBRANCH  59  76
ENDBRANCH  33  34
ENDBRANCH  26  28
ENDBRANCH  25  26
ENDBRANCH  24  25
ENDBRANCH   1  24
TORSDOF 15
ENDMDL
MODEL 2
REMARK VINA RESULT:     -11.4      1.722      2.565
REMARK SMILES Cc1cc(-c2cc(C(=O)OCCOCCOC(=O)c3ccc(-c4c5nc(c(-c6c(F)cccc6F)c6ccc([nH]6)c(-c6c(F)cccc6F)c6nc(c(-c7c(F)cccc7F)c7ccc4[nH]7)C=C6)C=C5)cc3)c[nH]c2=O)ccc1Cl
REMARK SMILES IDX 14 1 13 2 12 3 11 4 10 5 8 6 9 7 7 8 5 9 6 10 75 11 74 12
REMARK SMILES IDX 76 13 73 14 4 16 1 17 2 18 3 19 79 20 78 21 80 22 77 23
REMARK SMILES IDX 15 24 16 25 17 26 18 27 19 28 20 29 72 30 21 31 71 32 22 33
REMARK SMILES IDX 23 34 24 35 65 36 25 37 70 38 64 39 66 40 26 41 69 42 63 43
REMARK SMILES IDX 62 44 27 46 53 47 36 48 52 49 37 50 40 51 51 52 67 53 38 54
REMARK SMILES IDX 39 55 50 57 68 58 41 59 28 60 29 61 34 62 30 63 31 64 33 65
REMARK SMILES IDX 35 66 32 67 54 68 55 69 60 70 56 71 57 72 59 73 61 74 58 75
REMARK SMILES IDX 42 76 43 77 48 78 44 79 45 80 47 81 49 82 46 83
REMARK H PARENT 74 15 66 45 40 56
REMARK Flexibility Score: inf
ROOT
ATOM      1  C   UNL A   1      42.972  21.364  25.750  1.00  0.00     0.202 C 
ENDROOT
BRANCH   1   2
ATOM      2  O   UNL A   1      41.619  21.765  25.528  1.00  0.00    -0.374 OA
BRANCH   2   3
ATOM      3  C   UNL A   1      40.612  21.052  26.250  1.00  0.00     0.202 C 
BRANCH   3   4
ATOM      4  C   UNL A   1      39.313  21.828  26.488  1.00  0.00     0.261 C 
BRANCH   4   5
ATOM      5  O   UNL A   1      38.551  21.926  25.271  1.00  0.00    -0.460 OA
BRANCH   5   6
ATOM      6  C   UNL A   1      37.711  20.888  25.026  1.00  0.00     0.339 C 
ATOM      7  O   UNL A   1      38.013  19.705  25.001  1.00  0.00    -0.246 OA
BRANCH   6   8
ATOM      8  C   UNL A   1      36.311  21.378  24.936  1.00  0.00     0.077 A 
ATOM      9  C   UNL A   1      34.647  23.158  24.676  1.00  0.00     0.048 A 
ATOM     10  C   UNL A   1      35.939  22.774  24.792  1.00  0.00     0.031 A 
ATOM     11  C   UNL A   1      33.583  22.087  24.775  1.00  0.00     0.255 A 
ATOM     12  N   UNL A   1      34.032  20.797  24.940  1.00  0.00    -0.328 N 
ATOM     13  O   UNL A   1      32.381  22.325  24.714  1.00  0.00    -0.269 OA
ATOM     14  C   UNL A   1      35.352  20.442  25.006  1.00  0.00     0.101 A 
ATOM     15  H   UNL A   1      33.359  20.082  25.016  1.00  0.00     0.169 HD
BRANCH   9  16
ATOM     16  C   UNL A   1      34.285  24.574  24.429  1.00  0.00    -0.012 A 
ATOM     17  C   UNL A   1      33.502  27.728  26.440  1.00  0.00     0.046 C 
ATOM     18  C   UNL A   1      33.705  26.809  25.268  1.00  0.00    -0.032 A 
ATOM     19  C   UNL A   1      34.122  25.482  25.488  1.00  0.00     0.014 A 
ATOM     20  C   UNL A   1      33.459  27.227  23.952  1.00  0.00     0.044 A 
ATOM     21  C   UNL A   1      33.624  26.340  22.888  1.00  0.00     0.021 A 
ATOM     22  Cl  UNL A   1      32.933  28.831  23.592  1.00  0.00    -0.084 Cl
ATOM     23  C   UNL A   1      34.028  25.023  23.124  1.00  0.00     0.010 A 
ENDBRANCH   9  16
ENDBRANCH   6   8
ENDBRANCH   5   6
ENDBRANCH   4   5
ENDBRANCH   3   4
ENDBRANCH   2   3
ENDBRANCH   1   2
BRANCH   1  24
ATOM     24  C   UNL A   1      44.034  22.154  24.979  1.00  0.00     0.261 C 
BRANCH  24  25
ATOM     25  O   UNL A   1      43.536  23.439  24.564  1.00  0.00    -0.460 OA
BRANCH  25  26
ATOM     26  C   UNL A   1      44.253  24.495  25.011  1.00  0.00     0.338 C 
ATOM     27  O   UNL A   1      45.357  24.857  24.626  1.00  0.00    -0.246 OA
BRANCH  26  28
ATOM     28  C   UNL A   1      43.446  25.300  25.947  1.00  0.00     0.060 A 
ATOM     29  C   UNL A   1      43.876  26.608  26.198  1.00  0.00     0.016 A 
ATOM     30  C   UNL A   1      42.337  24.778  26.618  1.00  0.00     0.016 A 
ATOM     31  C   UNL A   1      43.234  27.380  27.163  1.00  0.00     0.010 A 
ATOM     32  C   UNL A   1      41.695  25.555  27.591  1.00  0.00     0.010 A 
ATOM     33  C   UNL A   1      42.164  26.845  27.893  1.00  0.00    -0.014 A 
BRANCH  33  34
ATOM     34  C   UNL A   1      41.637  27.603  29.054  1.00  0.00     0.031 A 
ATOM     35  C   UNL A   1      42.349  27.516  30.375  1.00  0.00     0.074 A 
ATOM     36  C   UNL A   1      40.570  28.410  28.916  1.00  0.00     0.049 A 
ATOM     37  N   UNL A   1      42.095  28.141  31.498  1.00  0.00    -0.248 NA
ATOM     38  C   UNL A   1      43.502  26.604  30.442  1.00  0.00     0.031 C 
ATOM     39  C   UNL A   1      39.809  28.600  27.682  1.00  0.00     0.029 A 
ATOM     40  N   UNL A   1      39.949  29.228  29.826  1.00  0.00    -0.354 N 
ATOM     41  C   UNL A   1      43.052  27.698  32.402  1.00  0.00     0.074 A 
ATOM     42  C   UNL A   1      43.873  26.729  31.708  1.00  0.00     0.031 C 
ATOM     43  C   UNL A   1      38.825  29.487  27.910  1.00  0.00     0.029 A 
ATOM     44  C   UNL A   1      38.876  29.910  29.309  1.00  0.00     0.049 A 
ATOM     45  H   UNL A   1      40.246  29.318  30.759  1.00  0.00     0.167 HD
ATOM     46  C   UNL A   1      43.240  28.075  33.690  1.00  0.00     0.037 A 
ATOM     47  C   UNL A   1      38.029  30.775  29.899  1.00  0.00     0.037 A 
ATOM     48  C   UNL A   1      42.429  29.043  34.380  1.00  0.00     0.049 A 
ATOM     49  C   UNL A   1      38.229  31.137  31.346  1.00  0.00     0.074 A 
ATOM     50  C   UNL A   1      42.566  29.517  35.674  1.00  0.00     0.029 A 
ATOM     51  N   UNL A   1      41.324  29.679  33.836  1.00  0.00    -0.354 N 
ATOM     52  N   UNL A   1      39.166  30.749  32.176  1.00  0.00    -0.248 NA
ATOM     53  C   UNL A   1      37.253  32.066  31.934  1.00  0.00     0.031 C 
ATOM     54  C   UNL A   1      41.513  30.405  35.928  1.00  0.00     0.029 A 
ATOM     55  C   UNL A   1      40.751  30.520  34.777  1.00  0.00     0.049 A 
ATOM     56  H   UNL A   1      40.995  29.552  32.917  1.00  0.00     0.167 HD
ATOM     57  C   UNL A   1      38.909  31.404  33.374  1.00  0.00     0.074 A 
ATOM     58  C   UNL A   1      37.738  32.228  33.157  1.00  0.00     0.031 C 
ATOM     59  C   UNL A   1      39.583  31.333  34.549  1.00  0.00     0.037 A 
BRANCH  46  60
ATOM     60  C   UNL A   1      44.358  27.417  34.444  1.00  0.00     0.057 A 
ATOM     61  C   UNL A   1      45.643  27.971  34.498  1.00  0.00     0.134 A 
ATOM     62  C   UNL A   1      44.138  26.226  35.148  1.00  0.00     0.134 A 
ATOM     63  F   UNL A   1      45.924  29.103  33.834  1.00  0.00    -0.206 F 
ATOM     64  C   UNL A   1      46.675  27.354  35.208  1.00  0.00     0.040 A 
ATOM     65  C   UNL A   1      45.155  25.612  35.880  1.00  0.00     0.040 A 
ATOM     66  F   UNL A   1      42.928  25.645  35.141  1.00  0.00    -0.206 F 
ATOM     67  C   UNL A   1      46.430  26.174  35.907  1.00  0.00     0.006 A 
ENDBRANCH  46  60
BRANCH  47  68
ATOM     68  C   UNL A   1      36.914  31.371  29.122  1.00  0.00     0.057 A 
ATOM     69  C   UNL A   1      36.958  32.702  28.696  1.00  0.00     0.134 A 
ATOM     70  C   UNL A   1      35.767  30.630  28.810  1.00  0.00     0.134 A 
ATOM     71  F   UNL A   1      38.021  33.468  28.985  1.00  0.00    -0.206 F 
ATOM     72  C   UNL A   1      35.896  33.284  28.001  1.00  0.00     0.040 A 
ATOM     73  C   UNL A   1      34.707  31.191  28.097  1.00  0.00     0.040 A 
ATOM     74  F   UNL A   1      35.664  29.348  29.191  1.00  0.00    -0.206 F 
ATOM     75  C   UNL A   1      34.767  32.524  27.697  1.00  0.00     0.006 A 
ENDBRANCH  47  68
BRANCH  59  76
ATOM     76  C   UNL A   1      39.083  32.188  35.676  1.00  0.00     0.057 A 
ATOM     77  C   UNL A   1      38.213  31.689  36.654  1.00  0.00     0.134 A 
ATOM     78  C   UNL A   1      39.489  33.524  35.793  1.00  0.00     0.134 A 
ATOM     79  F   UNL A   1      37.777  30.421  36.592  1.00  0.00    -0.206 F 
ATOM     80  C   UNL A   1      37.739  32.496  37.689  1.00  0.00     0.040 A 
ATOM     81  C   UNL A   1      39.042  34.333  36.839  1.00  0.00     0.040 A 
ATOM     82  F   UNL A   1      40.328  34.063  34.896  1.00  0.00    -0.206 F 
ATOM     83  C   UNL A   1      38.157  33.822  37.786  1.00  0.00     0.006 A 
ENDBRANCH  59  76
ENDBRANCH  33  34
ENDBRANCH  26  28
ENDBRANCH  25  26
ENDBRANCH  24  25
ENDBRANCH   1  24
TORSDOF 15
ENDMDL
MODEL 3
REMARK VINA RESULT:     -11.3      3.348      8.694
REMARK SMILES Cc1cc(-c2cc(C(=O)OCCOCCOC(=O)c3ccc(-c4c5nc(c(-c6c(F)cccc6F)c6ccc([nH]6)c(-c6c(F)cccc6F)c6nc(c(-c7c(F)cccc7F)c7ccc4[nH]7)C=C6)C=C5)cc3)c[nH]c2=O)ccc1Cl
REMARK SMILES IDX 14 1 13 2 12 3 11 4 10 5 8 6 9 7 7 8 5 9 6 10 75 11 74 12
REMARK SMILES IDX 76 13 73 14 4 16 1 17 2 18 3 19 79 20 78 21 80 22 77 23
REMARK SMILES IDX 15 24 16 25 17 26 18 27 19 28 20 29 72 30 21 31 71 32 22 33
REMARK SMILES IDX 23 34 24 35 65 36 25 37 70 38 64 39 66 40 26 41 69 42 63 43
REMARK SMILES IDX 62 44 27 46 53 47 36 48 52 49 37 50 40 51 51 52 67 53 38 54
REMARK SMILES IDX 39 55 50 57 68 58 41 59 28 60 29 61 34 62 30 63 31 64 33 65
REMARK SMILES IDX 35 66 32 67 54 68 55 69 60 70 56 71 57 72 59 73 61 74 58 75
REMARK SMILES IDX 42 76 43 77 48 78 44 79 45 80 47 81 49 82 46 83
REMARK H PARENT 74 15 66 45 40 56
REMARK Flexibility Score: inf
ROOT
ATOM      1  C   UNL A   1      31.511  31.874  26.676  1.00  0.00     0.202 C 
ENDROOT
BRANCH   1   2
ATOM      2  O   UNL A   1      32.493  30.842  26.781  1.00  0.00    -0.374 OA
BRANCH   2   3
ATOM      3  C   UNL A   1      32.044  29.576  27.271  1.00  0.00     0.202 C 
BRANCH   3   4
ATOM      4  C   UNL A   1      32.990  28.403  26.999  1.00  0.00     0.261 C 
BRANCH   4   5
ATOM      5  O   UNL A   1      32.532  27.632  25.873  1.00  0.00    -0.460 OA
BRANCH   5   6
ATOM      6  C   UNL A   1      32.305  26.318  26.122  1.00  0.00     0.339 C 
ATOM      7  O   UNL A   1      31.481  25.861  26.899  1.00  0.00    -0.246 OA
BRANCH   6   8
ATOM      8  C   UNL A   1      33.108  25.479  25.194  1.00  0.00     0.077 A 
ATOM      9  C   UNL A   1      35.046  24.077  24.663  1.00  0.00     0.048 A 
ATOM     10  C   UNL A   1      34.377  24.863  25.537  1.00  0.00     0.031 A 
ATOM     11  C   UNL A   1      34.464  23.914  23.275  1.00  0.00     0.255 A 
ATOM     12  N   UNL A   1      33.273  24.560  23.036  1.00  0.00    -0.328 N 
ATOM     13  O   UNL A   1      35.001  23.250  22.394  1.00  0.00    -0.269 OA
ATOM     14  C   UNL A   1      32.602  25.310  23.964  1.00  0.00     0.101 A 
ATOM     15  H   UNL A   1      32.878  24.477  22.138  1.00  0.00     0.169 HD
BRANCH   9  16
ATOM     16  C   UNL A   1      36.288  23.372  25.057  1.00  0.00    -0.012 A 
ATOM     17  C   UNL A   1      37.793  19.865  24.830  1.00  0.00     0.046 C 
ATOM     18  C   UNL A   1      37.639  21.322  25.168  1.00  0.00    -0.032 A 
ATOM     19  C   UNL A   1      36.497  22.021  24.732  1.00  0.00     0.014 A 
ATOM     20  C   UNL A   1      38.593  22.006  25.936  1.00  0.00     0.044 A 
ATOM     21  C   UNL A   1      38.405  23.350  26.261  1.00  0.00     0.021 A 
ATOM     22  Cl  UNL A   1      40.016  21.225  26.522  1.00  0.00    -0.084 Cl
ATOM     23  C   UNL A   1      37.261  24.026  25.830  1.00  0.00     0.010 A 
ENDBRANCH   9  16
ENDBRANCH   6   8
ENDBRANCH   5   6
ENDBRANCH   4   5
ENDBRANCH   3   4
ENDBRANCH   2   3
ENDBRANCH   1   2
BRANCH   1  24
ATOM     24  C   UNL A   1      32.026  33.303  26.872  1.00  0.00     0.261 C 
BRANCH  24  25
ATOM     25  O   UNL A   1      32.180  33.620  28.267  1.00  0.00    -0.460 OA
BRANCH  25  26
ATOM     26  C   UNL A   1      33.211  34.449  28.548  1.00  0.00     0.338 C 
ATOM     27  O   UNL A   1      33.163  35.661  28.714  1.00  0.00    -0.246 OA
BRANCH  26  28
ATOM     28  C   UNL A   1      34.436  33.670  28.810  1.00  0.00     0.060 A 
ATOM     29  C   UNL A   1      34.277  32.413  29.406  1.00  0.00     0.016 A 
ATOM     30  C   UNL A   1      35.713  34.172  28.545  1.00  0.00     0.016 A 
ATOM     31  C   UNL A   1      35.396  31.680  29.794  1.00  0.00     0.010 A 
ATOM     32  C   UNL A   1      36.836  33.434  28.939  1.00  0.00     0.010 A 
ATOM     33  C   UNL A   1      36.681  32.202  29.598  1.00  0.00    -0.014 A 
BRANCH  33  34
ATOM     34  C   UNL A   1      37.840  31.504  30.206  1.00  0.00     0.031 A 
ATOM     35  C   UNL A   1      38.175  31.753  31.651  1.00  0.00     0.074 A 
ATOM     36  C   UNL A   1      38.549  30.610  29.495  1.00  0.00     0.049 A 
ATOM     37  N   UNL A   1      39.104  31.206  32.394  1.00  0.00    -0.248 NA
ATOM     38  C   UNL A   1      37.354  32.753  32.352  1.00  0.00     0.031 C 
ATOM     39  C   UNL A   1      38.308  30.260  28.096  1.00  0.00     0.029 A 
ATOM     40  N   UNL A   1      39.613  29.824  29.861  1.00  0.00    -0.354 N 
ATOM     41  C   UNL A   1      38.981  31.793  33.647  1.00  0.00     0.074 A 
ATOM     42  C   UNL A   1      37.909  32.762  33.556  1.00  0.00     0.031 C 
ATOM     43  C   UNL A   1      39.196  29.323  27.722  1.00  0.00     0.029 A 
ATOM     44  C   UNL A   1      40.078  29.022  28.849  1.00  0.00     0.049 A 
ATOM     45  H   UNL A   1      40.004  29.834  30.763  1.00  0.00     0.167 HD
ATOM     46  C   UNL A   1      39.686  31.539  34.775  1.00  0.00     0.037 A 
ATOM     47  C   UNL A   1      41.100  28.146  28.833  1.00  0.00     0.037 A 
ATOM     48  C   UNL A   1      40.747  30.571  34.869  1.00  0.00     0.049 A 
ATOM     49  C   UNL A   1      41.902  27.921  30.087  1.00  0.00     0.074 A 
ATOM     50  C   UNL A   1      41.496  30.217  35.979  1.00  0.00     0.029 A 
ATOM     51  N   UNL A   1      41.219  29.811  33.811  1.00  0.00    -0.354 N 
ATOM     52  N   UNL A   1      41.745  28.446  31.277  1.00  0.00    -0.248 NA
ATOM     53  C   UNL A   1      43.021  26.971  29.993  1.00  0.00     0.031 C 
ATOM     54  C   UNL A   1      42.452  29.276  35.580  1.00  0.00     0.029 A 
ATOM     55  C   UNL A   1      42.267  29.009  34.233  1.00  0.00     0.049 A 
ATOM     56  H   UNL A   1      40.861  29.836  32.894  1.00  0.00     0.167 HD
ATOM     57  C   UNL A   1      42.725  27.874  32.079  1.00  0.00     0.074 A 
ATOM     58  C   UNL A   1      43.461  26.948  31.242  1.00  0.00     0.031 C 
ATOM     59  C   UNL A   1      42.992  28.093  33.390  1.00  0.00     0.037 A 
BRANCH  46  60
ATOM     60  C   UNL A   1      39.344  32.340  35.997  1.00  0.00     0.057 A 
ATOM     61  C   UNL A   1      39.953  33.573  36.269  1.00  0.00     0.134 A 
ATOM     62  C   UNL A   1      38.373  31.886  36.897  1.00  0.00     0.134 A 
ATOM     63  F   UNL A   1      40.902  34.056  35.453  1.00  0.00    -0.206 F 
ATOM     64  C   UNL A   1      39.624  34.313  37.406  1.00  0.00     0.040 A 
ATOM     65  C   UNL A   1      38.018  32.629  38.024  1.00  0.00     0.040 A 
ATOM     66  F   UNL A   1      37.748  30.717  36.693  1.00  0.00    -0.206 F 
ATOM     67  C   UNL A   1      38.648  33.845  38.283  1.00  0.00     0.006 A 
ENDBRANCH  46  60
BRANCH  47  68
ATOM     68  C   UNL A   1      41.426  27.405  27.589  1.00  0.00     0.057 A 
ATOM     69  C   UNL A   1      40.928  26.117  27.362  1.00  0.00     0.134 A 
ATOM     70  C   UNL A   1      42.262  27.957  26.612  1.00  0.00     0.134 A 
ATOM     71  F   UNL A   1      40.141  25.528  28.274  1.00  0.00    -0.206 F 
ATOM     72  C   UNL A   1      41.262  25.396  26.215  1.00  0.00     0.040 A 
ATOM     73  C   UNL A   1      42.587  27.257  25.449  1.00  0.00     0.040 A 
ATOM     74  F   UNL A   1      42.772  29.188  26.771  1.00  0.00    -0.206 F 
ATOM     75  C   UNL A   1      42.092  25.969  25.252  1.00  0.00     0.006 A 
ENDBRANCH  47  68
BRANCH  59  76
ATOM     76  C   UNL A   1      44.109  27.298  34.002  1.00  0.00     0.057 A 
ATOM     77  C   UNL A   1      43.894  26.036  34.570  1.00  0.00     0.134 A 
ATOM     78  C   UNL A   1      45.419  27.796  34.009  1.00  0.00     0.134 A 
ATOM     79  F   UNL A   1      42.661  25.508  34.606  1.00  0.00    -0.206 F 
ATOM     80  C   UNL A   1      44.935  25.312  35.152  1.00  0.00     0.040 A 
ATOM     81  C   UNL A   1      46.473  27.069  34.564  1.00  0.00     0.040 A 
ATOM     82  F   UNL A   1      45.696  28.994  33.472  1.00  0.00    -0.206 F 
ATOM     83  C   UNL A   1      46.231  25.826  35.146  1.00  0.00     0.006 A 
ENDBRANCH  59  76
ENDBRANCH  33  34
ENDBRANCH  26  28
ENDBRANCH  25  26
ENDBRANCH  24  25
ENDBRANCH   1  24
TORSDOF 15
ENDMDL
