MODEL 1
REMARK VINA RESULT:     -10.3      0.000      0.000
REMARK SMILES C[C@H]1C[NH+](CC[C@@H]2CCC[C@]2([NH3+])C(=O)OCCOCCOC(=O)c2ccc(-c3c4nc(c(-c5c(F)cccc5F)c5ccc([nH]5)c(-c5c(F)cccc5F)c5nc(c(-c6c(F)cccc6F)c6ccc3[nH]6)C=C5)C=C4)cc2)C[C@H](C)O1
REMARK SMILES IDX 17 1 16 2 15 3 13 4 14 5 11 6 7 7 8 8 9 9 10 10 6 11 5 12
REMARK SMILES IDX 4 13 1 14 2 15 3 16 81 17 79 18 78 19 80 21 12 22 18 26
REMARK SMILES IDX 19 27 20 28 21 29 22 30 23 31 24 32 25 33 77 34 26 35 76 36
REMARK SMILES IDX 27 37 28 38 29 39 70 40 30 41 75 42 69 43 71 44 31 45 74 46
REMARK SMILES IDX 68 47 67 48 32 50 58 51 41 52 57 53 42 54 45 55 56 56 72 57
REMARK SMILES IDX 43 58 44 59 55 61 73 62 46 63 33 64 34 65 39 66 35 67 36 68
REMARK SMILES IDX 38 69 40 70 37 71 59 72 60 73 65 74 61 75 62 76 64 77 66 78
REMARK SMILES IDX 63 79 47 80 48 81 53 82 49 83 50 84 52 85 54 86 51 87
REMARK H PARENT 4 20 12 23 12 24 12 25 71 49 45 60
REMARK Flexibility Score: inf
ROOT
ATOM      1  C   UNL A   1      37.820  23.524  26.064  1.00  0.00     0.202 C 
ENDROOT
BRANCH   1   2
ATOM      2  C   UNL A   1      36.289  23.409  25.937  1.00  0.00     0.261 C 
BRANCH   2   3
ATOM      3  O   UNL A   1      35.704  24.052  24.765  1.00  0.00    -0.459 OA
BRANCH   3   4
ATOM      4  C   UNL A   1      35.247  23.202  23.805  1.00  0.00     0.368 C 
ATOM      5  O   UNL A   1      35.871  23.048  22.751  1.00  0.00    -0.245 OA
BRANCH   4   6
ATOM      6  C   UNL A   1      33.789  22.564  23.988  1.00  0.00     0.195 C 
ATOM      7  C   UNL A   1      32.520  22.878  24.946  1.00  0.00     0.068 C 
ATOM      8  C   UNL A   1      31.986  21.513  25.380  1.00  0.00     0.011 C 
ATOM      9  C   UNL A   1      33.215  20.657  25.493  1.00  0.00     0.008 C 
ATOM     10  C   UNL A   1      34.075  21.050  24.314  1.00  0.00     0.081 C 
BRANCH   7  11
ATOM     11  C   UNL A   1      32.285  23.974  26.035  1.00  0.00     0.072 C 
BRANCH  11  12
ATOM     12  C   UNL A   1      32.552  25.567  25.955  1.00  0.00     0.262 C 
BRANCH  12  13
ATOM     13  N   UNL A   1      32.232  26.409  24.783  1.00  0.00    -0.331 N 
ATOM     14  C   UNL A   1      29.429  28.197  23.123  1.00  0.00     0.045 C 
ATOM     15  C   UNL A   1      30.914  28.251  23.498  1.00  0.00     0.170 C 
ATOM     16  C   UNL A   1      31.338  27.590  24.872  1.00  0.00     0.294 C 
ATOM     17  O   UNL A   1      31.658  27.729  22.387  1.00  0.00    -0.364 OA
ATOM     18  C   UNL A   1      33.051  27.607  22.702  1.00  0.00     0.170 C 
ATOM     19  C   UNL A   1      33.249  26.492  23.748  1.00  0.00     0.294 C 
ATOM     20  H   UNL A   1      31.514  25.759  24.463  1.00  0.00     0.348 HD
ATOM     21  C   UNL A   1      33.653  28.956  23.099  1.00  0.00     0.045 C 
ENDBRANCH  12  13
ENDBRANCH  11  12
ENDBRANCH   7  11
BRANCH   6  22
ATOM     22  N   UNL A   1      33.251  22.585  22.578  1.00  0.00    -0.343 N 
ATOM     23  H   UNL A   1      33.737  23.303  22.039  1.00  0.00     0.345 HD
ATOM     24  H   UNL A   1      32.253  22.792  22.598  1.00  0.00     0.345 HD
ATOM     25  H   UNL A   1      33.401  21.674  22.143  1.00  0.00     0.345 HD
ENDBRANCH   6  22
ENDBRANCH   4   6
ENDBRANCH   3   4
ENDBRANCH   2   3
ENDBRANCH   1   2
BRANCH   1  26
ATOM     26  O   UNL A   1      38.554  22.310  26.108  1.00  0.00    -0.374 OA
BRANCH  26  27
ATOM     27  C   UNL A   1      38.060  21.205  25.375  1.00  0.00     0.202 C 
BRANCH  27  28
ATOM     28  C   UNL A   1      38.884  19.927  25.369  1.00  0.00     0.261 C 
BRANCH  28  29
ATOM     29  O   UNL A   1      39.762  19.700  26.465  1.00  0.00    -0.460 OA
BRANCH  29  30
ATOM     30  C   UNL A   1      41.075  19.690  26.157  1.00  0.00     0.338 C 
ATOM     31  O   UNL A   1      41.773  18.791  25.690  1.00  0.00    -0.246 OA
BRANCH  30  32
ATOM     32  C   UNL A   1      41.728  20.921  26.494  1.00  0.00     0.060 A 
ATOM     33  C   UNL A   1      42.056  21.833  25.497  1.00  0.00     0.016 A 
ATOM     34  C   UNL A   1      41.999  21.131  27.856  1.00  0.00     0.016 A 
ATOM     35  C   UNL A   1      42.650  23.012  25.875  1.00  0.00     0.010 A 
ATOM     36  C   UNL A   1      42.565  22.315  28.235  1.00  0.00     0.010 A 
ATOM     37  C   UNL A   1      42.866  23.249  27.238  1.00  0.00    -0.014 A 
BRANCH  37  38
ATOM     38  C   UNL A   1      43.322  24.554  27.680  1.00  0.00     0.031 A 
ATOM     39  C   UNL A   1      42.305  25.564  28.057  1.00  0.00     0.074 A 
ATOM     40  C   UNL A   1      44.640  24.776  27.569  1.00  0.00     0.049 A 
ATOM     41  N   UNL A   1      42.477  26.824  28.326  1.00  0.00    -0.248 NA
ATOM     42  C   UNL A   1      40.903  25.108  28.101  1.00  0.00     0.031 C 
ATOM     43  C   UNL A   1      45.631  23.785  27.124  1.00  0.00     0.029 A 
ATOM     44  N   UNL A   1      45.366  25.907  27.776  1.00  0.00    -0.354 N 
ATOM     45  C   UNL A   1      41.207  27.318  28.575  1.00  0.00     0.074 A 
ATOM     46  C   UNL A   1      40.268  26.237  28.379  1.00  0.00     0.031 C 
ATOM     47  C   UNL A   1      46.839  24.364  27.079  1.00  0.00     0.029 A 
ATOM     48  C   UNL A   1      46.691  25.760  27.454  1.00  0.00     0.049 A 
ATOM     49  H   UNL A   1      44.980  26.743  28.122  1.00  0.00     0.167 HD
ATOM     50  C   UNL A   1      40.886  28.576  28.945  1.00  0.00     0.037 A 
ATOM     51  C   UNL A   1      47.659  26.688  27.444  1.00  0.00     0.037 A 
ATOM     52  C   UNL A   1      41.879  29.607  29.088  1.00  0.00     0.049 A 
ATOM     53  C   UNL A   1      47.270  28.073  27.863  1.00  0.00     0.074 A 
ATOM     54  C   UNL A   1      41.717  30.920  29.481  1.00  0.00     0.029 A 
ATOM     55  N   UNL A   1      43.235  29.426  28.826  1.00  0.00    -0.354 N 
ATOM     56  N   UNL A   1      46.078  28.534  28.170  1.00  0.00    -0.248 NA
ATOM     57  C   UNL A   1      48.346  29.060  27.952  1.00  0.00     0.031 C 
ATOM     58  C   UNL A   1      42.970  31.542  29.421  1.00  0.00     0.029 A 
ATOM     59  C   UNL A   1      43.921  30.605  29.039  1.00  0.00     0.049 A 
ATOM     60  H   UNL A   1      43.644  28.580  28.532  1.00  0.00     0.167 HD
ATOM     61  C   UNL A   1      46.260  29.863  28.514  1.00  0.00     0.074 A 
ATOM     62  C   UNL A   1      47.685  30.120  28.394  1.00  0.00     0.031 C 
ATOM     63  C   UNL A   1      45.346  30.791  28.895  1.00  0.00     0.037 A 
BRANCH  50  64
ATOM     64  C   UNL A   1      39.440  28.875  29.196  1.00  0.00     0.057 A 
ATOM     65  C   UNL A   1      38.859  28.701  30.460  1.00  0.00     0.134 A 
ATOM     66  C   UNL A   1      38.611  29.335  28.166  1.00  0.00     0.134 A 
ATOM     67  F   UNL A   1      39.589  28.235  31.486  1.00  0.00    -0.206 F 
ATOM     68  C   UNL A   1      37.505  28.954  30.687  1.00  0.00     0.040 A 
ATOM     69  C   UNL A   1      37.262  29.618  28.386  1.00  0.00     0.040 A 
ATOM     70  F   UNL A   1      39.096  29.513  26.928  1.00  0.00    -0.206 F 
ATOM     71  C   UNL A   1      36.704  29.423  29.648  1.00  0.00     0.006 A 
ENDBRANCH  50  64
BRANCH  51  72
ATOM     72  C   UNL A   1      49.041  26.315  27.066  1.00  0.00     0.057 A 
ATOM     73  C   UNL A   1      49.479  26.434  25.743  1.00  0.00     0.134 A 
ATOM     74  C   UNL A   1      49.973  25.883  28.017  1.00  0.00     0.134 A 
ATOM     75  F   UNL A   1      48.635  26.852  24.788  1.00  0.00    -0.206 F 
ATOM     76  C   UNL A   1      50.785  26.109  25.373  1.00  0.00     0.040 A 
ATOM     77  C   UNL A   1      51.289  25.578  27.667  1.00  0.00     0.040 A 
ATOM     78  F   UNL A   1      49.626  25.778  29.309  1.00  0.00    -0.206 F 
ATOM     79  C   UNL A   1      51.695  25.683  26.337  1.00  0.00     0.006 A 
ENDBRANCH  51  72
BRANCH  63  80
ATOM     80  C   UNL A   1      45.890  32.144  29.226  1.00  0.00     0.057 A 
ATOM     81  C   UNL A   1      45.992  33.153  28.261  1.00  0.00     0.134 A 
ATOM     82  C   UNL A   1      46.294  32.442  30.533  1.00  0.00     0.134 A 
ATOM     83  F   UNL A   1      45.635  32.916  26.989  1.00  0.00    -0.206 F 
ATOM     84  C   UNL A   1      46.505  34.408  28.580  1.00  0.00     0.040 A 
ATOM     85  C   UNL A   1      46.779  33.703  30.871  1.00  0.00     0.040 A 
ATOM     86  F   UNL A   1      46.212  31.516  31.500  1.00  0.00    -0.206 F 
ATOM     87  C   UNL A   1      46.893  34.687  29.890  1.00  0.00     0.006 A 
ENDBRANCH  63  80
ENDBRANCH  37  38
ENDBRANCH  30  32
ENDBRANCH  29  30
ENDBRANCH  28  29
ENDBRANCH  27  28
ENDBRANCH  26  27
ENDBRANCH   1  26
TORSDOF 18
ENDMDL
MODEL 2
REMARK VINA RESULT:     -10.3      4.584      9.551
REMARK SMILES C[C@H]1C[NH+](CC[C@@H]2CCC[C@]2([NH3+])C(=O)OCCOCCOC(=O)c2ccc(-c3c4nc(c(-c5c(F)cccc5F)c5ccc([nH]5)c(-c5c(F)cccc5F)c5nc(c(-c6c(F)cccc6F)c6ccc3[nH]6)C=C5)C=C4)cc2)C[C@H](C)O1
REMARK SMILES IDX 17 1 16 2 15 3 13 4 14 5 11 6 7 7 8 8 9 9 10 10 6 11 5 12
REMARK SMILES IDX 4 13 1 14 2 15 3 16 81 17 79 18 78 19 80 21 12 22 18 26
REMARK SMILES IDX 19 27 20 28 21 29 22 30 23 31 24 32 25 33 77 34 26 35 76 36
REMARK SMILES IDX 27 37 28 38 29 39 70 40 30 41 75 42 69 43 71 44 31 45 74 46
REMARK SMILES IDX 68 47 67 48 32 50 58 51 41 52 57 53 42 54 45 55 56 56 72 57
REMARK SMILES IDX 43 58 44 59 55 61 73 62 46 63 33 64 34 65 39 66 35 67 36 68
REMARK SMILES IDX 38 69 40 70 37 71 59 72 60 73 65 74 61 75 62 76 64 77 66 78
REMARK SMILES IDX 63 79 47 80 48 81 53 82 49 83 50 84 52 85 54 86 51 87
REMARK H PARENT 4 20 12 23 12 24 12 25 71 49 45 60
REMARK Flexibility Score: inf
ROOT
ATOM      1  C   UNL A   1      33.315  28.575  26.902  1.00  0.00     0.202 C 
ENDROOT
BRANCH   1   2
ATOM      2  C   UNL A   1      33.134  27.462  25.853  1.00  0.00     0.261 C 
BRANCH   2   3
ATOM      3  O   UNL A   1      32.803  26.143  26.385  1.00  0.00    -0.459 OA
BRANCH   3   4
ATOM      4  C   UNL A   1      31.476  25.843  26.401  1.00  0.00     0.368 C 
ATOM      5  O   UNL A   1      30.638  26.704  26.687  1.00  0.00    -0.245 OA
BRANCH   4   6
ATOM      6  C   UNL A   1      31.043  24.309  26.240  1.00  0.00     0.195 C 
ATOM      7  C   UNL A   1      31.633  22.896  26.774  1.00  0.00     0.068 C 
ATOM      8  C   UNL A   1      31.506  21.928  25.598  1.00  0.00     0.011 C 
ATOM      9  C   UNL A   1      31.741  22.787  24.388  1.00  0.00     0.008 C 
ATOM     10  C   UNL A   1      31.018  24.082  24.682  1.00  0.00     0.081 C 
BRANCH   7  11
ATOM     11  C   UNL A   1      32.857  22.559  27.684  1.00  0.00     0.072 C 
BRANCH  11  12
ATOM     12  C   UNL A   1      34.184  21.701  27.337  1.00  0.00     0.262 C 
BRANCH  12  13
ATOM     13  N   UNL A   1      35.311  22.202  26.525  1.00  0.00    -0.331 N 
ATOM     14  C   UNL A   1      38.925  21.654  25.853  1.00  0.00     0.045 C 
ATOM     15  C   UNL A   1      37.562  21.983  25.233  1.00  0.00     0.170 C 
ATOM     16  C   UNL A   1      36.291  21.294  25.876  1.00  0.00     0.294 C 
ATOM     17  O   UNL A   1      37.445  23.412  25.183  1.00  0.00    -0.364 OA
ATOM     18  C   UNL A   1      36.139  23.814  24.749  1.00  0.00     0.170 C 
ATOM     19  C   UNL A   1      35.102  23.464  25.834  1.00  0.00     0.294 C 
ATOM     20  H   UNL A   1      35.876  22.389  27.353  1.00  0.00     0.348 HD
ATOM     21  C   UNL A   1      35.814  23.252  23.364  1.00  0.00     0.045 C 
ENDBRANCH  12  13
ENDBRANCH  11  12
ENDBRANCH   7  11
BRANCH   6  22
ATOM     22  N   UNL A   1      29.597  24.336  26.673  1.00  0.00    -0.343 N 
ATOM     23  H   UNL A   1      28.995  24.248  25.854  1.00  0.00     0.345 HD
ATOM     24  H   UNL A   1      29.400  25.218  27.146  1.00  0.00     0.345 HD
ATOM     25  H   UNL A   1      29.418  23.561  27.311  1.00  0.00     0.345 HD
ENDBRANCH   6  22
ENDBRANCH   4   6
ENDBRANCH   3   4
ENDBRANCH   2   3
ENDBRANCH   1   2
BRANCH   1  26
ATOM     26  O   UNL A   1      33.183  29.913  26.449  1.00  0.00    -0.374 OA
BRANCH  26  27
ATOM     27  C   UNL A   1      33.518  30.957  27.344  1.00  0.00     0.202 C 
BRANCH  27  28
ATOM     28  C   UNL A   1      32.542  32.114  27.488  1.00  0.00     0.261 C 
BRANCH  28  29
ATOM     29  O   UNL A   1      33.059  33.434  27.377  1.00  0.00    -0.460 OA
BRANCH  29  30
ATOM     30  C   UNL A   1      33.255  34.075  28.547  1.00  0.00     0.338 C 
ATOM     31  O   UNL A   1      32.579  34.941  29.100  1.00  0.00    -0.246 OA
BRANCH  30  32
ATOM     32  C   UNL A   1      34.482  33.694  29.184  1.00  0.00     0.060 A 
ATOM     33  C   UNL A   1      34.458  32.961  30.366  1.00  0.00     0.016 A 
ATOM     34  C   UNL A   1      35.667  34.099  28.548  1.00  0.00     0.016 A 
ATOM     35  C   UNL A   1      35.659  32.592  30.918  1.00  0.00     0.010 A 
ATOM     36  C   UNL A   1      36.862  33.709  29.082  1.00  0.00     0.010 A 
ATOM     37  C   UNL A   1      36.840  32.943  30.252  1.00  0.00    -0.014 A 
BRANCH  37  38
ATOM     38  C   UNL A   1      38.112  32.414  30.712  1.00  0.00     0.031 A 
ATOM     39  C   UNL A   1      38.620  31.167  30.092  1.00  0.00     0.074 A 
ATOM     40  C   UNL A   1      38.649  33.035  31.772  1.00  0.00     0.049 A 
ATOM     41  N   UNL A   1      39.638  30.443  30.450  1.00  0.00    -0.248 NA
ATOM     42  C   UNL A   1      37.863  30.643  28.940  1.00  0.00     0.031 C 
ATOM     43  C   UNL A   1      38.095  34.231  32.423  1.00  0.00     0.029 A 
ATOM     44  N   UNL A   1      39.747  32.728  32.513  1.00  0.00    -0.354 N 
ATOM     45  C   UNL A   1      39.650  29.374  29.568  1.00  0.00     0.074 A 
ATOM     46  C   UNL A   1      38.512  29.516  28.688  1.00  0.00     0.031 C 
ATOM     47  C   UNL A   1      38.855  34.545  33.481  1.00  0.00     0.029 A 
ATOM     48  C   UNL A   1      39.914  33.556  33.593  1.00  0.00     0.049 A 
ATOM     49  H   UNL A   1      40.358  31.988  32.295  1.00  0.00     0.167 HD
ATOM     50  C   UNL A   1      40.558  28.377  29.518  1.00  0.00     0.037 A 
ATOM     51  C   UNL A   1      40.824  33.480  34.575  1.00  0.00     0.037 A 
ATOM     52  C   UNL A   1      41.648  28.288  30.453  1.00  0.00     0.049 A 
ATOM     53  C   UNL A   1      41.819  32.363  34.487  1.00  0.00     0.074 A 
ATOM     54  C   UNL A   1      42.664  27.355  30.516  1.00  0.00     0.029 A 
ATOM     55  N   UNL A   1      41.849  29.179  31.505  1.00  0.00    -0.354 N 
ATOM     56  N   UNL A   1      41.881  31.385  33.612  1.00  0.00    -0.248 NA
ATOM     57  C   UNL A   1      42.874  32.341  35.500  1.00  0.00     0.031 C 
ATOM     58  C   UNL A   1      43.456  27.662  31.629  1.00  0.00     0.029 A 
ATOM     59  C   UNL A   1      42.965  28.814  32.230  1.00  0.00     0.049 A 
ATOM     60  H   UNL A   1      41.276  29.955  31.703  1.00  0.00     0.167 HD
ATOM     61  C   UNL A   1      42.997  30.639  33.951  1.00  0.00     0.074 A 
ATOM     62  C   UNL A   1      43.589  31.298  35.103  1.00  0.00     0.031 C 
ATOM     63  C   UNL A   1      43.496  29.517  33.373  1.00  0.00     0.037 A 
BRANCH  50  64
ATOM     64  C   UNL A   1      40.389  27.341  28.449  1.00  0.00     0.057 A 
ATOM     65  C   UNL A   1      39.616  26.189  28.653  1.00  0.00     0.134 A 
ATOM     66  C   UNL A   1      41.010  27.485  27.203  1.00  0.00     0.134 A 
ATOM     67  F   UNL A   1      39.016  25.974  29.834  1.00  0.00    -0.206 F 
ATOM     68  C   UNL A   1      39.480  25.211  27.666  1.00  0.00     0.040 A 
ATOM     69  C   UNL A   1      40.860  26.528  26.197  1.00  0.00     0.040 A 
ATOM     70  F   UNL A   1      41.776  28.555  26.942  1.00  0.00    -0.206 F 
ATOM     71  C   UNL A   1      40.098  25.384  26.430  1.00  0.00     0.006 A 
ENDBRANCH  50  64
BRANCH  51  72
ATOM     72  C   UNL A   1      40.835  34.490  35.657  1.00  0.00     0.057 A 
ATOM     73  C   UNL A   1      40.128  34.277  36.844  1.00  0.00     0.134 A 
ATOM     74  C   UNL A   1      41.589  35.666  35.558  1.00  0.00     0.134 A 
ATOM     75  F   UNL A   1      39.394  33.165  37.001  1.00  0.00    -0.206 F 
ATOM     76  C   UNL A   1      40.146  35.208  37.884  1.00  0.00     0.040 A 
ATOM     77  C   UNL A   1      41.638  36.595  36.599  1.00  0.00     0.040 A 
ATOM     78  F   UNL A   1      42.317  35.916  34.459  1.00  0.00    -0.206 F 
ATOM     79  C   UNL A   1      40.906  36.370  37.764  1.00  0.00     0.006 A 
ENDBRANCH  51  72
BRANCH  63  80
ATOM     80  C   UNL A   1      44.750  28.974  33.981  1.00  0.00     0.057 A 
ATOM     81  C   UNL A   1      46.016  29.398  33.560  1.00  0.00     0.134 A 
ATOM     82  C   UNL A   1      44.683  28.034  35.016  1.00  0.00     0.134 A 
ATOM     83  F   UNL A   1      46.139  30.284  32.560  1.00  0.00    -0.206 F 
ATOM     84  C   UNL A   1      47.177  28.881  34.130  1.00  0.00     0.040 A 
ATOM     85  C   UNL A   1      45.837  27.533  35.615  1.00  0.00     0.040 A 
ATOM     86  F   UNL A   1      43.497  27.598  35.465  1.00  0.00    -0.206 F 
ATOM     87  C   UNL A   1      47.088  27.952  35.166  1.00  0.00     0.006 A 
ENDBRANCH  63  80
ENDBRANCH  37  38
ENDBRANCH  30  32
ENDBRANCH  29  30
ENDBRANCH  28  29
ENDBRANCH  27  28
ENDBRANCH  26  27
ENDBRANCH   1  26
TORSDOF 18
ENDMDL
MODEL 3
REMARK VINA RESULT:     -10.2      0.873      1.774
REMARK SMILES C[C@H]1C[NH+](CC[C@@H]2CCC[C@]2([NH3+])C(=O)OCCOCCOC(=O)c2ccc(-c3c4nc(c(-c5c(F)cccc5F)c5ccc([nH]5)c(-c5c(F)cccc5F)c5nc(c(-c6c(F)cccc6F)c6ccc3[nH]6)C=C5)C=C4)cc2)C[C@H](C)O1
REMARK SMILES IDX 17 1 16 2 15 3 13 4 14 5 11 6 7 7 8 8 9 9 10 10 6 11 5 12
REMARK SMILES IDX 4 13 1 14 2 15 3 16 81 17 79 18 78 19 80 21 12 22 18 26
REMARK SMILES IDX 19 27 20 28 21 29 22 30 23 31 24 32 25 33 77 34 26 35 76 36
REMARK SMILES IDX 27 37 28 38 29 39 70 40 30 41 75 42 69 43 71 44 31 45 74 46
REMARK SMILES IDX 68 47 67 48 32 50 58 51 41 52 57 53 42 54 45 55 56 56 72 57
REMARK SMILES IDX 43 58 44 59 55 61 73 62 46 63 33 64 34 65 39 66 35 67 36 68
REMARK SMILES IDX 38 69 40 70 37 71 59 72 60 73 65 74 61 75 62 76 64 77 66 78
REMARK SMILES IDX 63 79 47 80 48 81 53 82 49 83 50 84 52 85 54 86 51 87
REMARK H PARENT 4 20 12 23 12 24 12 25 71 49 45 60
REMARK Flexibility Score: inf
ROOT
ATOM      1  C   UNL A   1      37.701  23.205  25.543  1.00  0.00     0.202 C 
ENDROOT
BRANCH   1   2
ATOM      2  C   UNL A   1      36.284  23.671  25.162  1.00  0.00     0.261 C 
BRANCH   2   3
ATOM      3  O   UNL A   1      35.192  23.007  25.867  1.00  0.00    -0.459 OA
BRANCH   3   4
ATOM      4  C   UNL A   1      34.267  22.408  25.069  1.00  0.00     0.368 C 
ATOM      5  O   UNL A   1      34.568  22.023  23.935  1.00  0.00    -0.245 OA
BRANCH   4   6
ATOM      6  C   UNL A   1      32.739  22.396  25.553  1.00  0.00     0.195 C 
ATOM      7  C   UNL A   1      31.334  22.869  24.898  1.00  0.00     0.068 C 
ATOM      8  C   UNL A   1      30.556  23.535  26.033  1.00  0.00     0.011 C 
ATOM      9  C   UNL A   1      31.616  24.200  26.864  1.00  0.00     0.008 C 
ATOM     10  C   UNL A   1      32.761  23.213  26.899  1.00  0.00     0.081 C 
BRANCH   7  11
ATOM     11  C   UNL A   1      30.992  23.492  23.506  1.00  0.00     0.072 C 
BRANCH  11  12
ATOM     12  C   UNL A   1      31.738  24.687  22.711  1.00  0.00     0.262 C 
BRANCH  12  13
ATOM     13  N   UNL A   1      32.068  26.001  23.300  1.00  0.00    -0.331 N 
ATOM     14  C   UNL A   1      30.644  29.367  23.971  1.00  0.00     0.045 C 
ATOM     15  C   UNL A   1      31.526  28.239  24.516  1.00  0.00     0.170 C 
ATOM     16  C   UNL A   1      31.114  26.756  24.149  1.00  0.00     0.294 C 
ATOM     17  O   UNL A   1      32.881  28.537  24.151  1.00  0.00    -0.364 OA
ATOM     18  C   UNL A   1      33.764  27.461  24.496  1.00  0.00     0.170 C 
ATOM     19  C   UNL A   1      33.470  26.243  23.598  1.00  0.00     0.294 C 
ATOM     20  H   UNL A   1      31.846  26.490  22.433  1.00  0.00     0.348 HD
ATOM     21  C   UNL A   1      33.721  27.163  25.995  1.00  0.00     0.045 C 
ENDBRANCH  12  13
ENDBRANCH  11  12
ENDBRANCH   7  11
BRANCH   6  22
ATOM     22  N   UNL A   1      32.539  20.955  25.951  1.00  0.00    -0.343 N 
ATOM     23  H   UNL A   1      32.513  20.884  26.969  1.00  0.00     0.345 HD
ATOM     24  H   UNL A   1      33.310  20.392  25.592  1.00  0.00     0.345 HD
ATOM     25  H   UNL A   1      31.660  20.614  25.563  1.00  0.00     0.345 HD
ENDBRANCH   6  22
ENDBRANCH   4   6
ENDBRANCH   3   4
ENDBRANCH   2   3
ENDBRANCH   1   2
BRANCH   1  26
ATOM     26  O   UNL A   1      37.839  21.867  25.996  1.00  0.00    -0.374 OA
BRANCH  26  27
ATOM     27  C   UNL A   1      37.984  20.846  25.027  1.00  0.00     0.202 C 
BRANCH  27  28
ATOM     28  C   UNL A   1      38.826  19.633  25.388  1.00  0.00     0.261 C 
BRANCH  28  29
ATOM     29  O   UNL A   1      39.724  19.754  26.486  1.00  0.00    -0.460 OA
BRANCH  29  30
ATOM     30  C   UNL A   1      41.032  19.750  26.160  1.00  0.00     0.338 C 
ATOM     31  O   UNL A   1      41.725  18.857  25.673  1.00  0.00    -0.246 OA
BRANCH  30  32
ATOM     32  C   UNL A   1      41.688  20.977  26.505  1.00  0.00     0.060 A 
ATOM     33  C   UNL A   1      41.980  21.913  25.518  1.00  0.00     0.016 A 
ATOM     34  C   UNL A   1      42.000  21.158  27.862  1.00  0.00     0.016 A 
ATOM     35  C   UNL A   1      42.578  23.087  25.904  1.00  0.00     0.010 A 
ATOM     36  C   UNL A   1      42.571  22.337  28.250  1.00  0.00     0.010 A 
ATOM     37  C   UNL A   1      42.835  23.295  27.265  1.00  0.00    -0.014 A 
BRANCH  37  38
ATOM     38  C   UNL A   1      43.297  24.593  27.721  1.00  0.00     0.031 A 
ATOM     39  C   UNL A   1      42.285  25.599  28.120  1.00  0.00     0.074 A 
ATOM     40  C   UNL A   1      44.615  24.814  27.604  1.00  0.00     0.049 A 
ATOM     41  N   UNL A   1      42.461  26.855  28.406  1.00  0.00    -0.248 NA
ATOM     42  C   UNL A   1      40.883  25.146  28.168  1.00  0.00     0.031 C 
ATOM     43  C   UNL A   1      45.600  23.828  27.138  1.00  0.00     0.029 A 
ATOM     44  N   UNL A   1      45.344  25.940  27.821  1.00  0.00    -0.354 N 
ATOM     45  C   UNL A   1      41.194  27.348  28.671  1.00  0.00     0.074 A 
ATOM     46  C   UNL A   1      40.251  26.272  28.467  1.00  0.00     0.031 C 
ATOM     47  C   UNL A   1      46.809  24.405  27.092  1.00  0.00     0.029 A 
ATOM     48  C   UNL A   1      46.667  25.796  27.487  1.00  0.00     0.049 A 
ATOM     49  H   UNL A   1      44.962  26.773  28.182  1.00  0.00     0.167 HD
ATOM     50  C   UNL A   1      40.878  28.601  29.061  1.00  0.00     0.037 A 
ATOM     51  C   UNL A   1      47.636  26.722  27.483  1.00  0.00     0.037 A 
ATOM     52  C   UNL A   1      41.875  29.629  29.211  1.00  0.00     0.049 A 
ATOM     53  C   UNL A   1      47.253  28.102  27.925  1.00  0.00     0.074 A 
ATOM     54  C   UNL A   1      41.718  30.936  29.624  1.00  0.00     0.029 A 
ATOM     55  N   UNL A   1      43.229  29.449  28.937  1.00  0.00    -0.354 N 
ATOM     56  N   UNL A   1      46.064  28.561  28.247  1.00  0.00    -0.248 NA
ATOM     57  C   UNL A   1      48.332  29.085  28.019  1.00  0.00     0.031 C 
ATOM     58  C   UNL A   1      42.972  31.557  29.563  1.00  0.00     0.029 A 
ATOM     59  C   UNL A   1      43.918  30.624  29.161  1.00  0.00     0.049 A 
ATOM     60  H   UNL A   1      43.634  28.606  28.627  1.00  0.00     0.167 HD
ATOM     61  C   UNL A   1      46.252  29.884  28.608  1.00  0.00     0.074 A 
ATOM     62  C   UNL A   1      47.676  30.141  28.480  1.00  0.00     0.031 C 
ATOM     63  C   UNL A   1      45.342  30.808  29.009  1.00  0.00     0.037 A 
BRANCH  50  64
ATOM     64  C   UNL A   1      39.435  28.900  29.327  1.00  0.00     0.057 A 
ATOM     65  C   UNL A   1      38.864  28.713  30.594  1.00  0.00     0.134 A 
ATOM     66  C   UNL A   1      38.598  29.371  28.309  1.00  0.00     0.134 A 
ATOM     67  F   UNL A   1      39.602  28.236  31.609  1.00  0.00    -0.206 F 
ATOM     68  C   UNL A   1      37.512  28.966  30.834  1.00  0.00     0.040 A 
ATOM     69  C   UNL A   1      37.251  29.654  28.543  1.00  0.00     0.040 A 
ATOM     70  F   UNL A   1      39.073  29.561  27.069  1.00  0.00    -0.206 F 
ATOM     71  C   UNL A   1      36.703  29.446  29.807  1.00  0.00     0.006 A 
ENDBRANCH  50  64
BRANCH  51  72
ATOM     72  C   UNL A   1      49.014  26.352  27.089  1.00  0.00     0.057 A 
ATOM     73  C   UNL A   1      49.901  25.796  28.017  1.00  0.00     0.134 A 
ATOM     74  C   UNL A   1      49.466  26.493  25.771  1.00  0.00     0.134 A 
ATOM     75  F   UNL A   1      49.523  25.628  29.294  1.00  0.00    -0.206 F 
ATOM     76  C   UNL A   1      51.196  25.420  27.658  1.00  0.00     0.040 A 
ATOM     77  C   UNL A   1      50.750  26.098  25.391  1.00  0.00     0.040 A 
ATOM     78  F   UNL A   1      48.655  26.989  24.825  1.00  0.00    -0.206 F 
ATOM     79  C   UNL A   1      51.622  25.568  26.340  1.00  0.00     0.006 A 
ENDBRANCH  51  72
BRANCH  63  80
ATOM     80  C   UNL A   1      45.892  32.156  29.354  1.00  0.00     0.057 A 
ATOM     81  C   UNL A   1      46.339  32.460  30.645  1.00  0.00     0.134 A 
ATOM     82  C   UNL A   1      45.993  33.149  28.373  1.00  0.00     0.134 A 
ATOM     83  F   UNL A   1      46.249  31.550  31.628  1.00  0.00    -0.206 F 
ATOM     84  C   UNL A   1      46.844  33.720  30.957  1.00  0.00     0.040 A 
ATOM     85  C   UNL A   1      46.526  34.403  28.665  1.00  0.00     0.040 A 
ATOM     86  F   UNL A   1      45.587  32.911  27.117  1.00  0.00    -0.206 F 
ATOM     87  C   UNL A   1      46.945  34.692  29.962  1.00  0.00     0.006 A 
ENDBRANCH  63  80
ENDBRANCH  37  38
ENDBRANCH  30  32
ENDBRANCH  29  30
ENDBRANCH  28  29
ENDBRANCH  27  28
ENDBRANCH  26  27
ENDBRANCH   1  26
TORSDOF 18
ENDMDL
