MODEL 1
REMARK VINA RESULT:     -12.0      0.000      0.000
REMARK SMILES O=C(OCCOCCOC(=O)c1ccc2c(c1)[C@@H]1C=CC[C@@H]1[C@H](c1ccncc1)N2)c1ccc(-c2c3nc(c(-c4c(F)cccc4F)c4ccc([nH]4)c(-c4c(F)cccc4F)c4nc(c(-c5c(F)cccc5F)c5ccc2[nH]5)C=C4)C=C3)cc1
REMARK SMILES IDX 5 1 4 2 3 3 2 4 1 5 31 6 32 7 84 8 33 9 83 10 34 11 35 12
REMARK SMILES IDX 36 13 77 14 37 15 82 16 76 17 78 18 38 19 81 20 75 21 74 22
REMARK SMILES IDX 39 24 65 25 48 26 64 27 49 28 52 29 63 30 79 31 50 32 51 33
REMARK SMILES IDX 62 35 80 36 53 37 40 38 41 39 46 40 42 41 43 42 45 43 47 44
REMARK SMILES IDX 44 45 66 46 67 47 72 48 68 49 69 50 71 51 73 52 70 53 54 54
REMARK SMILES IDX 55 55 60 56 56 57 57 58 59 59 61 60 58 61 6 62 7 63 8 64
REMARK SMILES IDX 9 65 10 66 11 67 12 68 13 69 17 70 14 71 16 72 15 73 18 74
REMARK SMILES IDX 30 75 19 76 22 77 23 78 20 80 21 81 24 82 25 83 29 84 26 85
REMARK SMILES IDX 28 86 27 87
REMARK H PARENT 78 23 52 34 30 79
REMARK Flexibility Score: inf
ROOT
ATOM      1  C   UNL A   1      37.902  19.324  24.941  1.00  0.00     0.202 C 
ENDROOT
BRANCH   1   2
ATOM      2  C   UNL A   1      39.051  20.122  25.561  1.00  0.00     0.261 C 
BRANCH   2   3
ATOM      3  O   UNL A   1      40.212  19.289  25.711  1.00  0.00    -0.460 OA
BRANCH   3   4
ATOM      4  C   UNL A   1      41.485  19.656  25.981  1.00  0.00     0.338 C 
ATOM      5  O   UNL A   1      42.381  18.832  25.804  1.00  0.00    -0.246 OA
BRANCH   4   6
ATOM      6  C   UNL A   1      41.878  21.008  26.483  1.00  0.00     0.060 A 
ATOM      7  C   UNL A   1      42.276  22.080  25.681  1.00  0.00     0.016 A 
ATOM      8  C   UNL A   1      41.731  21.241  27.862  1.00  0.00     0.016 A 
ATOM      9  C   UNL A   1      42.570  23.324  26.221  1.00  0.00     0.010 A 
ATOM     10  C   UNL A   1      41.989  22.500  28.412  1.00  0.00     0.010 A 
ATOM     11  C   UNL A   1      42.420  23.542  27.587  1.00  0.00    -0.014 A 
BRANCH  11  12
ATOM     12  C   UNL A   1      42.804  24.859  28.120  1.00  0.00     0.031 A 
ATOM     13  C   UNL A   1      41.731  25.871  28.363  1.00  0.00     0.074 A 
ATOM     14  C   UNL A   1      44.078  25.072  28.496  1.00  0.00     0.049 A 
ATOM     15  N   UNL A   1      41.833  27.093  28.807  1.00  0.00    -0.248 NA
ATOM     16  C   UNL A   1      40.351  25.439  28.083  1.00  0.00     0.031 C 
ATOM     17  C   UNL A   1      45.159  24.087  28.402  1.00  0.00     0.029 A 
ATOM     18  N   UNL A   1      44.672  26.167  29.061  1.00  0.00    -0.354 N 
ATOM     19  C   UNL A   1      40.536  27.586  28.840  1.00  0.00     0.074 A 
ATOM     20  C   UNL A   1      39.663  26.534  28.368  1.00  0.00     0.031 C 
ATOM     21  C   UNL A   1      46.280  24.618  28.915  1.00  0.00     0.029 A 
ATOM     22  C   UNL A   1      46.012  25.996  29.310  1.00  0.00     0.049 A 
ATOM     23  H   UNL A   1      44.186  26.998  29.267  1.00  0.00     0.167 HD
ATOM     24  C   UNL A   1      40.121  28.815  29.224  1.00  0.00     0.037 A 
ATOM     25  C   UNL A   1      46.917  26.874  29.779  1.00  0.00     0.037 A 
ATOM     26  C   UNL A   1      41.018  29.842  29.679  1.00  0.00     0.049 A 
ATOM     27  C   UNL A   1      46.445  28.263  30.109  1.00  0.00     0.074 A 
ATOM     28  C   UNL A   1      40.737  31.149  30.023  1.00  0.00     0.029 A 
ATOM     29  N   UNL A   1      42.385  29.662  29.853  1.00  0.00    -0.354 N 
ATOM     30  N   UNL A   1      45.226  28.751  30.070  1.00  0.00    -0.248 NA
ATOM     31  C   UNL A   1      47.467  29.229  30.528  1.00  0.00     0.031 C 
ATOM     32  C   UNL A   1      41.941  31.773  30.369  1.00  0.00     0.029 A 
ATOM     33  C   UNL A   1      42.966  30.840  30.285  1.00  0.00     0.049 A 
ATOM     34  H   UNL A   1      42.869  28.820  29.692  1.00  0.00     0.167 HD
ATOM     35  C   UNL A   1      45.332  30.075  30.471  1.00  0.00     0.074 A 
ATOM     36  C   UNL A   1      46.733  30.306  30.768  1.00  0.00     0.031 C 
ATOM     37  C   UNL A   1      44.366  31.020  30.577  1.00  0.00     0.037 A 
BRANCH  24  38
ATOM     38  C   UNL A   1      38.659  29.111  29.085  1.00  0.00     0.057 A 
ATOM     39  C   UNL A   1      38.095  29.533  27.873  1.00  0.00     0.134 A 
ATOM     40  C   UNL A   1      37.810  29.018  30.195  1.00  0.00     0.134 A 
ATOM     41  F   UNL A   1      38.858  29.673  26.780  1.00  0.00    -0.206 F 
ATOM     42  C   UNL A   1      36.744  29.877  27.779  1.00  0.00     0.040 A 
ATOM     43  C   UNL A   1      36.455  29.339  30.108  1.00  0.00     0.040 A 
ATOM     44  F   UNL A   1      38.289  28.631  31.387  1.00  0.00    -0.206 F 
ATOM     45  C   UNL A   1      35.920  29.778  28.899  1.00  0.00     0.006 A 
ENDBRANCH  24  38
BRANCH  25  46
ATOM     46  C   UNL A   1      48.346  26.485  29.911  1.00  0.00     0.057 A 
ATOM     47  C   UNL A   1      48.833  25.872  31.071  1.00  0.00     0.134 A 
ATOM     48  C   UNL A   1      49.264  26.729  28.881  1.00  0.00     0.134 A 
ATOM     49  F   UNL A   1      48.012  25.630  32.103  1.00  0.00    -0.206 F 
ATOM     50  C   UNL A   1      50.180  25.528  31.207  1.00  0.00     0.040 A 
ATOM     51  C   UNL A   1      50.607  26.365  28.993  1.00  0.00     0.040 A 
ATOM     52  F   UNL A   1      48.867  27.314  27.742  1.00  0.00    -0.206 F 
ATOM     53  C   UNL A   1      51.071  25.769  30.163  1.00  0.00     0.006 A 
ENDBRANCH  25  46
BRANCH  37  54
ATOM     54  C   UNL A   1      44.795  32.371  31.060  1.00  0.00     0.057 A 
ATOM     55  C   UNL A   1      44.845  32.683  32.423  1.00  0.00     0.134 A 
ATOM     56  C   UNL A   1      45.209  33.350  30.150  1.00  0.00     0.134 A 
ATOM     57  F   UNL A   1      44.446  31.787  33.341  1.00  0.00    -0.206 F 
ATOM     58  C   UNL A   1      45.278  33.932  32.866  1.00  0.00     0.040 A 
ATOM     59  C   UNL A   1      45.668  34.594  30.581  1.00  0.00     0.040 A 
ATOM     60  F   UNL A   1      45.192  33.106  28.831  1.00  0.00    -0.206 F 
ATOM     61  C   UNL A   1      45.699  34.889  31.943  1.00  0.00     0.006 A 
ENDBRANCH  37  54
ENDBRANCH  11  12
ENDBRANCH   4   6
ENDBRANCH   3   4
ENDBRANCH   2   3
ENDBRANCH   1   2
BRANCH   1  62
ATOM     62  O   UNL A   1      36.639  19.989  24.996  1.00  0.00    -0.374 OA
BRANCH  62  63
ATOM     63  C   UNL A   1      36.630  21.263  25.650  1.00  0.00     0.202 C 
BRANCH  63  64
ATOM     64  C   UNL A   1      35.261  21.920  25.447  1.00  0.00     0.261 C 
BRANCH  64  65
ATOM     65  O   UNL A   1      34.942  21.865  24.049  1.00  0.00    -0.460 OA
BRANCH  65  66
ATOM     66  C   UNL A   1      35.286  22.975  23.345  1.00  0.00     0.338 C 
ATOM     67  O   UNL A   1      36.294  23.150  22.680  1.00  0.00    -0.246 OA
BRANCH  66  68
ATOM     68  C   UNL A   1      34.112  23.873  23.330  1.00  0.00     0.060 A 
ATOM     69  C   UNL A   1      32.880  23.363  22.917  1.00  0.00     0.018 A 
ATOM     70  C   UNL A   1      34.203  25.183  23.802  1.00  0.00     0.022 A 
ATOM     71  C   UNL A   1      31.739  24.166  22.984  1.00  0.00     0.027 A 
ATOM     72  C   UNL A   1      33.062  25.997  23.857  1.00  0.00    -0.017 A 
ATOM     73  C   UNL A   1      31.827  25.498  23.407  1.00  0.00     0.038 A 
ATOM     74  C   UNL A   1      33.200  27.416  24.356  1.00  0.00     0.049 C 
ATOM     75  N   UNL A   1      30.686  26.299  23.398  1.00  0.00    -0.378 N 
ATOM     76  C   UNL A   1      33.625  27.508  25.797  1.00  0.00    -0.023 C 
ATOM     77  C   UNL A   1      31.886  28.216  24.372  1.00  0.00     0.031 C 
ATOM     78  C   UNL A   1      30.912  27.736  23.294  1.00  0.00     0.114 C 
ATOM     79  H   UNL A   1      29.781  25.918  23.455  1.00  0.00     0.161 HD
ATOM     80  C   UNL A   1      32.631  27.921  26.593  1.00  0.00    -0.030 C 
ATOM     81  C   UNL A   1      31.372  28.152  25.821  1.00  0.00     0.034 C 
BRANCH  78  82
ATOM     82  C   UNL A   1      29.625  28.543  23.273  1.00  0.00    -0.022 A 
ATOM     83  C   UNL A   1      29.714  29.944  23.303  1.00  0.00     0.026 A 
ATOM     84  C   UNL A   1      28.348  27.975  23.232  1.00  0.00     0.026 A 
ATOM     85  C   UNL A   1      28.552  30.697  23.284  1.00  0.00     0.111 A 
ATOM     86  C   UNL A   1      27.244  28.814  23.200  1.00  0.00     0.111 A 
ATOM     87  N   UNL A   1      27.317  30.162  23.226  1.00  0.00    -0.265 NA
ENDBRANCH  78  82
ENDBRANCH  66  68
ENDBRANCH  65  66
ENDBRANCH  64  65
ENDBRANCH  63  64
ENDBRANCH  62  63
ENDBRANCH   1  62
TORSDOF 15
ENDMDL
MODEL 2
REMARK VINA RESULT:     -11.9      1.225      6.180
REMARK SMILES O=C(OCCOCCOC(=O)c1ccc2c(c1)[C@@H]1C=CC[C@@H]1[C@H](c1ccncc1)N2)c1ccc(-c2c3nc(c(-c4c(F)cccc4F)c4ccc([nH]4)c(-c4c(F)cccc4F)c4nc(c(-c5c(F)cccc5F)c5ccc2[nH]5)C=C4)C=C3)cc1
REMARK SMILES IDX 5 1 4 2 3 3 2 4 1 5 31 6 32 7 84 8 33 9 83 10 34 11 35 12
REMARK SMILES IDX 36 13 77 14 37 15 82 16 76 17 78 18 38 19 81 20 75 21 74 22
REMARK SMILES IDX 39 24 65 25 48 26 64 27 49 28 52 29 63 30 79 31 50 32 51 33
REMARK SMILES IDX 62 35 80 36 53 37 40 38 41 39 46 40 42 41 43 42 45 43 47 44
REMARK SMILES IDX 44 45 66 46 67 47 72 48 68 49 69 50 71 51 73 52 70 53 54 54
REMARK SMILES IDX 55 55 60 56 56 57 57 58 59 59 61 60 58 61 6 62 7 63 8 64
REMARK SMILES IDX 9 65 10 66 11 67 12 68 13 69 17 70 14 71 16 72 15 73 18 74
REMARK SMILES IDX 30 75 19 76 22 77 23 78 20 80 21 81 24 82 25 83 29 84 26 85
REMARK SMILES IDX 28 86 27 87
REMARK H PARENT 78 23 52 34 30 79
REMARK Flexibility Score: inf
ROOT
ATOM      1  C   UNL A   1      38.236  19.531  24.835  1.00  0.00     0.202 C 
ENDROOT
BRANCH   1   2
ATOM      2  C   UNL A   1      39.195  19.529  26.027  1.00  0.00     0.261 C 
BRANCH   2   3
ATOM      3  O   UNL A   1      40.438  18.906  25.666  1.00  0.00    -0.460 OA
BRANCH   3   4
ATOM      4  C   UNL A   1      41.699  19.337  25.898  1.00  0.00     0.338 C 
ATOM      5  O   UNL A   1      42.625  18.541  25.757  1.00  0.00    -0.246 OA
BRANCH   4   6
ATOM      6  C   UNL A   1      42.042  20.731  26.316  1.00  0.00     0.060 A 
ATOM      7  C   UNL A   1      42.195  21.816  25.451  1.00  0.00     0.016 A 
ATOM      8  C   UNL A   1      42.112  20.980  27.699  1.00  0.00     0.016 A 
ATOM      9  C   UNL A   1      42.458  23.094  25.925  1.00  0.00     0.010 A 
ATOM     10  C   UNL A   1      42.340  22.269  28.189  1.00  0.00     0.010 A 
ATOM     11  C   UNL A   1      42.524  23.328  27.295  1.00  0.00    -0.014 A 
BRANCH  11  12
ATOM     12  C   UNL A   1      42.868  24.686  27.746  1.00  0.00     0.031 A 
ATOM     13  C   UNL A   1      44.305  25.097  27.735  1.00  0.00     0.074 A 
ATOM     14  C   UNL A   1      41.882  25.557  28.027  1.00  0.00     0.049 A 
ATOM     15  N   UNL A   1      44.843  26.228  28.101  1.00  0.00    -0.248 NA
ATOM     16  C   UNL A   1      45.265  24.105  27.224  1.00  0.00     0.031 C 
ATOM     17  C   UNL A   1      40.450  25.262  27.943  1.00  0.00     0.029 A 
ATOM     18  N   UNL A   1      41.931  26.870  28.407  1.00  0.00    -0.354 N 
ATOM     19  C   UNL A   1      46.206  26.077  27.887  1.00  0.00     0.074 A 
ATOM     20  C   UNL A   1      46.415  24.747  27.362  1.00  0.00     0.031 C 
ATOM     21  C   UNL A   1      39.756  26.373  28.240  1.00  0.00     0.029 A 
ATOM     22  C   UNL A   1      40.692  27.432  28.597  1.00  0.00     0.049 A 
ATOM     23  H   UNL A   1      42.774  27.364  28.532  1.00  0.00     0.167 HD
ATOM     24  C   UNL A   1      47.190  26.975  28.120  1.00  0.00     0.037 A 
ATOM     25  C   UNL A   1      40.366  28.659  29.042  1.00  0.00     0.037 A 
ATOM     26  C   UNL A   1      46.948  28.288  28.652  1.00  0.00     0.049 A 
ATOM     27  C   UNL A   1      41.483  29.606  29.382  1.00  0.00     0.074 A 
ATOM     28  C   UNL A   1      47.860  29.263  29.006  1.00  0.00     0.029 A 
ATOM     29  N   UNL A   1      45.683  28.806  28.906  1.00  0.00    -0.354 N 
ATOM     30  N   UNL A   1      42.779  29.435  29.248  1.00  0.00    -0.248 NA
ATOM     31  C   UNL A   1      41.103  30.903  29.953  1.00  0.00     0.031 C 
ATOM     32  C   UNL A   1      47.148  30.358  29.510  1.00  0.00     0.029 A 
ATOM     33  C   UNL A   1      45.790  30.083  29.426  1.00  0.00     0.049 A 
ATOM     34  H   UNL A   1      44.836  28.333  28.739  1.00  0.00     0.167 HD
ATOM     35  C   UNL A   1      43.368  30.605  29.704  1.00  0.00     0.074 A 
ATOM     36  C   UNL A   1      42.285  31.486  30.100  1.00  0.00     0.031 C 
ATOM     37  C   UNL A   1      44.681  30.925  29.798  1.00  0.00     0.037 A 
BRANCH  24  38
ATOM     38  C   UNL A   1      48.596  26.521  27.871  1.00  0.00     0.057 A 
ATOM     39  C   UNL A   1      49.246  26.740  26.649  1.00  0.00     0.134 A 
ATOM     40  C   UNL A   1      49.294  25.810  28.855  1.00  0.00     0.134 A 
ATOM     41  F   UNL A   1      48.621  27.386  25.652  1.00  0.00    -0.206 F 
ATOM     42  C   UNL A   1      50.529  26.244  26.406  1.00  0.00     0.040 A 
ATOM     43  C   UNL A   1      50.585  25.328  28.632  1.00  0.00     0.040 A 
ATOM     44  F   UNL A   1      48.726  25.558  30.044  1.00  0.00    -0.206 F 
ATOM     45  C   UNL A   1      51.203  25.538  27.401  1.00  0.00     0.006 A 
ENDBRANCH  24  38
BRANCH  25  46
ATOM     46  C   UNL A   1      38.941  29.036  29.234  1.00  0.00     0.057 A 
ATOM     47  C   UNL A   1      38.168  29.541  28.181  1.00  0.00     0.134 A 
ATOM     48  C   UNL A   1      38.317  28.910  30.483  1.00  0.00     0.134 A 
ATOM     49  F   UNL A   1      38.710  29.708  26.966  1.00  0.00    -0.206 F 
ATOM     50  C   UNL A   1      36.836  29.919  28.366  1.00  0.00     0.040 A 
ATOM     51  C   UNL A   1      36.979  29.257  30.674  1.00  0.00     0.040 A 
ATOM     52  F   UNL A   1      38.997  28.434  31.535  1.00  0.00    -0.206 F 
ATOM     53  C   UNL A   1      36.236  29.772  29.614  1.00  0.00     0.006 A 
ENDBRANCH  25  46
BRANCH  37  54
ATOM     54  C   UNL A   1      45.006  32.291  30.321  1.00  0.00     0.057 A 
ATOM     55  C   UNL A   1      45.203  32.527  31.685  1.00  0.00     0.134 A 
ATOM     56  C   UNL A   1      45.171  33.366  29.440  1.00  0.00     0.134 A 
ATOM     57  F   UNL A   1      45.045  31.537  32.578  1.00  0.00    -0.206 F 
ATOM     58  C   UNL A   1      45.539  33.795  32.160  1.00  0.00     0.040 A 
ATOM     59  C   UNL A   1      45.531  34.632  29.900  1.00  0.00     0.040 A 
ATOM     60  F   UNL A   1      45.004  33.198  28.119  1.00  0.00    -0.206 F 
ATOM     61  C   UNL A   1      45.712  34.850  31.265  1.00  0.00     0.006 A 
ENDBRANCH  37  54
ENDBRANCH  11  12
ENDBRANCH   4   6
ENDBRANCH   3   4
ENDBRANCH   2   3
ENDBRANCH   1   2
BRANCH   1  62
ATOM     62  O   UNL A   1      37.113  20.399  24.996  1.00  0.00    -0.374 OA
BRANCH  62  63
ATOM     63  C   UNL A   1      37.298  21.750  24.559  1.00  0.00     0.202 C 
BRANCH  63  64
ATOM     64  C   UNL A   1      37.147  22.689  25.760  1.00  0.00     0.261 C 
BRANCH  64  65
ATOM     65  O   UNL A   1      36.064  23.589  25.490  1.00  0.00    -0.460 OA
BRANCH  65  66
ATOM     66  C   UNL A   1      34.913  23.307  26.154  1.00  0.00     0.338 C 
ATOM     67  O   UNL A   1      34.778  22.600  27.139  1.00  0.00    -0.246 OA
BRANCH  66  68
ATOM     68  C   UNL A   1      33.859  24.194  25.615  1.00  0.00     0.060 A 
ATOM     69  C   UNL A   1      32.561  23.697  25.489  1.00  0.00     0.018 A 
ATOM     70  C   UNL A   1      34.127  25.531  25.320  1.00  0.00     0.022 A 
ATOM     71  C   UNL A   1      31.532  24.543  25.072  1.00  0.00     0.027 A 
ATOM     72  C   UNL A   1      33.099  26.381  24.887  1.00  0.00    -0.017 A 
ATOM     73  C   UNL A   1      31.798  25.873  24.723  1.00  0.00     0.038 A 
ATOM     74  C   UNL A   1      33.428  27.817  24.558  1.00  0.00     0.049 C 
ATOM     75  N   UNL A   1      30.766  26.678  24.242  1.00  0.00    -0.378 N 
ATOM     76  C   UNL A   1      33.906  28.611  25.744  1.00  0.00    -0.023 C 
ATOM     77  C   UNL A   1      32.225  28.656  24.093  1.00  0.00     0.031 C 
ATOM     78  C   UNL A   1      31.165  27.797  23.398  1.00  0.00     0.114 C 
ATOM     79  H   UNL A   1      29.822  26.499  24.458  1.00  0.00     0.161 HD
ATOM     80  C   UNL A   1      32.996  29.503  26.156  1.00  0.00    -0.030 C 
ATOM     81  C   UNL A   1      31.753  29.437  25.330  1.00  0.00     0.034 C 
BRANCH  78  82
ATOM     82  C   UNL A   1      29.989  28.618  22.898  1.00  0.00    -0.022 A 
ATOM     83  C   UNL A   1      30.245  29.699  22.040  1.00  0.00     0.026 A 
ATOM     84  C   UNL A   1      28.658  28.368  23.248  1.00  0.00     0.026 A 
ATOM     85  C   UNL A   1      29.186  30.459  21.572  1.00  0.00     0.111 A 
ATOM     86  C   UNL A   1      27.664  29.178  22.716  1.00  0.00     0.111 A 
ATOM     87  N   UNL A   1      27.898  30.217  21.887  1.00  0.00    -0.265 NA
ENDBRANCH  78  82
ENDBRANCH  66  68
ENDBRANCH  65  66
ENDBRANCH  64  65
ENDBRANCH  63  64
ENDBRANCH  62  63
ENDBRANCH   1  62
TORSDOF 15
ENDMDL
MODEL 3
REMARK VINA RESULT:     -11.9      5.951     11.958
REMARK SMILES O=C(OCCOCCOC(=O)c1ccc2c(c1)[C@@H]1C=CC[C@@H]1[C@H](c1ccncc1)N2)c1ccc(-c2c3nc(c(-c4c(F)cccc4F)c4ccc([nH]4)c(-c4c(F)cccc4F)c4nc(c(-c5c(F)cccc5F)c5ccc2[nH]5)C=C4)C=C3)cc1
REMARK SMILES IDX 5 1 4 2 3 3 2 4 1 5 31 6 32 7 84 8 33 9 83 10 34 11 35 12
REMARK SMILES IDX 36 13 77 14 37 15 82 16 76 17 78 18 38 19 81 20 75 21 74 22
REMARK SMILES IDX 39 24 65 25 48 26 64 27 49 28 52 29 63 30 79 31 50 32 51 33
REMARK SMILES IDX 62 35 80 36 53 37 40 38 41 39 46 40 42 41 43 42 45 43 47 44
REMARK SMILES IDX 44 45 66 46 67 47 72 48 68 49 69 50 71 51 73 52 70 53 54 54
REMARK SMILES IDX 55 55 60 56 56 57 57 58 59 59 61 60 58 61 6 62 7 63 8 64
REMARK SMILES IDX 9 65 10 66 11 67 12 68 13 69 17 70 14 71 16 72 15 73 18 74
REMARK SMILES IDX 30 75 19 76 22 77 23 78 20 80 21 81 24 82 25 83 29 84 26 85
REMARK SMILES IDX 28 86 27 87
REMARK H PARENT 78 23 52 34 30 79
REMARK Flexibility Score: inf
ROOT
ATOM      1  C   UNL A   1      32.907  35.992  31.732  1.00  0.00     0.202 C 
ENDROOT
BRANCH   1   2
ATOM      2  C   UNL A   1      33.162  36.440  30.292  1.00  0.00     0.261 C 
BRANCH   2   3
ATOM      3  O   UNL A   1      32.527  35.538  29.371  1.00  0.00    -0.460 OA
BRANCH   3   4
ATOM      4  C   UNL A   1      33.069  34.497  28.699  1.00  0.00     0.338 C 
ATOM      5  O   UNL A   1      32.442  34.021  27.753  1.00  0.00    -0.246 OA
BRANCH   4   6
ATOM      6  C   UNL A   1      34.392  33.885  29.031  1.00  0.00     0.060 A 
ATOM      7  C   UNL A   1      34.604  32.908  30.006  1.00  0.00     0.016 A 
ATOM      8  C   UNL A   1      35.482  34.252  28.222  1.00  0.00     0.016 A 
ATOM      9  C   UNL A   1      35.857  32.348  30.214  1.00  0.00     0.010 A 
ATOM     10  C   UNL A   1      36.740  33.667  28.398  1.00  0.00     0.010 A 
ATOM     11  C   UNL A   1      36.928  32.718  29.406  1.00  0.00    -0.014 A 
BRANCH  11  12
ATOM     12  C   UNL A   1      38.248  32.142  29.708  1.00  0.00     0.031 A 
ATOM     13  C   UNL A   1      39.160  32.893  30.624  1.00  0.00     0.074 A 
ATOM     14  C   UNL A   1      38.547  30.909  29.264  1.00  0.00     0.049 A 
ATOM     15  N   UNL A   1      40.367  32.592  31.017  1.00  0.00    -0.248 NA
ATOM     16  C   UNL A   1      38.631  34.145  31.191  1.00  0.00     0.031 C 
ATOM     17  C   UNL A   1      37.656  30.064  28.463  1.00  0.00     0.029 A 
ATOM     18  N   UNL A   1      39.662  30.138  29.447  1.00  0.00    -0.354 N 
ATOM     19  C   UNL A   1      40.753  33.627  31.857  1.00  0.00     0.074 A 
ATOM     20  C   UNL A   1      39.655  34.565  31.918  1.00  0.00     0.031 C 
ATOM     21  C   UNL A   1      38.254  28.882  28.245  1.00  0.00     0.029 A 
ATOM     22  C   UNL A   1      39.588  28.912  28.832  1.00  0.00     0.049 A 
ATOM     23  H   UNL A   1      40.442  30.434  29.970  1.00  0.00     0.167 HD
ATOM     24  C   UNL A   1      41.929  33.775  32.510  1.00  0.00     0.037 A 
ATOM     25  C   UNL A   1      40.516  27.943  28.735  1.00  0.00     0.037 A 
ATOM     26  C   UNL A   1      43.004  32.826  32.420  1.00  0.00     0.049 A 
ATOM     27  C   UNL A   1      41.848  28.175  29.393  1.00  0.00     0.074 A 
ATOM     28  C   UNL A   1      44.270  32.895  32.969  1.00  0.00     0.029 A 
ATOM     29  N   UNL A   1      42.928  31.624  31.727  1.00  0.00    -0.354 N 
ATOM     30  N   UNL A   1      42.239  29.191  30.129  1.00  0.00    -0.248 NA
ATOM     31  C   UNL A   1      42.875  27.146  29.194  1.00  0.00     0.031 C 
ATOM     32  C   UNL A   1      44.974  31.750  32.575  1.00  0.00     0.029 A 
ATOM     33  C   UNL A   1      44.130  30.947  31.820  1.00  0.00     0.049 A 
ATOM     34  H   UNL A   1      42.134  31.301  31.242  1.00  0.00     0.167 HD
ATOM     35  C   UNL A   1      43.549  28.917  30.493  1.00  0.00     0.074 A 
ATOM     36  C   UNL A   1      43.879  27.630  29.911  1.00  0.00     0.031 C 
ATOM     37  C   UNL A   1      44.409  29.661  31.231  1.00  0.00     0.037 A 
BRANCH  24  38
ATOM     38  C   UNL A   1      42.113  35.037  33.297  1.00  0.00     0.057 A 
ATOM     39  C   UNL A   1      42.848  36.123  32.805  1.00  0.00     0.134 A 
ATOM     40  C   UNL A   1      41.584  35.148  34.589  1.00  0.00     0.134 A 
ATOM     41  F   UNL A   1      43.408  36.069  31.587  1.00  0.00    -0.206 F 
ATOM     42  C   UNL A   1      43.073  37.263  33.580  1.00  0.00     0.040 A 
ATOM     43  C   UNL A   1      41.784  36.290  35.366  1.00  0.00     0.040 A 
ATOM     44  F   UNL A   1      40.878  34.139  35.124  1.00  0.00    -0.206 F 
ATOM     45  C   UNL A   1      42.538  37.348  34.864  1.00  0.00     0.006 A 
ENDBRANCH  24  38
BRANCH  25  46
ATOM     46  C   UNL A   1      40.238  26.708  27.956  1.00  0.00     0.057 A 
ATOM     47  C   UNL A   1      39.461  25.669  28.482  1.00  0.00     0.134 A 
ATOM     48  C   UNL A   1      40.754  26.531  26.665  1.00  0.00     0.134 A 
ATOM     49  F   UNL A   1      38.955  25.765  29.721  1.00  0.00    -0.206 F 
ATOM     50  C   UNL A   1      39.218  24.498  27.761  1.00  0.00     0.040 A 
ATOM     51  C   UNL A   1      40.496  25.378  25.922  1.00  0.00     0.040 A 
ATOM     52  F   UNL A   1      41.507  27.485  26.099  1.00  0.00    -0.206 F 
ATOM     53  C   UNL A   1      39.732  24.352  26.474  1.00  0.00     0.006 A 
ENDBRANCH  25  46
BRANCH  37  54
ATOM     54  C   UNL A   1      45.769  29.081  31.469  1.00  0.00     0.057 A 
ATOM     55  C   UNL A   1      46.004  28.153  32.489  1.00  0.00     0.134 A 
ATOM     56  C   UNL A   1      46.840  29.421  30.634  1.00  0.00     0.134 A 
ATOM     57  F   UNL A   1      45.018  27.801  33.329  1.00  0.00    -0.206 F 
ATOM     58  C   UNL A   1      47.267  27.593  32.682  1.00  0.00     0.040 A 
ATOM     59  C   UNL A   1      48.100  28.849  30.802  1.00  0.00     0.040 A 
ATOM     60  F   UNL A   1      46.673  30.299  29.633  1.00  0.00    -0.206 F 
ATOM     61  C   UNL A   1      48.317  27.935  31.831  1.00  0.00     0.006 A 
ENDBRANCH  37  54
ENDBRANCH  11  12
ENDBRANCH   4   6
ENDBRANCH   3   4
ENDBRANCH   2   3
ENDBRANCH   1   2
BRANCH   1  62
ATOM     62  O   UNL A   1      33.925  36.390  32.651  1.00  0.00    -0.374 OA
BRANCH  62  63
ATOM     63  C   UNL A   1      35.062  35.524  32.739  1.00  0.00     0.202 C 
BRANCH  63  64
ATOM     64  C   UNL A   1      35.158  34.969  34.164  1.00  0.00     0.261 C 
BRANCH  64  65
ATOM     65  O   UNL A   1      36.385  34.232  34.275  1.00  0.00    -0.460 OA
BRANCH  65  66
ATOM     66  C   UNL A   1      36.263  32.894  34.079  1.00  0.00     0.338 C 
ATOM     67  O   UNL A   1      35.390  32.310  33.458  1.00  0.00    -0.246 OA
BRANCH  66  68
ATOM     68  C   UNL A   1      37.508  32.259  34.561  1.00  0.00     0.060 A 
ATOM     69  C   UNL A   1      37.813  32.322  35.922  1.00  0.00     0.018 A 
ATOM     70  C   UNL A   1      38.325  31.531  33.695  1.00  0.00     0.022 A 
ATOM     71  C   UNL A   1      38.934  31.650  36.413  1.00  0.00     0.027 A 
ATOM     72  C   UNL A   1      39.460  30.866  34.182  1.00  0.00    -0.017 A 
ATOM     73  C   UNL A   1      39.790  30.959  35.546  1.00  0.00     0.038 A 
ATOM     74  C   UNL A   1      40.332  30.103  33.215  1.00  0.00     0.049 C 
ATOM     75  N   UNL A   1      40.940  30.355  36.052  1.00  0.00    -0.378 N 
ATOM     76  C   UNL A   1      39.635  28.936  32.568  1.00  0.00    -0.023 C 
ATOM     77  C   UNL A   1      41.548  29.415  33.859  1.00  0.00     0.031 C 
ATOM     78  C   UNL A   1      42.032  30.160  35.105  1.00  0.00     0.114 C 
ATOM     79  H   UNL A   1      41.013  30.079  36.994  1.00  0.00     0.161 HD
ATOM     80  C   UNL A   1      40.085  27.761  33.026  1.00  0.00    -0.030 C 
ATOM     81  C   UNL A   1      41.139  27.947  34.068  1.00  0.00     0.034 C 
BRANCH  78  82
ATOM     82  C   UNL A   1      43.257  29.514  35.729  1.00  0.00    -0.022 A 
ATOM     83  C   UNL A   1      43.092  28.314  36.438  1.00  0.00     0.026 A 
ATOM     84  C   UNL A   1      44.547  30.048  35.647  1.00  0.00     0.026 A 
ATOM     85  C   UNL A   1      44.197  27.709  37.014  1.00  0.00     0.111 A 
ATOM     86  C   UNL A   1      45.593  29.360  36.245  1.00  0.00     0.111 A 
ATOM     87  N   UNL A   1      45.447  28.204  36.926  1.00  0.00    -0.265 NA
ENDBRANCH  78  82
ENDBRANCH  66  68
ENDBRANCH  65  66
ENDBRANCH  64  65
ENDBRANCH  63  64
ENDBRANCH  62  63
ENDBRANCH   1  62
TORSDOF 15
ENDMDL
