MODEL 1
REMARK VINA RESULT:     -12.0      0.000      0.000
REMARK SMILES O=C(OCCOCCOC(=O)[C@H]1CC2(CC[NH+](C(=O)C3CC3)CC2)CN1C(=O)CCn1cccn1)c1ccc(-c2c3nc(c(-c4c(F)cccc4F)c4ccc([nH]4)c(-c4c(F)cccc4F)c4nc(c(-c5c(F)cccc5F)c5ccc2[nH]5)C=C4)C=C3)cc1
REMARK SMILES IDX 7 1 6 2 5 3 4 4 3 5 2 6 1 7 36 8 37 9 89 10 38 11 88 12
REMARK SMILES IDX 39 13 40 14 41 15 82 16 42 17 87 18 81 19 83 20 43 21 86 22
REMARK SMILES IDX 80 23 79 24 44 26 70 27 53 28 69 29 54 30 57 31 68 32 84 33
REMARK SMILES IDX 55 34 56 35 67 37 85 38 58 39 45 40 46 41 51 42 47 43 48 44
REMARK SMILES IDX 50 45 52 46 49 47 71 48 72 49 77 50 73 51 74 52 76 53 78 54
REMARK SMILES IDX 75 55 59 56 60 57 65 58 61 59 62 60 64 61 66 62 63 63 8 64
REMARK SMILES IDX 9 65 10 66 11 67 12 68 13 69 26 70 14 71 25 72 15 73 24 74
REMARK SMILES IDX 16 75 23 76 17 77 27 79 28 80 29 81 30 82 31 83 32 84 35 85
REMARK SMILES IDX 33 86 34 87 18 88 19 89 20 90 21 91 22 92
REMARK H PARENT 83 25 57 36 17 78
REMARK Flexibility Score: inf
ROOT
ATOM      1  C   UNL A   1      37.367  22.322  25.362  1.00  0.00     0.202 C 
ENDROOT
BRANCH   1   2
ATOM      2  O   UNL A   1      36.789  21.064  25.032  1.00  0.00    -0.374 OA
BRANCH   2   3
ATOM      3  C   UNL A   1      37.614  19.935  24.696  1.00  0.00     0.202 C 
BRANCH   3   4
ATOM      4  C   UNL A   1      38.765  19.390  25.607  1.00  0.00     0.261 C 
BRANCH   4   5
ATOM      5  O   UNL A   1      39.894  20.245  25.878  1.00  0.00    -0.460 OA
BRANCH   5   6
ATOM      6  C   UNL A   1      41.185  19.874  26.020  1.00  0.00     0.338 C 
ATOM      7  O   UNL A   1      41.570  18.774  25.631  1.00  0.00    -0.246 OA
BRANCH   6   8
ATOM      8  C   UNL A   1      42.167  20.831  26.571  1.00  0.00     0.060 A 
ATOM      9  C   UNL A   1      42.386  20.977  27.933  1.00  0.00     0.016 A 
ATOM     10  C   UNL A   1      42.505  21.868  25.721  1.00  0.00     0.016 A 
ATOM     11  C   UNL A   1      42.146  22.172  28.501  1.00  0.00     0.010 A 
ATOM     12  C   UNL A   1      42.645  23.094  26.288  1.00  0.00     0.010 A 
ATOM     13  C   UNL A   1      42.270  23.228  27.628  1.00  0.00    -0.014 A 
BRANCH  13  14
ATOM     14  C   UNL A   1      42.451  24.505  28.226  1.00  0.00     0.031 A 
ATOM     15  C   UNL A   1      41.191  25.300  27.966  1.00  0.00     0.074 A 
ATOM     16  C   UNL A   1      43.590  24.614  28.941  1.00  0.00     0.049 A 
ATOM     17  N   UNL A   1      41.095  26.435  27.358  1.00  0.00    -0.248 NA
ATOM     18  C   UNL A   1      39.855  24.627  28.057  1.00  0.00     0.031 C 
ATOM     19  C   UNL A   1      44.694  23.647  29.129  1.00  0.00     0.029 A 
ATOM     20  N   UNL A   1      43.950  25.592  29.799  1.00  0.00    -0.354 N 
ATOM     21  C   UNL A   1      39.738  26.765  27.382  1.00  0.00     0.074 A 
ATOM     22  C   UNL A   1      39.024  25.543  27.559  1.00  0.00     0.031 C 
ATOM     23  C   UNL A   1      45.371  23.939  30.267  1.00  0.00     0.029 A 
ATOM     24  C   UNL A   1      44.850  25.177  30.796  1.00  0.00     0.049 A 
ATOM     25  H   UNL A   1      43.613  26.515  29.733  1.00  0.00     0.167 HD
ATOM     26  C   UNL A   1      39.391  28.046  27.677  1.00  0.00     0.037 A 
ATOM     27  C   UNL A   1      44.998  25.845  31.973  1.00  0.00     0.037 A 
ATOM     28  C   UNL A   1      40.500  28.915  27.360  1.00  0.00     0.049 A 
ATOM     29  C   UNL A   1      44.391  27.200  31.725  1.00  0.00     0.074 A 
ATOM     30  C   UNL A   1      41.155  29.232  26.187  1.00  0.00     0.029 A 
ATOM     31  N   UNL A   1      41.397  29.128  28.381  1.00  0.00    -0.354 N 
ATOM     32  N   UNL A   1      44.863  28.010  30.805  1.00  0.00    -0.248 NA
ATOM     33  C   UNL A   1      42.953  27.301  31.986  1.00  0.00     0.031 C 
ATOM     34  C   UNL A   1      42.542  29.173  26.515  1.00  0.00     0.029 A 
ATOM     35  C   UNL A   1      42.675  29.001  27.893  1.00  0.00     0.049 A 
ATOM     36  H   UNL A   1      41.160  29.338  29.314  1.00  0.00     0.167 HD
ATOM     37  C   UNL A   1      43.745  28.395  30.068  1.00  0.00     0.074 A 
ATOM     38  C   UNL A   1      42.593  27.913  30.849  1.00  0.00     0.031 C 
ATOM     39  C   UNL A   1      43.818  28.734  28.741  1.00  0.00     0.037 A 
BRANCH  26  40
ATOM     40  C   UNL A   1      38.358  28.408  28.723  1.00  0.00     0.057 A 
ATOM     41  C   UNL A   1      37.414  29.398  28.402  1.00  0.00     0.134 A 
ATOM     42  C   UNL A   1      38.442  28.088  30.096  1.00  0.00     0.134 A 
ATOM     43  F   UNL A   1      37.233  29.785  27.131  1.00  0.00    -0.206 F 
ATOM     44  C   UNL A   1      36.690  30.091  29.380  1.00  0.00     0.040 A 
ATOM     45  C   UNL A   1      37.694  28.746  31.077  1.00  0.00     0.040 A 
ATOM     46  F   UNL A   1      39.312  27.199  30.586  1.00  0.00    -0.206 F 
ATOM     47  C   UNL A   1      36.839  29.776  30.725  1.00  0.00     0.006 A 
ENDBRANCH  26  40
BRANCH  27  48
ATOM     48  C   UNL A   1      45.142  25.247  33.328  1.00  0.00     0.057 A 
ATOM     49  C   UNL A   1      45.920  25.825  34.345  1.00  0.00     0.134 A 
ATOM     50  C   UNL A   1      44.296  24.198  33.736  1.00  0.00     0.134 A 
ATOM     51  F   UNL A   1      46.719  26.868  34.079  1.00  0.00    -0.206 F 
ATOM     52  C   UNL A   1      45.862  25.379  35.679  1.00  0.00     0.040 A 
ATOM     53  C   UNL A   1      44.226  23.748  35.059  1.00  0.00     0.040 A 
ATOM     54  F   UNL A   1      43.438  23.634  32.874  1.00  0.00    -0.206 F 
ATOM     55  C   UNL A   1      45.007  24.341  36.041  1.00  0.00     0.006 A 
ENDBRANCH  27  48
BRANCH  39  56
ATOM     56  C   UNL A   1      45.173  28.772  28.062  1.00  0.00     0.057 A 
ATOM     57  C   UNL A   1      45.716  27.771  27.231  1.00  0.00     0.134 A 
ATOM     58  C   UNL A   1      45.867  29.980  28.089  1.00  0.00     0.134 A 
ATOM     59  F   UNL A   1      45.074  26.620  27.013  1.00  0.00    -0.206 F 
ATOM     60  C   UNL A   1      46.912  27.946  26.520  1.00  0.00     0.040 A 
ATOM     61  C   UNL A   1      47.040  30.184  27.358  1.00  0.00     0.040 A 
ATOM     62  F   UNL A   1      45.370  31.019  28.777  1.00  0.00    -0.206 F 
ATOM     63  C   UNL A   1      47.578  29.161  26.583  1.00  0.00     0.006 A 
ENDBRANCH  39  56
ENDBRANCH  13  14
ENDBRANCH   6   8
ENDBRANCH   5   6
ENDBRANCH   4   5
ENDBRANCH   3   4
ENDBRANCH   2   3
ENDBRANCH   1   2
BRANCH   1  64
ATOM     64  C   UNL A   1      36.436  23.530  25.403  1.00  0.00     0.261 C 
BRANCH  64  65
ATOM     65  O   UNL A   1      35.742  23.642  26.669  1.00  0.00    -0.462 OA
BRANCH  65  66
ATOM     66  C   UNL A   1      34.401  23.008  26.758  1.00  0.00     0.328 C 
ATOM     67  O   UNL A   1      34.496  22.160  27.701  1.00  0.00    -0.250 OA
BRANCH  66  68
ATOM     68  C   UNL A   1      32.716  23.538  25.332  1.00  0.00     0.195 C 
ATOM     69  C   UNL A   1      32.555  25.043  24.433  1.00  0.00     0.046 C 
ATOM     70  N   UNL A   1      32.035  22.747  23.923  1.00  0.00    -0.328 N 
ATOM     71  C   UNL A   1      31.228  25.038  23.685  1.00  0.00     0.001 C 
ATOM     72  C   UNL A   1      31.005  23.583  23.298  1.00  0.00     0.128 C 
ATOM     73  C   UNL A   1      31.396  25.930  22.445  1.00  0.00     0.071 C 
ATOM     74  C   UNL A   1      30.074  25.618  24.535  1.00  0.00     0.071 C 
ATOM     75  C   UNL A   1      31.702  27.359  22.869  1.00  0.00     0.270 C 
ATOM     76  C   UNL A   1      30.244  27.117  24.844  1.00  0.00     0.270 C 
ATOM     77  N   UNL A   1      30.602  27.901  23.653  1.00  0.00    -0.272 N 
ATOM     78  H   UNL A   1      31.378  28.415  23.974  1.00  0.00     0.356 HD
BRANCH  70  79
ATOM     79  C   UNL A   1      32.154  21.493  23.319  1.00  0.00     0.225 C 
ATOM     80  O   UNL A   1      31.968  21.324  22.110  1.00  0.00    -0.275 OA
BRANCH  79  81
ATOM     81  C   UNL A   1      32.558  20.294  24.132  1.00  0.00     0.124 C 
BRANCH  81  82
ATOM     82  C   UNL A   1      32.451  19.099  23.251  1.00  0.00     0.154 C 
BRANCH  82  83
ATOM     83  N   UNL A   1      32.977  18.014  24.052  1.00  0.00    -0.272 N 
ATOM     84  C   UNL A   1      34.721  17.348  24.044  1.00  0.00     0.108 A 
ATOM     85  N   UNL A   1      31.991  16.962  25.216  1.00  0.00    -0.182 NA
ATOM     86  C   UNL A   1      34.791  15.962  25.106  1.00  0.00     0.042 A 
ATOM     87  C   UNL A   1      33.023  15.694  25.798  1.00  0.00     0.135 A 
ENDBRANCH  82  83
ENDBRANCH  81  82
ENDBRANCH  79  81
ENDBRANCH  70  79
BRANCH  77  88
ATOM     88  C   UNL A   1      29.928  29.102  23.432  1.00  0.00     0.315 C 
ATOM     89  O   UNL A   1      30.355  30.157  23.900  1.00  0.00    -0.231 OA
BRANCH  88  90
ATOM     90  C   UNL A   1      28.642  29.213  22.670  1.00  0.00     0.119 C 
ATOM     91  C   UNL A   1      27.246  28.816  23.056  1.00  0.00     0.019 C 
ATOM     92  C   UNL A   1      27.626  30.275  23.006  1.00  0.00     0.019 C 
ENDBRANCH  88  90
ENDBRANCH  77  88
ENDBRANCH  66  68
ENDBRANCH  65  66
ENDBRANCH  64  65
ENDBRANCH   1  64
TORSDOF 20
ENDMDL
MODEL 2
REMARK VINA RESULT:     -11.3      2.440      8.234
REMARK SMILES O=C(OCCOCCOC(=O)[C@H]1CC2(CC[NH+](C(=O)C3CC3)CC2)CN1C(=O)CCn1cccn1)c1ccc(-c2c3nc(c(-c4c(F)cccc4F)c4ccc([nH]4)c(-c4c(F)cccc4F)c4nc(c(-c5c(F)cccc5F)c5ccc2[nH]5)C=C4)C=C3)cc1
REMARK SMILES IDX 7 1 6 2 5 3 4 4 3 5 2 6 1 7 36 8 37 9 89 10 38 11 88 12
REMARK SMILES IDX 39 13 40 14 41 15 82 16 42 17 87 18 81 19 83 20 43 21 86 22
REMARK SMILES IDX 80 23 79 24 44 26 70 27 53 28 69 29 54 30 57 31 68 32 84 33
REMARK SMILES IDX 55 34 56 35 67 37 85 38 58 39 45 40 46 41 51 42 47 43 48 44
REMARK SMILES IDX 50 45 52 46 49 47 71 48 72 49 77 50 73 51 74 52 76 53 78 54
REMARK SMILES IDX 75 55 59 56 60 57 65 58 61 59 62 60 64 61 66 62 63 63 8 64
REMARK SMILES IDX 9 65 10 66 11 67 12 68 13 69 26 70 14 71 25 72 15 73 24 74
REMARK SMILES IDX 16 75 23 76 17 77 27 79 28 80 29 81 30 82 31 83 32 84 35 85
REMARK SMILES IDX 33 86 34 87 18 88 19 89 20 90 21 91 22 92
REMARK H PARENT 83 25 57 36 17 78
REMARK Flexibility Score: inf
ROOT
ATOM      1  C   UNL A   1      32.418  31.618  26.880  1.00  0.00     0.202 C 
ENDROOT
BRANCH   1   2
ATOM      2  O   UNL A   1      33.429  31.352  27.845  1.00  0.00    -0.374 OA
BRANCH   2   3
ATOM      3  C   UNL A   1      34.711  32.002  27.773  1.00  0.00     0.202 C 
BRANCH   3   4
ATOM      4  C   UNL A   1      35.919  31.659  28.708  1.00  0.00     0.261 C 
BRANCH   4   5
ATOM      5  O   UNL A   1      36.374  30.292  28.774  1.00  0.00    -0.460 OA
BRANCH   5   6
ATOM      6  C   UNL A   1      37.485  29.771  28.211  1.00  0.00     0.338 C 
ATOM      7  O   UNL A   1      37.612  29.734  26.989  1.00  0.00    -0.246 OA
BRANCH   6   8
ATOM      8  C   UNL A   1      38.600  29.317  29.068  1.00  0.00     0.060 A 
ATOM      9  C   UNL A   1      39.825  29.965  29.106  1.00  0.00     0.016 A 
ATOM     10  C   UNL A   1      38.527  27.993  29.458  1.00  0.00     0.016 A 
ATOM     11  C   UNL A   1      40.927  29.287  28.739  1.00  0.00     0.010 A 
ATOM     12  C   UNL A   1      39.695  27.299  29.465  1.00  0.00     0.010 A 
ATOM     13  C   UNL A   1      40.818  27.927  28.919  1.00  0.00    -0.014 A 
BRANCH  13  14
ATOM     14  C   UNL A   1      42.045  27.210  28.960  1.00  0.00     0.031 A 
ATOM     15  C   UNL A   1      42.664  27.468  30.315  1.00  0.00     0.074 A 
ATOM     16  C   UNL A   1      42.253  26.427  27.881  1.00  0.00     0.049 A 
ATOM     17  N   UNL A   1      43.825  27.979  30.559  1.00  0.00    -0.248 NA
ATOM     18  C   UNL A   1      41.795  27.510  31.535  1.00  0.00     0.031 C 
ATOM     19  C   UNL A   1      41.448  26.265  26.651  1.00  0.00     0.029 A 
ATOM     20  N   UNL A   1      43.189  25.468  27.710  1.00  0.00    -0.354 N 
ATOM     21  C   UNL A   1      43.946  28.001  31.950  1.00  0.00     0.074 A 
ATOM     22  C   UNL A   1      42.620  27.971  32.475  1.00  0.00     0.031 C 
ATOM     23  C   UNL A   1      41.728  25.070  26.074  1.00  0.00     0.029 A 
ATOM     24  C   UNL A   1      42.819  24.464  26.799  1.00  0.00     0.049 A 
ATOM     25  H   UNL A   1      44.053  25.472  28.182  1.00  0.00     0.167 HD
ATOM     26  C   UNL A   1      45.128  27.614  32.500  1.00  0.00     0.037 A 
ATOM     27  C   UNL A   1      43.387  23.226  26.804  1.00  0.00     0.037 A 
ATOM     28  C   UNL A   1      46.178  27.792  31.525  1.00  0.00     0.049 A 
ATOM     29  C   UNL A   1      44.654  23.388  27.600  1.00  0.00     0.074 A 
ATOM     30  C   UNL A   1      46.698  28.896  30.880  1.00  0.00     0.029 A 
ATOM     31  N   UNL A   1      46.423  26.709  30.714  1.00  0.00    -0.354 N 
ATOM     32  N   UNL A   1      45.609  24.206  27.220  1.00  0.00    -0.248 NA
ATOM     33  C   UNL A   1      44.515  23.199  29.046  1.00  0.00     0.031 C 
ATOM     34  C   UNL A   1      46.815  28.499  29.514  1.00  0.00     0.029 A 
ATOM     35  C   UNL A   1      46.535  27.136  29.413  1.00  0.00     0.049 A 
ATOM     36  H   UNL A   1      46.506  25.776  31.018  1.00  0.00     0.167 HD
ATOM     37  C   UNL A   1      45.891  24.967  28.353  1.00  0.00     0.074 A 
ATOM     38  C   UNL A   1      45.172  24.295  29.449  1.00  0.00     0.031 C 
ATOM     39  C   UNL A   1      46.362  26.253  28.278  1.00  0.00     0.037 A 
BRANCH  26  40
ATOM     40  C   UNL A   1      45.231  26.599  33.619  1.00  0.00     0.057 A 
ATOM     41  C   UNL A   1      44.589  25.360  33.445  1.00  0.00     0.134 A 
ATOM     42  C   UNL A   1      45.627  26.883  34.944  1.00  0.00     0.134 A 
ATOM     43  F   UNL A   1      44.172  24.969  32.232  1.00  0.00    -0.206 F 
ATOM     44  C   UNL A   1      44.272  24.522  34.520  1.00  0.00     0.040 A 
ATOM     45  C   UNL A   1      45.351  26.033  36.019  1.00  0.00     0.040 A 
ATOM     46  F   UNL A   1      46.213  28.030  35.300  1.00  0.00    -0.206 F 
ATOM     47  C   UNL A   1      44.640  24.864  35.815  1.00  0.00     0.006 A 
ENDBRANCH  26  40
BRANCH  27  48
ATOM     48  C   UNL A   1      42.691  21.923  26.625  1.00  0.00     0.057 A 
ATOM     49  C   UNL A   1      43.144  20.924  25.748  1.00  0.00     0.134 A 
ATOM     50  C   UNL A   1      41.680  21.528  27.522  1.00  0.00     0.134 A 
ATOM     51  F   UNL A   1      44.143  21.174  24.890  1.00  0.00    -0.206 F 
ATOM     52  C   UNL A   1      42.615  19.619  25.760  1.00  0.00     0.040 A 
ATOM     53  C   UNL A   1      41.148  20.234  27.547  1.00  0.00     0.040 A 
ATOM     54  F   UNL A   1      41.237  22.367  28.468  1.00  0.00    -0.206 F 
ATOM     55  C   UNL A   1      41.618  19.269  26.668  1.00  0.00     0.006 A 
ENDBRANCH  27  48
BRANCH  39  56
ATOM     56  C   UNL A   1      46.665  26.851  26.918  1.00  0.00     0.057 A 
ATOM     57  C   UNL A   1      47.718  26.476  26.060  1.00  0.00     0.134 A 
ATOM     58  C   UNL A   1      45.709  27.704  26.369  1.00  0.00     0.134 A 
ATOM     59  F   UNL A   1      48.621  25.558  26.421  1.00  0.00    -0.206 F 
ATOM     60  C   UNL A   1      47.843  26.971  24.754  1.00  0.00     0.040 A 
ATOM     61  C   UNL A   1      45.798  28.178  25.058  1.00  0.00     0.040 A 
ATOM     62  F   UNL A   1      44.622  28.035  27.082  1.00  0.00    -0.206 F 
ATOM     63  C   UNL A   1      46.876  27.828  24.249  1.00  0.00     0.006 A 
ENDBRANCH  39  56
ENDBRANCH  13  14
ENDBRANCH   6   8
ENDBRANCH   5   6
ENDBRANCH   4   5
ENDBRANCH   3   4
ENDBRANCH   2   3
ENDBRANCH   1   2
BRANCH   1  64
ATOM     64  C   UNL A   1      31.818  30.421  26.148  1.00  0.00     0.261 C 
BRANCH  64  65
ATOM     65  O   UNL A   1      32.197  29.163  26.755  1.00  0.00    -0.462 OA
BRANCH  65  66
ATOM     66  C   UNL A   1      33.102  28.284  25.970  1.00  0.00     0.328 C 
ATOM     67  O   UNL A   1      34.244  28.840  26.033  1.00  0.00    -0.250 OA
BRANCH  66  68
ATOM     68  C   UNL A   1      32.352  26.435  24.886  1.00  0.00     0.195 C 
ATOM     69  C   UNL A   1      32.428  24.782  25.487  1.00  0.00     0.046 C 
ATOM     70  N   UNL A   1      30.811  25.995  24.177  1.00  0.00    -0.328 N 
ATOM     71  C   UNL A   1      31.924  23.835  24.404  1.00  0.00     0.001 C 
ATOM     72  C   UNL A   1      30.835  24.616  23.681  1.00  0.00     0.128 C 
ATOM     73  C   UNL A   1      31.352  22.595  25.109  1.00  0.00     0.071 C 
ATOM     74  C   UNL A   1      33.056  23.366  23.462  1.00  0.00     0.071 C 
ATOM     75  C   UNL A   1      32.449  21.889  25.892  1.00  0.00     0.270 C 
ATOM     76  C   UNL A   1      34.107  22.491  24.168  1.00  0.00     0.270 C 
ATOM     77  N   UNL A   1      33.500  21.435  24.993  1.00  0.00    -0.272 N 
ATOM     78  H   UNL A   1      33.974  21.550  25.849  1.00  0.00     0.356 HD
BRANCH  70  79
ATOM     79  C   UNL A   1      29.618  26.657  23.877  1.00  0.00     0.225 C 
ATOM     80  O   UNL A   1      28.517  26.229  24.242  1.00  0.00    -0.275 OA
BRANCH  79  81
ATOM     81  C   UNL A   1      29.639  27.955  23.119  1.00  0.00     0.124 C 
BRANCH  81  82
ATOM     82  C   UNL A   1      28.240  28.458  23.053  1.00  0.00     0.154 C 
BRANCH  82  83
ATOM     83  N   UNL A   1      28.373  29.835  22.624  1.00  0.00    -0.272 N 
ATOM     84  C   UNL A   1      28.724  31.322  23.695  1.00  0.00     0.108 A 
ATOM     85  N   UNL A   1      28.123  30.450  20.893  1.00  0.00    -0.182 NA
ATOM     86  C   UNL A   1      28.661  32.754  22.696  1.00  0.00     0.042 A 
ATOM     87  C   UNL A   1      28.215  32.182  20.921  1.00  0.00     0.135 A 
ENDBRANCH  82  83
ENDBRANCH  81  82
ENDBRANCH  79  81
ENDBRANCH  70  79
BRANCH  77  88
ATOM     88  C   UNL A   1      34.027  20.147  24.902  1.00  0.00     0.315 C 
ATOM     89  O   UNL A   1      35.238  19.956  24.997  1.00  0.00    -0.231 OA
BRANCH  88  90
ATOM     90  C   UNL A   1      33.203  18.923  24.642  1.00  0.00     0.119 C 
ATOM     91  C   UNL A   1      32.203  18.634  23.559  1.00  0.00     0.019 C 
ATOM     92  C   UNL A   1      33.556  17.967  23.530  1.00  0.00     0.019 C 
ENDBRANCH  88  90
ENDBRANCH  77  88
ENDBRANCH  66  68
ENDBRANCH  65  66
ENDBRANCH  64  65
ENDBRANCH   1  64
TORSDOF 20
ENDMDL
MODEL 3
REMARK VINA RESULT:     -11.3      2.059      6.237
REMARK SMILES O=C(OCCOCCOC(=O)[C@H]1CC2(CC[NH+](C(=O)C3CC3)CC2)CN1C(=O)CCn1cccn1)c1ccc(-c2c3nc(c(-c4c(F)cccc4F)c4ccc([nH]4)c(-c4c(F)cccc4F)c4nc(c(-c5c(F)cccc5F)c5ccc2[nH]5)C=C4)C=C3)cc1
REMARK SMILES IDX 7 1 6 2 5 3 4 4 3 5 2 6 1 7 36 8 37 9 89 10 38 11 88 12
REMARK SMILES IDX 39 13 40 14 41 15 82 16 42 17 87 18 81 19 83 20 43 21 86 22
REMARK SMILES IDX 80 23 79 24 44 26 70 27 53 28 69 29 54 30 57 31 68 32 84 33
REMARK SMILES IDX 55 34 56 35 67 37 85 38 58 39 45 40 46 41 51 42 47 43 48 44
REMARK SMILES IDX 50 45 52 46 49 47 71 48 72 49 77 50 73 51 74 52 76 53 78 54
REMARK SMILES IDX 75 55 59 56 60 57 65 58 61 59 62 60 64 61 66 62 63 63 8 64
REMARK SMILES IDX 9 65 10 66 11 67 12 68 13 69 26 70 14 71 25 72 15 73 24 74
REMARK SMILES IDX 16 75 23 76 17 77 27 79 28 80 29 81 30 82 31 83 32 84 35 85
REMARK SMILES IDX 33 86 34 87 18 88 19 89 20 90 21 91 22 92
REMARK H PARENT 83 25 57 36 17 78
REMARK Flexibility Score: inf
ROOT
ATOM      1  C   UNL A   1      39.666  22.349  26.470  1.00  0.00     0.202 C 
ENDROOT
BRANCH   1   2
ATOM      2  O   UNL A   1      40.120  21.232  27.228  1.00  0.00    -0.374 OA
BRANCH   2   3
ATOM      3  C   UNL A   1      41.524  20.967  27.387  1.00  0.00     0.202 C 
BRANCH   3   4
ATOM      4  C   UNL A   1      42.332  19.966  26.494  1.00  0.00     0.261 C 
BRANCH   4   5
ATOM      5  O   UNL A   1      42.669  20.358  25.148  1.00  0.00    -0.460 OA
BRANCH   5   6
ATOM      6  C   UNL A   1      43.898  20.629  24.658  1.00  0.00     0.338 C 
ATOM      7  O   UNL A   1      44.474  19.827  23.927  1.00  0.00    -0.246 OA
BRANCH   6   8
ATOM      8  C   UNL A   1      44.526  21.938  24.932  1.00  0.00     0.060 A 
ATOM      9  C   UNL A   1      45.645  22.076  25.740  1.00  0.00     0.016 A 
ATOM     10  C   UNL A   1      43.699  23.029  24.738  1.00  0.00     0.016 A 
ATOM     11  C   UNL A   1      45.549  22.821  26.855  1.00  0.00     0.010 A 
ATOM     12  C   UNL A   1      43.795  24.031  25.650  1.00  0.00     0.010 A 
ATOM     13  C   UNL A   1      44.582  23.797  26.780  1.00  0.00    -0.014 A 
BRANCH  13  14
ATOM     14  C   UNL A   1      44.708  24.862  27.714  1.00  0.00     0.031 A 
ATOM     15  C   UNL A   1      46.093  25.443  27.541  1.00  0.00     0.074 A 
ATOM     16  C   UNL A   1      43.567  25.138  28.380  1.00  0.00     0.049 A 
ATOM     17  N   UNL A   1      47.013  25.549  28.441  1.00  0.00    -0.248 NA
ATOM     18  C   UNL A   1      46.669  25.598  26.166  1.00  0.00     0.031 C 
ATOM     19  C   UNL A   1      42.252  24.461  28.340  1.00  0.00     0.029 A 
ATOM     20  N   UNL A   1      43.288  26.208  29.155  1.00  0.00    -0.354 N 
ATOM     21  C   UNL A   1      48.098  26.157  27.805  1.00  0.00     0.074 A 
ATOM     22  C   UNL A   1      47.942  25.913  26.409  1.00  0.00     0.031 C 
ATOM     23  C   UNL A   1      41.284  25.315  28.756  1.00  0.00     0.029 A 
ATOM     24  C   UNL A   1      41.920  26.524  29.223  1.00  0.00     0.049 A 
ATOM     25  H   UNL A   1      43.980  26.721  29.631  1.00  0.00     0.167 HD
ATOM     26  C   UNL A   1      48.761  27.144  28.465  1.00  0.00     0.037 A 
ATOM     27  C   UNL A   1      41.471  27.763  29.568  1.00  0.00     0.037 A 
ATOM     28  C   UNL A   1      48.558  26.977  29.885  1.00  0.00     0.049 A 
ATOM     29  C   UNL A   1      42.649  28.429  30.226  1.00  0.00     0.074 A 
ATOM     30  C   UNL A   1      48.893  25.982  30.781  1.00  0.00     0.029 A 
ATOM     31  N   UNL A   1      47.464  27.627  30.408  1.00  0.00    -0.354 N 
ATOM     32  N   UNL A   1      43.197  27.943  31.317  1.00  0.00    -0.248 NA
ATOM     33  C   UNL A   1      43.556  29.140  29.320  1.00  0.00     0.031 C 
ATOM     34  C   UNL A   1      47.716  25.784  31.564  1.00  0.00     0.029 A 
ATOM     35  C   UNL A   1      46.784  26.770  31.238  1.00  0.00     0.049 A 
ATOM     36  H   UNL A   1      47.210  28.559  30.217  1.00  0.00     0.167 HD
ATOM     37  C   UNL A   1      44.560  27.889  31.032  1.00  0.00     0.074 A 
ATOM     38  C   UNL A   1      44.714  28.640  29.774  1.00  0.00     0.031 C 
ATOM     39  C   UNL A   1      45.396  26.964  31.603  1.00  0.00     0.037 A 
BRANCH  26  40
ATOM     40  C   UNL A   1      49.069  28.493  27.849  1.00  0.00     0.057 A 
ATOM     41  C   UNL A   1      50.372  29.000  27.993  1.00  0.00     0.134 A 
ATOM     42  C   UNL A   1      48.106  29.437  27.430  1.00  0.00     0.134 A 
ATOM     43  F   UNL A   1      51.379  28.202  28.378  1.00  0.00    -0.206 F 
ATOM     44  C   UNL A   1      50.671  30.359  27.835  1.00  0.00     0.040 A 
ATOM     45  C   UNL A   1      48.403  30.788  27.230  1.00  0.00     0.040 A 
ATOM     46  F   UNL A   1      46.812  29.141  27.280  1.00  0.00    -0.206 F 
ATOM     47  C   UNL A   1      49.682  31.262  27.467  1.00  0.00     0.006 A 
ENDBRANCH  26  40
BRANCH  27  48
ATOM     48  C   UNL A   1      40.350  28.513  28.940  1.00  0.00     0.057 A 
ATOM     49  C   UNL A   1      40.237  28.708  27.554  1.00  0.00     0.134 A 
ATOM     50  C   UNL A   1      39.208  28.847  29.693  1.00  0.00     0.134 A 
ATOM     51  F   UNL A   1      41.243  28.370  26.735  1.00  0.00    -0.206 F 
ATOM     52  C   UNL A   1      39.063  29.212  26.961  1.00  0.00     0.040 A 
ATOM     53  C   UNL A   1      38.034  29.345  29.117  1.00  0.00     0.040 A 
ATOM     54  F   UNL A   1      39.164  28.614  31.013  1.00  0.00    -0.206 F 
ATOM     55  C   UNL A   1      37.954  29.525  27.743  1.00  0.00     0.006 A 
ENDBRANCH  27  48
BRANCH  39  56
ATOM     56  C   UNL A   1      44.842  26.011  32.644  1.00  0.00     0.057 A 
ATOM     57  C   UNL A   1      44.463  24.671  32.427  1.00  0.00     0.134 A 
ATOM     58  C   UNL A   1      44.896  26.419  33.975  1.00  0.00     0.134 A 
ATOM     59  F   UNL A   1      44.504  24.121  31.210  1.00  0.00    -0.206 F 
ATOM     60  C   UNL A   1      44.101  23.809  33.473  1.00  0.00     0.040 A 
ATOM     61  C   UNL A   1      44.574  25.563  35.031  1.00  0.00     0.040 A 
ATOM     62  F   UNL A   1      45.340  27.648  34.279  1.00  0.00    -0.206 F 
ATOM     63  C   UNL A   1      44.157  24.258  34.784  1.00  0.00     0.006 A 
ENDBRANCH  39  56
ENDBRANCH  13  14
ENDBRANCH   6   8
ENDBRANCH   5   6
ENDBRANCH   4   5
ENDBRANCH   3   4
ENDBRANCH   2   3
ENDBRANCH   1   2
BRANCH   1  64
ATOM     64  C   UNL A   1      38.305  22.226  25.792  1.00  0.00     0.261 C 
BRANCH  64  65
ATOM     65  O   UNL A   1      37.601  23.491  25.748  1.00  0.00    -0.462 OA
BRANCH  65  66
ATOM     66  C   UNL A   1      36.513  23.619  24.745  1.00  0.00     0.328 C 
ATOM     67  O   UNL A   1      37.039  23.281  23.638  1.00  0.00    -0.250 OA
BRANCH  66  68
ATOM     68  C   UNL A   1      34.444  24.376  25.293  1.00  0.00     0.195 C 
ATOM     69  C   UNL A   1      33.243  25.011  24.173  1.00  0.00     0.046 C 
ATOM     70  N   UNL A   1      33.098  23.678  26.173  1.00  0.00    -0.328 N 
ATOM     71  C   UNL A   1      32.041  25.514  24.962  1.00  0.00     0.001 C 
ATOM     72  C   UNL A   1      31.936  24.571  26.153  1.00  0.00     0.128 C 
ATOM     73  C   UNL A   1      30.812  25.402  24.048  1.00  0.00     0.071 C 
ATOM     74  C   UNL A   1      32.190  26.995  25.378  1.00  0.00     0.071 C 
ATOM     75  C   UNL A   1      30.989  26.292  22.825  1.00  0.00     0.270 C 
ATOM     76  C   UNL A   1      32.196  27.963  24.181  1.00  0.00     0.270 C 
ATOM     77  N   UNL A   1      31.111  27.685  23.227  1.00  0.00    -0.272 N 
ATOM     78  H   UNL A   1      31.596  27.657  22.371  1.00  0.00     0.356 HD
BRANCH  70  79
ATOM     79  C   UNL A   1      32.895  22.545  26.966  1.00  0.00     0.225 C 
ATOM     80  O   UNL A   1      32.481  22.619  28.127  1.00  0.00    -0.275 OA
BRANCH  79  81
ATOM     81  C   UNL A   1      33.143  21.172  26.405  1.00  0.00     0.124 C 
BRANCH  81  82
ATOM     82  C   UNL A   1      32.701  21.181  24.984  1.00  0.00     0.154 C 
BRANCH  82  83
ATOM     83  N   UNL A   1      33.177  19.922  24.451  1.00  0.00    -0.272 N 
ATOM     84  C   UNL A   1      32.259  18.755  23.321  1.00  0.00     0.108 A 
ATOM     85  N   UNL A   1      34.802  19.130  24.859  1.00  0.00    -0.182 NA
ATOM     86  C   UNL A   1      33.240  17.330  23.079  1.00  0.00     0.042 A 
ATOM     87  C   UNL A   1      34.834  17.561  24.119  1.00  0.00     0.135 A 
ENDBRANCH  82  83
ENDBRANCH  81  82
ENDBRANCH  79  81
ENDBRANCH  70  79
BRANCH  77  88
ATOM     88  C   UNL A   1      30.369  28.764  22.745  1.00  0.00     0.315 C 
ATOM     89  O   UNL A   1      30.623  29.260  21.649  1.00  0.00    -0.231 OA
BRANCH  88  90
ATOM     90  C   UNL A   1      29.263  29.426  23.509  1.00  0.00     0.119 C 
ATOM     91  C   UNL A   1      28.752  30.838  23.454  1.00  0.00     0.019 C 
ATOM     92  C   UNL A   1      27.934  29.719  22.859  1.00  0.00     0.019 C 
ENDBRANCH  88  90
ENDBRANCH  77  88
ENDBRANCH  66  68
ENDBRANCH  65  66
ENDBRANCH  64  65
ENDBRANCH   1  64
TORSDOF 20
ENDMDL
