MODEL 1
REMARK VINA RESULT:     -11.0      0.000      0.000
REMARK SMILES CCCc1cc(OCC(=O)OCCOCCOC(=O)c2ccc(-c3c4nc(c(-c5c(F)cccc5F)c5ccc([nH]5)c(-c5c(F)cccc5F)c5nc(c(-c6c(F)cccc6F)c6ccc3[nH]6)C=C5)C=C4)cc2)nc(Nc2ccc(C#N)cc2)n1
REMARK SMILES IDX 12 1 11 2 9 3 10 4 8 5 7 6 6 7 4 8 5 9 85 10 75 11 74 12
REMARK SMILES IDX 3 13 2 14 1 15 76 16 77 18 78 19 84 20 79 21 83 22 80 23
REMARK SMILES IDX 81 24 82 25 13 26 14 27 15 28 16 29 17 30 18 31 19 32 20 33
REMARK SMILES IDX 21 34 73 35 22 36 72 37 23 38 24 39 25 40 66 41 26 42 71 43
REMARK SMILES IDX 65 44 67 45 27 46 70 47 64 48 63 49 28 51 54 52 37 53 53 54
REMARK SMILES IDX 38 55 41 56 52 57 68 58 39 59 40 60 51 62 69 63 42 64 29 65
REMARK SMILES IDX 30 66 35 67 31 68 32 69 34 70 36 71 33 72 55 73 56 74 61 75
REMARK SMILES IDX 57 76 58 77 60 78 62 79 59 80 43 81 44 82 49 83 45 84 46 85
REMARK SMILES IDX 48 86 50 87 47 88
REMARK H PARENT 76 17 67 50 41 61
REMARK Flexibility Score: inf
ROOT
ATOM      1  C   UNL A   1      40.576  21.099  27.043  1.00  0.00     0.261 C 
ENDROOT
BRANCH   1   2
ATOM      2  O   UNL A   1      40.008  21.706  25.858  1.00  0.00    -0.461 OA
BRANCH   2   3
ATOM      3  C   UNL A   1      38.877  22.440  26.061  1.00  0.00     0.344 C 
ATOM      4  O   UNL A   1      38.797  23.388  26.837  1.00  0.00    -0.248 OA
BRANCH   3   5
ATOM      5  C   UNL A   1      37.663  21.984  25.235  1.00  0.00     0.353 C 
BRANCH   5   6
ATOM      6  O   UNL A   1      36.743  22.886  24.661  1.00  0.00    -0.466 OA
BRANCH   6   7
ATOM      7  C   UNL A   1      35.422  22.890  25.005  1.00  0.00     0.218 A 
ATOM      8  C   UNL A   1      33.390  23.892  25.639  1.00  0.00     0.050 A 
ATOM      9  C   UNL A   1      34.775  23.872  25.734  1.00  0.00     0.092 A 
ATOM     10  N   UNL A   1      32.726  22.921  24.994  1.00  0.00    -0.218 NA
ATOM     11  C   UNL A   1      33.418  21.944  24.390  1.00  0.00     0.230 A 
ATOM     12  N   UNL A   1      34.753  21.899  24.380  1.00  0.00    -0.177 NA
BRANCH   8  13
ATOM     13  C   UNL A   1      32.553  25.041  26.163  1.00  0.00     0.056 C 
BRANCH  13  14
ATOM     14  C   UNL A   1      31.014  24.877  26.125  1.00  0.00     0.003 C 
ATOM     15  C   UNL A   1      30.220  26.064  25.605  1.00  0.00     0.004 C 
ENDBRANCH  13  14
ENDBRANCH   8  13
BRANCH  11  16
ATOM     16  N   UNL A   1      32.723  20.954  23.697  1.00  0.00    -0.324 N 
ATOM     17  H   UNL A   1      32.232  21.231  22.890  1.00  0.00     0.170 HD
BRANCH  16  18
ATOM     18  C   UNL A   1      32.661  19.603  24.044  1.00  0.00     0.041 A 
ATOM     19  C   UNL A   1      32.678  18.613  23.059  1.00  0.00     0.027 A 
ATOM     20  C   UNL A   1      32.652  19.213  25.390  1.00  0.00     0.027 A 
ATOM     21  C   UNL A   1      32.797  17.263  23.411  1.00  0.00     0.021 A 
ATOM     22  C   UNL A   1      32.758  17.867  25.750  1.00  0.00     0.021 A 
ATOM     23  C   UNL A   1      32.866  16.889  24.758  1.00  0.00     0.052 A 
BRANCH  23  24
ATOM     24  C   UNL A   1      33.087  15.521  25.118  1.00  0.00     0.099 C 
ATOM     25  N   UNL A   1      33.280  14.408  25.396  1.00  0.00    -0.192 NA
ENDBRANCH  23  24
ENDBRANCH  16  18
ENDBRANCH  11  16
ENDBRANCH   6   7
ENDBRANCH   5   6
ENDBRANCH   3   5
ENDBRANCH   2   3
ENDBRANCH   1   2
BRANCH   1  26
ATOM     26  C   UNL A   1      41.808  20.214  26.795  1.00  0.00     0.202 C 
BRANCH  26  27
ATOM     27  O   UNL A   1      42.501  20.319  25.558  1.00  0.00    -0.374 OA
BRANCH  27  28
ATOM     28  C   UNL A   1      43.837  20.788  25.582  1.00  0.00     0.202 C 
BRANCH  28  29
ATOM     29  C   UNL A   1      44.197  22.090  24.861  1.00  0.00     0.261 C 
BRANCH  29  30
ATOM     30  O   UNL A   1      43.378  23.201  25.134  1.00  0.00    -0.460 OA
BRANCH  30  31
ATOM     31  C   UNL A   1      44.078  24.348  25.186  1.00  0.00     0.338 C 
ATOM     32  O   UNL A   1      45.049  24.698  24.543  1.00  0.00    -0.246 OA
BRANCH  31  33
ATOM     33  C   UNL A   1      43.361  25.190  26.122  1.00  0.00     0.060 A 
ATOM     34  C   UNL A   1      43.811  26.499  26.266  1.00  0.00     0.016 A 
ATOM     35  C   UNL A   1      42.269  24.675  26.825  1.00  0.00     0.016 A 
ATOM     36  C   UNL A   1      43.196  27.304  27.200  1.00  0.00     0.010 A 
ATOM     37  C   UNL A   1      41.647  25.489  27.754  1.00  0.00     0.010 A 
ATOM     38  C   UNL A   1      42.146  26.784  27.970  1.00  0.00    -0.014 A 
BRANCH  38  39
ATOM     39  C   UNL A   1      41.671  27.571  29.112  1.00  0.00     0.031 A 
ATOM     40  C   UNL A   1      42.414  27.465  30.407  1.00  0.00     0.074 A 
ATOM     41  C   UNL A   1      40.632  28.401  28.939  1.00  0.00     0.049 A 
ATOM     42  N   UNL A   1      42.184  28.078  31.537  1.00  0.00    -0.248 NA
ATOM     43  C   UNL A   1      43.568  26.547  30.443  1.00  0.00     0.031 C 
ATOM     44  C   UNL A   1      39.887  28.572  27.689  1.00  0.00     0.029 A 
ATOM     45  N   UNL A   1      40.030  29.259  29.813  1.00  0.00    -0.354 N 
ATOM     46  C   UNL A   1      43.148  27.607  32.417  1.00  0.00     0.074 A 
ATOM     47  C   UNL A   1      43.951  26.640  31.707  1.00  0.00     0.031 C 
ATOM     48  C   UNL A   1      38.929  29.492  27.878  1.00  0.00     0.029 A 
ATOM     49  C   UNL A   1      38.967  29.931  29.269  1.00  0.00     0.049 A 
ATOM     50  H   UNL A   1      40.331  29.383  30.742  1.00  0.00     0.167 HD
ATOM     51  C   UNL A   1      43.335  27.966  33.706  1.00  0.00     0.037 A 
ATOM     52  C   UNL A   1      38.109  30.785  29.852  1.00  0.00     0.037 A 
ATOM     53  C   UNL A   1      42.525  28.945  34.378  1.00  0.00     0.049 A 
ATOM     54  C   UNL A   1      38.316  31.116  31.306  1.00  0.00     0.074 A 
ATOM     55  C   UNL A   1      42.650  29.423  35.670  1.00  0.00     0.029 A 
ATOM     56  N   UNL A   1      41.432  29.586  33.812  1.00  0.00    -0.354 N 
ATOM     57  N   UNL A   1      39.261  30.710  32.123  1.00  0.00    -0.248 NA
ATOM     58  C   UNL A   1      37.343  32.026  31.919  1.00  0.00     0.031 C 
ATOM     59  C   UNL A   1      41.584  30.293  35.911  1.00  0.00     0.029 A 
ATOM     60  C   UNL A   1      40.846  30.423  34.744  1.00  0.00     0.049 A 
ATOM     61  H   UNL A   1      41.122  29.464  32.887  1.00  0.00     0.167 HD
ATOM     62  C   UNL A   1      39.016  31.344  33.333  1.00  0.00     0.074 A 
ATOM     63  C   UNL A   1      37.849  32.178  33.134  1.00  0.00     0.031 C 
ATOM     64  C   UNL A   1      39.690  31.251  34.506  1.00  0.00     0.037 A 
BRANCH  51  65
ATOM     65  C   UNL A   1      44.418  27.279  34.483  1.00  0.00     0.057 A 
ATOM     66  C   UNL A   1      45.705  27.814  34.611  1.00  0.00     0.134 A 
ATOM     67  C   UNL A   1      44.140  26.092  35.173  1.00  0.00     0.134 A 
ATOM     68  F   UNL A   1      46.045  28.937  33.960  1.00  0.00    -0.206 F 
ATOM     69  C   UNL A   1      46.678  27.190  35.396  1.00  0.00     0.040 A 
ATOM     70  C   UNL A   1      45.093  25.476  35.984  1.00  0.00     0.040 A 
ATOM     71  F   UNL A   1      42.927  25.524  35.089  1.00  0.00    -0.206 F 
ATOM     72  C   UNL A   1      46.368  26.026  36.096  1.00  0.00     0.006 A 
ENDBRANCH  51  65
BRANCH  52  73
ATOM     73  C   UNL A   1      36.974  31.359  29.088  1.00  0.00     0.057 A 
ATOM     74  C   UNL A   1      36.990  32.687  28.648  1.00  0.00     0.134 A 
ATOM     75  C   UNL A   1      35.822  30.608  28.823  1.00  0.00     0.134 A 
ATOM     76  F   UNL A   1      38.061  33.460  28.876  1.00  0.00    -0.206 F 
ATOM     77  C   UNL A   1      35.885  33.262  28.019  1.00  0.00     0.040 A 
ATOM     78  C   UNL A   1      34.724  31.158  28.162  1.00  0.00     0.040 A 
ATOM     79  F   UNL A   1      35.746  29.323  29.202  1.00  0.00    -0.206 F 
ATOM     80  C   UNL A   1      34.747  32.496  27.775  1.00  0.00     0.006 A 
ENDBRANCH  52  73
BRANCH  64  81
ATOM     81  C   UNL A   1      39.211  32.112  35.638  1.00  0.00     0.057 A 
ATOM     82  C   UNL A   1      39.586  33.455  35.764  1.00  0.00     0.134 A 
ATOM     83  C   UNL A   1      38.331  31.592  36.596  1.00  0.00     0.134 A 
ATOM     84  F   UNL A   1      40.435  34.010  34.885  1.00  0.00    -0.206 F 
ATOM     85  C   UNL A   1      39.133  34.240  36.825  1.00  0.00     0.040 A 
ATOM     86  C   UNL A   1      37.840  32.378  37.638  1.00  0.00     0.040 A 
ATOM     87  F   UNL A   1      37.919  30.317  36.525  1.00  0.00    -0.206 F 
ATOM     88  C   UNL A   1      38.250  33.703  37.760  1.00  0.00     0.006 A 
ENDBRANCH  64  81
ENDBRANCH  38  39
ENDBRANCH  31  33
ENDBRANCH  30  31
ENDBRANCH  29  30
ENDBRANCH  28  29
ENDBRANCH  27  28
ENDBRANCH  26  27
ENDBRANCH   1  26
TORSDOF 21
ENDMDL
MODEL 2
REMARK VINA RESULT:     -10.8      1.053      3.430
REMARK SMILES CCCc1cc(OCC(=O)OCCOCCOC(=O)c2ccc(-c3c4nc(c(-c5c(F)cccc5F)c5ccc([nH]5)c(-c5c(F)cccc5F)c5nc(c(-c6c(F)cccc6F)c6ccc3[nH]6)C=C5)C=C4)cc2)nc(Nc2ccc(C#N)cc2)n1
REMARK SMILES IDX 12 1 11 2 9 3 10 4 8 5 7 6 6 7 4 8 5 9 85 10 75 11 74 12
REMARK SMILES IDX 3 13 2 14 1 15 76 16 77 18 78 19 84 20 79 21 83 22 80 23
REMARK SMILES IDX 81 24 82 25 13 26 14 27 15 28 16 29 17 30 18 31 19 32 20 33
REMARK SMILES IDX 21 34 73 35 22 36 72 37 23 38 24 39 25 40 66 41 26 42 71 43
REMARK SMILES IDX 65 44 67 45 27 46 70 47 64 48 63 49 28 51 54 52 37 53 53 54
REMARK SMILES IDX 38 55 41 56 52 57 68 58 39 59 40 60 51 62 69 63 42 64 29 65
REMARK SMILES IDX 30 66 35 67 31 68 32 69 34 70 36 71 33 72 55 73 56 74 61 75
REMARK SMILES IDX 57 76 58 77 60 78 62 79 59 80 43 81 44 82 49 83 45 84 46 85
REMARK SMILES IDX 48 86 50 87 47 88
REMARK H PARENT 76 17 67 50 41 61
REMARK Flexibility Score: inf
ROOT
ATOM      1  C   UNL A   1      39.882  21.867  26.533  1.00  0.00     0.261 C 
ENDROOT
BRANCH   1   2
ATOM      2  O   UNL A   1      38.706  21.719  25.702  1.00  0.00    -0.461 OA
BRANCH   2   3
ATOM      3  C   UNL A   1      37.753  22.681  25.858  1.00  0.00     0.344 C 
ATOM      4  O   UNL A   1      37.994  23.857  26.118  1.00  0.00    -0.248 OA
BRANCH   3   5
ATOM      5  C   UNL A   1      36.308  22.182  25.694  1.00  0.00     0.353 C 
BRANCH   5   6
ATOM      6  O   UNL A   1      35.991  20.853  25.348  1.00  0.00    -0.466 OA
BRANCH   6   7
ATOM      7  C   UNL A   1      34.715  20.467  25.052  1.00  0.00     0.218 A 
ATOM      8  C   UNL A   1      32.978  18.910  24.746  1.00  0.00     0.050 A 
ATOM      9  C   UNL A   1      34.326  19.215  24.611  1.00  0.00     0.092 A 
ATOM     10  N   UNL A   1      32.095  19.838  25.144  1.00  0.00    -0.218 NA
ATOM     11  C   UNL A   1      32.532  21.064  25.464  1.00  0.00     0.230 A 
ATOM     12  N   UNL A   1      33.823  21.408  25.426  1.00  0.00    -0.177 NA
BRANCH   8  13
ATOM     13  C   UNL A   1      32.435  17.509  24.550  1.00  0.00     0.056 C 
BRANCH  13  14
ATOM     14  C   UNL A   1      32.609  16.507  25.718  1.00  0.00     0.003 C 
ATOM     15  C   UNL A   1      32.875  15.061  25.335  1.00  0.00     0.004 C 
ENDBRANCH  13  14
ENDBRANCH   8  13
BRANCH  11  16
ATOM     16  N   UNL A   1      31.613  22.014  25.904  1.00  0.00    -0.324 N 
ATOM     17  H   UNL A   1      30.928  21.714  26.544  1.00  0.00     0.170 HD
BRANCH  16  18
ATOM     18  C   UNL A   1      31.576  23.356  25.521  1.00  0.00     0.041 A 
ATOM     19  C   UNL A   1      31.227  23.716  24.217  1.00  0.00     0.027 A 
ATOM     20  C   UNL A   1      31.821  24.371  26.457  1.00  0.00     0.027 A 
ATOM     21  C   UNL A   1      31.018  25.059  23.884  1.00  0.00     0.021 A 
ATOM     22  C   UNL A   1      31.625  25.715  26.127  1.00  0.00     0.021 A 
ATOM     23  C   UNL A   1      31.188  26.060  24.846  1.00  0.00     0.052 A 
BRANCH  23  24
ATOM     24  C   UNL A   1      30.878  27.423  24.535  1.00  0.00     0.099 C 
ATOM     25  N   UNL A   1      30.612  28.530  24.296  1.00  0.00    -0.192 NA
ENDBRANCH  23  24
ENDBRANCH  16  18
ENDBRANCH  11  16
ENDBRANCH   6   7
ENDBRANCH   5   6
ENDBRANCH   3   5
ENDBRANCH   2   3
ENDBRANCH   1   2
BRANCH   1  26
ATOM     26  C   UNL A   1      40.784  20.625  26.613  1.00  0.00     0.202 C 
BRANCH  26  27
ATOM     27  O   UNL A   1      41.753  20.403  25.597  1.00  0.00    -0.374 OA
BRANCH  27  28
ATOM     28  C   UNL A   1      43.111  20.654  25.908  1.00  0.00     0.202 C 
BRANCH  28  29
ATOM     29  C   UNL A   1      43.817  21.868  25.295  1.00  0.00     0.261 C 
BRANCH  29  30
ATOM     30  O   UNL A   1      43.036  23.027  25.133  1.00  0.00    -0.460 OA
BRANCH  30  31
ATOM     31  C   UNL A   1      43.781  24.147  25.142  1.00  0.00     0.338 C 
ATOM     32  O   UNL A   1      44.750  24.444  24.471  1.00  0.00    -0.246 OA
BRANCH  31  33
ATOM     33  C   UNL A   1      43.117  25.038  26.073  1.00  0.00     0.060 A 
ATOM     34  C   UNL A   1      43.661  26.310  26.224  1.00  0.00     0.016 A 
ATOM     35  C   UNL A   1      41.983  24.603  26.762  1.00  0.00     0.016 A 
ATOM     36  C   UNL A   1      43.097  27.157  27.154  1.00  0.00     0.010 A 
ATOM     37  C   UNL A   1      41.412  25.459  27.687  1.00  0.00     0.010 A 
ATOM     38  C   UNL A   1      42.003  26.714  27.911  1.00  0.00    -0.014 A 
BRANCH  38  39
ATOM     39  C   UNL A   1      41.574  27.532  29.050  1.00  0.00     0.031 A 
ATOM     40  C   UNL A   1      42.347  27.433  30.328  1.00  0.00     0.074 A 
ATOM     41  C   UNL A   1      40.550  28.382  28.887  1.00  0.00     0.049 A 
ATOM     42  N   UNL A   1      42.159  28.070  31.451  1.00  0.00    -0.248 NA
ATOM     43  C   UNL A   1      43.480  26.489  30.353  1.00  0.00     0.031 C 
ATOM     44  C   UNL A   1      39.778  28.548  27.653  1.00  0.00     0.029 A 
ATOM     45  N   UNL A   1      39.990  29.270  29.759  1.00  0.00    -0.354 N 
ATOM     46  C   UNL A   1      43.134  27.594  32.316  1.00  0.00     0.074 A 
ATOM     47  C   UNL A   1      43.897  26.596  31.605  1.00  0.00     0.031 C 
ATOM     48  C   UNL A   1      38.846  29.493  27.848  1.00  0.00     0.029 A 
ATOM     49  C   UNL A   1      38.929  29.956  29.229  1.00  0.00     0.049 A 
ATOM     50  H   UNL A   1      40.316  29.404  30.678  1.00  0.00     0.167 HD
ATOM     51  C   UNL A   1      43.362  27.971  33.593  1.00  0.00     0.037 A 
ATOM     52  C   UNL A   1      38.106  30.840  29.818  1.00  0.00     0.037 A 
ATOM     53  C   UNL A   1      42.591  28.981  34.267  1.00  0.00     0.049 A 
ATOM     54  C   UNL A   1      38.357  31.192  31.260  1.00  0.00     0.074 A 
ATOM     55  C   UNL A   1      42.759  29.479  35.546  1.00  0.00     0.029 A 
ATOM     56  N   UNL A   1      41.499  29.636  33.716  1.00  0.00    -0.354 N 
ATOM     57  N   UNL A   1      39.312  30.779  32.060  1.00  0.00    -0.248 NA
ATOM     58  C   UNL A   1      37.420  32.135  31.879  1.00  0.00     0.031 C 
ATOM     59  C   UNL A   1      41.720  30.377  35.797  1.00  0.00     0.029 A 
ATOM     60  C   UNL A   1      40.955  30.503  34.646  1.00  0.00     0.049 A 
ATOM     61  H   UNL A   1      41.163  29.505  32.801  1.00  0.00     0.167 HD
ATOM     62  C   UNL A   1      39.112  31.440  33.264  1.00  0.00     0.074 A 
ATOM     63  C   UNL A   1      37.959  32.297  33.079  1.00  0.00     0.031 C 
ATOM     64  C   UNL A   1      39.813  31.353  34.422  1.00  0.00     0.037 A 
BRANCH  51  65
ATOM     65  C   UNL A   1      44.448  27.274  34.356  1.00  0.00     0.057 A 
ATOM     66  C   UNL A   1      45.741  27.798  34.471  1.00  0.00     0.134 A 
ATOM     67  C   UNL A   1      44.168  26.087  35.046  1.00  0.00     0.134 A 
ATOM     68  F   UNL A   1      46.082  28.920  33.818  1.00  0.00    -0.206 F 
ATOM     69  C   UNL A   1      46.717  27.164  35.242  1.00  0.00     0.040 A 
ATOM     70  C   UNL A   1      45.126  25.461  35.844  1.00  0.00     0.040 A 
ATOM     71  F   UNL A   1      42.950  25.529  34.975  1.00  0.00    -0.206 F 
ATOM     72  C   UNL A   1      46.406  26.000  35.942  1.00  0.00     0.006 A 
ENDBRANCH  51  65
BRANCH  52  73
ATOM     73  C   UNL A   1      36.965  31.426  29.071  1.00  0.00     0.057 A 
ATOM     74  C   UNL A   1      37.005  32.741  28.595  1.00  0.00     0.134 A 
ATOM     75  C   UNL A   1      35.785  30.701  28.860  1.00  0.00     0.134 A 
ATOM     76  F   UNL A   1      38.104  33.489  28.772  1.00  0.00    -0.206 F 
ATOM     77  C   UNL A   1      35.899  33.331  27.983  1.00  0.00     0.040 A 
ATOM     78  C   UNL A   1      34.684  31.266  28.216  1.00  0.00     0.040 A 
ATOM     79  F   UNL A   1      35.684  29.430  29.276  1.00  0.00    -0.206 F 
ATOM     80  C   UNL A   1      34.732  32.592  27.793  1.00  0.00     0.006 A 
ENDBRANCH  52  73
BRANCH  64  81
ATOM     81  C   UNL A   1      39.381  32.244  35.549  1.00  0.00     0.057 A 
ATOM     82  C   UNL A   1      39.852  33.557  35.684  1.00  0.00     0.134 A 
ATOM     83  C   UNL A   1      38.452  31.788  36.494  1.00  0.00     0.134 A 
ATOM     84  F   UNL A   1      40.751  34.050  34.819  1.00  0.00    -0.206 F 
ATOM     85  C   UNL A   1      39.443  34.371  36.740  1.00  0.00     0.040 A 
ATOM     86  C   UNL A   1      38.005  32.607  37.530  1.00  0.00     0.040 A 
ATOM     87  F   UNL A   1      37.950  30.548  36.414  1.00  0.00    -0.206 F 
ATOM     88  C   UNL A   1      38.509  33.899  37.662  1.00  0.00     0.006 A 
ENDBRANCH  64  81
ENDBRANCH  38  39
ENDBRANCH  31  33
ENDBRANCH  30  31
ENDBRANCH  29  30
ENDBRANCH  28  29
ENDBRANCH  27  28
ENDBRANCH  26  27
ENDBRANCH   1  26
TORSDOF 21
ENDMDL
MODEL 3
REMARK VINA RESULT:     -10.3      6.175     13.206
REMARK SMILES CCCc1cc(OCC(=O)OCCOCCOC(=O)c2ccc(-c3c4nc(c(-c5c(F)cccc5F)c5ccc([nH]5)c(-c5c(F)cccc5F)c5nc(c(-c6c(F)cccc6F)c6ccc3[nH]6)C=C5)C=C4)cc2)nc(Nc2ccc(C#N)cc2)n1
REMARK SMILES IDX 12 1 11 2 9 3 10 4 8 5 7 6 6 7 4 8 5 9 85 10 75 11 74 12
REMARK SMILES IDX 3 13 2 14 1 15 76 16 77 18 78 19 84 20 79 21 83 22 80 23
REMARK SMILES IDX 81 24 82 25 13 26 14 27 15 28 16 29 17 30 18 31 19 32 20 33
REMARK SMILES IDX 21 34 73 35 22 36 72 37 23 38 24 39 25 40 66 41 26 42 71 43
REMARK SMILES IDX 65 44 67 45 27 46 70 47 64 48 63 49 28 51 54 52 37 53 53 54
REMARK SMILES IDX 38 55 41 56 52 57 68 58 39 59 40 60 51 62 69 63 42 64 29 65
REMARK SMILES IDX 30 66 35 67 31 68 32 69 34 70 36 71 33 72 55 73 56 74 61 75
REMARK SMILES IDX 57 76 58 77 60 78 62 79 59 80 43 81 44 82 49 83 45 84 46 85
REMARK SMILES IDX 48 86 50 87 47 88
REMARK H PARENT 76 17 67 50 41 61
REMARK Flexibility Score: inf
ROOT
ATOM      1  C   UNL A   1      35.272  35.298  32.867  1.00  0.00     0.261 C 
ENDROOT
BRANCH   1   2
ATOM      2  O   UNL A   1      36.388  35.043  33.753  1.00  0.00    -0.461 OA
BRANCH   2   3
ATOM      3  C   UNL A   1      36.302  33.899  34.490  1.00  0.00     0.344 C 
ATOM      4  O   UNL A   1      35.680  33.801  35.544  1.00  0.00    -0.248 OA
BRANCH   3   5
ATOM      5  C   UNL A   1      37.067  32.702  33.904  1.00  0.00     0.353 C 
BRANCH   5   6
ATOM      6  O   UNL A   1      37.245  31.489  34.600  1.00  0.00    -0.466 OA
BRANCH   6   7
ATOM      7  C   UNL A   1      38.371  31.230  35.327  1.00  0.00     0.218 A 
ATOM      8  C   UNL A   1      40.651  30.724  35.613  1.00  0.00     0.050 A 
ATOM      9  C   UNL A   1      39.485  30.541  34.881  1.00  0.00     0.092 A 
ATOM     10  N   UNL A   1      40.645  31.412  36.764  1.00  0.00    -0.218 NA
ATOM     11  C   UNL A   1      39.503  31.973  37.186  1.00  0.00     0.230 A 
ATOM     12  N   UNL A   1      38.360  31.899  36.498  1.00  0.00    -0.177 NA
BRANCH   8  13
ATOM     13  C   UNL A   1      42.004  30.250  35.122  1.00  0.00     0.056 C 
BRANCH  13  14
ATOM     14  C   UNL A   1      42.696  29.118  35.920  1.00  0.00     0.003 C 
ATOM     15  C   UNL A   1      42.131  27.719  35.737  1.00  0.00     0.004 C 
ENDBRANCH  13  14
ENDBRANCH   8  13
BRANCH  11  16
ATOM     16  N   UNL A   1      39.511  32.711  38.368  1.00  0.00    -0.324 N 
ATOM     17  H   UNL A   1      39.128  32.283  39.167  1.00  0.00     0.170 HD
BRANCH  16  18
ATOM     18  C   UNL A   1      40.013  34.005  38.522  1.00  0.00     0.041 A 
ATOM     19  C   UNL A   1      39.198  35.117  38.298  1.00  0.00     0.027 A 
ATOM     20  C   UNL A   1      41.325  34.211  38.971  1.00  0.00     0.027 A 
ATOM     21  C   UNL A   1      39.646  36.402  38.623  1.00  0.00     0.021 A 
ATOM     22  C   UNL A   1      41.783  35.493  39.287  1.00  0.00     0.021 A 
ATOM     23  C   UNL A   1      40.931  36.590  39.146  1.00  0.00     0.052 A 
BRANCH  23  24
ATOM     24  C   UNL A   1      41.355  37.890  39.572  1.00  0.00     0.099 C 
ATOM     25  N   UNL A   1      41.719  38.940  39.916  1.00  0.00    -0.192 NA
ENDBRANCH  23  24
ENDBRANCH  16  18
ENDBRANCH  11  16
ENDBRANCH   6   7
ENDBRANCH   5   6
ENDBRANCH   3   5
ENDBRANCH   2   3
ENDBRANCH   1   2
BRANCH   1  26
ATOM     26  C   UNL A   1      34.358  36.459  33.290  1.00  0.00     0.202 C 
BRANCH  26  27
ATOM     27  O   UNL A   1      33.823  37.321  32.293  1.00  0.00    -0.374 OA
BRANCH  27  28
ATOM     28  C   UNL A   1      32.671  36.892  31.592  1.00  0.00     0.202 C 
BRANCH  28  29
ATOM     29  C   UNL A   1      32.820  36.253  30.207  1.00  0.00     0.261 C 
BRANCH  29  30
ATOM     30  O   UNL A   1      32.823  34.847  30.166  1.00  0.00    -0.460 OA
BRANCH  30  31
ATOM     31  C   UNL A   1      33.114  34.375  28.941  1.00  0.00     0.338 C 
ATOM     32  O   UNL A   1      32.528  34.529  27.887  1.00  0.00    -0.246 OA
BRANCH  31  33
ATOM     33  C   UNL A   1      34.388  33.701  29.086  1.00  0.00     0.060 A 
ATOM     34  C   UNL A   1      34.501  32.783  30.127  1.00  0.00     0.016 A 
ATOM     35  C   UNL A   1      35.430  33.983  28.199  1.00  0.00     0.016 A 
ATOM     36  C   UNL A   1      35.720  32.178  30.337  1.00  0.00     0.010 A 
ATOM     37  C   UNL A   1      36.650  33.366  28.407  1.00  0.00     0.010 A 
ATOM     38  C   UNL A   1      36.801  32.503  29.504  1.00  0.00    -0.014 A 
BRANCH  38  39
ATOM     39  C   UNL A   1      38.136  32.035  29.890  1.00  0.00     0.031 A 
ATOM     40  C   UNL A   1      38.613  30.722  29.352  1.00  0.00     0.074 A 
ATOM     41  C   UNL A   1      38.902  32.826  30.655  1.00  0.00     0.049 A 
ATOM     42  N   UNL A   1      39.756  30.124  29.545  1.00  0.00    -0.248 NA
ATOM     43  C   UNL A   1      37.682  29.977  28.483  1.00  0.00     0.031 C 
ATOM     44  C   UNL A   1      38.505  34.133  31.183  1.00  0.00     0.029 A 
ATOM     45  N   UNL A   1      40.176  32.648  31.113  1.00  0.00    -0.354 N 
ATOM     46  C   UNL A   1      39.675  28.930  28.842  1.00  0.00     0.074 A 
ATOM     47  C   UNL A   1      38.365  28.870  28.236  1.00  0.00     0.031 C 
ATOM     48  C   UNL A   1      39.525  34.644  31.889  1.00  0.00     0.029 A 
ATOM     49  C   UNL A   1      40.619  33.679  31.899  1.00  0.00     0.049 A 
ATOM     50  H   UNL A   1      40.722  31.857  30.899  1.00  0.00     0.167 HD
ATOM     51  C   UNL A   1      40.625  27.977  28.717  1.00  0.00     0.037 A 
ATOM     52  C   UNL A   1      41.776  33.803  32.571  1.00  0.00     0.037 A 
ATOM     53  C   UNL A   1      41.925  28.077  29.321  1.00  0.00     0.049 A 
ATOM     54  C   UNL A   1      42.786  32.693  32.454  1.00  0.00     0.074 A 
ATOM     55  C   UNL A   1      42.986  27.195  29.228  1.00  0.00     0.029 A 
ATOM     56  N   UNL A   1      42.336  29.118  30.141  1.00  0.00    -0.354 N 
ATOM     57  N   UNL A   1      42.728  31.590  31.745  1.00  0.00    -0.248 NA
ATOM     58  C   UNL A   1      44.024  32.846  33.226  1.00  0.00     0.031 C 
ATOM     59  C   UNL A   1      44.009  27.662  30.055  1.00  0.00     0.029 A 
ATOM     60  C   UNL A   1      43.619  28.878  30.597  1.00  0.00     0.049 A 
ATOM     61  H   UNL A   1      41.795  29.909  30.365  1.00  0.00     0.167 HD
ATOM     62  C   UNL A   1      43.934  30.937  31.956  1.00  0.00     0.074 A 
ATOM     63  C   UNL A   1      44.711  31.781  32.841  1.00  0.00     0.031 C 
ATOM     64  C   UNL A   1      44.368  29.749  31.468  1.00  0.00     0.037 A 
BRANCH  51  65
ATOM     65  C   UNL A   1      40.289  26.739  27.943  1.00  0.00     0.057 A 
ATOM     66  C   UNL A   1      40.778  26.504  26.652  1.00  0.00     0.134 A 
ATOM     67  C   UNL A   1      39.516  25.731  28.534  1.00  0.00     0.134 A 
ATOM     68  F   UNL A   1      41.507  27.436  26.019  1.00  0.00    -0.206 F 
ATOM     69  C   UNL A   1      40.507  25.312  25.976  1.00  0.00     0.040 A 
ATOM     70  C   UNL A   1      39.263  24.524  27.882  1.00  0.00     0.040 A 
ATOM     71  F   UNL A   1      39.012  25.894  29.767  1.00  0.00    -0.206 F 
ATOM     72  C   UNL A   1      39.760  24.313  26.597  1.00  0.00     0.006 A 
ENDBRANCH  51  65
BRANCH  52  73
ATOM     73  C   UNL A   1      42.032  34.988  33.426  1.00  0.00     0.057 A 
ATOM     74  C   UNL A   1      42.873  36.023  33.003  1.00  0.00     0.134 A 
ATOM     75  C   UNL A   1      41.482  35.091  34.711  1.00  0.00     0.134 A 
ATOM     76  F   UNL A   1      43.437  35.980  31.787  1.00  0.00    -0.206 F 
ATOM     77  C   UNL A   1      43.200  37.089  33.842  1.00  0.00     0.040 A 
ATOM     78  C   UNL A   1      41.769  36.170  35.546  1.00  0.00     0.040 A 
ATOM     79  F   UNL A   1      40.653  34.143  35.173  1.00  0.00    -0.206 F 
ATOM     80  C   UNL A   1      42.647  37.164  35.119  1.00  0.00     0.006 A 
ENDBRANCH  52  73
BRANCH  64  81
ATOM     81  C   UNL A   1      45.760  29.327  31.837  1.00  0.00     0.057 A 
ATOM     82  C   UNL A   1      46.026  28.549  32.972  1.00  0.00     0.134 A 
ATOM     83  C   UNL A   1      46.844  29.678  31.022  1.00  0.00     0.134 A 
ATOM     84  F   UNL A   1      45.033  28.189  33.798  1.00  0.00    -0.206 F 
ATOM     85  C   UNL A   1      47.327  28.167  33.302  1.00  0.00     0.040 A 
ATOM     86  C   UNL A   1      48.143  29.267  31.321  1.00  0.00     0.040 A 
ATOM     87  F   UNL A   1      46.657  30.408  29.913  1.00  0.00    -0.206 F 
ATOM     88  C   UNL A   1      48.389  28.520  32.470  1.00  0.00     0.006 A 
ENDBRANCH  64  81
ENDBRANCH  38  39
ENDBRANCH  31  33
ENDBRANCH  30  31
ENDBRANCH  29  30
ENDBRANCH  28  29
ENDBRANCH  27  28
ENDBRANCH  26  27
ENDBRANCH   1  26
TORSDOF 21
ENDMDL
