MODEL 1
REMARK VINA RESULT:     -10.3      0.000      0.000
REMARK SMILES O=C(OCCOCCOC(=O)C1([C@H]2CCC[C@H]2O)CCCCC1)c1ccc(-c2c3nc(c(-c4c(F)cccc4F)c4ccc([nH]4)c(-c4c(F)cccc4F)c4nc(c(-c5c(F)cccc5F)c5ccc2[nH]5)C=C4)C=C3)cc1
REMARK SMILES IDX 6 1 5 2 4 3 3 4 2 5 1 6 24 7 25 8 77 9 26 10 76 11 27 12
REMARK SMILES IDX 28 13 29 14 70 15 30 16 75 17 69 18 71 19 31 20 74 21 68 22
REMARK SMILES IDX 67 23 32 25 58 26 41 27 57 28 42 29 45 30 56 31 72 32 43 33
REMARK SMILES IDX 44 34 55 36 73 37 46 38 33 39 34 40 39 41 35 42 36 43 38 44
REMARK SMILES IDX 40 45 37 46 59 47 60 48 65 49 61 50 62 51 64 52 66 53 63 54
REMARK SMILES IDX 47 55 48 56 53 57 49 58 50 59 52 60 54 61 51 62 7 63 8 64
REMARK SMILES IDX 9 65 10 66 11 67 12 68 19 69 23 70 20 71 22 72 21 73 13 74
REMARK SMILES IDX 14 75 17 76 15 77 16 78 18 79
REMARK H PARENT 71 24 45 35 18 80
REMARK Flexibility Score: inf
ROOT
ATOM      1  O   UNL A   1      33.375  30.426  27.446  1.00  0.00    -0.374 OA
ENDROOT
BRANCH   1   2
ATOM      2  C   UNL A   1      32.439  31.134  26.632  1.00  0.00     0.202 C 
BRANCH   2   3
ATOM      3  C   UNL A   1      31.634  32.259  27.293  1.00  0.00     0.261 C 
BRANCH   3   4
ATOM      4  O   UNL A   1      32.347  33.500  27.246  1.00  0.00    -0.460 OA
BRANCH   4   5
ATOM      5  C   UNL A   1      33.004  34.087  28.273  1.00  0.00     0.338 C 
ATOM      6  O   UNL A   1      32.538  35.112  28.766  1.00  0.00    -0.246 OA
BRANCH   5   7
ATOM      7  C   UNL A   1      34.268  33.540  28.852  1.00  0.00     0.060 A 
ATOM      8  C   UNL A   1      34.340  32.592  29.873  1.00  0.00     0.016 A 
ATOM      9  C   UNL A   1      35.468  33.962  28.264  1.00  0.00     0.016 A 
ATOM     10  C   UNL A   1      35.526  32.051  30.300  1.00  0.00     0.010 A 
ATOM     11  C   UNL A   1      36.687  33.443  28.698  1.00  0.00     0.010 A 
ATOM     12  C   UNL A   1      36.699  32.486  29.717  1.00  0.00    -0.014 A 
BRANCH  12  13
ATOM     13  C   UNL A   1      37.921  32.033  30.366  1.00  0.00     0.031 A 
ATOM     14  C   UNL A   1      38.643  30.901  29.726  1.00  0.00     0.074 A 
ATOM     15  C   UNL A   1      38.429  32.758  31.373  1.00  0.00     0.049 A 
ATOM     16  N   UNL A   1      39.664  30.226  30.159  1.00  0.00    -0.248 NA
ATOM     17  C   UNL A   1      38.147  30.479  28.401  1.00  0.00     0.031 C 
ATOM     18  C   UNL A   1      37.862  34.011  31.882  1.00  0.00     0.029 A 
ATOM     19  N   UNL A   1      39.540  32.554  32.134  1.00  0.00    -0.354 N 
ATOM     20  C   UNL A   1      39.895  29.258  29.195  1.00  0.00     0.074 A 
ATOM     21  C   UNL A   1      38.931  29.448  28.139  1.00  0.00     0.031 C 
ATOM     22  C   UNL A   1      38.617  34.445  32.902  1.00  0.00     0.029 A 
ATOM     23  C   UNL A   1      39.656  33.456  33.160  1.00  0.00     0.049 A 
ATOM     24  H   UNL A   1      40.191  31.833  31.965  1.00  0.00     0.167 HD
ATOM     25  C   UNL A   1      40.823  28.278  29.236  1.00  0.00     0.037 A 
ATOM     26  C   UNL A   1      40.469  33.417  34.228  1.00  0.00     0.037 A 
ATOM     27  C   UNL A   1      41.740  28.146  30.332  1.00  0.00     0.049 A 
ATOM     28  C   UNL A   1      41.416  32.255  34.322  1.00  0.00     0.074 A 
ATOM     29  C   UNL A   1      42.689  27.172  30.562  1.00  0.00     0.029 A 
ATOM     30  N   UNL A   1      41.804  29.039  31.399  1.00  0.00    -0.354 N 
ATOM     31  N   UNL A   1      41.583  31.262  33.476  1.00  0.00    -0.248 NA
ATOM     32  C   UNL A   1      42.271  32.188  35.509  1.00  0.00     0.031 C 
ATOM     33  C   UNL A   1      43.286  27.447  31.799  1.00  0.00     0.029 A 
ATOM     34  C   UNL A   1      42.760  28.628  32.307  1.00  0.00     0.049 A 
ATOM     35  H   UNL A   1      41.249  29.847  31.492  1.00  0.00     0.167 HD
ATOM     36  C   UNL A   1      42.576  30.460  34.013  1.00  0.00     0.074 A 
ATOM     37  C   UNL A   1      42.973  31.089  35.262  1.00  0.00     0.031 C 
ATOM     38  C   UNL A   1      43.117  29.314  33.528  1.00  0.00     0.037 A 
BRANCH  25  39
ATOM     39  C   UNL A   1      40.760  27.247  28.147  1.00  0.00     0.057 A 
ATOM     40  C   UNL A   1      41.459  27.376  26.940  1.00  0.00     0.134 A 
ATOM     41  C   UNL A   1      39.891  26.156  28.274  1.00  0.00     0.134 A 
ATOM     42  F   UNL A   1      42.278  28.419  26.734  1.00  0.00    -0.206 F 
ATOM     43  C   UNL A   1      41.261  26.484  25.883  1.00  0.00     0.040 A 
ATOM     44  C   UNL A   1      39.707  25.241  27.236  1.00  0.00     0.040 A 
ATOM     45  F   UNL A   1      39.178  25.979  29.396  1.00  0.00    -0.206 F 
ATOM     46  C   UNL A   1      40.382  25.412  26.030  1.00  0.00     0.006 A 
ENDBRANCH  25  39
BRANCH  26  47
ATOM     47  C   UNL A   1      40.337  34.446  35.288  1.00  0.00     0.057 A 
ATOM     48  C   UNL A   1      39.552  34.231  36.424  1.00  0.00     0.134 A 
ATOM     49  C   UNL A   1      41.050  35.653  35.218  1.00  0.00     0.134 A 
ATOM     50  F   UNL A   1      38.839  33.103  36.548  1.00  0.00    -0.206 F 
ATOM     51  C   UNL A   1      39.480  35.175  37.452  1.00  0.00     0.040 A 
ATOM     52  C   UNL A   1      41.007  36.593  36.248  1.00  0.00     0.040 A 
ATOM     53  F   UNL A   1      41.830  35.919  34.159  1.00  0.00    -0.206 F 
ATOM     54  C   UNL A   1      40.217  36.356  37.370  1.00  0.00     0.006 A 
ENDBRANCH  26  47
BRANCH  38  55
ATOM     55  C   UNL A   1      44.229  28.704  34.321  1.00  0.00     0.057 A 
ATOM     56  C   UNL A   1      45.560  29.093  34.147  1.00  0.00     0.134 A 
ATOM     57  C   UNL A   1      43.936  27.797  35.348  1.00  0.00     0.134 A 
ATOM     58  F   UNL A   1      45.899  29.949  33.171  1.00  0.00    -0.206 F 
ATOM     59  C   UNL A   1      46.569  28.598  34.972  1.00  0.00     0.040 A 
ATOM     60  C   UNL A   1      44.931  27.319  36.196  1.00  0.00     0.040 A 
ATOM     61  F   UNL A   1      42.673  27.400  35.566  1.00  0.00    -0.206 F 
ATOM     62  C   UNL A   1      46.252  27.720  36.009  1.00  0.00     0.006 A 
ENDBRANCH  38  55
ENDBRANCH  12  13
ENDBRANCH   5   7
ENDBRANCH   4   5
ENDBRANCH   3   4
ENDBRANCH   2   3
ENDBRANCH   1   2
BRANCH   1  63
ATOM     63  C   UNL A   1      33.877  29.194  26.920  1.00  0.00     0.202 C 
BRANCH  63  64
ATOM     64  C   UNL A   1      32.863  28.067  27.109  1.00  0.00     0.261 C 
BRANCH  64  65
ATOM     65  O   UNL A   1      32.754  27.343  25.872  1.00  0.00    -0.463 OA
BRANCH  65  66
ATOM     66  C   UNL A   1      31.763  26.406  25.850  1.00  0.00     0.312 C 
ATOM     67  O   UNL A   1      31.517  25.678  26.797  1.00  0.00    -0.252 OA
BRANCH  66  68
ATOM     68  C   UNL A   1      31.000  26.406  24.492  1.00  0.00     0.073 C 
ATOM     69  C   UNL A   1      29.456  26.229  24.736  1.00  0.00     0.019 C 
ATOM     70  C   UNL A   1      31.267  27.814  23.912  1.00  0.00     0.019 C 
ATOM     71  C   UNL A   1      28.512  26.746  23.660  1.00  0.00     0.001 C 
ATOM     72  C   UNL A   1      30.320  28.285  22.817  1.00  0.00     0.001 C 
ATOM     73  C   UNL A   1      28.859  28.151  23.215  1.00  0.00     0.000 C 
BRANCH  68  74
ATOM     74  C   UNL A   1      31.522  25.152  23.678  1.00  0.00     0.035 C 
ATOM     75  C   UNL A   1      33.033  24.841  23.722  1.00  0.00     0.007 C 
ATOM     76  C   UNL A   1      30.838  23.771  23.831  1.00  0.00     0.118 C 
ATOM     77  C   UNL A   1      33.177  23.323  23.779  1.00  0.00     0.003 C 
ATOM     78  C   UNL A   1      31.857  22.789  23.259  1.00  0.00     0.032 C 
BRANCH  76  79
ATOM     79  O   UNL A   1      30.540  23.439  25.174  1.00  0.00    -0.393 OA
ATOM     80  H   UNL A   1      30.494  24.249  25.705  1.00  0.00     0.210 HD
ENDBRANCH  76  79
ENDBRANCH  68  74
ENDBRANCH  66  68
ENDBRANCH  65  66
ENDBRANCH  64  65
ENDBRANCH  63  64
ENDBRANCH   1  63
TORSDOF 16
ENDMDL
MODEL 2
REMARK VINA RESULT:     -10.3      1.147      2.384
REMARK SMILES O=C(OCCOCCOC(=O)C1([C@H]2CCC[C@H]2O)CCCCC1)c1ccc(-c2c3nc(c(-c4c(F)cccc4F)c4ccc([nH]4)c(-c4c(F)cccc4F)c4nc(c(-c5c(F)cccc5F)c5ccc2[nH]5)C=C4)C=C3)cc1
REMARK SMILES IDX 6 1 5 2 4 3 3 4 2 5 1 6 24 7 25 8 77 9 26 10 76 11 27 12
REMARK SMILES IDX 28 13 29 14 70 15 30 16 75 17 69 18 71 19 31 20 74 21 68 22
REMARK SMILES IDX 67 23 32 25 58 26 41 27 57 28 42 29 45 30 56 31 72 32 43 33
REMARK SMILES IDX 44 34 55 36 73 37 46 38 33 39 34 40 39 41 35 42 36 43 38 44
REMARK SMILES IDX 40 45 37 46 59 47 60 48 65 49 61 50 62 51 64 52 66 53 63 54
REMARK SMILES IDX 47 55 48 56 53 57 49 58 50 59 52 60 54 61 51 62 7 63 8 64
REMARK SMILES IDX 9 65 10 66 11 67 12 68 19 69 23 70 20 71 22 72 21 73 13 74
REMARK SMILES IDX 14 75 17 76 15 77 16 78 18 79
REMARK H PARENT 71 24 45 35 18 80
REMARK Flexibility Score: inf
ROOT
ATOM      1  O   UNL A   1      31.411  30.928  25.928  1.00  0.00    -0.374 OA
ENDROOT
BRANCH   1   2
ATOM      2  C   UNL A   1      31.340  32.222  26.527  1.00  0.00     0.202 C 
BRANCH   2   3
ATOM      3  C   UNL A   1      32.563  32.707  27.315  1.00  0.00     0.261 C 
BRANCH   3   4
ATOM      4  O   UNL A   1      32.364  34.036  27.810  1.00  0.00    -0.460 OA
BRANCH   4   5
ATOM      5  C   UNL A   1      33.075  34.641  28.789  1.00  0.00     0.338 C 
ATOM      6  O   UNL A   1      32.693  35.731  29.211  1.00  0.00    -0.246 OA
BRANCH   5   7
ATOM      7  C   UNL A   1      34.299  34.041  29.399  1.00  0.00     0.060 A 
ATOM      8  C   UNL A   1      34.305  33.098  30.429  1.00  0.00     0.016 A 
ATOM      9  C   UNL A   1      35.530  34.402  28.835  1.00  0.00     0.016 A 
ATOM     10  C   UNL A   1      35.455  32.507  30.885  1.00  0.00     0.010 A 
ATOM     11  C   UNL A   1      36.714  33.831  29.299  1.00  0.00     0.010 A 
ATOM     12  C   UNL A   1      36.660  32.883  30.324  1.00  0.00    -0.014 A 
BRANCH  12  13
ATOM     13  C   UNL A   1      37.845  32.378  31.003  1.00  0.00     0.031 A 
ATOM     14  C   UNL A   1      38.589  31.279  30.331  1.00  0.00     0.074 A 
ATOM     15  C   UNL A   1      38.309  33.035  32.075  1.00  0.00     0.049 A 
ATOM     16  N   UNL A   1      39.582  30.569  30.771  1.00  0.00    -0.248 NA
ATOM     17  C   UNL A   1      38.155  30.943  28.961  1.00  0.00     0.031 C 
ATOM     18  C   UNL A   1      37.727  34.261  32.632  1.00  0.00     0.029 A 
ATOM     19  N   UNL A   1      39.380  32.774  32.875  1.00  0.00    -0.354 N 
ATOM     20  C   UNL A   1      39.853  29.658  29.762  1.00  0.00     0.074 A 
ATOM     21  C   UNL A   1      38.942  29.921  28.674  1.00  0.00     0.031 C 
ATOM     22  C   UNL A   1      38.435  34.625  33.712  1.00  0.00     0.029 A 
ATOM     23  C   UNL A   1      39.453  33.612  33.958  1.00  0.00     0.049 A 
ATOM     24  H   UNL A   1      40.033  32.058  32.695  1.00  0.00     0.167 HD
ATOM     25  C   UNL A   1      40.770  28.667  29.788  1.00  0.00     0.037 A 
ATOM     26  C   UNL A   1      40.212  33.500  35.060  1.00  0.00     0.037 A 
ATOM     27  C   UNL A   1      41.632  28.460  30.917  1.00  0.00     0.049 A 
ATOM     28  C   UNL A   1      41.145  32.324  35.129  1.00  0.00     0.074 A 
ATOM     29  C   UNL A   1      42.561  27.464  31.133  1.00  0.00     0.029 A 
ATOM     30  N   UNL A   1      41.651  29.287  32.039  1.00  0.00    -0.354 N 
ATOM     31  N   UNL A   1      41.345  31.382  34.233  1.00  0.00    -0.248 NA
ATOM     32  C   UNL A   1      41.940  32.176  36.349  1.00  0.00     0.031 C 
ATOM     33  C   UNL A   1      43.099  27.658  32.411  1.00  0.00     0.029 A 
ATOM     34  C   UNL A   1      42.557  28.811  32.964  1.00  0.00     0.049 A 
ATOM     35  H   UNL A   1      41.097  30.093  32.154  1.00  0.00     0.167 HD
ATOM     36  C   UNL A   1      42.305  30.539  34.768  1.00  0.00     0.074 A 
ATOM     37  C   UNL A   1      42.645  31.087  36.070  1.00  0.00     0.031 C 
ATOM     38  C   UNL A   1      42.860  29.419  34.241  1.00  0.00     0.037 A 
BRANCH  25  39
ATOM     39  C   UNL A   1      40.752  27.705  28.637  1.00  0.00     0.057 A 
ATOM     40  C   UNL A   1      41.517  27.894  27.479  1.00  0.00     0.134 A 
ATOM     41  C   UNL A   1      39.863  26.622  28.651  1.00  0.00     0.134 A 
ATOM     42  F   UNL A   1      42.360  28.934  27.381  1.00  0.00    -0.206 F 
ATOM     43  C   UNL A   1      41.365  27.070  26.361  1.00  0.00     0.040 A 
ATOM     44  C   UNL A   1      39.724  25.775  27.552  1.00  0.00     0.040 A 
ATOM     45  F   UNL A   1      39.088  26.390  29.721  1.00  0.00    -0.206 F 
ATOM     46  C   UNL A   1      40.465  26.006  26.396  1.00  0.00     0.006 A 
ENDBRANCH  25  39
BRANCH  26  47
ATOM     47  C   UNL A   1      40.036  34.464  36.173  1.00  0.00     0.057 A 
ATOM     48  C   UNL A   1      39.194  34.190  37.253  1.00  0.00     0.134 A 
ATOM     49  C   UNL A   1      40.763  35.664  36.212  1.00  0.00     0.134 A 
ATOM     50  F   UNL A   1      38.466  33.065  37.273  1.00  0.00    -0.206 F 
ATOM     51  C   UNL A   1      39.079  35.072  38.332  1.00  0.00     0.040 A 
ATOM     52  C   UNL A   1      40.677  36.541  37.294  1.00  0.00     0.040 A 
ATOM     53  F   UNL A   1      41.597  35.985  35.212  1.00  0.00    -0.206 F 
ATOM     54  C   UNL A   1      39.830  36.247  38.359  1.00  0.00     0.006 A 
ENDBRANCH  26  47
BRANCH  38  55
ATOM     55  C   UNL A   1      43.928  28.751  35.048  1.00  0.00     0.057 A 
ATOM     56  C   UNL A   1      43.630  27.768  35.997  1.00  0.00     0.134 A 
ATOM     57  C   UNL A   1      45.276  29.024  34.782  1.00  0.00     0.134 A 
ATOM     58  F   UNL A   1      42.357  27.475  36.299  1.00  0.00    -0.206 F 
ATOM     59  C   UNL A   1      44.644  27.075  36.657  1.00  0.00     0.040 A 
ATOM     60  C   UNL A   1      46.296  28.318  35.415  1.00  0.00     0.040 A 
ATOM     61  F   UNL A   1      45.617  29.949  33.872  1.00  0.00    -0.206 F 
ATOM     62  C   UNL A   1      45.980  27.340  36.355  1.00  0.00     0.006 A 
ENDBRANCH  38  55
ENDBRANCH  12  13
ENDBRANCH   5   7
ENDBRANCH   4   5
ENDBRANCH   3   4
ENDBRANCH   2   3
ENDBRANCH   1   2
BRANCH   1  63
ATOM     63  C   UNL A   1      32.464  30.071  26.378  1.00  0.00     0.202 C 
BRANCH  63  64
ATOM     64  C   UNL A   1      31.912  28.933  27.235  1.00  0.00     0.261 C 
BRANCH  64  65
ATOM     65  O   UNL A   1      32.620  27.728  26.896  1.00  0.00    -0.463 OA
BRANCH  65  66
ATOM     66  C   UNL A   1      31.826  26.712  26.450  1.00  0.00     0.312 C 
ATOM     67  O   UNL A   1      30.685  26.540  26.844  1.00  0.00    -0.252 OA
BRANCH  66  68
ATOM     68  C   UNL A   1      32.552  25.839  25.385  1.00  0.00     0.073 C 
ATOM     69  C   UNL A   1      34.074  25.682  25.755  1.00  0.00     0.019 C 
ATOM     70  C   UNL A   1      31.857  24.462  25.492  1.00  0.00     0.019 C 
ATOM     71  C   UNL A   1      34.808  24.469  25.204  1.00  0.00     0.001 C 
ATOM     72  C   UNL A   1      32.609  23.277  24.903  1.00  0.00     0.001 C 
ATOM     73  C   UNL A   1      34.038  23.183  25.415  1.00  0.00     0.000 C 
BRANCH  68  74
ATOM     74  C   UNL A   1      32.452  26.621  24.012  1.00  0.00     0.035 C 
ATOM     75  C   UNL A   1      31.205  27.496  23.768  1.00  0.00     0.007 C 
ATOM     76  C   UNL A   1      33.635  27.484  23.506  1.00  0.00     0.118 C 
ATOM     77  C   UNL A   1      31.674  28.755  23.045  1.00  0.00     0.003 C 
ATOM     78  C   UNL A   1      33.011  28.376  22.438  1.00  0.00     0.032 C 
BRANCH  76  79
ATOM     79  O   UNL A   1      34.224  28.275  24.521  1.00  0.00    -0.393 OA
ATOM     80  H   UNL A   1      34.437  29.151  24.166  1.00  0.00     0.210 HD
ENDBRANCH  76  79
ENDBRANCH  68  74
ENDBRANCH  66  68
ENDBRANCH  65  66
ENDBRANCH  64  65
ENDBRANCH  63  64
ENDBRANCH   1  63
TORSDOF 16
ENDMDL
MODEL 3
REMARK VINA RESULT:     -10.2      4.132      8.846
REMARK SMILES O=C(OCCOCCOC(=O)C1([C@H]2CCC[C@H]2O)CCCCC1)c1ccc(-c2c3nc(c(-c4c(F)cccc4F)c4ccc([nH]4)c(-c4c(F)cccc4F)c4nc(c(-c5c(F)cccc5F)c5ccc2[nH]5)C=C4)C=C3)cc1
REMARK SMILES IDX 6 1 5 2 4 3 3 4 2 5 1 6 24 7 25 8 77 9 26 10 76 11 27 12
REMARK SMILES IDX 28 13 29 14 70 15 30 16 75 17 69 18 71 19 31 20 74 21 68 22
REMARK SMILES IDX 67 23 32 25 58 26 41 27 57 28 42 29 45 30 56 31 72 32 43 33
REMARK SMILES IDX 44 34 55 36 73 37 46 38 33 39 34 40 39 41 35 42 36 43 38 44
REMARK SMILES IDX 40 45 37 46 59 47 60 48 65 49 61 50 62 51 64 52 66 53 63 54
REMARK SMILES IDX 47 55 48 56 53 57 49 58 50 59 52 60 54 61 51 62 7 63 8 64
REMARK SMILES IDX 9 65 10 66 11 67 12 68 19 69 23 70 20 71 22 72 21 73 13 74
REMARK SMILES IDX 14 75 17 76 15 77 16 78 18 79
REMARK H PARENT 71 24 45 35 18 80
REMARK Flexibility Score: inf
ROOT
ATOM      1  O   UNL A   1      34.150  23.113  24.234  1.00  0.00    -0.374 OA
ENDROOT
BRANCH   1   2
ATOM      2  C   UNL A   1      35.502  23.138  24.693  1.00  0.00     0.202 C 
BRANCH   2   3
ATOM      3  C   UNL A   1      36.350  21.880  24.470  1.00  0.00     0.261 C 
BRANCH   3   4
ATOM      4  O   UNL A   1      37.026  21.494  25.672  1.00  0.00    -0.460 OA
BRANCH   4   5
ATOM      5  C   UNL A   1      38.363  21.503  25.878  1.00  0.00     0.338 C 
ATOM      6  O   UNL A   1      39.003  20.477  25.658  1.00  0.00    -0.246 OA
BRANCH   5   7
ATOM      7  C   UNL A   1      39.108  22.709  26.349  1.00  0.00     0.060 A 
ATOM      8  C   UNL A   1      38.783  24.029  26.034  1.00  0.00     0.016 A 
ATOM      9  C   UNL A   1      40.169  22.491  27.240  1.00  0.00     0.016 A 
ATOM     10  C   UNL A   1      39.442  25.104  26.573  1.00  0.00     0.010 A 
ATOM     11  C   UNL A   1      40.867  23.569  27.782  1.00  0.00     0.010 A 
ATOM     12  C   UNL A   1      40.490  24.870  27.440  1.00  0.00    -0.014 A 
BRANCH  12  13
ATOM     13  C   UNL A   1      41.274  26.043  27.797  1.00  0.00     0.031 A 
ATOM     14  C   UNL A   1      40.620  27.048  28.677  1.00  0.00     0.074 A 
ATOM     15  C   UNL A   1      42.578  26.074  27.485  1.00  0.00     0.049 A 
ATOM     16  N   UNL A   1      41.035  28.226  29.033  1.00  0.00    -0.248 NA
ATOM     17  C   UNL A   1      39.313  26.662  29.246  1.00  0.00     0.031 C 
ATOM     18  C   UNL A   1      43.312  24.995  26.815  1.00  0.00     0.029 A 
ATOM     19  N   UNL A   1      43.515  27.037  27.704  1.00  0.00    -0.354 N 
ATOM     20  C   UNL A   1      40.016  28.750  29.813  1.00  0.00     0.074 A 
ATOM     21  C   UNL A   1      38.975  27.755  29.906  1.00  0.00     0.031 C 
ATOM     22  C   UNL A   1      44.586  25.378  26.646  1.00  0.00     0.029 A 
ATOM     23  C   UNL A   1      44.721  26.750  27.117  1.00  0.00     0.049 A 
ATOM     24  H   UNL A   1      43.345  27.855  28.227  1.00  0.00     0.167 HD
ATOM     25  C   UNL A   1      39.967  29.983  30.361  1.00  0.00     0.037 A 
ATOM     26  C   UNL A   1      45.775  27.558  26.920  1.00  0.00     0.037 A 
ATOM     27  C   UNL A   1      41.040  30.924  30.211  1.00  0.00     0.049 A 
ATOM     28  C   UNL A   1      45.661  28.966  27.431  1.00  0.00     0.074 A 
ATOM     29  C   UNL A   1      41.119  32.232  30.640  1.00  0.00     0.029 A 
ATOM     30  N   UNL A   1      42.237  30.635  29.558  1.00  0.00    -0.354 N 
ATOM     31  N   UNL A   1      44.662  29.524  28.081  1.00  0.00    -0.248 NA
ATOM     32  C   UNL A   1      46.792  29.861  27.177  1.00  0.00     0.031 C 
ATOM     33  C   UNL A   1      42.341  32.751  30.195  1.00  0.00     0.029 A 
ATOM     34  C   UNL A   1      43.053  31.748  29.549  1.00  0.00     0.049 A 
ATOM     35  H   UNL A   1      42.467  29.764  29.161  1.00  0.00     0.167 HD
ATOM     36  C   UNL A   1      45.049  30.830  28.334  1.00  0.00     0.074 A 
ATOM     37  C   UNL A   1      46.379  30.976  27.765  1.00  0.00     0.031 C 
ATOM     38  C   UNL A   1      44.379  31.819  28.976  1.00  0.00     0.037 A 
BRANCH  25  39
ATOM     39  C   UNL A   1      38.677  30.374  31.020  1.00  0.00     0.057 A 
ATOM     40  C   UNL A   1      37.636  31.008  30.331  1.00  0.00     0.134 A 
ATOM     41  C   UNL A   1      38.526  30.208  32.403  1.00  0.00     0.134 A 
ATOM     42  F   UNL A   1      37.731  31.237  29.012  1.00  0.00    -0.206 F 
ATOM     43  C   UNL A   1      36.512  31.502  30.999  1.00  0.00     0.040 A 
ATOM     44  C   UNL A   1      37.395  30.671  33.077  1.00  0.00     0.040 A 
ATOM     45  F   UNL A   1      39.490  29.624  33.129  1.00  0.00    -0.206 F 
ATOM     46  C   UNL A   1      36.390  31.334  32.377  1.00  0.00     0.006 A 
ENDBRANCH  25  39
BRANCH  26  47
ATOM     47  C   UNL A   1      46.941  27.067  26.145  1.00  0.00     0.057 A 
ATOM     48  C   UNL A   1      47.032  27.253  24.764  1.00  0.00     0.134 A 
ATOM     49  C   UNL A   1      48.028  26.452  26.785  1.00  0.00     0.134 A 
ATOM     50  F   UNL A   1      46.024  27.826  24.091  1.00  0.00    -0.206 F 
ATOM     51  C   UNL A   1      48.160  26.847  24.045  1.00  0.00     0.040 A 
ATOM     52  C   UNL A   1      49.171  26.065  26.084  1.00  0.00     0.040 A 
ATOM     53  F   UNL A   1      48.010  26.252  28.111  1.00  0.00    -0.206 F 
ATOM     54  C   UNL A   1      49.238  26.260  24.707  1.00  0.00     0.006 A 
ENDBRANCH  26  47
BRANCH  38  55
ATOM     55  C   UNL A   1      45.096  33.122  29.144  1.00  0.00     0.057 A 
ATOM     56  C   UNL A   1      44.934  34.176  28.240  1.00  0.00     0.134 A 
ATOM     57  C   UNL A   1      45.868  33.349  30.290  1.00  0.00     0.134 A 
ATOM     58  F   UNL A   1      44.214  34.009  27.120  1.00  0.00    -0.206 F 
ATOM     59  C   UNL A   1      45.519  35.420  28.473  1.00  0.00     0.040 A 
ATOM     60  C   UNL A   1      46.433  34.596  30.546  1.00  0.00     0.040 A 
ATOM     61  F   UNL A   1      46.046  32.376  31.196  1.00  0.00    -0.206 F 
ATOM     62  C   UNL A   1      46.258  35.635  29.635  1.00  0.00     0.006 A 
ENDBRANCH  38  55
ENDBRANCH  12  13
ENDBRANCH   5   7
ENDBRANCH   4   5
ENDBRANCH   3   4
ENDBRANCH   2   3
ENDBRANCH   1   2
BRANCH   1  63
ATOM     63  C   UNL A   1      33.276  22.176  24.869  1.00  0.00     0.202 C 
BRANCH  63  64
ATOM     64  C   UNL A   1      32.451  22.853  25.963  1.00  0.00     0.261 C 
BRANCH  64  65
ATOM     65  O   UNL A   1      32.755  24.258  25.954  1.00  0.00    -0.463 OA
BRANCH  65  66
ATOM     66  C   UNL A   1      31.728  25.062  26.352  1.00  0.00     0.312 C 
ATOM     67  O   UNL A   1      30.728  24.636  26.904  1.00  0.00    -0.252 OA
BRANCH  66  68
ATOM     68  C   UNL A   1      32.010  26.560  26.030  1.00  0.00     0.073 C 
ATOM     69  C   UNL A   1      31.439  27.479  27.173  1.00  0.00     0.019 C 
ATOM     70  C   UNL A   1      33.553  26.657  26.021  1.00  0.00     0.019 C 
ATOM     71  C   UNL A   1      32.067  28.854  27.347  1.00  0.00     0.001 C 
ATOM     72  C   UNL A   1      34.144  28.053  26.167  1.00  0.00     0.001 C 
ATOM     73  C   UNL A   1      33.579  28.800  27.365  1.00  0.00     0.000 C 
BRANCH  68  74
ATOM     74  C   UNL A   1      31.233  26.890  24.691  1.00  0.00     0.035 C 
ATOM     75  C   UNL A   1      31.395  28.303  24.092  1.00  0.00     0.007 C 
ATOM     76  C   UNL A   1      31.322  25.940  23.471  1.00  0.00     0.118 C 
ATOM     77  C   UNL A   1      31.455  28.144  22.576  1.00  0.00     0.003 C 
ATOM     78  C   UNL A   1      30.828  26.791  22.304  1.00  0.00     0.032 C 
BRANCH  76  79
ATOM     79  O   UNL A   1      32.635  25.477  23.217  1.00  0.00    -0.393 OA
ATOM     80  H   UNL A   1      32.594  24.616  22.773  1.00  0.00     0.210 HD
ENDBRANCH  76  79
ENDBRANCH  68  74
ENDBRANCH  66  68
ENDBRANCH  65  66
ENDBRANCH  64  65
ENDBRANCH  63  64
ENDBRANCH   1  63
TORSDOF 16
ENDMDL
