MODEL 1
REMARK VINA RESULT:     -11.0      0.000      0.000
REMARK SMILES CC[C@H](C)[C@@H](Nc1ncnc2ccccc12)C(=O)OCCOCCOC(=O)c1ccc(-c2c3nc(c(-c4c(F)cccc4F)c4ccc([nH]4)c(-c4c(F)cccc4F)c4nc(c(-c5c(F)cccc5F)c5ccc2[nH]5)C=C4)C=C3)cc1
REMARK SMILES IDX 22 1 21 2 20 3 19 4 17 5 18 6 5 7 3 8 4 9 2 10 1 11 6 12
REMARK SMILES IDX 7 14 8 15 16 16 9 17 11 18 15 19 10 20 12 21 14 22 13 23
REMARK SMILES IDX 23 24 24 25 25 26 26 27 27 28 28 29 29 30 81 31 30 32 80 33
REMARK SMILES IDX 31 34 32 35 33 36 74 37 34 38 79 39 73 40 75 41 35 42 78 43
REMARK SMILES IDX 72 44 71 45 36 47 62 48 45 49 61 50 46 51 49 52 60 53 76 54
REMARK SMILES IDX 47 55 48 56 59 58 77 59 50 60 37 61 38 62 43 63 39 64 40 65
REMARK SMILES IDX 42 66 44 67 41 68 63 69 64 70 69 71 65 72 66 73 68 74 70 75
REMARK SMILES IDX 67 76 51 77 52 78 57 79 53 80 54 81 56 82 58 83 55 84
REMARK H PARENT 6 13 75 46 49 57
REMARK Flexibility Score: inf
ROOT
ATOM      1  O   UNL A   1      41.711  20.592  25.632  1.00  0.00    -0.374 OA
ENDROOT
BRANCH   1   2
ATOM      2  C   UNL A   1      40.609  20.815  26.503  1.00  0.00     0.202 C 
BRANCH   2   3
ATOM      3  C   UNL A   1      39.771  22.082  26.357  1.00  0.00     0.261 C 
BRANCH   3   4
ATOM      4  O   UNL A   1      38.363  21.892  26.130  1.00  0.00    -0.462 OA
BRANCH   4   5
ATOM      5  C   UNL A   1      37.645  23.051  26.112  1.00  0.00     0.328 C 
ATOM      6  O   UNL A   1      38.095  24.145  26.445  1.00  0.00    -0.250 OA
BRANCH   5   7
ATOM      7  C   UNL A   1      36.173  22.859  25.709  1.00  0.00     0.194 C 
BRANCH   7   8
ATOM      8  C   UNL A   1      35.866  23.596  24.369  1.00  0.00     0.019 C 
ATOM      9  C   UNL A   1      36.061  22.712  23.124  1.00  0.00     0.010 C 
BRANCH   8  10
ATOM     10  C   UNL A   1      34.447  24.225  24.291  1.00  0.00     0.002 C 
ATOM     11  C   UNL A   1      34.000  24.734  22.925  1.00  0.00     0.004 C 
ENDBRANCH   8  10
ENDBRANCH   7   8
BRANCH   7  12
ATOM     12  N   UNL A   1      35.741  21.441  25.665  1.00  0.00    -0.356 N 
ATOM     13  H   UNL A   1      36.456  20.767  25.733  1.00  0.00     0.163 HD
BRANCH  12  14
ATOM     14  C   UNL A   1      34.460  20.955  25.542  1.00  0.00     0.137 A 
ATOM     15  N   UNL A   1      33.562  21.840  26.004  1.00  0.00    -0.219 NA
ATOM     16  C   UNL A   1      34.069  19.746  24.945  1.00  0.00     0.043 A 
ATOM     17  C   UNL A   1      32.277  21.582  25.750  1.00  0.00     0.224 A 
ATOM     18  C   UNL A   1      32.704  19.651  24.638  1.00  0.00     0.076 A 
ATOM     19  C   UNL A   1      34.920  18.665  24.597  1.00  0.00     0.014 A 
ATOM     20  N   UNL A   1      31.806  20.555  25.038  1.00  0.00    -0.236 NA
ATOM     21  C   UNL A   1      32.268  18.596  23.845  1.00  0.00     0.029 A 
ATOM     22  C   UNL A   1      34.464  17.619  23.796  1.00  0.00     0.001 A 
ATOM     23  C   UNL A   1      33.139  17.603  23.391  1.00  0.00     0.002 A 
ENDBRANCH  12  14
ENDBRANCH   7  12
ENDBRANCH   5   7
ENDBRANCH   4   5
ENDBRANCH   3   4
ENDBRANCH   2   3
ENDBRANCH   1   2
BRANCH   1  24
ATOM     24  C   UNL A   1      43.032  20.754  26.126  1.00  0.00     0.202 C 
BRANCH  24  25
ATOM     25  C   UNL A   1      43.916  21.871  25.558  1.00  0.00     0.261 C 
BRANCH  25  26
ATOM     26  O   UNL A   1      43.197  22.990  25.035  1.00  0.00    -0.460 OA
BRANCH  26  27
ATOM     27  C   UNL A   1      43.884  24.156  25.128  1.00  0.00     0.338 C 
ATOM     28  O   UNL A   1      44.904  24.467  24.541  1.00  0.00    -0.246 OA
BRANCH  27  29
ATOM     29  C   UNL A   1      43.132  25.106  25.962  1.00  0.00     0.060 A 
ATOM     30  C   UNL A   1      43.698  26.369  26.172  1.00  0.00     0.016 A 
ATOM     31  C   UNL A   1      41.942  24.735  26.589  1.00  0.00     0.016 A 
ATOM     32  C   UNL A   1      43.107  27.248  27.069  1.00  0.00     0.010 A 
ATOM     33  C   UNL A   1      41.353  25.615  27.496  1.00  0.00     0.010 A 
ATOM     34  C   UNL A   1      41.962  26.852  27.772  1.00  0.00    -0.014 A 
BRANCH  34  35
ATOM     35  C   UNL A   1      41.518  27.660  28.927  1.00  0.00     0.031 A 
ATOM     36  C   UNL A   1      42.288  27.553  30.214  1.00  0.00     0.074 A 
ATOM     37  C   UNL A   1      40.480  28.504  28.809  1.00  0.00     0.049 A 
ATOM     38  N   UNL A   1      42.086  28.159  31.354  1.00  0.00    -0.248 NA
ATOM     39  C   UNL A   1      43.441  26.636  30.214  1.00  0.00     0.031 C 
ATOM     40  C   UNL A   1      39.694  28.707  27.593  1.00  0.00     0.029 A 
ATOM     41  N   UNL A   1      39.912  29.347  29.726  1.00  0.00    -0.354 N 
ATOM     42  C   UNL A   1      43.079  27.693  32.207  1.00  0.00     0.074 A 
ATOM     43  C   UNL A   1      43.860  26.728  31.466  1.00  0.00     0.031 C 
ATOM     44  C   UNL A   1      38.739  29.621  27.841  1.00  0.00     0.029 A 
ATOM     45  C   UNL A   1      38.831  30.039  29.239  1.00  0.00     0.049 A 
ATOM     46  H   UNL A   1      40.247  29.447  30.647  1.00  0.00     0.167 HD
ATOM     47  C   UNL A   1      43.322  28.050  33.489  1.00  0.00     0.037 A 
ATOM     48  C   UNL A   1      38.004  30.897  29.863  1.00  0.00     0.037 A 
ATOM     49  C   UNL A   1      42.536  29.015  34.212  1.00  0.00     0.049 A 
ATOM     50  C   UNL A   1      38.256  31.229  31.309  1.00  0.00     0.074 A 
ATOM     51  C   UNL A   1      42.703  29.467  35.509  1.00  0.00     0.029 A 
ATOM     52  N   UNL A   1      41.426  29.670  33.698  1.00  0.00    -0.354 N 
ATOM     53  N   UNL A   1      39.214  30.807  32.101  1.00  0.00    -0.248 NA
ATOM     54  C   UNL A   1      37.316  32.159  31.949  1.00  0.00     0.031 C 
ATOM     55  C   UNL A   1      41.660  30.354  35.796  1.00  0.00     0.029 A 
ATOM     56  C   UNL A   1      40.880  30.501  34.660  1.00  0.00     0.049 A 
ATOM     57  H   UNL A   1      41.079  29.560  32.783  1.00  0.00     0.167 HD
ATOM     58  C   UNL A   1      39.010  31.442  33.320  1.00  0.00     0.074 A 
ATOM     59  C   UNL A   1      37.846  32.288  33.157  1.00  0.00     0.031 C 
ATOM     60  C   UNL A   1      39.722  31.338  34.470  1.00  0.00     0.037 A 
BRANCH  47  61
ATOM     61  C   UNL A   1      44.461  27.374  34.195  1.00  0.00     0.057 A 
ATOM     62  C   UNL A   1      44.310  26.139  34.840  1.00  0.00     0.134 A 
ATOM     63  C   UNL A   1      45.734  27.958  34.213  1.00  0.00     0.134 A 
ATOM     64  F   UNL A   1      43.114  25.532  34.877  1.00  0.00    -0.206 F 
ATOM     65  C   UNL A   1      45.377  25.522  35.497  1.00  0.00     0.040 A 
ATOM     66  C   UNL A   1      46.816  27.337  34.842  1.00  0.00     0.040 A 
ATOM     67  F   UNL A   1      45.951  29.139  33.615  1.00  0.00    -0.206 F 
ATOM     68  C   UNL A   1      46.636  26.118  35.493  1.00  0.00     0.006 A 
ENDBRANCH  47  61
BRANCH  48  69
ATOM     69  C   UNL A   1      36.862  31.498  29.127  1.00  0.00     0.057 A 
ATOM     70  C   UNL A   1      36.894  32.828  28.695  1.00  0.00     0.134 A 
ATOM     71  C   UNL A   1      35.707  30.757  28.847  1.00  0.00     0.134 A 
ATOM     72  F   UNL A   1      37.964  33.596  28.951  1.00  0.00    -0.206 F 
ATOM     73  C   UNL A   1      35.813  33.407  28.028  1.00  0.00     0.040 A 
ATOM     74  C   UNL A   1      34.629  31.315  28.156  1.00  0.00     0.040 A 
ATOM     75  F   UNL A   1      35.614  29.475  29.228  1.00  0.00    -0.206 F 
ATOM     76  C   UNL A   1      34.678  32.648  27.751  1.00  0.00     0.006 A 
ENDBRANCH  48  69
BRANCH  60  77
ATOM     77  C   UNL A   1      39.282  32.187  35.627  1.00  0.00     0.057 A 
ATOM     78  C   UNL A   1      39.713  33.511  35.781  1.00  0.00     0.134 A 
ATOM     79  C   UNL A   1      38.380  31.685  36.574  1.00  0.00     0.134 A 
ATOM     80  F   UNL A   1      40.586  34.048  34.915  1.00  0.00    -0.206 F 
ATOM     81  C   UNL A   1      39.284  34.296  36.853  1.00  0.00     0.040 A 
ATOM     82  C   UNL A   1      37.919  32.471  37.631  1.00  0.00     0.040 A 
ATOM     83  F   UNL A   1      37.918  30.429  36.477  1.00  0.00    -0.206 F 
ATOM     84  C   UNL A   1      38.378  33.778  37.777  1.00  0.00     0.006 A 
ENDBRANCH  60  77
ENDBRANCH  34  35
ENDBRANCH  27  29
ENDBRANCH  26  27
ENDBRANCH  25  26
ENDBRANCH  24  25
ENDBRANCH   1  24
TORSDOF 18
ENDMDL
MODEL 2
REMARK VINA RESULT:     -10.7      4.164      7.012
REMARK SMILES CC[C@H](C)[C@@H](Nc1ncnc2ccccc12)C(=O)OCCOCCOC(=O)c1ccc(-c2c3nc(c(-c4c(F)cccc4F)c4ccc([nH]4)c(-c4c(F)cccc4F)c4nc(c(-c5c(F)cccc5F)c5ccc2[nH]5)C=C4)C=C3)cc1
REMARK SMILES IDX 22 1 21 2 20 3 19 4 17 5 18 6 5 7 3 8 4 9 2 10 1 11 6 12
REMARK SMILES IDX 7 14 8 15 16 16 9 17 11 18 15 19 10 20 12 21 14 22 13 23
REMARK SMILES IDX 23 24 24 25 25 26 26 27 27 28 28 29 29 30 81 31 30 32 80 33
REMARK SMILES IDX 31 34 32 35 33 36 74 37 34 38 79 39 73 40 75 41 35 42 78 43
REMARK SMILES IDX 72 44 71 45 36 47 62 48 45 49 61 50 46 51 49 52 60 53 76 54
REMARK SMILES IDX 47 55 48 56 59 58 77 59 50 60 37 61 38 62 43 63 39 64 40 65
REMARK SMILES IDX 42 66 44 67 41 68 63 69 64 70 69 71 65 72 66 73 68 74 70 75
REMARK SMILES IDX 67 76 51 77 52 78 57 79 53 80 54 81 56 82 58 83 55 84
REMARK H PARENT 6 13 75 46 49 57
REMARK Flexibility Score: inf
ROOT
ATOM      1  O   UNL A   1      36.122  21.877  25.863  1.00  0.00    -0.374 OA
ENDROOT
BRANCH   1   2
ATOM      2  C   UNL A   1      34.957  22.645  25.589  1.00  0.00     0.202 C 
BRANCH   2   3
ATOM      3  C   UNL A   1      33.902  22.837  26.675  1.00  0.00     0.261 C 
BRANCH   3   4
ATOM      4  O   UNL A   1      32.538  22.592  26.287  1.00  0.00    -0.462 OA
BRANCH   4   5
ATOM      5  C   UNL A   1      31.719  23.671  26.440  1.00  0.00     0.328 C 
ATOM      6  O   UNL A   1      30.880  23.779  27.332  1.00  0.00    -0.250 OA
BRANCH   5   7
ATOM      7  C   UNL A   1      31.878  24.729  25.334  1.00  0.00     0.194 C 
BRANCH   7   8
ATOM      8  C   UNL A   1      31.945  24.055  23.929  1.00  0.00     0.019 C 
ATOM      9  C   UNL A   1      30.572  23.927  23.244  1.00  0.00     0.010 C 
BRANCH   8  10
ATOM     10  C   UNL A   1      32.915  24.744  22.930  1.00  0.00     0.002 C 
ATOM     11  C   UNL A   1      32.278  25.465  21.747  1.00  0.00     0.004 C 
ENDBRANCH   8  10
ENDBRANCH   7   8
BRANCH   7  12
ATOM     12  N   UNL A   1      30.858  25.804  25.379  1.00  0.00    -0.356 N 
ATOM     13  H   UNL A   1      29.970  25.546  25.716  1.00  0.00     0.163 HD
BRANCH  12  14
ATOM     14  C   UNL A   1      31.005  27.120  25.005  1.00  0.00     0.137 A 
ATOM     15  N   UNL A   1      30.240  27.408  23.940  1.00  0.00    -0.219 NA
ATOM     16  C   UNL A   1      31.768  28.102  25.657  1.00  0.00     0.043 A 
ATOM     17  C   UNL A   1      30.130  28.696  23.608  1.00  0.00     0.224 A 
ATOM     18  C   UNL A   1      31.475  29.423  25.285  1.00  0.00     0.076 A 
ATOM     19  C   UNL A   1      32.746  27.880  26.660  1.00  0.00     0.014 A 
ATOM     20  N   UNL A   1      30.668  29.727  24.265  1.00  0.00    -0.236 NA
ATOM     21  C   UNL A   1      32.012  30.463  26.034  1.00  0.00     0.029 A 
ATOM     22  C   UNL A   1      33.267  28.938  27.404  1.00  0.00     0.001 A 
ATOM     23  C   UNL A   1      32.872  30.233  27.111  1.00  0.00     0.002 A 
ENDBRANCH  12  14
ENDBRANCH   7  12
ENDBRANCH   5   7
ENDBRANCH   4   5
ENDBRANCH   3   4
ENDBRANCH   2   3
ENDBRANCH   1   2
BRANCH   1  24
ATOM     24  C   UNL A   1      36.345  20.671  25.147  1.00  0.00     0.202 C 
BRANCH  24  25
ATOM     25  C   UNL A   1      37.767  20.104  25.052  1.00  0.00     0.261 C 
BRANCH  25  26
ATOM     26  O   UNL A   1      38.804  21.083  25.154  1.00  0.00    -0.460 OA
BRANCH  26  27
ATOM     27  C   UNL A   1      39.658  20.849  26.183  1.00  0.00     0.338 C 
ATOM     28  O   UNL A   1      40.185  19.795  26.488  1.00  0.00    -0.246 OA
BRANCH  27  29
ATOM     29  C   UNL A   1      40.000  22.121  26.838  1.00  0.00     0.060 A 
ATOM     30  C   UNL A   1      39.297  23.264  26.435  1.00  0.00     0.016 A 
ATOM     31  C   UNL A   1      41.043  22.203  27.762  1.00  0.00     0.016 A 
ATOM     32  C   UNL A   1      39.681  24.510  26.910  1.00  0.00     0.010 A 
ATOM     33  C   UNL A   1      41.432  23.456  28.231  1.00  0.00     0.010 A 
ATOM     34  C   UNL A   1      40.783  24.614  27.768  1.00  0.00    -0.014 A 
BRANCH  34  35
ATOM     35  C   UNL A   1      41.364  25.948  28.026  1.00  0.00     0.031 A 
ATOM     36  C   UNL A   1      42.741  26.243  27.502  1.00  0.00     0.074 A 
ATOM     37  C   UNL A   1      40.654  26.887  28.674  1.00  0.00     0.049 A 
ATOM     38  N   UNL A   1      43.453  27.334  27.606  1.00  0.00    -0.248 NA
ATOM     39  C   UNL A   1      43.407  25.158  26.760  1.00  0.00     0.031 C 
ATOM     40  C   UNL A   1      39.296  26.711  29.187  1.00  0.00     0.029 A 
ATOM     41  N   UNL A   1      40.979  28.174  29.006  1.00  0.00    -0.354 N 
ATOM     42  C   UNL A   1      44.649  27.066  26.951  1.00  0.00     0.074 A 
ATOM     43  C   UNL A   1      44.583  25.699  26.485  1.00  0.00     0.031 C 
ATOM     44  C   UNL A   1      38.903  27.855  29.775  1.00  0.00     0.029 A 
ATOM     45  C   UNL A   1      39.992  28.825  29.704  1.00  0.00     0.049 A 
ATOM     46  H   UNL A   1      41.838  28.593  28.768  1.00  0.00     0.167 HD
ATOM     47  C   UNL A   1      45.701  27.893  26.749  1.00  0.00     0.037 A 
ATOM     48  C   UNL A   1      39.985  30.061  30.237  1.00  0.00     0.037 A 
ATOM     49  C   UNL A   1      45.750  29.253  27.218  1.00  0.00     0.049 A 
ATOM     50  C   UNL A   1      41.194  30.939  30.054  1.00  0.00     0.074 A 
ATOM     51  C   UNL A   1      46.756  30.186  27.053  1.00  0.00     0.029 A 
ATOM     52  N   UNL A   1      44.746  29.868  27.952  1.00  0.00    -0.354 N 
ATOM     53  N   UNL A   1      42.309  30.689  29.410  1.00  0.00    -0.248 NA
ATOM     54  C   UNL A   1      41.142  32.273  30.668  1.00  0.00     0.031 C 
ATOM     55  C   UNL A   1      46.385  31.349  27.736  1.00  0.00     0.029 A 
ATOM     56  C   UNL A   1      45.121  31.160  28.274  1.00  0.00     0.049 A 
ATOM     57  H   UNL A   1      43.893  29.447  28.206  1.00  0.00     0.167 HD
ATOM     58  C   UNL A   1      43.079  31.842  29.514  1.00  0.00     0.074 A 
ATOM     59  C   UNL A   1      42.294  32.795  30.272  1.00  0.00     0.031 C 
ATOM     60  C   UNL A   1      44.319  32.092  29.026  1.00  0.00     0.037 A 
BRANCH  47  61
ATOM     61  C   UNL A   1      46.889  27.339  26.017  1.00  0.00     0.057 A 
ATOM     62  C   UNL A   1      47.029  27.454  24.628  1.00  0.00     0.134 A 
ATOM     63  C   UNL A   1      47.919  26.695  26.716  1.00  0.00     0.134 A 
ATOM     64  F   UNL A   1      46.071  28.043  23.895  1.00  0.00    -0.206 F 
ATOM     65  C   UNL A   1      48.136  26.931  23.958  1.00  0.00     0.040 A 
ATOM     66  C   UNL A   1      49.045  26.193  26.062  1.00  0.00     0.040 A 
ATOM     67  F   UNL A   1      47.851  26.550  28.048  1.00  0.00    -0.206 F 
ATOM     68  C   UNL A   1      49.152  26.304  24.677  1.00  0.00     0.006 A 
ENDBRANCH  47  61
BRANCH  48  69
ATOM     69  C   UNL A   1      38.799  30.537  30.994  1.00  0.00     0.057 A 
ATOM     70  C   UNL A   1      37.785  31.271  30.371  1.00  0.00     0.134 A 
ATOM     71  C   UNL A   1      38.659  30.278  32.364  1.00  0.00     0.134 A 
ATOM     72  F   UNL A   1      37.871  31.569  29.066  1.00  0.00    -0.206 F 
ATOM     73  C   UNL A   1      36.682  31.746  31.083  1.00  0.00     0.040 A 
ATOM     74  C   UNL A   1      37.548  30.723  33.083  1.00  0.00     0.040 A 
ATOM     75  F   UNL A   1      39.594  29.576  33.021  1.00  0.00    -0.206 F 
ATOM     76  C   UNL A   1      36.558  31.467  32.443  1.00  0.00     0.006 A 
ENDBRANCH  48  69
BRANCH  60  77
ATOM     77  C   UNL A   1      44.886  33.461  29.267  1.00  0.00     0.057 A 
ATOM     78  C   UNL A   1      45.702  33.742  30.370  1.00  0.00     0.134 A 
ATOM     79  C   UNL A   1      44.646  34.499  28.357  1.00  0.00     0.134 A 
ATOM     80  F   UNL A   1      45.961  32.794  31.284  1.00  0.00    -0.206 F 
ATOM     81  C   UNL A   1      46.237  35.016  30.573  1.00  0.00     0.040 A 
ATOM     82  C   UNL A   1      45.201  35.767  28.534  1.00  0.00     0.040 A 
ATOM     83  F   UNL A   1      43.883  34.292  27.273  1.00  0.00    -0.206 F 
ATOM     84  C   UNL A   1      45.993  36.029  29.650  1.00  0.00     0.006 A 
ENDBRANCH  60  77
ENDBRANCH  34  35
ENDBRANCH  27  29
ENDBRANCH  26  27
ENDBRANCH  25  26
ENDBRANCH  24  25
ENDBRANCH   1  24
TORSDOF 18
ENDMDL
MODEL 3
REMARK VINA RESULT:     -10.6      2.090      7.142
REMARK SMILES CC[C@H](C)[C@@H](Nc1ncnc2ccccc12)C(=O)OCCOCCOC(=O)c1ccc(-c2c3nc(c(-c4c(F)cccc4F)c4ccc([nH]4)c(-c4c(F)cccc4F)c4nc(c(-c5c(F)cccc5F)c5ccc2[nH]5)C=C4)C=C3)cc1
REMARK SMILES IDX 22 1 21 2 20 3 19 4 17 5 18 6 5 7 3 8 4 9 2 10 1 11 6 12
REMARK SMILES IDX 7 14 8 15 16 16 9 17 11 18 15 19 10 20 12 21 14 22 13 23
REMARK SMILES IDX 23 24 24 25 25 26 26 27 27 28 28 29 29 30 81 31 30 32 80 33
REMARK SMILES IDX 31 34 32 35 33 36 74 37 34 38 79 39 73 40 75 41 35 42 78 43
REMARK SMILES IDX 72 44 71 45 36 47 62 48 45 49 61 50 46 51 49 52 60 53 76 54
REMARK SMILES IDX 47 55 48 56 59 58 77 59 50 60 37 61 38 62 43 63 39 64 40 65
REMARK SMILES IDX 42 66 44 67 41 68 63 69 64 70 69 71 65 72 66 73 68 74 70 75
REMARK SMILES IDX 67 76 51 77 52 78 57 79 53 80 54 81 56 82 58 83 55 84
REMARK H PARENT 6 13 75 46 49 57
REMARK Flexibility Score: inf
ROOT
ATOM      1  O   UNL A   1      38.507  22.113  26.138  1.00  0.00    -0.374 OA
ENDROOT
BRANCH   1   2
ATOM      2  C   UNL A   1      37.760  21.817  24.965  1.00  0.00     0.202 C 
BRANCH   2   3
ATOM      3  C   UNL A   1      36.622  20.802  25.025  1.00  0.00     0.261 C 
BRANCH   3   4
ATOM      4  O   UNL A   1      35.461  21.192  25.780  1.00  0.00    -0.462 OA
BRANCH   4   5
ATOM      5  C   UNL A   1      35.072  22.482  25.567  1.00  0.00     0.328 C 
ATOM      6  O   UNL A   1      35.140  23.370  26.415  1.00  0.00    -0.250 OA
BRANCH   5   7
ATOM      7  C   UNL A   1      34.454  22.720  24.179  1.00  0.00     0.194 C 
BRANCH   7   8
ATOM      8  C   UNL A   1      32.921  22.434  24.200  1.00  0.00     0.019 C 
ATOM      9  C   UNL A   1      32.542  21.075  23.585  1.00  0.00     0.010 C 
BRANCH   8  10
ATOM     10  C   UNL A   1      32.269  22.520  25.607  1.00  0.00     0.002 C 
ATOM     11  C   UNL A   1      31.069  23.449  25.749  1.00  0.00     0.004 C 
ENDBRANCH   8  10
ENDBRANCH   7   8
BRANCH   7  12
ATOM     12  N   UNL A   1      34.755  24.056  23.608  1.00  0.00    -0.356 N 
ATOM     13  H   UNL A   1      35.707  24.262  23.466  1.00  0.00     0.163 HD
BRANCH  12  14
ATOM     14  C   UNL A   1      33.861  25.039  23.252  1.00  0.00     0.137 A 
ATOM     15  N   UNL A   1      33.585  24.988  21.939  1.00  0.00    -0.219 NA
ATOM     16  C   UNL A   1      33.221  25.947  24.110  1.00  0.00     0.043 A 
ATOM     17  C   UNL A   1      32.577  25.749  21.506  1.00  0.00     0.224 A 
ATOM     18  C   UNL A   1      32.111  26.603  23.557  1.00  0.00     0.076 A 
ATOM     19  C   UNL A   1      33.564  26.216  25.460  1.00  0.00     0.014 A 
ATOM     20  N   UNL A   1      31.787  26.514  22.264  1.00  0.00    -0.236 NA
ATOM     21  C   UNL A   1      31.284  27.341  24.394  1.00  0.00     0.029 A 
ATOM     22  C   UNL A   1      32.717  26.955  26.284  1.00  0.00     0.001 A 
ATOM     23  C   UNL A   1      31.554  27.492  25.756  1.00  0.00     0.002 A 
ENDBRANCH  12  14
ENDBRANCH   7  12
ENDBRANCH   5   7
ENDBRANCH   4   5
ENDBRANCH   3   4
ENDBRANCH   2   3
ENDBRANCH   1   2
BRANCH   1  24
ATOM     24  C   UNL A   1      39.757  21.473  26.346  1.00  0.00     0.202 C 
BRANCH  24  25
ATOM     25  C   UNL A   1      41.051  22.285  26.201  1.00  0.00     0.261 C 
BRANCH  25  26
ATOM     26  O   UNL A   1      41.200  23.340  27.154  1.00  0.00    -0.460 OA
BRANCH  26  27
ATOM     27  C   UNL A   1      41.619  24.505  26.598  1.00  0.00     0.338 C 
ATOM     28  O   UNL A   1      42.166  24.662  25.522  1.00  0.00    -0.246 OA
BRANCH  27  29
ATOM     29  C   UNL A   1      41.182  25.634  27.434  1.00  0.00     0.060 A 
ATOM     30  C   UNL A   1      41.948  26.805  27.388  1.00  0.00     0.016 A 
ATOM     31  C   UNL A   1      40.097  25.514  28.304  1.00  0.00     0.016 A 
ATOM     32  C   UNL A   1      41.670  27.844  28.265  1.00  0.00     0.010 A 
ATOM     33  C   UNL A   1      39.824  26.555  29.190  1.00  0.00     0.010 A 
ATOM     34  C   UNL A   1      40.640  27.701  29.204  1.00  0.00    -0.014 A 
BRANCH  34  35
ATOM     35  C   UNL A   1      40.546  28.670  30.315  1.00  0.00     0.031 A 
ATOM     36  C   UNL A   1      39.496  29.744  30.241  1.00  0.00     0.074 A 
ATOM     37  C   UNL A   1      41.351  28.561  31.384  1.00  0.00     0.049 A 
ATOM     38  N   UNL A   1      39.227  30.701  31.089  1.00  0.00    -0.248 NA
ATOM     39  C   UNL A   1      38.634  29.737  29.047  1.00  0.00     0.031 C 
ATOM     40  C   UNL A   1      42.374  27.532  31.567  1.00  0.00     0.029 A 
ATOM     41  N   UNL A   1      41.430  29.324  32.518  1.00  0.00    -0.354 N 
ATOM     42  C   UNL A   1      38.173  31.412  30.530  1.00  0.00     0.074 A 
ATOM     43  C   UNL A   1      37.874  30.801  29.255  1.00  0.00     0.031 C 
ATOM     44  C   UNL A   1      42.983  27.731  32.749  1.00  0.00     0.029 A 
ATOM     45  C   UNL A   1      42.413  28.916  33.385  1.00  0.00     0.049 A 
ATOM     46  H   UNL A   1      40.840  30.092  32.694  1.00  0.00     0.167 HD
ATOM     47  C   UNL A   1      37.509  32.473  31.044  1.00  0.00     0.037 A 
ATOM     48  C   UNL A   1      42.811  29.455  34.552  1.00  0.00     0.037 A 
ATOM     49  C   UNL A   1      37.817  33.069  32.317  1.00  0.00     0.049 A 
ATOM     50  C   UNL A   1      42.098  30.675  35.071  1.00  0.00     0.074 A 
ATOM     51  C   UNL A   1      37.197  34.134  32.944  1.00  0.00     0.029 A 
ATOM     52  N   UNL A   1      38.842  32.651  33.153  1.00  0.00    -0.354 N 
ATOM     53  N   UNL A   1      41.084  31.325  34.551  1.00  0.00    -0.248 NA
ATOM     54  C   UNL A   1      42.581  31.234  36.341  1.00  0.00     0.031 C 
ATOM     55  C   UNL A   1      37.883  34.395  34.135  1.00  0.00     0.029 A 
ATOM     56  C   UNL A   1      38.891  33.455  34.278  1.00  0.00     0.049 A 
ATOM     57  H   UNL A   1      39.445  31.894  32.973  1.00  0.00     0.167 HD
ATOM     58  C   UNL A   1      40.788  32.349  35.442  1.00  0.00     0.074 A 
ATOM     59  C   UNL A   1      41.723  32.223  36.542  1.00  0.00     0.031 C 
ATOM     60  C   UNL A   1      39.830  33.306  35.362  1.00  0.00     0.037 A 
BRANCH  47  61
ATOM     61  C   UNL A   1      36.407  33.070  30.216  1.00  0.00     0.057 A 
ATOM     62  C   UNL A   1      36.666  33.946  29.153  1.00  0.00     0.134 A 
ATOM     63  C   UNL A   1      35.069  32.749  30.475  1.00  0.00     0.134 A 
ATOM     64  F   UNL A   1      37.924  34.310  28.862  1.00  0.00    -0.206 F 
ATOM     65  C   UNL A   1      35.632  34.498  28.393  1.00  0.00     0.040 A 
ATOM     66  C   UNL A   1      34.029  33.272  29.704  1.00  0.00     0.040 A 
ATOM     67  F   UNL A   1      34.749  31.916  31.477  1.00  0.00    -0.206 F 
ATOM     68  C   UNL A   1      34.310  34.156  28.664  1.00  0.00     0.006 A 
ENDBRANCH  47  61
BRANCH  48  69
ATOM     69  C   UNL A   1      43.941  28.850  35.303  1.00  0.00     0.057 A 
ATOM     70  C   UNL A   1      43.721  27.902  36.307  1.00  0.00     0.134 A 
ATOM     71  C   UNL A   1      45.267  29.215  35.041  1.00  0.00     0.134 A 
ATOM     72  F   UNL A   1      42.471  27.525  36.619  1.00  0.00    -0.206 F 
ATOM     73  C   UNL A   1      44.775  27.350  37.037  1.00  0.00     0.040 A 
ATOM     74  C   UNL A   1      46.334  28.651  35.744  1.00  0.00     0.040 A 
ATOM     75  F   UNL A   1      45.548  30.115  34.088  1.00  0.00    -0.206 F 
ATOM     76  C   UNL A   1      46.088  27.720  36.752  1.00  0.00     0.006 A 
ENDBRANCH  48  69
BRANCH  60  77
ATOM     77  C   UNL A   1      39.723  34.266  36.511  1.00  0.00     0.057 A 
ATOM     78  C   UNL A   1      40.301  35.541  36.468  1.00  0.00     0.134 A 
ATOM     79  C   UNL A   1      38.994  33.923  37.658  1.00  0.00     0.134 A 
ATOM     80  F   UNL A   1      41.021  35.926  35.404  1.00  0.00    -0.206 F 
ATOM     81  C   UNL A   1      40.180  36.430  37.538  1.00  0.00     0.040 A 
ATOM     82  C   UNL A   1      38.841  34.816  38.719  1.00  0.00     0.040 A 
ATOM     83  F   UNL A   1      38.405  32.722  37.757  1.00  0.00    -0.206 F 
ATOM     84  C   UNL A   1      39.441  36.071  38.663  1.00  0.00     0.006 A 
ENDBRANCH  60  77
ENDBRANCH  34  35
ENDBRANCH  27  29
ENDBRANCH  26  27
ENDBRANCH  25  26
ENDBRANCH  24  25
ENDBRANCH   1  24
TORSDOF 18
ENDMDL
