MODEL 1
REMARK VINA RESULT:     -11.2      0.000      0.000
REMARK SMILES N#Cc1ccc(/C=C/C(=O)N2C[C@@H](O)C[C@H]2C(=O)OCCOCCOC(=O)c2ccc(-c3c4nc(c(-c5c(F)cccc5F)c5ccc([nH]5)c(-c5c(F)cccc5F)c5nc(c(-c6c(F)cccc6F)c6ccc3[nH]6)C=C5)C=C4)cc2)cc1
REMARK SMILES IDX 21 1 20 2 19 3 17 4 18 5 16 6 11 7 12 8 13 9 15 10 9 11
REMARK SMILES IDX 10 12 8 13 7 14 6 15 3 16 4 17 83 18 5 19 82 20 2 21 1 22
REMARK SMILES IDX 14 23 22 25 23 26 24 27 25 28 26 29 27 30 28 31 29 32 81 33
REMARK SMILES IDX 30 34 80 35 31 36 32 37 33 38 74 39 34 40 79 41 73 42 75 43
REMARK SMILES IDX 35 44 78 45 72 46 71 47 36 49 62 50 45 51 61 52 46 53 49 54
REMARK SMILES IDX 60 55 76 56 47 57 48 58 59 60 77 61 50 62 37 63 38 64 43 65
REMARK SMILES IDX 39 66 40 67 42 68 44 69 41 70 63 71 64 72 69 73 65 74 66 75
REMARK SMILES IDX 68 76 70 77 67 78 51 79 52 80 57 81 53 82 54 83 56 84 58 85
REMARK SMILES IDX 55 86
REMARK H PARENT 14 24 75 48 49 59
REMARK Flexibility Score: inf
ROOT
ATOM      1  C   UNL A   1      34.514  21.968  25.860  1.00  0.00     0.202 C 
ENDROOT
BRANCH   1   2
ATOM      2  C   UNL A   1      33.149  21.747  26.522  1.00  0.00     0.261 C 
BRANCH   2   3
ATOM      3  O   UNL A   1      32.055  21.525  25.608  1.00  0.00    -0.462 OA
BRANCH   3   4
ATOM      4  C   UNL A   1      31.044  22.432  25.713  1.00  0.00     0.329 C 
ATOM      5  O   UNL A   1      30.081  22.307  26.467  1.00  0.00    -0.250 OA
BRANCH   4   6
ATOM      6  C   UNL A   1      31.102  23.576  24.692  1.00  0.00     0.198 C 
ATOM      7  N   UNL A   1      31.745  24.873  24.967  1.00  0.00    -0.323 N 
ATOM      8  C   UNL A   1      33.014  24.960  24.269  1.00  0.00     0.152 C 
ATOM      9  C   UNL A   1      32.725  24.184  22.990  1.00  0.00     0.136 C 
ATOM     10  C   UNL A   1      31.876  23.018  23.486  1.00  0.00     0.071 C 
BRANCH   7  11
ATOM     11  C   UNL A   1      30.968  25.918  25.412  1.00  0.00     0.247 C 
ATOM     12  O   UNL A   1      30.312  25.857  26.450  1.00  0.00    -0.270 OA
BRANCH  11  13
ATOM     13  C   UNL A   1      30.839  27.149  24.583  1.00  0.00     0.072 C 
ATOM     14  C   UNL A   1      29.908  27.183  23.612  1.00  0.00     0.014 C 
BRANCH  14  15
ATOM     15  C   UNL A   1      29.415  28.379  22.901  1.00  0.00    -0.025 A 
ATOM     16  C   UNL A   1      28.480  30.853  21.900  1.00  0.00     0.052 A 
ATOM     17  C   UNL A   1      29.792  30.442  21.655  1.00  0.00     0.020 A 
ATOM     18  C   UNL A   1      27.624  30.017  22.620  1.00  0.00     0.020 A 
ATOM     19  C   UNL A   1      30.256  29.215  22.152  1.00  0.00     0.009 A 
ATOM     20  C   UNL A   1      28.089  28.791  23.115  1.00  0.00     0.009 A 
BRANCH  16  21
ATOM     21  C   UNL A   1      28.026  32.140  21.452  1.00  0.00     0.099 C 
ATOM     22  N   UNL A   1      27.654  33.180  21.102  1.00  0.00    -0.192 NA
ENDBRANCH  16  21
ENDBRANCH  14  15
ENDBRANCH  11  13
ENDBRANCH   7  11
BRANCH   9  23
ATOM     23  O   UNL A   1      33.892  23.745  22.326  1.00  0.00    -0.391 OA
ATOM     24  H   UNL A   1      34.569  23.514  22.980  1.00  0.00     0.211 HD
ENDBRANCH   9  23
ENDBRANCH   4   6
ENDBRANCH   3   4
ENDBRANCH   2   3
ENDBRANCH   1   2
BRANCH   1  25
ATOM     25  O   UNL A   1      34.901  21.171  24.752  1.00  0.00    -0.374 OA
BRANCH  25  26
ATOM     26  C   UNL A   1      35.662  19.991  24.980  1.00  0.00     0.202 C 
BRANCH  26  27
ATOM     27  C   UNL A   1      37.197  20.028  24.872  1.00  0.00     0.261 C 
BRANCH  27  28
ATOM     28  O   UNL A   1      37.838  21.196  25.405  1.00  0.00    -0.460 OA
BRANCH  28  29
ATOM     29  C   UNL A   1      39.030  20.951  26.000  1.00  0.00     0.338 C 
ATOM     30  O   UNL A   1      39.670  19.915  25.999  1.00  0.00    -0.246 OA
BRANCH  29  31
ATOM     31  C   UNL A   1      39.554  22.196  26.580  1.00  0.00     0.060 A 
ATOM     32  C   UNL A   1      39.033  23.411  26.123  1.00  0.00     0.016 A 
ATOM     33  C   UNL A   1      40.626  22.165  27.472  1.00  0.00     0.016 A 
ATOM     34  C   UNL A   1      39.600  24.610  26.542  1.00  0.00     0.010 A 
ATOM     35  C   UNL A   1      41.200  23.369  27.887  1.00  0.00     0.010 A 
ATOM     36  C   UNL A   1      40.708  24.595  27.401  1.00  0.00    -0.014 A 
BRANCH  36  37
ATOM     37  C   UNL A   1      41.421  25.859  27.696  1.00  0.00     0.031 A 
ATOM     38  C   UNL A   1      40.718  26.934  28.477  1.00  0.00     0.074 A 
ATOM     39  C   UNL A   1      42.694  26.027  27.297  1.00  0.00     0.049 A 
ATOM     40  N   UNL A   1      41.134  28.133  28.796  1.00  0.00    -0.248 NA
ATOM     41  C   UNL A   1      39.364  26.617  28.961  1.00  0.00     0.031 C 
ATOM     42  C   UNL A   1      43.492  25.034  26.579  1.00  0.00     0.029 A 
ATOM     43  N   UNL A   1      43.539  27.098  27.440  1.00  0.00    -0.354 N 
ATOM     44  C   UNL A   1      40.096  28.712  29.516  1.00  0.00     0.074 A 
ATOM     45  C   UNL A   1      39.015  27.752  29.547  1.00  0.00     0.031 C 
ATOM     46  C   UNL A   1      44.711  25.545  26.340  1.00  0.00     0.029 A 
ATOM     47  C   UNL A   1      44.763  26.915  26.845  1.00  0.00     0.049 A 
ATOM     48  H   UNL A   1      43.290  27.921  27.921  1.00  0.00     0.167 HD
ATOM     49  C   UNL A   1      40.057  29.928  30.111  1.00  0.00     0.037 A 
ATOM     50  C   UNL A   1      45.795  27.767  26.702  1.00  0.00     0.037 A 
ATOM     51  C   UNL A   1      41.137  30.880  30.067  1.00  0.00     0.049 A 
ATOM     52  C   UNL A   1      45.681  29.156  27.276  1.00  0.00     0.074 A 
ATOM     53  C   UNL A   1      41.197  32.141  30.633  1.00  0.00     0.029 A 
ATOM     54  N   UNL A   1      42.343  30.676  29.415  1.00  0.00    -0.354 N 
ATOM     55  N   UNL A   1      44.704  29.689  27.969  1.00  0.00    -0.248 NA
ATOM     56  C   UNL A   1      46.815  30.063  27.048  1.00  0.00     0.031 C 
ATOM     57  C   UNL A   1      42.414  32.724  30.270  1.00  0.00     0.029 A 
ATOM     58  C   UNL A   1      43.143  31.800  29.539  1.00  0.00     0.049 A 
ATOM     59  H   UNL A   1      42.595  29.854  28.935  1.00  0.00     0.167 HD
ATOM     60  C   UNL A   1      45.121  30.975  28.293  1.00  0.00     0.074 A 
ATOM     61  C   UNL A   1      46.447  31.135  27.732  1.00  0.00     0.031 C 
ATOM     62  C   UNL A   1      44.469  31.937  28.990  1.00  0.00     0.037 A 
BRANCH  49  63
ATOM     63  C   UNL A   1      38.801  30.307  30.842  1.00  0.00     0.057 A 
ATOM     64  C   UNL A   1      38.634  30.051  32.210  1.00  0.00     0.134 A 
ATOM     65  C   UNL A   1      37.761  30.973  30.181  1.00  0.00     0.134 A 
ATOM     66  F   UNL A   1      39.587  29.407  32.903  1.00  0.00    -0.206 F 
ATOM     67  C   UNL A   1      37.470  30.421  32.887  1.00  0.00     0.040 A 
ATOM     68  C   UNL A   1      36.606  31.377  30.854  1.00  0.00     0.040 A 
ATOM     69  F   UNL A   1      37.855  31.257  28.874  1.00  0.00    -0.206 F 
ATOM     70  C   UNL A   1      36.456  31.094  32.210  1.00  0.00     0.006 A 
ENDBRANCH  49  63
BRANCH  50  71
ATOM     71  C   UNL A   1      47.019  27.354  25.966  1.00  0.00     0.057 A 
ATOM     72  C   UNL A   1      47.125  27.526  24.581  1.00  0.00     0.134 A 
ATOM     73  C   UNL A   1      48.091  26.734  26.620  1.00  0.00     0.134 A 
ATOM     74  F   UNL A   1      46.126  28.097  23.893  1.00  0.00    -0.206 F 
ATOM     75  C   UNL A   1      48.232  27.062  23.868  1.00  0.00     0.040 A 
ATOM     76  C   UNL A   1      49.220  26.296  25.925  1.00  0.00     0.040 A 
ATOM     77  F   UNL A   1      48.059  26.545  27.948  1.00  0.00    -0.206 F 
ATOM     78  C   UNL A   1      49.286  26.447  24.542  1.00  0.00     0.006 A 
ENDBRANCH  50  71
BRANCH  62  79
ATOM     79  C   UNL A   1      45.195  33.230  29.234  1.00  0.00     0.057 A 
ATOM     80  C   UNL A   1      45.074  34.328  28.373  1.00  0.00     0.134 A 
ATOM     81  C   UNL A   1      45.991  33.391  30.376  1.00  0.00     0.134 A 
ATOM     82  F   UNL A   1      44.337  34.238  27.255  1.00  0.00    -0.206 F 
ATOM     83  C   UNL A   1      45.737  35.530  28.625  1.00  0.00     0.040 A 
ATOM     84  C   UNL A   1      46.632  34.599  30.657  1.00  0.00     0.040 A 
ATOM     85  F   UNL A   1      46.144  32.383  31.249  1.00  0.00    -0.206 F 
ATOM     86  C   UNL A   1      46.511  35.671  29.776  1.00  0.00     0.006 A 
ENDBRANCH  62  79
ENDBRANCH  36  37
ENDBRANCH  29  31
ENDBRANCH  28  29
ENDBRANCH  27  28
ENDBRANCH  26  27
ENDBRANCH  25  26
ENDBRANCH   1  25
TORSDOF 19
ENDMDL
MODEL 2
REMARK VINA RESULT:     -11.0      2.826      5.229
REMARK SMILES N#Cc1ccc(/C=C/C(=O)N2C[C@@H](O)C[C@H]2C(=O)OCCOCCOC(=O)c2ccc(-c3c4nc(c(-c5c(F)cccc5F)c5ccc([nH]5)c(-c5c(F)cccc5F)c5nc(c(-c6c(F)cccc6F)c6ccc3[nH]6)C=C5)C=C4)cc2)cc1
REMARK SMILES IDX 21 1 20 2 19 3 17 4 18 5 16 6 11 7 12 8 13 9 15 10 9 11
REMARK SMILES IDX 10 12 8 13 7 14 6 15 3 16 4 17 83 18 5 19 82 20 2 21 1 22
REMARK SMILES IDX 14 23 22 25 23 26 24 27 25 28 26 29 27 30 28 31 29 32 81 33
REMARK SMILES IDX 30 34 80 35 31 36 32 37 33 38 74 39 34 40 79 41 73 42 75 43
REMARK SMILES IDX 35 44 78 45 72 46 71 47 36 49 62 50 45 51 61 52 46 53 49 54
REMARK SMILES IDX 60 55 76 56 47 57 48 58 59 60 77 61 50 62 37 63 38 64 43 65
REMARK SMILES IDX 39 66 40 67 42 68 44 69 41 70 63 71 64 72 69 73 65 74 66 75
REMARK SMILES IDX 68 76 70 77 67 78 51 79 52 80 57 81 53 82 54 83 56 84 58 85
REMARK SMILES IDX 55 86
REMARK H PARENT 14 24 75 48 49 59
REMARK Flexibility Score: inf
ROOT
ATOM      1  C   UNL A   1      36.306  21.398  25.549  1.00  0.00     0.202 C 
ENDROOT
BRANCH   1   2
ATOM      2  C   UNL A   1      35.613  22.717  25.912  1.00  0.00     0.261 C 
BRANCH   2   3
ATOM      3  O   UNL A   1      35.846  23.802  24.991  1.00  0.00    -0.462 OA
BRANCH   3   4
ATOM      4  C   UNL A   1      35.069  23.764  23.872  1.00  0.00     0.329 C 
ATOM      5  O   UNL A   1      35.438  23.305  22.792  1.00  0.00    -0.250 OA
BRANCH   4   6
ATOM      6  C   UNL A   1      33.725  24.491  24.000  1.00  0.00     0.198 C 
ATOM      7  N   UNL A   1      32.639  24.033  24.886  1.00  0.00    -0.323 N 
ATOM      8  C   UNL A   1      32.554  24.886  26.056  1.00  0.00     0.152 C 
ATOM      9  C   UNL A   1      32.937  26.246  25.484  1.00  0.00     0.136 C 
ATOM     10  C   UNL A   1      34.062  25.902  24.514  1.00  0.00     0.071 C 
BRANCH   7  11
ATOM     11  C   UNL A   1      31.643  23.242  24.361  1.00  0.00     0.247 C 
ATOM     12  O   UNL A   1      30.702  23.705  23.720  1.00  0.00    -0.270 OA
BRANCH  11  13
ATOM     13  C   UNL A   1      31.641  21.778  24.635  1.00  0.00     0.072 C 
ATOM     14  C   UNL A   1      32.372  20.969  23.846  1.00  0.00     0.014 C 
BRANCH  14  15
ATOM     15  C   UNL A   1      32.749  19.568  24.122  1.00  0.00    -0.025 A 
ATOM     16  C   UNL A   1      33.084  16.836  24.769  1.00  0.00     0.052 A 
ATOM     17  C   UNL A   1      33.014  17.242  23.435  1.00  0.00     0.020 A 
ATOM     18  C   UNL A   1      33.018  17.796  25.782  1.00  0.00     0.020 A 
ATOM     19  C   UNL A   1      32.846  18.598  23.114  1.00  0.00     0.009 A 
ATOM     20  C   UNL A   1      32.851  19.149  25.459  1.00  0.00     0.009 A 
BRANCH  16  21
ATOM     21  C   UNL A   1      33.186  15.441  25.100  1.00  0.00     0.099 C 
ATOM     22  N   UNL A   1      33.274  14.321  25.378  1.00  0.00    -0.192 NA
ENDBRANCH  16  21
ENDBRANCH  14  15
ENDBRANCH  11  13
ENDBRANCH   7  11
BRANCH   9  23
ATOM     23  O   UNL A   1      33.350  27.172  26.467  1.00  0.00    -0.391 OA
ATOM     24  H   UNL A   1      34.008  27.775  26.087  1.00  0.00     0.211 HD
ENDBRANCH   9  23
ENDBRANCH   4   6
ENDBRANCH   3   4
ENDBRANCH   2   3
ENDBRANCH   1   2
BRANCH   1  25
ATOM     25  O   UNL A   1      37.703  21.376  25.306  1.00  0.00    -0.374 OA
BRANCH  25  26
ATOM     26  C   UNL A   1      38.341  20.133  25.037  1.00  0.00     0.202 C 
BRANCH  26  27
ATOM     27  C   UNL A   1      39.418  19.593  25.994  1.00  0.00     0.261 C 
BRANCH  27  28
ATOM     28  O   UNL A   1      40.595  19.051  25.377  1.00  0.00    -0.460 OA
BRANCH  28  29
ATOM     29  C   UNL A   1      41.720  19.181  26.121  1.00  0.00     0.338 C 
ATOM     30  O   UNL A   1      42.554  18.331  26.375  1.00  0.00    -0.246 OA
BRANCH  29  31
ATOM     31  C   UNL A   1      41.894  20.589  26.506  1.00  0.00     0.060 A 
ATOM     32  C   UNL A   1      42.095  21.533  25.493  1.00  0.00     0.016 A 
ATOM     33  C   UNL A   1      41.978  20.950  27.850  1.00  0.00     0.016 A 
ATOM     34  C   UNL A   1      42.403  22.849  25.823  1.00  0.00     0.010 A 
ATOM     35  C   UNL A   1      42.296  22.270  28.180  1.00  0.00     0.010 A 
ATOM     36  C   UNL A   1      42.538  23.217  27.169  1.00  0.00    -0.014 A 
BRANCH  36  37
ATOM     37  C   UNL A   1      43.046  24.566  27.509  1.00  0.00     0.031 A 
ATOM     38  C   UNL A   1      42.076  25.629  27.944  1.00  0.00     0.074 A 
ATOM     39  C   UNL A   1      44.365  24.824  27.461  1.00  0.00     0.049 A 
ATOM     40  N   UNL A   1      42.299  26.885  28.233  1.00  0.00    -0.248 NA
ATOM     41  C   UNL A   1      40.667  25.222  28.066  1.00  0.00     0.031 C 
ATOM     42  C   UNL A   1      45.402  23.857  27.104  1.00  0.00     0.029 A 
ATOM     43  N   UNL A   1      45.057  25.981  27.714  1.00  0.00    -0.354 N 
ATOM     44  C   UNL A   1      41.061  27.418  28.571  1.00  0.00     0.074 A 
ATOM     45  C   UNL A   1      40.086  26.362  28.406  1.00  0.00     0.031 C 
ATOM     46  C   UNL A   1      46.600  24.463  27.156  1.00  0.00     0.029 A 
ATOM     47  C   UNL A   1      46.409  25.869  27.504  1.00  0.00     0.049 A 
ATOM     48  H   UNL A   1      44.624  26.814  28.015  1.00  0.00     0.167 HD
ATOM     49  C   UNL A   1      40.769  28.670  28.995  1.00  0.00     0.037 A 
ATOM     50  C   UNL A   1      47.377  26.804  27.559  1.00  0.00     0.037 A 
ATOM     51  C   UNL A   1      41.746  29.717  29.149  1.00  0.00     0.049 A 
ATOM     52  C   UNL A   1      47.006  28.219  27.925  1.00  0.00     0.074 A 
ATOM     53  C   UNL A   1      41.554  31.022  29.568  1.00  0.00     0.029 A 
ATOM     54  N   UNL A   1      43.099  29.578  28.881  1.00  0.00    -0.354 N 
ATOM     55  N   UNL A   1      45.837  28.710  28.259  1.00  0.00    -0.248 NA
ATOM     56  C   UNL A   1      48.091  29.209  27.921  1.00  0.00     0.031 C 
ATOM     57  C   UNL A   1      42.779  31.689  29.493  1.00  0.00     0.029 A 
ATOM     58  C   UNL A   1      43.750  30.782  29.097  1.00  0.00     0.049 A 
ATOM     59  H   UNL A   1      43.535  28.748  28.581  1.00  0.00     0.167 HD
ATOM     60  C   UNL A   1      46.053  30.053  28.543  1.00  0.00     0.074 A 
ATOM     61  C   UNL A   1      47.469  30.295  28.356  1.00  0.00     0.031 C 
ATOM     62  C   UNL A   1      45.163  31.002  28.924  1.00  0.00     0.037 A 
BRANCH  49  63
ATOM     63  C   UNL A   1      39.332  28.984  29.306  1.00  0.00     0.057 A 
ATOM     64  C   UNL A   1      38.801  28.825  30.593  1.00  0.00     0.134 A 
ATOM     65  C   UNL A   1      38.480  29.492  28.317  1.00  0.00     0.134 A 
ATOM     66  F   UNL A   1      39.559  28.334  31.586  1.00  0.00    -0.206 F 
ATOM     67  C   UNL A   1      37.470  29.135  30.878  1.00  0.00     0.040 A 
ATOM     68  C   UNL A   1      37.157  29.836  28.597  1.00  0.00     0.040 A 
ATOM     69  F   UNL A   1      38.924  29.677  27.064  1.00  0.00    -0.206 F 
ATOM     70  C   UNL A   1      36.646  29.650  29.879  1.00  0.00     0.006 A 
ENDBRANCH  49  63
BRANCH  50  71
ATOM     71  C   UNL A   1      48.785  26.453  27.239  1.00  0.00     0.057 A 
ATOM     72  C   UNL A   1      49.280  26.555  25.934  1.00  0.00     0.134 A 
ATOM     73  C   UNL A   1      49.656  25.959  28.219  1.00  0.00     0.134 A 
ATOM     74  F   UNL A   1      48.491  27.004  24.946  1.00  0.00    -0.206 F 
ATOM     75  C   UNL A   1      50.573  26.145  25.606  1.00  0.00     0.040 A 
ATOM     76  C   UNL A   1      50.964  25.578  27.912  1.00  0.00     0.040 A 
ATOM     77  F   UNL A   1      49.250  25.842  29.493  1.00  0.00    -0.206 F 
ATOM     78  C   UNL A   1      51.421  25.657  26.599  1.00  0.00     0.006 A 
ENDBRANCH  50  71
BRANCH  62  79
ATOM     79  C   UNL A   1      45.697  32.376  29.216  1.00  0.00     0.057 A 
ATOM     80  C   UNL A   1      46.142  32.748  30.491  1.00  0.00     0.134 A 
ATOM     81  C   UNL A   1      45.812  33.325  28.192  1.00  0.00     0.134 A 
ATOM     82  F   UNL A   1      46.049  31.892  31.520  1.00  0.00    -0.206 F 
ATOM     83  C   UNL A   1      46.657  34.021  30.742  1.00  0.00     0.040 A 
ATOM     84  C   UNL A   1      46.358  34.589  28.422  1.00  0.00     0.040 A 
ATOM     85  F   UNL A   1      45.415  33.032  26.943  1.00  0.00    -0.206 F 
ATOM     86  C   UNL A   1      46.775  34.942  29.702  1.00  0.00     0.006 A 
ENDBRANCH  62  79
ENDBRANCH  36  37
ENDBRANCH  29  31
ENDBRANCH  28  29
ENDBRANCH  27  28
ENDBRANCH  26  27
ENDBRANCH  25  26
ENDBRANCH   1  25
TORSDOF 19
ENDMDL
MODEL 3
REMARK VINA RESULT:     -11.0      2.296      6.911
REMARK SMILES N#Cc1ccc(/C=C/C(=O)N2C[C@@H](O)C[C@H]2C(=O)OCCOCCOC(=O)c2ccc(-c3c4nc(c(-c5c(F)cccc5F)c5ccc([nH]5)c(-c5c(F)cccc5F)c5nc(c(-c6c(F)cccc6F)c6ccc3[nH]6)C=C5)C=C4)cc2)cc1
REMARK SMILES IDX 21 1 20 2 19 3 17 4 18 5 16 6 11 7 12 8 13 9 15 10 9 11
REMARK SMILES IDX 10 12 8 13 7 14 6 15 3 16 4 17 83 18 5 19 82 20 2 21 1 22
REMARK SMILES IDX 14 23 22 25 23 26 24 27 25 28 26 29 27 30 28 31 29 32 81 33
REMARK SMILES IDX 30 34 80 35 31 36 32 37 33 38 74 39 34 40 79 41 73 42 75 43
REMARK SMILES IDX 35 44 78 45 72 46 71 47 36 49 62 50 45 51 61 52 46 53 49 54
REMARK SMILES IDX 60 55 76 56 47 57 48 58 59 60 77 61 50 62 37 63 38 64 43 65
REMARK SMILES IDX 39 66 40 67 42 68 44 69 41 70 63 71 64 72 69 73 65 74 66 75
REMARK SMILES IDX 68 76 70 77 67 78 51 79 52 80 57 81 53 82 54 83 56 84 58 85
REMARK SMILES IDX 55 86
REMARK H PARENT 14 24 75 48 49 59
REMARK Flexibility Score: inf
ROOT
ATOM      1  C   UNL A   1      37.800  21.682  25.167  1.00  0.00     0.202 C 
ENDROOT
BRANCH   1   2
ATOM      2  C   UNL A   1      36.681  22.650  25.568  1.00  0.00     0.261 C 
BRANCH   2   3
ATOM      3  O   UNL A   1      35.489  22.025  26.086  1.00  0.00    -0.462 OA
BRANCH   3   4
ATOM      4  C   UNL A   1      34.392  22.163  25.291  1.00  0.00     0.329 C 
ATOM      5  O   UNL A   1      34.181  21.489  24.284  1.00  0.00    -0.250 OA
BRANCH   4   6
ATOM      6  C   UNL A   1      33.486  23.348  25.649  1.00  0.00     0.198 C 
ATOM      7  N   UNL A   1      32.365  23.794  24.802  1.00  0.00    -0.323 N 
ATOM      8  C   UNL A   1      31.102  23.396  25.394  1.00  0.00     0.152 C 
ATOM      9  C   UNL A   1      31.401  23.512  26.884  1.00  0.00     0.136 C 
ATOM     10  C   UNL A   1      32.825  22.977  26.987  1.00  0.00     0.071 C 
BRANCH   7  11
ATOM     11  C   UNL A   1      32.575  24.814  23.903  1.00  0.00     0.247 C 
ATOM     12  O   UNL A   1      32.445  24.661  22.690  1.00  0.00    -0.270 OA
BRANCH  11  13
ATOM     13  C   UNL A   1      33.056  26.138  24.387  1.00  0.00     0.072 C 
ATOM     14  C   UNL A   1      32.289  26.833  25.247  1.00  0.00     0.014 C 
BRANCH  14  15
ATOM     15  C   UNL A   1      32.703  27.987  26.068  1.00  0.00    -0.025 A 
ATOM     16  C   UNL A   1      33.655  30.349  27.299  1.00  0.00     0.052 A 
ATOM     17  C   UNL A   1      32.293  30.187  27.041  1.00  0.00     0.020 A 
ATOM     18  C   UNL A   1      34.541  29.319  26.972  1.00  0.00     0.020 A 
ATOM     19  C   UNL A   1      31.820  29.016  26.428  1.00  0.00     0.009 A 
ATOM     20  C   UNL A   1      34.067  28.151  26.362  1.00  0.00     0.009 A 
BRANCH  16  21
ATOM     21  C   UNL A   1      34.148  31.575  27.861  1.00  0.00     0.099 C 
ATOM     22  N   UNL A   1      34.539  32.571  28.305  1.00  0.00    -0.192 NA
ENDBRANCH  16  21
ENDBRANCH  14  15
ENDBRANCH  11  13
ENDBRANCH   7  11
BRANCH   9  23
ATOM     23  O   UNL A   1      30.502  22.785  27.695  1.00  0.00    -0.391 OA
ATOM     24  H   UNL A   1      29.604  23.131  27.573  1.00  0.00     0.211 HD
ENDBRANCH   9  23
ENDBRANCH   4   6
ENDBRANCH   3   4
ENDBRANCH   2   3
ENDBRANCH   1   2
BRANCH   1  25
ATOM     25  O   UNL A   1      37.480  20.369  24.736  1.00  0.00    -0.374 OA
BRANCH  25  26
ATOM     26  C   UNL A   1      38.352  19.297  25.074  1.00  0.00     0.202 C 
BRANCH  26  27
ATOM     27  C   UNL A   1      39.538  19.535  26.026  1.00  0.00     0.261 C 
BRANCH  27  28
ATOM     28  O   UNL A   1      40.837  19.216  25.507  1.00  0.00    -0.460 OA
BRANCH  28  29
ATOM     29  C   UNL A   1      41.852  19.450  26.373  1.00  0.00     0.338 C 
ATOM     30  O   UNL A   1      42.710  18.672  26.750  1.00  0.00    -0.246 OA
BRANCH  29  31
ATOM     31  C   UNL A   1      41.874  20.875  26.730  1.00  0.00     0.060 A 
ATOM     32  C   UNL A   1      41.679  21.817  25.714  1.00  0.00     0.016 A 
ATOM     33  C   UNL A   1      42.202  21.275  28.026  1.00  0.00     0.016 A 
ATOM     34  C   UNL A   1      41.833  23.172  25.986  1.00  0.00     0.010 A 
ATOM     35  C   UNL A   1      42.364  22.636  28.296  1.00  0.00     0.010 A 
ATOM     36  C   UNL A   1      42.209  23.588  27.271  1.00  0.00    -0.014 A 
BRANCH  36  37
ATOM     37  C   UNL A   1      42.551  25.009  27.508  1.00  0.00     0.031 A 
ATOM     38  C   UNL A   1      43.909  25.514  27.107  1.00  0.00     0.074 A 
ATOM     39  C   UNL A   1      41.644  25.844  28.045  1.00  0.00     0.049 A 
ATOM     40  N   UNL A   1      44.433  26.701  27.273  1.00  0.00    -0.248 NA
ATOM     41  C   UNL A   1      44.795  24.552  26.432  1.00  0.00     0.031 C 
ATOM     42  C   UNL A   1      40.280  25.477  28.424  1.00  0.00     0.029 A 
ATOM     43  N   UNL A   1      41.736  27.174  28.365  1.00  0.00    -0.354 N 
ATOM     44  C   UNL A   1      45.708  26.629  26.723  1.00  0.00     0.074 A 
ATOM     45  C   UNL A   1      45.894  25.271  26.262  1.00  0.00     0.031 C 
ATOM     46  C   UNL A   1      39.663  26.558  28.931  1.00  0.00     0.029 A 
ATOM     47  C   UNL A   1      40.602  27.677  28.954  1.00  0.00     0.049 A 
ATOM     48  H   UNL A   1      42.540  27.717  28.191  1.00  0.00     0.167 HD
ATOM     49  C   UNL A   1      46.631  27.612  26.602  1.00  0.00     0.037 A 
ATOM     50  C   UNL A   1      40.362  28.894  29.477  1.00  0.00     0.037 A 
ATOM     51  C   UNL A   1      46.438  28.960  27.071  1.00  0.00     0.049 A 
ATOM     52  C   UNL A   1      41.449  29.937  29.430  1.00  0.00     0.074 A 
ATOM     53  C   UNL A   1      47.312  30.031  27.001  1.00  0.00     0.029 A 
ATOM     54  N   UNL A   1      45.294  29.419  27.706  1.00  0.00    -0.354 N 
ATOM     55  N   UNL A   1      42.644  29.866  28.894  1.00  0.00    -0.248 NA
ATOM     56  C   UNL A   1      41.153  31.231  30.060  1.00  0.00     0.031 C 
ATOM     57  C   UNL A   1      46.721  31.119  27.648  1.00  0.00     0.029 A 
ATOM     58  C   UNL A   1      45.450  30.749  28.058  1.00  0.00     0.049 A 
ATOM     59  H   UNL A   1      44.489  28.880  27.880  1.00  0.00     0.167 HD
ATOM     60  C   UNL A   1      43.224  31.114  29.087  1.00  0.00     0.074 A 
ATOM     61  C   UNL A   1      42.243  31.927  29.776  1.00  0.00     0.031 C 
ATOM     62  C   UNL A   1      44.457  31.550  28.728  1.00  0.00     0.037 A 
BRANCH  49  63
ATOM     63  C   UNL A   1      47.940  27.263  25.952  1.00  0.00     0.057 A 
ATOM     64  C   UNL A   1      48.149  27.418  24.574  1.00  0.00     0.134 A 
ATOM     65  C   UNL A   1      49.020  26.807  26.718  1.00  0.00     0.134 A 
ATOM     66  F   UNL A   1      47.153  27.842  23.780  1.00  0.00    -0.206 F 
ATOM     67  C   UNL A   1      49.373  27.108  23.981  1.00  0.00     0.040 A 
ATOM     68  C   UNL A   1      50.259  26.524  26.141  1.00  0.00     0.040 A 
ATOM     69  F   UNL A   1      48.895  26.642  28.044  1.00  0.00    -0.206 F 
ATOM     70  C   UNL A   1      50.436  26.667  24.767  1.00  0.00     0.006 A 
ENDBRANCH  49  63
BRANCH  50  71
ATOM     71  C   UNL A   1      39.054  29.196  30.116  1.00  0.00     0.057 A 
ATOM     72  C   UNL A   1      38.849  28.985  31.484  1.00  0.00     0.134 A 
ATOM     73  C   UNL A   1      37.964  29.657  29.367  1.00  0.00     0.134 A 
ATOM     74  F   UNL A   1      39.847  28.528  32.254  1.00  0.00    -0.206 F 
ATOM     75  C   UNL A   1      37.600  29.182  32.077  1.00  0.00     0.040 A 
ATOM     76  C   UNL A   1      36.719  29.893  29.953  1.00  0.00     0.040 A 
ATOM     77  F   UNL A   1      38.093  29.889  28.051  1.00  0.00    -0.206 F 
ATOM     78  C   UNL A   1      36.531  29.641  31.310  1.00  0.00     0.006 A 
ENDBRANCH  50  71
BRANCH  62  79
ATOM     79  C   UNL A   1      44.798  32.983  29.023  1.00  0.00     0.057 A 
ATOM     80  C   UNL A   1      45.337  33.384  30.252  1.00  0.00     0.134 A 
ATOM     81  C   UNL A   1      44.628  33.969  28.042  1.00  0.00     0.134 A 
ATOM     82  F   UNL A   1      45.514  32.494  31.240  1.00  0.00    -0.206 F 
ATOM     83  C   UNL A   1      45.670  34.716  30.503  1.00  0.00     0.040 A 
ATOM     84  C   UNL A   1      44.990  35.298  28.268  1.00  0.00     0.040 A 
ATOM     85  F   UNL A   1      44.126  33.654  26.837  1.00  0.00    -0.206 F 
ATOM     86  C   UNL A   1      45.506  35.676  29.505  1.00  0.00     0.006 A 
ENDBRANCH  62  79
ENDBRANCH  36  37
ENDBRANCH  29  31
ENDBRANCH  28  29
ENDBRANCH  27  28
ENDBRANCH  26  27
ENDBRANCH  25  26
ENDBRANCH   1  25
TORSDOF 19
ENDMDL
