MODEL 1
REMARK VINA RESULT:     -12.1      0.000      0.000
REMARK SMILES O=C(CC1(NC(=O)C2(c3ccccc3)CC2)CCC1)OCCOCCOC(=O)c1ccc(-c2c3nc(c(-c4c(F)cccc4F)c4ccc([nH]4)c(-c4c(F)cccc4F)c4nc(c(-c5c(F)cccc5F)c5ccc2[nH]5)C=C4)C=C3)cc1
REMARK SMILES IDX 22 1 21 2 20 3 2 4 1 5 3 6 4 7 17 8 19 9 18 10 5 11 6 12
REMARK SMILES IDX 7 14 8 15 15 16 16 17 9 18 10 19 14 20 11 21 13 22 12 23
REMARK SMILES IDX 23 24 24 25 25 26 26 27 27 28 28 29 29 30 30 31 82 32 31 33
REMARK SMILES IDX 81 34 32 35 33 36 34 37 75 38 35 39 80 40 74 41 76 42 36 43
REMARK SMILES IDX 79 44 73 45 72 46 37 48 63 49 46 50 62 51 47 52 50 53 61 54
REMARK SMILES IDX 77 55 48 56 49 57 60 59 78 60 51 61 38 62 39 63 44 64 40 65
REMARK SMILES IDX 41 66 43 67 45 68 42 69 64 70 65 71 70 72 66 73 67 74 69 75
REMARK SMILES IDX 71 76 68 77 52 78 53 79 58 80 54 81 55 82 57 83 59 84 56 85
REMARK H PARENT 5 13 76 47 50 58
REMARK Flexibility Score: inf
ROOT
ATOM      1  C   UNL A   1      40.839  21.257  26.285  1.00  0.00     0.202 C 
ENDROOT
BRANCH   1   2
ATOM      2  C   UNL A   1      39.557  22.079  26.171  1.00  0.00     0.261 C 
BRANCH   2   3
ATOM      3  O   UNL A   1      39.566  23.157  27.108  1.00  0.00    -0.463 OA
BRANCH   3   4
ATOM      4  C   UNL A   1      38.822  24.237  26.706  1.00  0.00     0.308 C 
ATOM      5  O   UNL A   1      38.918  25.301  27.307  1.00  0.00    -0.252 OA
BRANCH   4   6
ATOM      6  C   UNL A   1      37.650  23.763  25.582  1.00  0.00     0.151 C 
BRANCH   6   7
ATOM      7  C   UNL A   1      35.492  24.024  25.445  1.00  0.00     0.051 C 
ATOM      8  C   UNL A   1      34.387  25.484  25.692  1.00  0.00     0.029 C 
ATOM      9  C   UNL A   1      34.342  24.042  23.982  1.00  0.00     0.029 C 
ATOM     10  C   UNL A   1      33.993  25.507  24.217  1.00  0.00     0.005 C 
BRANCH   7  11
ATOM     11  N   UNL A   1      34.281  22.993  26.384  1.00  0.00    -0.349 N 
ATOM     12  C   UNL A   1      34.202  21.605  26.431  1.00  0.00     0.231 C 
ATOM     13  H   UNL A   1      33.612  23.483  26.915  1.00  0.00     0.164 HD
ATOM     14  O   UNL A   1      33.587  20.982  27.285  1.00  0.00    -0.274 OA
BRANCH  12  15
ATOM     15  C   UNL A   1      34.857  20.989  25.266  1.00  0.00     0.074 C 
ATOM     16  C   UNL A   1      35.868  21.699  24.416  1.00  0.00     0.023 C 
ATOM     17  C   UNL A   1      36.298  20.561  25.302  1.00  0.00     0.023 C 
BRANCH  15  18
ATOM     18  C   UNL A   1      33.811  20.103  24.719  1.00  0.00    -0.032 A 
ATOM     19  C   UNL A   1      34.173  18.365  24.500  1.00  0.00     0.005 A 
ATOM     20  C   UNL A   1      32.664  20.940  23.555  1.00  0.00     0.005 A 
ATOM     21  C   UNL A   1      33.434  17.447  23.139  1.00  0.00     0.000 A 
ATOM     22  C   UNL A   1      31.991  20.038  22.173  1.00  0.00     0.000 A 
ATOM     23  C   UNL A   1      32.355  18.275  21.995  1.00  0.00     0.000 A 
ENDBRANCH  15  18
ENDBRANCH  12  15
ENDBRANCH   7  11
ENDBRANCH   6   7
ENDBRANCH   4   6
ENDBRANCH   3   4
ENDBRANCH   2   3
ENDBRANCH   1   2
BRANCH   1  24
ATOM     24  O   UNL A   1      41.907  21.780  25.488  1.00  0.00    -0.374 OA
BRANCH  24  25
ATOM     25  C   UNL A   1      43.173  21.168  25.788  1.00  0.00     0.202 C 
BRANCH  25  26
ATOM     26  C   UNL A   1      44.327  21.987  25.203  1.00  0.00     0.261 C 
BRANCH  26  27
ATOM     27  O   UNL A   1      44.739  22.963  26.172  1.00  0.00    -0.460 OA
BRANCH  27  28
ATOM     28  C   UNL A   1      44.732  24.239  25.713  1.00  0.00     0.338 C 
ATOM     29  O   UNL A   1      45.190  24.636  24.654  1.00  0.00    -0.246 OA
BRANCH  28  30
ATOM     30  C   UNL A   1      43.937  25.096  26.628  1.00  0.00     0.060 A 
ATOM     31  C   UNL A   1      44.245  26.463  26.669  1.00  0.00     0.016 A 
ATOM     32  C   UNL A   1      42.876  24.596  27.394  1.00  0.00     0.016 A 
ATOM     33  C   UNL A   1      43.528  27.318  27.506  1.00  0.00     0.010 A 
ATOM     34  C   UNL A   1      42.151  25.452  28.225  1.00  0.00     0.010 A 
ATOM     35  C   UNL A   1      42.501  26.808  28.310  1.00  0.00    -0.014 A 
BRANCH  35  36
ATOM     36  C   UNL A   1      41.947  27.640  29.399  1.00  0.00     0.031 A 
ATOM     37  C   UNL A   1      42.617  27.573  30.742  1.00  0.00     0.074 A 
ATOM     38  C   UNL A   1      40.885  28.440  29.205  1.00  0.00     0.049 A 
ATOM     39  N   UNL A   1      42.337  28.219  31.844  1.00  0.00    -0.248 NA
ATOM     40  C   UNL A   1      43.758  26.647  30.856  1.00  0.00     0.031 C 
ATOM     41  C   UNL A   1      40.149  28.587  27.950  1.00  0.00     0.029 A 
ATOM     42  N   UNL A   1      40.238  29.275  30.078  1.00  0.00    -0.354 N 
ATOM     43  C   UNL A   1      43.279  27.796  32.771  1.00  0.00     0.074 A 
ATOM     44  C   UNL A   1      44.113  26.811  32.120  1.00  0.00     0.031 C 
ATOM     45  C   UNL A   1      39.139  29.454  28.140  1.00  0.00     0.029 A 
ATOM     46  C   UNL A   1      39.159  29.919  29.526  1.00  0.00     0.049 A 
ATOM     47  H   UNL A   1      40.521  29.402  31.012  1.00  0.00     0.167 HD
ATOM     48  C   UNL A   1      43.447  28.202  34.051  1.00  0.00     0.037 A 
ATOM     49  C   UNL A   1      38.292  30.783  30.084  1.00  0.00     0.037 A 
ATOM     50  C   UNL A   1      42.601  29.150  34.717  1.00  0.00     0.049 A 
ATOM     51  C   UNL A   1      38.474  31.194  31.520  1.00  0.00     0.074 A 
ATOM     52  C   UNL A   1      42.661  29.597  36.023  1.00  0.00     0.029 A 
ATOM     53  N   UNL A   1      41.529  29.791  34.118  1.00  0.00    -0.354 N 
ATOM     54  N   UNL A   1      39.388  30.811  32.380  1.00  0.00    -0.248 NA
ATOM     55  C   UNL A   1      37.512  32.165  32.060  1.00  0.00     0.031 C 
ATOM     56  C   UNL A   1      41.610  30.502  36.221  1.00  0.00     0.029 A 
ATOM     57  C   UNL A   1      40.913  30.629  35.030  1.00  0.00     0.049 A 
ATOM     58  H   UNL A   1      41.246  29.668  33.183  1.00  0.00     0.167 HD
ATOM     59  C   UNL A   1      39.120  31.504  33.553  1.00  0.00     0.074 A 
ATOM     60  C   UNL A   1      37.965  32.339  33.294  1.00  0.00     0.031 C 
ATOM     61  C   UNL A   1      39.770  31.454  34.741  1.00  0.00     0.037 A 
BRANCH  48  62
ATOM     62  C   UNL A   1      44.595  27.595  34.794  1.00  0.00     0.057 A 
ATOM     63  C   UNL A   1      44.423  26.445  35.574  1.00  0.00     0.134 A 
ATOM     64  C   UNL A   1      45.862  28.185  34.769  1.00  0.00     0.134 A 
ATOM     65  F   UNL A   1      43.222  25.854  35.658  1.00  0.00    -0.206 F 
ATOM     66  C   UNL A   1      45.472  25.912  36.323  1.00  0.00     0.040 A 
ATOM     67  C   UNL A   1      46.923  27.653  35.503  1.00  0.00     0.040 A 
ATOM     68  F   UNL A   1      46.083  29.296  34.051  1.00  0.00    -0.206 F 
ATOM     69  C   UNL A   1      46.728  26.516  36.287  1.00  0.00     0.006 A 
ENDBRANCH  48  62
BRANCH  49  70
ATOM     70  C   UNL A   1      37.169  31.329  29.285  1.00  0.00     0.057 A 
ATOM     71  C   UNL A   1      37.221  32.621  28.752  1.00  0.00     0.134 A 
ATOM     72  C   UNL A   1      36.009  30.580  29.062  1.00  0.00     0.134 A 
ATOM     73  F   UNL A   1      38.299  33.391  28.954  1.00  0.00    -0.206 F 
ATOM     74  C   UNL A   1      36.150  33.156  28.034  1.00  0.00     0.040 A 
ATOM     75  C   UNL A   1      34.936  31.097  28.334  1.00  0.00     0.040 A 
ATOM     76  F   UNL A   1      35.902  29.336  29.552  1.00  0.00    -0.206 F 
ATOM     77  C   UNL A   1      35.004  32.391  27.822  1.00  0.00     0.006 A 
ENDBRANCH  49  70
BRANCH  61  78
ATOM     78  C   UNL A   1      39.257  32.334  35.837  1.00  0.00     0.057 A 
ATOM     79  C   UNL A   1      38.321  31.869  36.767  1.00  0.00     0.134 A 
ATOM     80  C   UNL A   1      39.738  33.640  35.988  1.00  0.00     0.134 A 
ATOM     81  F   UNL A   1      37.818  30.631  36.665  1.00  0.00    -0.206 F 
ATOM     82  C   UNL A   1      37.871  32.680  37.810  1.00  0.00     0.040 A 
ATOM     83  C   UNL A   1      39.306  34.455  37.033  1.00  0.00     0.040 A 
ATOM     84  F   UNL A   1      40.640  34.137  35.128  1.00  0.00    -0.206 F 
ATOM     85  C   UNL A   1      38.369  33.976  37.948  1.00  0.00     0.006 A 
ENDBRANCH  61  78
ENDBRANCH  35  36
ENDBRANCH  28  30
ENDBRANCH  27  28
ENDBRANCH  26  27
ENDBRANCH  25  26
ENDBRANCH  24  25
ENDBRANCH   1  24
TORSDOF 18
ENDMDL
MODEL 2
REMARK VINA RESULT:     -12.0      2.411      7.648
REMARK SMILES O=C(CC1(NC(=O)C2(c3ccccc3)CC2)CCC1)OCCOCCOC(=O)c1ccc(-c2c3nc(c(-c4c(F)cccc4F)c4ccc([nH]4)c(-c4c(F)cccc4F)c4nc(c(-c5c(F)cccc5F)c5ccc2[nH]5)C=C4)C=C3)cc1
REMARK SMILES IDX 22 1 21 2 20 3 2 4 1 5 3 6 4 7 17 8 19 9 18 10 5 11 6 12
REMARK SMILES IDX 7 14 8 15 15 16 16 17 9 18 10 19 14 20 11 21 13 22 12 23
REMARK SMILES IDX 23 24 24 25 25 26 26 27 27 28 28 29 29 30 30 31 82 32 31 33
REMARK SMILES IDX 81 34 32 35 33 36 34 37 75 38 35 39 80 40 74 41 76 42 36 43
REMARK SMILES IDX 79 44 73 45 72 46 37 48 63 49 46 50 62 51 47 52 50 53 61 54
REMARK SMILES IDX 77 55 48 56 49 57 60 59 78 60 51 61 38 62 39 63 44 64 40 65
REMARK SMILES IDX 41 66 43 67 45 68 42 69 64 70 65 71 70 72 66 73 67 74 69 75
REMARK SMILES IDX 71 76 68 77 52 78 53 79 58 80 54 81 55 82 57 83 59 84 56 85
REMARK H PARENT 5 13 76 47 50 58
REMARK Flexibility Score: inf
ROOT
ATOM      1  C   UNL A   1      35.930  21.471  26.164  1.00  0.00     0.202 C 
ENDROOT
BRANCH   1   2
ATOM      2  C   UNL A   1      34.884  22.332  25.458  1.00  0.00     0.261 C 
BRANCH   2   3
ATOM      3  O   UNL A   1      34.909  22.100  24.049  1.00  0.00    -0.463 OA
BRANCH   3   4
ATOM      4  C   UNL A   1      35.193  23.223  23.315  1.00  0.00     0.308 C 
ATOM      5  O   UNL A   1      36.142  23.220  22.539  1.00  0.00    -0.252 OA
BRANCH   4   6
ATOM      6  C   UNL A   1      34.298  24.542  23.881  1.00  0.00     0.151 C 
BRANCH   6   7
ATOM      7  C   UNL A   1      32.225  24.811  24.495  1.00  0.00     0.051 C 
ATOM      8  C   UNL A   1      30.830  23.627  24.753  1.00  0.00     0.029 C 
ATOM      9  C   UNL A   1      31.474  25.262  26.138  1.00  0.00     0.029 C 
ATOM     10  C   UNL A   1      30.800  23.901  26.254  1.00  0.00     0.005 C 
BRANCH   7  11
ATOM     11  N   UNL A   1      31.052  25.955  23.643  1.00  0.00    -0.349 N 
ATOM     12  C   UNL A   1      31.358  27.107  22.926  1.00  0.00     0.231 C 
ATOM     13  H   UNL A   1      30.097  25.723  23.705  1.00  0.00     0.164 HD
ATOM     14  O   UNL A   1      30.590  27.651  22.145  1.00  0.00    -0.274 OA
BRANCH  12  15
ATOM     15  C   UNL A   1      32.674  27.645  23.306  1.00  0.00     0.074 C 
ATOM     16  C   UNL A   1      33.972  27.061  22.834  1.00  0.00     0.023 C 
ATOM     17  C   UNL A   1      33.529  28.409  22.332  1.00  0.00     0.023 C 
BRANCH  15  18
ATOM     18  C   UNL A   1      32.453  28.138  24.679  1.00  0.00    -0.032 A 
ATOM     19  C   UNL A   1      31.412  29.570  24.930  1.00  0.00     0.005 A 
ATOM     20  C   UNL A   1      33.869  27.843  25.810  1.00  0.00     0.005 A 
ATOM     21  C   UNL A   1      31.759  30.724  26.268  1.00  0.00     0.000 A 
ATOM     22  C   UNL A   1      34.242  29.026  27.090  1.00  0.00     0.000 A 
ATOM     23  C   UNL A   1      33.154  30.449  27.334  1.00  0.00     0.000 A 
ENDBRANCH  15  18
ENDBRANCH  12  15
ENDBRANCH   7  11
ENDBRANCH   6   7
ENDBRANCH   4   6
ENDBRANCH   3   4
ENDBRANCH   2   3
ENDBRANCH   1   2
BRANCH   1  24
ATOM     24  O   UNL A   1      37.202  21.490  25.505  1.00  0.00    -0.374 OA
BRANCH  24  25
ATOM     25  C   UNL A   1      37.985  22.647  25.845  1.00  0.00     0.202 C 
BRANCH  25  26
ATOM     26  C   UNL A   1      39.417  22.247  26.209  1.00  0.00     0.261 C 
BRANCH  26  27
ATOM     27  O   UNL A   1      39.843  23.031  27.335  1.00  0.00    -0.460 OA
BRANCH  27  28
ATOM     28  C   UNL A   1      40.775  23.971  27.036  1.00  0.00     0.338 C 
ATOM     29  O   UNL A   1      41.579  23.936  26.119  1.00  0.00    -0.246 OA
BRANCH  28  30
ATOM     30  C   UNL A   1      40.585  25.158  27.908  1.00  0.00     0.060 A 
ATOM     31  C   UNL A   1      41.608  26.116  27.932  1.00  0.00     0.016 A 
ATOM     32  C   UNL A   1      39.415  25.366  28.650  1.00  0.00     0.016 A 
ATOM     33  C   UNL A   1      41.484  27.254  28.728  1.00  0.00     0.010 A 
ATOM     34  C   UNL A   1      39.285  26.510  29.440  1.00  0.00     0.010 A 
ATOM     35  C   UNL A   1      40.336  27.437  29.510  1.00  0.00    -0.014 A 
BRANCH  35  36
ATOM     36  C   UNL A   1      40.329  28.473  30.563  1.00  0.00     0.031 A 
ATOM     37  C   UNL A   1      39.354  29.607  30.425  1.00  0.00     0.074 A 
ATOM     38  C   UNL A   1      41.159  28.411  31.619  1.00  0.00     0.049 A 
ATOM     39  N   UNL A   1      39.139  30.621  31.222  1.00  0.00    -0.248 NA
ATOM     40  C   UNL A   1      38.507  29.595  29.219  1.00  0.00     0.031 C 
ATOM     41  C   UNL A   1      42.150  27.364  31.861  1.00  0.00     0.029 A 
ATOM     42  N   UNL A   1      41.298  29.263  32.683  1.00  0.00    -0.354 N 
ATOM     43  C   UNL A   1      38.119  31.351  30.627  1.00  0.00     0.074 A 
ATOM     44  C   UNL A   1      37.785  30.691  29.385  1.00  0.00     0.031 C 
ATOM     45  C   UNL A   1      42.807  27.645  33.001  1.00  0.00     0.029 A 
ATOM     46  C   UNL A   1      42.281  28.888  33.563  1.00  0.00     0.049 A 
ATOM     47  H   UNL A   1      40.743  30.067  32.807  1.00  0.00     0.167 HD
ATOM     48  C   UNL A   1      37.502  32.466  31.080  1.00  0.00     0.037 A 
ATOM     49  C   UNL A   1      42.704  29.488  34.691  1.00  0.00     0.037 A 
ATOM     50  C   UNL A   1      37.854  33.150  32.291  1.00  0.00     0.049 A 
ATOM     51  C   UNL A   1      42.030  30.748  35.160  1.00  0.00     0.074 A 
ATOM     52  C   UNL A   1      37.319  34.310  32.818  1.00  0.00     0.029 A 
ATOM     53  N   UNL A   1      38.846  32.730  33.162  1.00  0.00    -0.354 N 
ATOM     54  N   UNL A   1      41.045  31.414  34.605  1.00  0.00    -0.248 NA
ATOM     55  C   UNL A   1      42.518  31.336  36.416  1.00  0.00     0.031 C 
ATOM     56  C   UNL A   1      38.001  34.603  34.006  1.00  0.00     0.029 A 
ATOM     57  C   UNL A   1      38.944  33.611  34.224  1.00  0.00     0.049 A 
ATOM     58  H   UNL A   1      39.399  31.924  33.043  1.00  0.00     0.167 HD
ATOM     59  C   UNL A   1      40.786  32.485  35.449  1.00  0.00     0.074 A 
ATOM     60  C   UNL A   1      41.710  32.377  36.560  1.00  0.00     0.031 C 
ATOM     61  C   UNL A   1      39.868  33.473  35.319  1.00  0.00     0.037 A 
BRANCH  48  62
ATOM     62  C   UNL A   1      36.392  33.001  30.233  1.00  0.00     0.057 A 
ATOM     63  C   UNL A   1      36.655  33.836  29.139  1.00  0.00     0.134 A 
ATOM     64  C   UNL A   1      35.056  32.721  30.536  1.00  0.00     0.134 A 
ATOM     65  F   UNL A   1      37.916  34.160  28.820  1.00  0.00    -0.206 F 
ATOM     66  C   UNL A   1      35.621  34.391  28.386  1.00  0.00     0.040 A 
ATOM     67  C   UNL A   1      34.014  33.260  29.781  1.00  0.00     0.040 A 
ATOM     68  F   UNL A   1      34.743  31.940  31.580  1.00  0.00    -0.206 F 
ATOM     69  C   UNL A   1      34.295  34.103  28.705  1.00  0.00     0.006 A 
ENDBRANCH  48  62
BRANCH  49  70
ATOM     70  C   UNL A   1      43.824  28.904  35.469  1.00  0.00     0.057 A 
ATOM     71  C   UNL A   1      43.589  27.980  36.492  1.00  0.00     0.134 A 
ATOM     72  C   UNL A   1      45.149  29.279  35.221  1.00  0.00     0.134 A 
ATOM     73  F   UNL A   1      42.338  27.602  36.787  1.00  0.00    -0.206 F 
ATOM     74  C   UNL A   1      44.636  27.458  37.255  1.00  0.00     0.040 A 
ATOM     75  C   UNL A   1      46.206  28.754  35.967  1.00  0.00     0.040 A 
ATOM     76  F   UNL A   1      45.433  30.162  34.254  1.00  0.00    -0.206 F 
ATOM     77  C   UNL A   1      45.948  27.844  36.991  1.00  0.00     0.006 A 
ENDBRANCH  49  70
BRANCH  61  78
ATOM     78  C   UNL A   1      39.809  34.498  36.407  1.00  0.00     0.057 A 
ATOM     79  C   UNL A   1      39.046  34.292  37.562  1.00  0.00     0.134 A 
ATOM     80  C   UNL A   1      40.555  35.678  36.317  1.00  0.00     0.134 A 
ATOM     81  F   UNL A   1      38.303  33.184  37.699  1.00  0.00    -0.206 F 
ATOM     82  C   UNL A   1      39.021  35.234  38.592  1.00  0.00     0.040 A 
ATOM     83  C   UNL A   1      40.548  36.621  37.344  1.00  0.00     0.040 A 
ATOM     84  F   UNL A   1      41.307  35.928  35.234  1.00  0.00    -0.206 F 
ATOM     85  C   UNL A   1      39.779  36.400  38.486  1.00  0.00     0.006 A 
ENDBRANCH  61  78
ENDBRANCH  35  36
ENDBRANCH  28  30
ENDBRANCH  27  28
ENDBRANCH  26  27
ENDBRANCH  25  26
ENDBRANCH  24  25
ENDBRANCH   1  24
TORSDOF 18
ENDMDL
MODEL 3
REMARK VINA RESULT:     -11.7      5.155     10.027
REMARK SMILES O=C(CC1(NC(=O)C2(c3ccccc3)CC2)CCC1)OCCOCCOC(=O)c1ccc(-c2c3nc(c(-c4c(F)cccc4F)c4ccc([nH]4)c(-c4c(F)cccc4F)c4nc(c(-c5c(F)cccc5F)c5ccc2[nH]5)C=C4)C=C3)cc1
REMARK SMILES IDX 22 1 21 2 20 3 2 4 1 5 3 6 4 7 17 8 19 9 18 10 5 11 6 12
REMARK SMILES IDX 7 14 8 15 15 16 16 17 9 18 10 19 14 20 11 21 13 22 12 23
REMARK SMILES IDX 23 24 24 25 25 26 26 27 27 28 28 29 29 30 30 31 82 32 31 33
REMARK SMILES IDX 81 34 32 35 33 36 34 37 75 38 35 39 80 40 74 41 76 42 36 43
REMARK SMILES IDX 79 44 73 45 72 46 37 48 63 49 46 50 62 51 47 52 50 53 61 54
REMARK SMILES IDX 77 55 48 56 49 57 60 59 78 60 51 61 38 62 39 63 44 64 40 65
REMARK SMILES IDX 41 66 43 67 45 68 42 69 64 70 65 71 70 72 66 73 67 74 69 75
REMARK SMILES IDX 71 76 68 77 52 78 53 79 58 80 54 81 55 82 57 83 59 84 56 85
REMARK H PARENT 5 13 76 47 50 58
REMARK Flexibility Score: inf
ROOT
ATOM      1  C   UNL A   1      33.709  32.348  27.971  1.00  0.00     0.202 C 
ENDROOT
BRANCH   1   2
ATOM      2  C   UNL A   1      33.675  30.983  27.287  1.00  0.00     0.261 C 
BRANCH   2   3
ATOM      3  O   UNL A   1      32.346  30.461  27.271  1.00  0.00    -0.463 OA
BRANCH   3   4
ATOM      4  C   UNL A   1      31.687  30.678  26.088  1.00  0.00     0.308 C 
ATOM      5  O   UNL A   1      31.089  31.732  25.909  1.00  0.00    -0.252 OA
BRANCH   4   6
ATOM      6  C   UNL A   1      31.594  29.246  25.192  1.00  0.00     0.151 C 
BRANCH   6   7
ATOM      7  C   UNL A   1      30.349  28.577  23.534  1.00  0.00     0.051 C 
ATOM      8  C   UNL A   1      28.868  27.476  23.443  1.00  0.00     0.029 C 
ATOM      9  C   UNL A   1      29.109  29.482  22.481  1.00  0.00     0.029 C 
ATOM     10  C   UNL A   1      27.964  28.630  23.018  1.00  0.00     0.005 C 
BRANCH   7  11
ATOM     11  N   UNL A   1      31.020  27.743  22.030  1.00  0.00    -0.349 N 
ATOM     12  C   UNL A   1      31.753  26.562  21.968  1.00  0.00     0.231 C 
ATOM     13  H   UNL A   1      30.839  28.186  21.170  1.00  0.00     0.164 HD
ATOM     14  O   UNL A   1      31.912  25.908  20.947  1.00  0.00    -0.274 OA
BRANCH  12  15
ATOM     15  C   UNL A   1      32.400  26.262  23.255  1.00  0.00     0.074 C 
ATOM     16  C   UNL A   1      33.886  26.285  23.457  1.00  0.00     0.023 C 
ATOM     17  C   UNL A   1      33.024  27.339  24.099  1.00  0.00     0.023 C 
BRANCH  15  18
ATOM     18  C   UNL A   1      31.512  25.244  23.850  1.00  0.00    -0.032 A 
ATOM     19  C   UNL A   1      30.882  25.503  25.504  1.00  0.00     0.005 A 
ATOM     20  C   UNL A   1      31.848  23.536  23.269  1.00  0.00     0.005 A 
ATOM     21  C   UNL A   1      30.596  24.101  26.597  1.00  0.00     0.000 A 
ATOM     22  C   UNL A   1      31.625  22.162  24.382  1.00  0.00     0.000 A 
ATOM     23  C   UNL A   1      30.960  22.454  26.039  1.00  0.00     0.000 A 
ENDBRANCH  15  18
ENDBRANCH  12  15
ENDBRANCH   7  11
ENDBRANCH   6   7
ENDBRANCH   4   6
ENDBRANCH   3   4
ENDBRANCH   2   3
ENDBRANCH   1   2
BRANCH   1  24
ATOM     24  O   UNL A   1      34.386  32.321  29.232  1.00  0.00    -0.374 OA
BRANCH  24  25
ATOM     25  C   UNL A   1      34.404  33.605  29.879  1.00  0.00     0.202 C 
BRANCH  25  26
ATOM     26  C   UNL A   1      34.713  33.459  31.371  1.00  0.00     0.261 C 
BRANCH  26  27
ATOM     27  O   UNL A   1      35.068  32.092  31.637  1.00  0.00    -0.460 OA
BRANCH  27  28
ATOM     28  C   UNL A   1      36.127  31.947  32.473  1.00  0.00     0.338 C 
ATOM     29  O   UNL A   1      36.143  32.161  33.675  1.00  0.00    -0.246 OA
BRANCH  28  30
ATOM     30  C   UNL A   1      37.261  31.330  31.741  1.00  0.00     0.060 A 
ATOM     31  C   UNL A   1      38.312  30.796  32.501  1.00  0.00     0.016 A 
ATOM     32  C   UNL A   1      37.284  31.222  30.345  1.00  0.00     0.016 A 
ATOM     33  C   UNL A   1      39.402  30.200  31.868  1.00  0.00     0.010 A 
ATOM     34  C   UNL A   1      38.371  30.616  29.710  1.00  0.00     0.010 A 
ATOM     35  C   UNL A   1      39.449  30.138  30.470  1.00  0.00    -0.014 A 
BRANCH  35  36
ATOM     36  C   UNL A   1      40.717  29.782  29.799  1.00  0.00     0.031 A 
ATOM     37  C   UNL A   1      40.865  28.379  29.283  1.00  0.00     0.074 A 
ATOM     38  C   UNL A   1      41.708  30.675  29.643  1.00  0.00     0.049 A 
ATOM     39  N   UNL A   1      41.864  27.830  28.642  1.00  0.00    -0.248 NA
ATOM     40  C   UNL A   1      39.731  27.471  29.526  1.00  0.00     0.031 C 
ATOM     41  C   UNL A   1      41.683  32.062  30.104  1.00  0.00     0.029 A 
ATOM     42  N   UNL A   1      42.938  30.535  29.055  1.00  0.00    -0.354 N 
ATOM     43  C   UNL A   1      41.469  26.525  28.386  1.00  0.00     0.074 A 
ATOM     44  C   UNL A   1      40.160  26.348  28.973  1.00  0.00     0.031 C 
ATOM     45  C   UNL A   1      42.854  32.644  29.791  1.00  0.00     0.029 A 
ATOM     46  C   UNL A   1      43.707  31.670  29.110  1.00  0.00     0.049 A 
ATOM     47  H   UNL A   1      43.241  29.700  28.631  1.00  0.00     0.167 HD
ATOM     48  C   UNL A   1      42.130  25.558  27.709  1.00  0.00     0.037 A 
ATOM     49  C   UNL A   1      44.956  31.889  28.661  1.00  0.00     0.037 A 
ATOM     50  C   UNL A   1      43.445  25.712  27.157  1.00  0.00     0.049 A 
ATOM     51  C   UNL A   1      45.689  30.790  27.942  1.00  0.00     0.074 A 
ATOM     52  C   UNL A   1      44.219  24.782  26.488  1.00  0.00     0.029 A 
ATOM     53  N   UNL A   1      44.184  26.883  27.221  1.00  0.00    -0.354 N 
ATOM     54  N   UNL A   1      45.294  29.567  27.678  1.00  0.00    -0.248 NA
ATOM     55  C   UNL A   1      47.038  31.103  27.449  1.00  0.00     0.031 C 
ATOM     56  C   UNL A   1      45.439  25.388  26.160  1.00  0.00     0.029 A 
ATOM     57  C   UNL A   1      45.410  26.699  26.608  1.00  0.00     0.049 A 
ATOM     58  H   UNL A   1      43.881  27.720  27.641  1.00  0.00     0.167 HD
ATOM     59  C   UNL A   1      46.334  28.973  26.977  1.00  0.00     0.074 A 
ATOM     60  C   UNL A   1      47.376  29.971  26.847  1.00  0.00     0.031 C 
ATOM     61  C   UNL A   1      46.424  27.713  26.486  1.00  0.00     0.037 A 
BRANCH  48  62
ATOM     62  C   UNL A   1      41.418  24.252  27.551  1.00  0.00     0.057 A 
ATOM     63  C   UNL A   1      41.783  23.134  28.313  1.00  0.00     0.134 A 
ATOM     64  C   UNL A   1      40.398  24.097  26.608  1.00  0.00     0.134 A 
ATOM     65  F   UNL A   1      42.774  23.219  29.212  1.00  0.00    -0.206 F 
ATOM     66  C   UNL A   1      41.169  21.897  28.124  1.00  0.00     0.040 A 
ATOM     67  C   UNL A   1      39.767  22.866  26.420  1.00  0.00     0.040 A 
ATOM     68  F   UNL A   1      40.016  25.128  25.841  1.00  0.00    -0.206 F 
ATOM     69  C   UNL A   1      40.156  21.760  27.176  1.00  0.00     0.006 A 
ENDBRANCH  48  62
BRANCH  49  70
ATOM     70  C   UNL A   1      45.601  33.208  28.870  1.00  0.00     0.057 A 
ATOM     71  C   UNL A   1      45.521  34.213  27.902  1.00  0.00     0.134 A 
ATOM     72  C   UNL A   1      46.333  33.479  30.031  1.00  0.00     0.134 A 
ATOM     73  F   UNL A   1      44.851  34.000  26.761  1.00  0.00    -0.206 F 
ATOM     74  C   UNL A   1      46.160  35.442  28.074  1.00  0.00     0.040 A 
ATOM     75  C   UNL A   1      46.965  34.708  30.223  1.00  0.00     0.040 A 
ATOM     76  F   UNL A   1      46.445  32.551  30.992  1.00  0.00    -0.206 F 
ATOM     77  C   UNL A   1      46.883  35.692  29.239  1.00  0.00     0.006 A 
ENDBRANCH  49  70
BRANCH  61  78
ATOM     78  C   UNL A   1      47.677  27.354  25.753  1.00  0.00     0.057 A 
ATOM     79  C   UNL A   1      48.790  26.833  26.423  1.00  0.00     0.134 A 
ATOM     80  C   UNL A   1      47.754  27.487  24.362  1.00  0.00     0.134 A 
ATOM     81  F   UNL A   1      48.777  26.693  27.757  1.00  0.00    -0.206 F 
ATOM     82  C   UNL A   1      49.945  26.465  25.733  1.00  0.00     0.040 A 
ATOM     83  C   UNL A   1      48.898  27.110  23.660  1.00  0.00     0.040 A 
ATOM     84  F   UNL A   1      46.717  27.976  23.666  1.00  0.00    -0.206 F 
ATOM     85  C   UNL A   1      49.998  26.598  24.346  1.00  0.00     0.006 A 
ENDBRANCH  61  78
ENDBRANCH  35  36
ENDBRANCH  28  30
ENDBRANCH  27  28
ENDBRANCH  26  27
ENDBRANCH  25  26
ENDBRANCH  24  25
ENDBRANCH   1  24
TORSDOF 18
ENDMDL
