MODEL 1
REMARK VINA RESULT:     -10.7      0.000      0.000
REMARK SMILES COc1ccc(NC(=O)c2cccn2CC(=O)OCCOCCOC(=O)c2ccc(-c3c4nc(c(-c5c(F)cccc5F)c5ccc([nH]5)c(-c5c(F)cccc5F)c5nc(c(-c6c(F)cccc6F)c6ccc3[nH]6)C=C5)C=C4)cc2)cc1F
REMARK SMILES IDX 20 1 19 2 18 3 16 4 17 5 15 6 14 7 10 8 11 9 12 10 13 11
REMARK SMILES IDX 8 12 7 13 9 15 6 16 3 17 4 18 82 19 5 20 81 21 83 22 2 23
REMARK SMILES IDX 1 24 21 25 22 26 23 27 24 28 25 29 26 30 27 31 28 32 80 33
REMARK SMILES IDX 29 34 79 35 30 36 31 37 32 38 73 39 33 40 78 41 72 42 74 43
REMARK SMILES IDX 34 44 77 45 71 46 70 47 35 49 61 50 44 51 60 52 45 53 48 54
REMARK SMILES IDX 59 55 75 56 46 57 47 58 58 60 76 61 49 62 36 63 37 64 42 65
REMARK SMILES IDX 38 66 39 67 41 68 43 69 40 70 62 71 63 72 68 73 64 74 65 75
REMARK SMILES IDX 67 76 69 77 66 78 50 79 51 80 56 81 52 82 53 83 55 84 57 85
REMARK SMILES IDX 54 86
REMARK H PARENT 7 14 74 48 48 59
REMARK Flexibility Score: inf
ROOT
ATOM      1  C   UNL A   1      36.848  21.794  25.153  1.00  0.00     0.202 C 
ENDROOT
BRANCH   1   2
ATOM      2  C   UNL A   1      35.513  22.507  24.921  1.00  0.00     0.261 C 
BRANCH   2   3
ATOM      3  O   UNL A   1      34.635  21.835  23.996  1.00  0.00    -0.462 OA
BRANCH   3   4
ATOM      4  C   UNL A   1      33.558  22.570  23.610  1.00  0.00     0.326 C 
ATOM      5  O   UNL A   1      32.533  22.086  23.136  1.00  0.00    -0.250 OA
BRANCH   4   6
ATOM      6  C   UNL A   1      33.657  24.053  23.840  1.00  0.00     0.244 C 
BRANCH   6   7
ATOM      7  N   UNL A   1      32.532  24.902  23.456  1.00  0.00    -0.332 N 
ATOM      8  C   UNL A   1      31.549  25.396  24.298  1.00  0.00     0.107 A 
ATOM      9  C   UNL A   1      30.915  26.421  23.603  1.00  0.00     0.033 A 
ATOM     10  C   UNL A   1      31.437  26.466  22.292  1.00  0.00     0.020 A 
ATOM     11  C   UNL A   1      32.442  25.531  22.232  1.00  0.00     0.087 A 
BRANCH   8  12
ATOM     12  C   UNL A   1      31.342  24.973  25.667  1.00  0.00     0.272 C 
ATOM     13  N   UNL A   1      31.718  25.760  26.731  1.00  0.00    -0.321 N 
ATOM     14  H   UNL A   1      31.694  25.287  27.593  1.00  0.00     0.170 HD
ATOM     15  O   UNL A   1      30.853  23.876  25.942  1.00  0.00    -0.267 OA
BRANCH  13  16
ATOM     16  C   UNL A   1      32.130  27.098  26.847  1.00  0.00     0.044 A 
ATOM     17  C   UNL A   1      33.065  29.752  26.815  1.00  0.00     0.154 A 
ATOM     18  C   UNL A   1      31.778  29.462  27.251  1.00  0.00     0.052 A 
ATOM     19  C   UNL A   1      33.916  28.698  26.493  1.00  0.00     0.167 A 
ATOM     20  C   UNL A   1      31.323  28.143  27.294  1.00  0.00     0.030 A 
ATOM     21  C   UNL A   1      33.456  27.381  26.502  1.00  0.00     0.069 A 
ATOM     22  F   UNL A   1      35.195  28.917  26.156  1.00  0.00    -0.203 F 
BRANCH  17  23
ATOM     23  O   UNL A   1      33.375  31.080  26.769  1.00  0.00    -0.494 OA
ATOM     24  C   UNL A   1      33.845  31.619  28.000  1.00  0.00     0.278 C 
ENDBRANCH  17  23
ENDBRANCH  13  16
ENDBRANCH   8  12
ENDBRANCH   6   7
ENDBRANCH   4   6
ENDBRANCH   3   4
ENDBRANCH   2   3
ENDBRANCH   1   2
BRANCH   1  25
ATOM     25  O   UNL A   1      37.970  22.558  25.584  1.00  0.00    -0.374 OA
BRANCH  25  26
ATOM     26  C   UNL A   1      39.110  21.904  26.128  1.00  0.00     0.202 C 
BRANCH  26  27
ATOM     27  C   UNL A   1      39.357  20.451  25.754  1.00  0.00     0.261 C 
BRANCH  27  28
ATOM     28  O   UNL A   1      40.164  19.775  26.702  1.00  0.00    -0.460 OA
BRANCH  28  29
ATOM     29  C   UNL A   1      41.369  19.434  26.194  1.00  0.00     0.338 C 
ATOM     30  O   UNL A   1      41.707  18.354  25.744  1.00  0.00    -0.246 OA
BRANCH  29  31
ATOM     31  C   UNL A   1      42.318  20.504  26.482  1.00  0.00     0.060 A 
ATOM     32  C   UNL A   1      42.374  20.900  27.818  1.00  0.00     0.016 A 
ATOM     33  C   UNL A   1      42.748  21.320  25.424  1.00  0.00     0.016 A 
ATOM     34  C   UNL A   1      42.650  22.216  28.082  1.00  0.00     0.010 A 
ATOM     35  C   UNL A   1      42.994  22.644  25.684  1.00  0.00     0.010 A 
ATOM     36  C   UNL A   1      42.889  23.080  27.006  1.00  0.00    -0.014 A 
BRANCH  36  37
ATOM     37  C   UNL A   1      43.219  24.458  27.340  1.00  0.00     0.031 A 
ATOM     38  C   UNL A   1      41.903  25.233  27.545  1.00  0.00     0.074 A 
ATOM     39  C   UNL A   1      44.556  24.752  27.290  1.00  0.00     0.049 A 
ATOM     40  N   UNL A   1      41.616  26.467  27.292  1.00  0.00    -0.248 NA
ATOM     41  C   UNL A   1      40.686  24.497  28.005  1.00  0.00     0.031 C 
ATOM     42  C   UNL A   1      45.656  23.770  27.091  1.00  0.00     0.029 A 
ATOM     43  N   UNL A   1      45.273  25.922  27.373  1.00  0.00    -0.354 N 
ATOM     44  C   UNL A   1      40.299  26.706  27.749  1.00  0.00     0.074 A 
ATOM     45  C   UNL A   1      39.736  25.430  28.045  1.00  0.00     0.031 C 
ATOM     46  C   UNL A   1      46.850  24.392  26.963  1.00  0.00     0.029 A 
ATOM     47  C   UNL A   1      46.662  25.825  27.073  1.00  0.00     0.049 A 
ATOM     48  H   UNL A   1      44.852  26.775  27.625  1.00  0.00     0.167 HD
ATOM     49  C   UNL A   1      39.818  27.962  27.981  1.00  0.00     0.037 A 
ATOM     50  C   UNL A   1      47.557  26.844  26.862  1.00  0.00     0.037 A 
ATOM     51  C   UNL A   1      40.808  28.917  27.612  1.00  0.00     0.049 A 
ATOM     52  C   UNL A   1      46.784  28.060  27.148  1.00  0.00     0.074 A 
ATOM     53  C   UNL A   1      41.257  29.312  26.379  1.00  0.00     0.029 A 
ATOM     54  N   UNL A   1      41.750  29.226  28.564  1.00  0.00    -0.354 N 
ATOM     55  N   UNL A   1      46.400  28.436  28.331  1.00  0.00    -0.248 NA
ATOM     56  C   UNL A   1      46.266  28.833  26.012  1.00  0.00     0.031 C 
ATOM     57  C   UNL A   1      42.653  29.371  26.561  1.00  0.00     0.029 A 
ATOM     58  C   UNL A   1      42.962  29.306  27.925  1.00  0.00     0.049 A 
ATOM     59  H   UNL A   1      41.584  29.366  29.525  1.00  0.00     0.167 HD
ATOM     60  C   UNL A   1      45.341  29.263  28.043  1.00  0.00     0.074 A 
ATOM     61  C   UNL A   1      45.520  29.708  26.677  1.00  0.00     0.031 C 
ATOM     62  C   UNL A   1      44.163  29.113  28.703  1.00  0.00     0.037 A 
BRANCH  49  63
ATOM     63  C   UNL A   1      38.615  28.467  28.723  1.00  0.00     0.057 A 
ATOM     64  C   UNL A   1      38.381  28.240  30.079  1.00  0.00     0.134 A 
ATOM     65  C   UNL A   1      37.846  29.497  28.136  1.00  0.00     0.134 A 
ATOM     66  F   UNL A   1      39.036  27.287  30.746  1.00  0.00    -0.206 F 
ATOM     67  C   UNL A   1      37.521  29.048  30.833  1.00  0.00     0.040 A 
ATOM     68  C   UNL A   1      37.016  30.336  28.883  1.00  0.00     0.040 A 
ATOM     69  F   UNL A   1      37.934  29.767  26.824  1.00  0.00    -0.206 F 
ATOM     70  C   UNL A   1      36.871  30.128  30.246  1.00  0.00     0.006 A 
ENDBRANCH  49  63
BRANCH  50  71
ATOM     71  C   UNL A   1      48.953  27.055  26.310  1.00  0.00     0.057 A 
ATOM     72  C   UNL A   1      49.176  26.979  24.903  1.00  0.00     0.134 A 
ATOM     73  C   UNL A   1      50.123  27.239  27.048  1.00  0.00     0.134 A 
ATOM     74  F   UNL A   1      48.167  26.984  24.022  1.00  0.00    -0.206 F 
ATOM     75  C   UNL A   1      50.438  26.888  24.306  1.00  0.00     0.040 A 
ATOM     76  C   UNL A   1      51.406  27.209  26.451  1.00  0.00     0.040 A 
ATOM     77  F   UNL A   1      50.085  27.474  28.364  1.00  0.00    -0.206 F 
ATOM     78  C   UNL A   1      51.568  26.981  25.088  1.00  0.00     0.006 A 
ENDBRANCH  50  71
BRANCH  62  79
ATOM     79  C   UNL A   1      44.268  28.434  30.057  1.00  0.00     0.057 A 
ATOM     80  C   UNL A   1      43.765  27.158  30.357  1.00  0.00     0.134 A 
ATOM     81  C   UNL A   1      44.997  29.040  31.086  1.00  0.00     0.134 A 
ATOM     82  F   UNL A   1      43.045  26.481  29.468  1.00  0.00    -0.206 F 
ATOM     83  C   UNL A   1      43.977  26.513  31.584  1.00  0.00     0.040 A 
ATOM     84  C   UNL A   1      45.220  28.413  32.322  1.00  0.00     0.040 A 
ATOM     85  F   UNL A   1      45.509  30.267  30.912  1.00  0.00    -0.206 F 
ATOM     86  C   UNL A   1      44.714  27.142  32.575  1.00  0.00     0.006 A 
ENDBRANCH  62  79
ENDBRANCH  36  37
ENDBRANCH  29  31
ENDBRANCH  28  29
ENDBRANCH  27  28
ENDBRANCH  26  27
ENDBRANCH  25  26
ENDBRANCH   1  25
TORSDOF 18
ENDMDL
MODEL 2
REMARK VINA RESULT:     -10.5      1.609      2.161
REMARK SMILES COc1ccc(NC(=O)c2cccn2CC(=O)OCCOCCOC(=O)c2ccc(-c3c4nc(c(-c5c(F)cccc5F)c5ccc([nH]5)c(-c5c(F)cccc5F)c5nc(c(-c6c(F)cccc6F)c6ccc3[nH]6)C=C5)C=C4)cc2)cc1F
REMARK SMILES IDX 20 1 19 2 18 3 16 4 17 5 15 6 14 7 10 8 11 9 12 10 13 11
REMARK SMILES IDX 8 12 7 13 9 15 6 16 3 17 4 18 82 19 5 20 81 21 83 22 2 23
REMARK SMILES IDX 1 24 21 25 22 26 23 27 24 28 25 29 26 30 27 31 28 32 80 33
REMARK SMILES IDX 29 34 79 35 30 36 31 37 32 38 73 39 33 40 78 41 72 42 74 43
REMARK SMILES IDX 34 44 77 45 71 46 70 47 35 49 61 50 44 51 60 52 45 53 48 54
REMARK SMILES IDX 59 55 75 56 46 57 47 58 58 60 76 61 49 62 36 63 37 64 42 65
REMARK SMILES IDX 38 66 39 67 41 68 43 69 40 70 62 71 63 72 68 73 64 74 65 75
REMARK SMILES IDX 67 76 69 77 66 78 50 79 51 80 56 81 52 82 53 83 55 84 57 85
REMARK SMILES IDX 54 86
REMARK H PARENT 7 14 74 48 48 59
REMARK Flexibility Score: inf
ROOT
ATOM      1  C   UNL A   1      36.081  21.675  25.234  1.00  0.00     0.202 C 
ENDROOT
BRANCH   1   2
ATOM      2  C   UNL A   1      34.952  20.711  25.606  1.00  0.00     0.261 C 
BRANCH   2   3
ATOM      3  O   UNL A   1      34.039  20.424  24.529  1.00  0.00    -0.462 OA
BRANCH   3   4
ATOM      4  C   UNL A   1      32.731  20.372  24.900  1.00  0.00     0.326 C 
ATOM      5  O   UNL A   1      32.203  19.388  25.412  1.00  0.00    -0.250 OA
BRANCH   4   6
ATOM      6  C   UNL A   1      31.939  21.634  24.693  1.00  0.00     0.244 C 
BRANCH   6   7
ATOM      7  N   UNL A   1      32.399  22.598  23.696  1.00  0.00    -0.332 N 
ATOM      8  C   UNL A   1      32.922  23.857  23.950  1.00  0.00     0.107 A 
ATOM      9  C   UNL A   1      33.548  24.265  22.776  1.00  0.00     0.033 A 
ATOM     10  C   UNL A   1      33.299  23.303  21.774  1.00  0.00     0.020 A 
ATOM     11  C   UNL A   1      32.604  22.279  22.371  1.00  0.00     0.087 A 
BRANCH   8  12
ATOM     12  C   UNL A   1      32.895  24.521  25.236  1.00  0.00     0.272 C 
ATOM     13  N   UNL A   1      32.285  25.743  25.405  1.00  0.00    -0.321 N 
ATOM     14  H   UNL A   1      32.495  26.166  26.268  1.00  0.00     0.170 HD
ATOM     15  O   UNL A   1      33.447  24.041  26.227  1.00  0.00    -0.267 OA
BRANCH  13  16
ATOM     16  C   UNL A   1      31.425  26.514  24.605  1.00  0.00     0.044 A 
ATOM     17  C   UNL A   1      29.521  28.057  23.223  1.00  0.00     0.154 A 
ATOM     18  C   UNL A   1      30.863  28.420  23.218  1.00  0.00     0.052 A 
ATOM     19  C   UNL A   1      29.154  26.862  23.837  1.00  0.00     0.167 A 
ATOM     20  C   UNL A   1      31.812  27.640  23.880  1.00  0.00     0.030 A 
ATOM     21  C   UNL A   1      30.093  26.097  24.528  1.00  0.00     0.069 A 
ATOM     22  F   UNL A   1      27.889  26.420  23.791  1.00  0.00    -0.203 F 
BRANCH  17  23
ATOM     23  O   UNL A   1      28.684  28.926  22.586  1.00  0.00    -0.494 OA
ATOM     24  C   UNL A   1      28.538  30.186  23.233  1.00  0.00     0.278 C 
ENDBRANCH  17  23
ENDBRANCH  13  16
ENDBRANCH   8  12
ENDBRANCH   6   7
ENDBRANCH   4   6
ENDBRANCH   3   4
ENDBRANCH   2   3
ENDBRANCH   1   2
BRANCH   1  25
ATOM     25  O   UNL A   1      37.237  21.160  24.580  1.00  0.00    -0.374 OA
BRANCH  25  26
ATOM     26  C   UNL A   1      38.105  20.266  25.266  1.00  0.00     0.202 C 
BRANCH  26  27
ATOM     27  C   UNL A   1      39.466  20.778  25.710  1.00  0.00     0.261 C 
BRANCH  27  28
ATOM     28  O   UNL A   1      40.121  19.885  26.595  1.00  0.00    -0.460 OA
BRANCH  28  29
ATOM     29  C   UNL A   1      41.346  19.531  26.147  1.00  0.00     0.338 C 
ATOM     30  O   UNL A   1      41.690  18.452  25.699  1.00  0.00    -0.246 OA
BRANCH  29  31
ATOM     31  C   UNL A   1      42.295  20.580  26.501  1.00  0.00     0.060 A 
ATOM     32  C   UNL A   1      42.305  20.938  27.850  1.00  0.00     0.016 A 
ATOM     33  C   UNL A   1      42.774  21.421  25.485  1.00  0.00     0.016 A 
ATOM     34  C   UNL A   1      42.585  22.242  28.163  1.00  0.00     0.010 A 
ATOM     35  C   UNL A   1      43.025  22.734  25.792  1.00  0.00     0.010 A 
ATOM     36  C   UNL A   1      42.876  23.134  27.121  1.00  0.00    -0.014 A 
BRANCH  36  37
ATOM     37  C   UNL A   1      43.208  24.497  27.508  1.00  0.00     0.031 A 
ATOM     38  C   UNL A   1      41.893  25.281  27.691  1.00  0.00     0.074 A 
ATOM     39  C   UNL A   1      44.549  24.777  27.512  1.00  0.00     0.049 A 
ATOM     40  N   UNL A   1      41.628  26.525  27.467  1.00  0.00    -0.248 NA
ATOM     41  C   UNL A   1      40.654  24.545  28.087  1.00  0.00     0.031 C 
ATOM     42  C   UNL A   1      45.644  23.789  27.321  1.00  0.00     0.029 A 
ATOM     43  N   UNL A   1      45.275  25.936  27.654  1.00  0.00    -0.354 N 
ATOM     44  C   UNL A   1      40.299  26.764  27.885  1.00  0.00     0.074 A 
ATOM     45  C   UNL A   1      39.713  25.487  28.124  1.00  0.00     0.031 C 
ATOM     46  C   UNL A   1      46.849  24.401  27.252  1.00  0.00     0.029 A 
ATOM     47  C   UNL A   1      46.671  25.832  27.399  1.00  0.00     0.049 A 
ATOM     48  H   UNL A   1      44.854  26.786  27.918  1.00  0.00     0.167 HD
ATOM     49  C   UNL A   1      39.823  28.019  28.138  1.00  0.00     0.037 A 
ATOM     50  C   UNL A   1      47.584  26.847  27.249  1.00  0.00     0.037 A 
ATOM     51  C   UNL A   1      40.835  28.973  27.832  1.00  0.00     0.049 A 
ATOM     52  C   UNL A   1      46.814  28.062  27.546  1.00  0.00     0.074 A 
ATOM     53  C   UNL A   1      41.330  29.399  26.628  1.00  0.00     0.029 A 
ATOM     54  N   UNL A   1      41.747  29.243  28.825  1.00  0.00    -0.354 N 
ATOM     55  N   UNL A   1      46.394  28.407  28.726  1.00  0.00    -0.248 NA
ATOM     56  C   UNL A   1      46.344  28.874  26.416  1.00  0.00     0.031 C 
ATOM     57  C   UNL A   1      42.720  29.437  26.858  1.00  0.00     0.029 A 
ATOM     58  C   UNL A   1      42.981  29.328  28.230  1.00  0.00     0.049 A 
ATOM     59  H   UNL A   1      41.550  29.356  29.783  1.00  0.00     0.167 HD
ATOM     60  C   UNL A   1      45.354  29.254  28.427  1.00  0.00     0.074 A 
ATOM     61  C   UNL A   1      45.584  29.738  27.082  1.00  0.00     0.031 C 
ATOM     62  C   UNL A   1      44.153  29.098  29.042  1.00  0.00     0.037 A 
BRANCH  49  63
ATOM     63  C   UNL A   1      38.601  28.515  28.855  1.00  0.00     0.057 A 
ATOM     64  C   UNL A   1      38.337  28.281  30.204  1.00  0.00     0.134 A 
ATOM     65  C   UNL A   1      37.841  29.544  28.254  1.00  0.00     0.134 A 
ATOM     66  F   UNL A   1      38.980  27.327  30.881  1.00  0.00    -0.206 F 
ATOM     67  C   UNL A   1      37.455  29.082  30.941  1.00  0.00     0.040 A 
ATOM     68  C   UNL A   1      36.991  30.376  28.985  1.00  0.00     0.040 A 
ATOM     69  F   UNL A   1      37.959  29.820  26.946  1.00  0.00    -0.206 F 
ATOM     70  C   UNL A   1      36.814  30.162  30.343  1.00  0.00     0.006 A 
ENDBRANCH  49  63
BRANCH  50  71
ATOM     71  C   UNL A   1      49.000  27.058  26.751  1.00  0.00     0.057 A 
ATOM     72  C   UNL A   1      49.386  26.543  25.478  1.00  0.00     0.134 A 
ATOM     73  C   UNL A   1      50.052  27.648  27.453  1.00  0.00     0.134 A 
ATOM     74  F   UNL A   1      48.487  26.104  24.587  1.00  0.00    -0.206 F 
ATOM     75  C   UNL A   1      50.709  26.440  25.034  1.00  0.00     0.040 A 
ATOM     76  C   UNL A   1      51.389  27.604  26.990  1.00  0.00     0.040 A 
ATOM     77  F   UNL A   1      49.841  28.306  28.599  1.00  0.00    -0.206 F 
ATOM     78  C   UNL A   1      51.727  26.955  25.807  1.00  0.00     0.006 A 
ENDBRANCH  50  71
BRANCH  62  79
ATOM     79  C   UNL A   1      44.205  28.378  30.377  1.00  0.00     0.057 A 
ATOM     80  C   UNL A   1      43.683  27.097  30.620  1.00  0.00     0.134 A 
ATOM     81  C   UNL A   1      44.899  28.948  31.450  1.00  0.00     0.134 A 
ATOM     82  F   UNL A   1      42.993  26.452  29.685  1.00  0.00    -0.206 F 
ATOM     83  C   UNL A   1      43.847  26.414  31.834  1.00  0.00     0.040 A 
ATOM     84  C   UNL A   1      45.073  28.283  32.674  1.00  0.00     0.040 A 
ATOM     85  F   UNL A   1      45.424  30.176  31.332  1.00  0.00    -0.206 F 
ATOM     86  C   UNL A   1      44.551  27.008  32.869  1.00  0.00     0.006 A 
ENDBRANCH  62  79
ENDBRANCH  36  37
ENDBRANCH  29  31
ENDBRANCH  28  29
ENDBRANCH  27  28
ENDBRANCH  26  27
ENDBRANCH  25  26
ENDBRANCH   1  25
TORSDOF 18
ENDMDL
MODEL 3
REMARK VINA RESULT:     -10.4      4.506     10.040
REMARK SMILES COc1ccc(NC(=O)c2cccn2CC(=O)OCCOCCOC(=O)c2ccc(-c3c4nc(c(-c5c(F)cccc5F)c5ccc([nH]5)c(-c5c(F)cccc5F)c5nc(c(-c6c(F)cccc6F)c6ccc3[nH]6)C=C5)C=C4)cc2)cc1F
REMARK SMILES IDX 20 1 19 2 18 3 16 4 17 5 15 6 14 7 10 8 11 9 12 10 13 11
REMARK SMILES IDX 8 12 7 13 9 15 6 16 3 17 4 18 82 19 5 20 81 21 83 22 2 23
REMARK SMILES IDX 1 24 21 25 22 26 23 27 24 28 25 29 26 30 27 31 28 32 80 33
REMARK SMILES IDX 29 34 79 35 30 36 31 37 32 38 73 39 33 40 78 41 72 42 74 43
REMARK SMILES IDX 34 44 77 45 71 46 70 47 35 49 61 50 44 51 60 52 45 53 48 54
REMARK SMILES IDX 59 55 75 56 46 57 47 58 58 60 76 61 49 62 36 63 37 64 42 65
REMARK SMILES IDX 38 66 39 67 41 68 43 69 40 70 62 71 63 72 68 73 64 74 65 75
REMARK SMILES IDX 67 76 69 77 66 78 50 79 51 80 56 81 52 82 53 83 55 84 57 85
REMARK SMILES IDX 54 86
REMARK H PARENT 7 14 74 48 48 59
REMARK Flexibility Score: inf
ROOT
ATOM      1  C   UNL A   1      34.805  28.968  27.227  1.00  0.00     0.202 C 
ENDROOT
BRANCH   1   2
ATOM      2  C   UNL A   1      33.663  28.188  26.572  1.00  0.00     0.261 C 
BRANCH   2   3
ATOM      3  O   UNL A   1      32.965  28.915  25.540  1.00  0.00    -0.462 OA
BRANCH   3   4
ATOM      4  C   UNL A   1      33.216  28.477  24.277  1.00  0.00     0.326 C 
ATOM      5  O   UNL A   1      33.433  29.222  23.324  1.00  0.00    -0.250 OA
BRANCH   4   6
ATOM      6  C   UNL A   1      33.265  26.985  24.097  1.00  0.00     0.244 C 
BRANCH   6   7
ATOM      7  N   UNL A   1      32.031  26.274  23.771  1.00  0.00    -0.332 N 
ATOM      8  C   UNL A   1      31.898  25.224  22.875  1.00  0.00     0.107 A 
ATOM      9  C   UNL A   1      30.668  24.632  23.145  1.00  0.00     0.033 A 
ATOM     10  C   UNL A   1      30.003  25.400  24.124  1.00  0.00     0.020 A 
ATOM     11  C   UNL A   1      30.870  26.396  24.505  1.00  0.00     0.087 A 
BRANCH   8  12
ATOM     12  C   UNL A   1      32.920  24.797  21.943  1.00  0.00     0.272 C 
ATOM     13  N   UNL A   1      33.645  23.645  22.145  1.00  0.00    -0.321 N 
ATOM     14  H   UNL A   1      34.423  23.566  21.547  1.00  0.00     0.170 HD
ATOM     15  O   UNL A   1      33.210  25.461  20.947  1.00  0.00    -0.267 OA
BRANCH  13  16
ATOM     16  C   UNL A   1      33.511  22.558  23.025  1.00  0.00     0.044 A 
ATOM     17  C   UNL A   1      33.295  20.567  25.000  1.00  0.00     0.154 A 
ATOM     18  C   UNL A   1      32.350  20.660  23.985  1.00  0.00     0.052 A 
ATOM     19  C   UNL A   1      34.403  21.408  24.962  1.00  0.00     0.167 A 
ATOM     20  C   UNL A   1      32.472  21.630  22.989  1.00  0.00     0.030 A 
ATOM     21  C   UNL A   1      34.512  22.400  23.989  1.00  0.00     0.069 A 
ATOM     22  F   UNL A   1      35.389  21.296  25.864  1.00  0.00    -0.203 F 
BRANCH  17  23
ATOM     23  O   UNL A   1      33.039  19.613  25.942  1.00  0.00    -0.494 OA
ATOM     24  C   UNL A   1      32.694  18.337  25.413  1.00  0.00     0.278 C 
ENDBRANCH  17  23
ENDBRANCH  13  16
ENDBRANCH   8  12
ENDBRANCH   6   7
ENDBRANCH   4   6
ENDBRANCH   3   4
ENDBRANCH   2   3
ENDBRANCH   1   2
BRANCH   1  25
ATOM     25  O   UNL A   1      34.488  30.047  28.102  1.00  0.00    -0.374 OA
BRANCH  25  26
ATOM     26  C   UNL A   1      34.653  31.390  27.664  1.00  0.00     0.202 C 
BRANCH  26  27
ATOM     27  C   UNL A   1      33.455  32.324  27.727  1.00  0.00     0.261 C 
BRANCH  27  28
ATOM     28  O   UNL A   1      33.826  33.690  27.661  1.00  0.00    -0.460 OA
BRANCH  28  29
ATOM     29  C   UNL A   1      33.475  34.369  28.776  1.00  0.00     0.338 C 
ATOM     30  O   UNL A   1      32.490  35.065  28.942  1.00  0.00    -0.246 OA
BRANCH  29  31
ATOM     31  C   UNL A   1      34.593  34.342  29.712  1.00  0.00     0.060 A 
ATOM     32  C   UNL A   1      35.832  34.674  29.161  1.00  0.00     0.016 A 
ATOM     33  C   UNL A   1      34.457  33.604  30.897  1.00  0.00     0.016 A 
ATOM     34  C   UNL A   1      36.944  34.065  29.680  1.00  0.00     0.010 A 
ATOM     35  C   UNL A   1      35.565  32.969  31.398  1.00  0.00     0.010 A 
ATOM     36  C   UNL A   1      36.783  33.171  30.747  1.00  0.00    -0.014 A 
BRANCH  36  37
ATOM     37  C   UNL A   1      37.998  32.582  31.290  1.00  0.00     0.031 A 
ATOM     38  C   UNL A   1      38.290  31.280  30.518  1.00  0.00     0.074 A 
ATOM     39  C   UNL A   1      38.512  33.237  32.378  1.00  0.00     0.049 A 
ATOM     40  N   UNL A   1      38.827  30.177  30.921  1.00  0.00    -0.248 NA
ATOM     41  C   UNL A   1      37.818  31.147  29.106  1.00  0.00     0.031 C 
ATOM     42  C   UNL A   1      38.032  34.538  32.916  1.00  0.00     0.029 A 
ATOM     43  N   UNL A   1      39.517  32.949  33.270  1.00  0.00    -0.354 N 
ATOM     44  C   UNL A   1      38.954  29.324  29.800  1.00  0.00     0.074 A 
ATOM     45  C   UNL A   1      38.192  29.919  28.751  1.00  0.00     0.031 C 
ATOM     46  C   UNL A   1      38.663  34.852  34.072  1.00  0.00     0.029 A 
ATOM     47  C   UNL A   1      39.614  33.810  34.400  1.00  0.00     0.049 A 
ATOM     48  H   UNL A   1      40.135  32.194  33.134  1.00  0.00     0.167 HD
ATOM     49  C   UNL A   1      39.800  28.253  29.783  1.00  0.00     0.037 A 
ATOM     50  C   UNL A   1      40.361  33.633  35.539  1.00  0.00     0.037 A 
ATOM     51  C   UNL A   1      40.417  28.125  31.060  1.00  0.00     0.049 A 
ATOM     52  C   UNL A   1      41.141  32.419  35.267  1.00  0.00     0.074 A 
ATOM     53  C   UNL A   1      39.910  27.710  32.263  1.00  0.00     0.029 A 
ATOM     54  N   UNL A   1      41.552  28.871  31.273  1.00  0.00    -0.354 N 
ATOM     55  N   UNL A   1      42.127  32.341  34.424  1.00  0.00    -0.248 NA
ATOM     56  C   UNL A   1      40.685  31.158  35.865  1.00  0.00     0.031 C 
ATOM     57  C   UNL A   1      40.454  28.644  33.169  1.00  0.00     0.029 A 
ATOM     58  C   UNL A   1      41.471  29.377  32.546  1.00  0.00     0.049 A 
ATOM     59  H   UNL A   1      42.285  29.014  30.631  1.00  0.00     0.167 HD
ATOM     60  C   UNL A   1      42.168  30.996  34.150  1.00  0.00     0.074 A 
ATOM     61  C   UNL A   1      41.525  30.324  35.260  1.00  0.00     0.031 C 
ATOM     62  C   UNL A   1      42.227  30.566  32.863  1.00  0.00     0.037 A 
BRANCH  49  63
ATOM     63  C   UNL A   1      40.333  27.399  28.671  1.00  0.00     0.057 A 
ATOM     64  C   UNL A   1      39.840  26.134  28.351  1.00  0.00     0.134 A 
ATOM     65  C   UNL A   1      41.135  28.008  27.680  1.00  0.00     0.134 A 
ATOM     66  F   UNL A   1      39.080  25.449  29.208  1.00  0.00    -0.206 F 
ATOM     67  C   UNL A   1      40.037  25.553  27.091  1.00  0.00     0.040 A 
ATOM     68  C   UNL A   1      41.306  27.461  26.407  1.00  0.00     0.040 A 
ATOM     69  F   UNL A   1      41.720  29.197  27.896  1.00  0.00    -0.206 F 
ATOM     70  C   UNL A   1      40.732  26.236  26.100  1.00  0.00     0.006 A 
ENDBRANCH  49  63
BRANCH  50  71
ATOM     71  C   UNL A   1      40.476  34.202  36.939  1.00  0.00     0.057 A 
ATOM     72  C   UNL A   1      39.358  34.140  37.823  1.00  0.00     0.134 A 
ATOM     73  C   UNL A   1      41.567  34.891  37.473  1.00  0.00     0.134 A 
ATOM     74  F   UNL A   1      38.290  33.373  37.564  1.00  0.00    -0.206 F 
ATOM     75  C   UNL A   1      39.255  34.855  39.021  1.00  0.00     0.040 A 
ATOM     76  C   UNL A   1      41.499  35.572  38.711  1.00  0.00     0.040 A 
ATOM     77  F   UNL A   1      42.745  34.924  36.840  1.00  0.00    -0.206 F 
ATOM     78  C   UNL A   1      40.327  35.599  39.462  1.00  0.00     0.006 A 
ENDBRANCH  50  71
BRANCH  62  79
ATOM     79  C   UNL A   1      42.787  31.575  31.875  1.00  0.00     0.057 A 
ATOM     80  C   UNL A   1      42.048  32.200  30.859  1.00  0.00     0.134 A 
ATOM     81  C   UNL A   1      44.106  32.022  32.009  1.00  0.00     0.134 A 
ATOM     82  F   UNL A   1      40.786  31.856  30.621  1.00  0.00    -0.206 F 
ATOM     83  C   UNL A   1      42.567  33.210  30.035  1.00  0.00     0.040 A 
ATOM     84  C   UNL A   1      44.646  33.031  31.195  1.00  0.00     0.040 A 
ATOM     85  F   UNL A   1      44.907  31.480  32.938  1.00  0.00    -0.206 F 
ATOM     86  C   UNL A   1      43.875  33.634  30.206  1.00  0.00     0.006 A 
ENDBRANCH  62  79
ENDBRANCH  36  37
ENDBRANCH  29  31
ENDBRANCH  28  29
ENDBRANCH  27  28
ENDBRANCH  26  27
ENDBRANCH  25  26
ENDBRANCH   1  25
TORSDOF 18
ENDMDL
