MODEL 1
REMARK VINA RESULT:     -11.3      0.000      0.000
REMARK SMILES CC1=C2C(=O)CC(C)(C)CC2=N[C@@H]1C(=O)OCCOCCOC(=O)c1ccc(-c2c3nc(c(-c4c(F)cccc4F)c4ccc([nH]4)c(-c4c(F)cccc4F)c4nc(c(-c5c(F)cccc5F)c5ccc2[nH]5)C=C4)C=C3)cc1
REMARK SMILES IDX 20 1 19 2 18 3 17 4 16 5 14 6 15 7 13 8 1 9 2 10 3 11 4 12
REMARK SMILES IDX 11 13 12 14 5 15 6 16 10 17 7 18 8 19 9 20 21 21 22 22 23 23
REMARK SMILES IDX 24 24 25 25 26 26 78 27 27 28 77 29 28 30 29 31 30 32 71 33
REMARK SMILES IDX 31 34 76 35 70 36 72 37 32 38 75 39 69 40 68 41 33 43 59 44
REMARK SMILES IDX 42 45 58 46 43 47 46 48 57 49 73 50 44 51 45 52 56 54 74 55
REMARK SMILES IDX 47 56 34 57 35 58 40 59 36 60 37 61 39 62 41 63 38 64 60 65
REMARK SMILES IDX 61 66 66 67 62 68 63 69 65 70 67 71 64 72 48 73 49 74 54 75
REMARK SMILES IDX 50 76 51 77 53 78 55 79 52 80
REMARK H PARENT 72 42 46 53
REMARK Flexibility Score: inf
ROOT
ATOM      1  C   UNL A   1      42.460  19.460  26.391  1.00  0.00     0.202 C 
ENDROOT
BRANCH   1   2
ATOM      2  O   UNL A   1      41.429  20.195  25.747  1.00  0.00    -0.374 OA
BRANCH   2   3
ATOM      3  C   UNL A   1      40.510  20.985  26.497  1.00  0.00     0.202 C 
BRANCH   3   4
ATOM      4  C   UNL A   1      39.209  21.422  25.829  1.00  0.00     0.261 C 
BRANCH   4   5
ATOM      5  O   UNL A   1      38.596  22.516  26.516  1.00  0.00    -0.461 OA
BRANCH   5   6
ATOM      6  C   UNL A   1      37.483  23.008  25.901  1.00  0.00     0.335 C 
ATOM      7  O   UNL A   1      37.129  24.181  25.924  1.00  0.00    -0.249 OA
BRANCH   6   8
ATOM      8  C   UNL A   1      36.685  21.868  25.233  1.00  0.00     0.242 C 
ATOM      9  C   UNL A   1      36.552  22.951  22.821  1.00  0.00     0.043 C 
ATOM     10  C   UNL A   1      35.909  22.317  24.008  1.00  0.00    -0.025 C 
ATOM     11  C   UNL A   1      34.598  22.298  24.267  1.00  0.00     0.040 C 
ATOM     12  C   UNL A   1      33.399  22.795  23.579  1.00  0.00     0.165 C 
ATOM     13  C   UNL A   1      34.664  22.261  25.717  1.00  0.00     0.048 C 
ATOM     14  N   UNL A   1      35.639  21.600  26.267  1.00  0.00    -0.269 NA
ATOM     15  O   UNL A   1      33.057  22.338  22.494  1.00  0.00    -0.294 OA
ATOM     16  C   UNL A   1      32.572  23.824  24.343  1.00  0.00     0.088 C 
ATOM     17  C   UNL A   1      33.822  23.233  26.479  1.00  0.00     0.063 C 
ATOM     18  C   UNL A   1      33.338  24.404  25.563  1.00  0.00    -0.023 C 
ATOM     19  C   UNL A   1      34.460  25.338  25.027  1.00  0.00     0.012 C 
ATOM     20  C   UNL A   1      32.437  25.298  26.429  1.00  0.00     0.012 C 
ENDBRANCH   6   8
ENDBRANCH   5   6
ENDBRANCH   4   5
ENDBRANCH   3   4
ENDBRANCH   2   3
ENDBRANCH   1   2
BRANCH   1  21
ATOM     21  C   UNL A   1      43.378  18.570  25.570  1.00  0.00     0.261 C 
BRANCH  21  22
ATOM     22  O   UNL A   1      44.669  19.123  25.350  1.00  0.00    -0.460 OA
BRANCH  22  23
ATOM     23  C   UNL A   1      44.712  19.903  24.244  1.00  0.00     0.338 C 
ATOM     24  O   UNL A   1      44.894  19.536  23.097  1.00  0.00    -0.246 OA
BRANCH  23  25
ATOM     25  C   UNL A   1      44.727  21.314  24.641  1.00  0.00     0.060 A 
ATOM     26  C   UNL A   1      45.540  21.627  25.731  1.00  0.00     0.016 A 
ATOM     27  C   UNL A   1      43.785  22.223  24.136  1.00  0.00     0.016 A 
ATOM     28  C   UNL A   1      45.290  22.789  26.422  1.00  0.00     0.010 A 
ATOM     29  C   UNL A   1      43.539  23.391  24.830  1.00  0.00     0.010 A 
ATOM     30  C   UNL A   1      44.249  23.628  26.002  1.00  0.00    -0.014 A 
BRANCH  30  31
ATOM     31  C   UNL A   1      44.055  24.848  26.757  1.00  0.00     0.031 A 
ATOM     32  C   UNL A   1      45.147  25.821  26.541  1.00  0.00     0.074 A 
ATOM     33  C   UNL A   1      42.990  25.104  27.539  1.00  0.00     0.049 A 
ATOM     34  N   UNL A   1      46.045  26.173  27.396  1.00  0.00    -0.248 NA
ATOM     35  C   UNL A   1      45.382  26.314  25.175  1.00  0.00     0.031 C 
ATOM     36  C   UNL A   1      41.745  24.348  27.659  1.00  0.00     0.029 A 
ATOM     37  N   UNL A   1      42.777  26.177  28.350  1.00  0.00    -0.354 N 
ATOM     38  C   UNL A   1      46.834  27.107  26.743  1.00  0.00     0.074 A 
ATOM     39  C   UNL A   1      46.499  27.023  25.344  1.00  0.00     0.031 C 
ATOM     40  C   UNL A   1      40.827  25.107  28.304  1.00  0.00     0.029 A 
ATOM     41  C   UNL A   1      41.457  26.342  28.747  1.00  0.00     0.049 A 
ATOM     42  H   UNL A   1      43.497  26.785  28.630  1.00  0.00     0.167 HD
ATOM     43  C   UNL A   1      47.483  28.067  27.452  1.00  0.00     0.037 A 
ATOM     44  C   UNL A   1      40.923  27.445  29.333  1.00  0.00     0.037 A 
ATOM     45  C   UNL A   1      47.650  27.679  28.832  1.00  0.00     0.049 A 
ATOM     46  C   UNL A   1      42.039  28.222  29.934  1.00  0.00     0.074 A 
ATOM     47  C   UNL A   1      48.200  26.581  29.468  1.00  0.00     0.029 A 
ATOM     48  N   UNL A   1      46.869  28.296  29.780  1.00  0.00    -0.354 N 
ATOM     49  N   UNL A   1      42.703  27.837  30.987  1.00  0.00    -0.248 NA
ATOM     50  C   UNL A   1      42.717  29.197  29.091  1.00  0.00     0.031 C 
ATOM     51  C   UNL A   1      47.333  26.317  30.570  1.00  0.00     0.029 A 
ATOM     52  C   UNL A   1      46.355  27.311  30.583  1.00  0.00     0.049 A 
ATOM     53  H   UNL A   1      46.708  29.263  29.865  1.00  0.00     0.167 HD
ATOM     54  C   UNL A   1      44.024  28.136  30.689  1.00  0.00     0.074 A 
ATOM     55  C   UNL A   1      43.961  29.056  29.555  1.00  0.00     0.031 C 
ATOM     56  C   UNL A   1      45.048  27.384  31.191  1.00  0.00     0.037 A 
BRANCH  43  57
ATOM     57  C   UNL A   1      47.545  29.503  26.998  1.00  0.00     0.057 A 
ATOM     58  C   UNL A   1      48.747  30.212  27.150  1.00  0.00     0.134 A 
ATOM     59  C   UNL A   1      46.409  30.296  26.728  1.00  0.00     0.134 A 
ATOM     60  F   UNL A   1      49.893  29.571  27.427  1.00  0.00    -0.206 F 
ATOM     61  C   UNL A   1      48.797  31.610  27.128  1.00  0.00     0.040 A 
ATOM     62  C   UNL A   1      46.458  31.688  26.650  1.00  0.00     0.040 A 
ATOM     63  F   UNL A   1      45.175  29.787  26.635  1.00  0.00    -0.206 F 
ATOM     64  C   UNL A   1      47.648  32.353  26.887  1.00  0.00     0.006 A 
ENDBRANCH  43  57
BRANCH  44  65
ATOM     65  C   UNL A   1      39.568  28.025  29.169  1.00  0.00     0.057 A 
ATOM     66  C   UNL A   1      38.681  28.113  30.255  1.00  0.00     0.134 A 
ATOM     67  C   UNL A   1      39.211  28.763  28.028  1.00  0.00     0.134 A 
ATOM     68  F   UNL A   1      38.947  27.481  31.407  1.00  0.00    -0.206 F 
ATOM     69  C   UNL A   1      37.531  28.913  30.219  1.00  0.00     0.040 A 
ATOM     70  C   UNL A   1      38.060  29.557  27.975  1.00  0.00     0.040 A 
ATOM     71  F   UNL A   1      40.011  28.814  26.954  1.00  0.00    -0.206 F 
ATOM     72  C   UNL A   1      37.224  29.649  29.079  1.00  0.00     0.006 A 
ENDBRANCH  44  65
BRANCH  56  73
ATOM     73  C   UNL A   1      44.742  26.407  32.292  1.00  0.00     0.057 A 
ATOM     74  C   UNL A   1      44.401  25.060  32.092  1.00  0.00     0.134 A 
ATOM     75  C   UNL A   1      44.913  26.822  33.618  1.00  0.00     0.134 A 
ATOM     76  F   UNL A   1      44.323  24.534  30.862  1.00  0.00    -0.206 F 
ATOM     77  C   UNL A   1      44.177  24.189  33.164  1.00  0.00     0.040 A 
ATOM     78  C   UNL A   1      44.733  25.952  34.695  1.00  0.00     0.040 A 
ATOM     79  F   UNL A   1      45.296  28.080  33.890  1.00  0.00    -0.206 F 
ATOM     80  C   UNL A   1      44.347  24.634  34.471  1.00  0.00     0.006 A 
ENDBRANCH  56  73
ENDBRANCH  30  31
ENDBRANCH  23  25
ENDBRANCH  22  23
ENDBRANCH  21  22
ENDBRANCH   1  21
TORSDOF 14
ENDMDL
MODEL 2
REMARK VINA RESULT:     -11.1      1.287      1.837
REMARK SMILES CC1=C2C(=O)CC(C)(C)CC2=N[C@@H]1C(=O)OCCOCCOC(=O)c1ccc(-c2c3nc(c(-c4c(F)cccc4F)c4ccc([nH]4)c(-c4c(F)cccc4F)c4nc(c(-c5c(F)cccc5F)c5ccc2[nH]5)C=C4)C=C3)cc1
REMARK SMILES IDX 20 1 19 2 18 3 17 4 16 5 14 6 15 7 13 8 1 9 2 10 3 11 4 12
REMARK SMILES IDX 11 13 12 14 5 15 6 16 10 17 7 18 8 19 9 20 21 21 22 22 23 23
REMARK SMILES IDX 24 24 25 25 26 26 78 27 27 28 77 29 28 30 29 31 30 32 71 33
REMARK SMILES IDX 31 34 76 35 70 36 72 37 32 38 75 39 69 40 68 41 33 43 59 44
REMARK SMILES IDX 42 45 58 46 43 47 46 48 57 49 73 50 44 51 45 52 56 54 74 55
REMARK SMILES IDX 47 56 34 57 35 58 40 59 36 60 37 61 39 62 41 63 38 64 60 65
REMARK SMILES IDX 61 66 66 67 62 68 63 69 65 70 67 71 64 72 48 73 49 74 54 75
REMARK SMILES IDX 50 76 51 77 53 78 55 79 52 80
REMARK H PARENT 72 42 46 53
REMARK Flexibility Score: inf
ROOT
ATOM      1  C   UNL A   1      41.680  19.636  26.406  1.00  0.00     0.202 C 
ENDROOT
BRANCH   1   2
ATOM      2  O   UNL A   1      40.977  20.825  26.076  1.00  0.00    -0.374 OA
BRANCH   2   3
ATOM      3  C   UNL A   1      39.563  20.822  25.905  1.00  0.00     0.202 C 
BRANCH   3   4
ATOM      4  C   UNL A   1      38.807  22.139  26.054  1.00  0.00     0.261 C 
BRANCH   4   5
ATOM      5  O   UNL A   1      37.751  22.261  25.097  1.00  0.00    -0.461 OA
BRANCH   5   6
ATOM      6  C   UNL A   1      36.504  22.076  25.616  1.00  0.00     0.335 C 
ATOM      7  O   UNL A   1      35.959  20.988  25.763  1.00  0.00    -0.249 OA
BRANCH   6   8
ATOM      8  C   UNL A   1      35.839  23.435  25.922  1.00  0.00     0.242 C 
ATOM      9  C   UNL A   1      34.160  22.551  27.769  1.00  0.00     0.043 C 
ATOM     10  C   UNL A   1      34.446  23.301  26.512  1.00  0.00    -0.025 C 
ATOM     11  C   UNL A   1      33.535  23.713  25.625  1.00  0.00     0.040 C 
ATOM     12  C   UNL A   1      32.071  23.642  25.536  1.00  0.00     0.165 C 
ATOM     13  C   UNL A   1      34.358  23.667  24.430  1.00  0.00     0.048 C 
ATOM     14  N   UNL A   1      35.617  23.968  24.543  1.00  0.00    -0.269 NA
ATOM     15  O   UNL A   1      31.358  24.228  26.344  1.00  0.00    -0.294 OA
ATOM     16  C   UNL A   1      31.513  22.887  24.333  1.00  0.00     0.088 C 
ATOM     17  C   UNL A   1      33.804  22.970  23.229  1.00  0.00     0.063 C 
ATOM     18  C   UNL A   1      32.601  22.047  23.612  1.00  0.00    -0.023 C 
ATOM     19  C   UNL A   1      32.955  20.836  24.521  1.00  0.00     0.012 C 
ATOM     20  C   UNL A   1      32.077  21.439  22.302  1.00  0.00     0.012 C 
ENDBRANCH   6   8
ENDBRANCH   5   6
ENDBRANCH   4   5
ENDBRANCH   3   4
ENDBRANCH   2   3
ENDBRANCH   1   2
BRANCH   1  21
ATOM     21  C   UNL A   1      42.865  19.200  25.562  1.00  0.00     0.261 C 
BRANCH  21  22
ATOM     22  O   UNL A   1      44.085  19.848  25.903  1.00  0.00    -0.460 OA
BRANCH  22  23
ATOM     23  C   UNL A   1      44.595  20.557  24.869  1.00  0.00     0.338 C 
ATOM     24  O   UNL A   1      45.194  20.116  23.904  1.00  0.00    -0.246 OA
BRANCH  23  25
ATOM     25  C   UNL A   1      44.522  21.989  25.174  1.00  0.00     0.060 A 
ATOM     26  C   UNL A   1      45.273  22.412  26.272  1.00  0.00     0.016 A 
ATOM     27  C   UNL A   1      43.556  22.814  24.577  1.00  0.00     0.016 A 
ATOM     28  C   UNL A   1      44.936  23.599  26.877  1.00  0.00     0.010 A 
ATOM     29  C   UNL A   1      43.223  24.007  25.185  1.00  0.00     0.010 A 
ATOM     30  C   UNL A   1      43.871  24.354  26.365  1.00  0.00    -0.014 A 
BRANCH  30  31
ATOM     31  C   UNL A   1      43.585  25.607  27.033  1.00  0.00     0.031 A 
ATOM     32  C   UNL A   1      44.591  26.647  26.728  1.00  0.00     0.074 A 
ATOM     33  C   UNL A   1      42.511  25.832  27.812  1.00  0.00     0.049 A 
ATOM     34  N   UNL A   1      45.465  27.134  27.540  1.00  0.00    -0.248 NA
ATOM     35  C   UNL A   1      44.769  27.056  25.326  1.00  0.00     0.031 C 
ATOM     36  C   UNL A   1      41.334  24.987  28.008  1.00  0.00     0.029 A 
ATOM     37  N   UNL A   1      42.218  26.941  28.545  1.00  0.00    -0.354 N 
ATOM     38  C   UNL A   1      46.167  28.079  26.807  1.00  0.00     0.074 A 
ATOM     39  C   UNL A   1      45.825  27.864  25.425  1.00  0.00     0.031 C 
ATOM     40  C   UNL A   1      40.364  25.714  28.610  1.00  0.00     0.029 A 
ATOM     41  C   UNL A   1      40.893  27.026  28.952  1.00  0.00     0.049 A 
ATOM     42  H   UNL A   1      42.888  27.625  28.769  1.00  0.00     0.167 HD
ATOM     43  C   UNL A   1      46.741  29.138  27.434  1.00  0.00     0.037 A 
ATOM     44  C   UNL A   1      40.276  28.121  29.465  1.00  0.00     0.037 A 
ATOM     45  C   UNL A   1      46.954  28.869  28.836  1.00  0.00     0.049 A 
ATOM     46  C   UNL A   1      41.330  29.029  29.989  1.00  0.00     0.074 A 
ATOM     47  C   UNL A   1      47.601  27.869  29.541  1.00  0.00     0.029 A 
ATOM     48  N   UNL A   1      46.135  29.488  29.749  1.00  0.00    -0.354 N 
ATOM     49  N   UNL A   1      42.035  28.780  31.056  1.00  0.00    -0.248 NA
ATOM     50  C   UNL A   1      41.916  29.992  29.066  1.00  0.00     0.031 C 
ATOM     51  C   UNL A   1      46.770  27.618  30.673  1.00  0.00     0.029 A 
ATOM     52  C   UNL A   1      45.713  28.526  30.631  1.00  0.00     0.049 A 
ATOM     53  H   UNL A   1      45.895  30.442  29.767  1.00  0.00     0.167 HD
ATOM     54  C   UNL A   1      43.323  29.162  30.715  1.00  0.00     0.074 A 
ATOM     55  C   UNL A   1      43.172  29.989  29.518  1.00  0.00     0.031 C 
ATOM     56  C   UNL A   1      44.411  28.537  31.253  1.00  0.00     0.037 A 
BRANCH  43  57
ATOM     57  C   UNL A   1      46.678  30.537  26.876  1.00  0.00     0.057 A 
ATOM     58  C   UNL A   1      47.830  31.340  26.924  1.00  0.00     0.134 A 
ATOM     59  C   UNL A   1      45.477  31.225  26.599  1.00  0.00     0.134 A 
ATOM     60  F   UNL A   1      49.030  30.804  27.196  1.00  0.00    -0.206 F 
ATOM     61  C   UNL A   1      47.774  32.732  26.800  1.00  0.00     0.040 A 
ATOM     62  C   UNL A   1      45.420  32.607  26.419  1.00  0.00     0.040 A 
ATOM     63  F   UNL A   1      44.282  30.624  26.596  1.00  0.00    -0.206 F 
ATOM     64  C   UNL A   1      46.565  33.371  26.556  1.00  0.00     0.006 A 
ENDBRANCH  43  57
BRANCH  44  65
ATOM     65  C   UNL A   1      38.875  28.574  29.282  1.00  0.00     0.057 A 
ATOM     66  C   UNL A   1      37.981  28.621  30.364  1.00  0.00     0.134 A 
ATOM     67  C   UNL A   1      38.458  29.240  28.117  1.00  0.00     0.134 A 
ATOM     68  F   UNL A   1      38.298  28.052  31.537  1.00  0.00    -0.206 F 
ATOM     69  C   UNL A   1      36.765  29.315  30.302  1.00  0.00     0.040 A 
ATOM     70  C   UNL A   1      37.242  29.928  28.038  1.00  0.00     0.040 A 
ATOM     71  F   UNL A   1      39.254  29.326  27.042  1.00  0.00    -0.206 F 
ATOM     72  C   UNL A   1      36.399  29.983  29.138  1.00  0.00     0.006 A 
ENDBRANCH  44  65
BRANCH  56  73
ATOM     73  C   UNL A   1      44.199  27.622  32.427  1.00  0.00     0.057 A 
ATOM     74  C   UNL A   1      43.993  26.236  32.333  1.00  0.00     0.134 A 
ATOM     75  C   UNL A   1      44.324  28.152  33.717  1.00  0.00     0.134 A 
ATOM     76  F   UNL A   1      43.972  25.612  31.148  1.00  0.00    -0.206 F 
ATOM     77  C   UNL A   1      43.853  25.432  33.470  1.00  0.00     0.040 A 
ATOM     78  C   UNL A   1      44.226  27.354  34.858  1.00  0.00     0.040 A 
ATOM     79  F   UNL A   1      44.580  29.459  33.889  1.00  0.00    -0.206 F 
ATOM     80  C   UNL A   1      43.973  25.991  34.738  1.00  0.00     0.006 A 
ENDBRANCH  56  73
ENDBRANCH  30  31
ENDBRANCH  23  25
ENDBRANCH  22  23
ENDBRANCH  21  22
ENDBRANCH   1  21
TORSDOF 14
ENDMDL
MODEL 3
REMARK VINA RESULT:     -11.0      5.591     10.788
REMARK SMILES CC1=C2C(=O)CC(C)(C)CC2=N[C@@H]1C(=O)OCCOCCOC(=O)c1ccc(-c2c3nc(c(-c4c(F)cccc4F)c4ccc([nH]4)c(-c4c(F)cccc4F)c4nc(c(-c5c(F)cccc5F)c5ccc2[nH]5)C=C4)C=C3)cc1
REMARK SMILES IDX 20 1 19 2 18 3 17 4 16 5 14 6 15 7 13 8 1 9 2 10 3 11 4 12
REMARK SMILES IDX 11 13 12 14 5 15 6 16 10 17 7 18 8 19 9 20 21 21 22 22 23 23
REMARK SMILES IDX 24 24 25 25 26 26 78 27 27 28 77 29 28 30 29 31 30 32 71 33
REMARK SMILES IDX 31 34 76 35 70 36 72 37 32 38 75 39 69 40 68 41 33 43 59 44
REMARK SMILES IDX 42 45 58 46 43 47 46 48 57 49 73 50 44 51 45 52 56 54 74 55
REMARK SMILES IDX 47 56 34 57 35 58 40 59 36 60 37 61 39 62 41 63 38 64 60 65
REMARK SMILES IDX 61 66 66 67 62 68 63 69 65 70 67 71 64 72 48 73 49 74 54 75
REMARK SMILES IDX 50 76 51 77 53 78 55 79 52 80
REMARK H PARENT 72 42 46 53
REMARK Flexibility Score: inf
ROOT
ATOM      1  C   UNL A   1      33.410  35.054  29.298  1.00  0.00     0.202 C 
ENDROOT
BRANCH   1   2
ATOM      2  O   UNL A   1      32.656  33.991  28.733  1.00  0.00    -0.374 OA
BRANCH   2   3
ATOM      3  C   UNL A   1      33.179  33.201  27.669  1.00  0.00     0.202 C 
BRANCH   3   4
ATOM      4  C   UNL A   1      32.284  32.133  27.046  1.00  0.00     0.261 C 
BRANCH   4   5
ATOM      5  O   UNL A   1      32.911  30.848  27.039  1.00  0.00    -0.461 OA
BRANCH   5   6
ATOM      6  C   UNL A   1      32.543  30.053  25.995  1.00  0.00     0.335 C 
ATOM      7  O   UNL A   1      31.539  30.215  25.309  1.00  0.00    -0.249 OA
BRANCH   6   8
ATOM      8  C   UNL A   1      33.524  28.872  25.841  1.00  0.00     0.242 C 
ATOM      9  C   UNL A   1      33.978  29.178  23.250  1.00  0.00     0.043 C 
ATOM     10  C   UNL A   1      33.599  28.336  24.422  1.00  0.00    -0.025 C 
ATOM     11  C   UNL A   1      33.041  27.123  24.363  1.00  0.00     0.040 C 
ATOM     12  C   UNL A   1      32.646  26.217  23.277  1.00  0.00     0.165 C 
ATOM     13  C   UNL A   1      32.293  27.167  25.606  1.00  0.00     0.048 C 
ATOM     14  N   UNL A   1      32.816  27.804  26.612  1.00  0.00    -0.269 NA
ATOM     15  O   UNL A   1      33.482  25.724  22.528  1.00  0.00    -0.294 OA
ATOM     16  C   UNL A   1      31.164  25.861  23.214  1.00  0.00     0.088 C 
ATOM     17  C   UNL A   1      30.851  26.776  25.567  1.00  0.00     0.063 C 
ATOM     18  C   UNL A   1      30.298  26.792  24.104  1.00  0.00    -0.023 C 
ATOM     19  C   UNL A   1      30.244  28.191  23.429  1.00  0.00     0.012 C 
ATOM     20  C   UNL A   1      28.839  26.314  24.179  1.00  0.00     0.012 C 
ENDBRANCH   6   8
ENDBRANCH   5   6
ENDBRANCH   4   5
ENDBRANCH   3   4
ENDBRANCH   2   3
ENDBRANCH   1   2
BRANCH   1  21
ATOM     21  C   UNL A   1      32.754  36.004  30.285  1.00  0.00     0.261 C 
BRANCH  21  22
ATOM     22  O   UNL A   1      32.227  35.363  31.439  1.00  0.00    -0.460 OA
BRANCH  22  23
ATOM     23  C   UNL A   1      32.849  35.756  32.576  1.00  0.00     0.338 C 
ATOM     24  O   UNL A   1      32.614  36.758  33.228  1.00  0.00    -0.246 OA
BRANCH  23  25
ATOM     25  C   UNL A   1      34.023  34.910  32.809  1.00  0.00     0.060 A 
ATOM     26  C   UNL A   1      35.251  35.572  32.825  1.00  0.00     0.016 A 
ATOM     27  C   UNL A   1      33.937  33.511  32.745  1.00  0.00     0.016 A 
ATOM     28  C   UNL A   1      36.393  34.838  32.604  1.00  0.00     0.010 A 
ATOM     29  C   UNL A   1      35.085  32.777  32.528  1.00  0.00     0.010 A 
ATOM     30  C   UNL A   1      36.291  33.456  32.394  1.00  0.00    -0.014 A 
BRANCH  30  31
ATOM     31  C   UNL A   1      37.533  32.737  32.194  1.00  0.00     0.031 A 
ATOM     32  C   UNL A   1      38.346  32.669  33.428  1.00  0.00     0.074 A 
ATOM     33  C   UNL A   1      37.905  32.156  31.039  1.00  0.00     0.049 A 
ATOM     34  N   UNL A   1      39.460  33.278  33.650  1.00  0.00    -0.248 NA
ATOM     35  C   UNL A   1      37.770  32.006  34.608  1.00  0.00     0.031 C 
ATOM     36  C   UNL A   1      37.111  31.944  29.830  1.00  0.00     0.029 A 
ATOM     37  N   UNL A   1      39.085  31.548  30.742  1.00  0.00    -0.354 N 
ATOM     38  C   UNL A   1      39.843  32.898  34.927  1.00  0.00     0.074 A 
ATOM     39  C   UNL A   1      38.696  32.270  35.530  1.00  0.00     0.031 C 
ATOM     40  C   UNL A   1      37.751  31.056  29.032  1.00  0.00     0.029 A 
ATOM     41  C   UNL A   1      39.046  30.739  29.614  1.00  0.00     0.049 A 
ATOM     42  H   UNL A   1      39.899  31.670  31.281  1.00  0.00     0.167 HD
ATOM     43  C   UNL A   1      41.158  32.875  35.266  1.00  0.00     0.037 A 
ATOM     44  C   UNL A   1      39.985  29.832  29.239  1.00  0.00     0.037 A 
ATOM     45  C   UNL A   1      41.940  33.722  34.397  1.00  0.00     0.049 A 
ATOM     46  C   UNL A   1      41.258  30.194  29.916  1.00  0.00     0.074 A 
ATOM     47  C   UNL A   1      41.872  35.053  34.026  1.00  0.00     0.029 A 
ATOM     48  N   UNL A   1      42.747  33.123  33.460  1.00  0.00    -0.354 N 
ATOM     49  N   UNL A   1      41.971  31.239  29.604  1.00  0.00    -0.248 NA
ATOM     50  C   UNL A   1      41.498  29.650  31.246  1.00  0.00     0.031 C 
ATOM     51  C   UNL A   1      42.204  35.068  32.638  1.00  0.00     0.029 A 
ATOM     52  C   UNL A   1      42.527  33.763  32.268  1.00  0.00     0.049 A 
ATOM     53  H   UNL A   1      43.367  32.374  33.615  1.00  0.00     0.167 HD
ATOM     54  C   UNL A   1      42.374  31.758  30.825  1.00  0.00     0.074 A 
ATOM     55  C   UNL A   1      42.136  30.688  31.792  1.00  0.00     0.031 C 
ATOM     56  C   UNL A   1      42.582  33.098  30.988  1.00  0.00     0.037 A 
BRANCH  43  57
ATOM     57  C   UNL A   1      41.765  31.755  36.071  1.00  0.00     0.057 A 
ATOM     58  C   UNL A   1      42.704  32.066  37.068  1.00  0.00     0.134 A 
ATOM     59  C   UNL A   1      41.715  30.395  35.696  1.00  0.00     0.134 A 
ATOM     60  F   UNL A   1      42.859  33.328  37.496  1.00  0.00    -0.206 F 
ATOM     61  C   UNL A   1      43.588  31.112  37.584  1.00  0.00     0.040 A 
ATOM     62  C   UNL A   1      42.556  29.426  36.244  1.00  0.00     0.040 A 
ATOM     63  F   UNL A   1      40.934  29.944  34.707  1.00  0.00    -0.206 F 
ATOM     64  C   UNL A   1      43.522  29.789  37.165  1.00  0.00     0.006 A 
ENDBRANCH  43  57
BRANCH  44  65
ATOM     65  C   UNL A   1      39.800  28.519  28.574  1.00  0.00     0.057 A 
ATOM     66  C   UNL A   1      40.373  28.256  27.319  1.00  0.00     0.134 A 
ATOM     67  C   UNL A   1      39.307  27.400  29.267  1.00  0.00     0.134 A 
ATOM     68  F   UNL A   1      40.910  29.247  26.592  1.00  0.00    -0.206 F 
ATOM     69  C   UNL A   1      40.479  26.958  26.802  1.00  0.00     0.040 A 
ATOM     70  C   UNL A   1      39.398  26.100  28.757  1.00  0.00     0.040 A 
ATOM     71  F   UNL A   1      38.802  27.514  30.503  1.00  0.00    -0.206 F 
ATOM     72  C   UNL A   1      40.001  25.872  27.529  1.00  0.00     0.006 A 
ENDBRANCH  44  65
BRANCH  56  73
ATOM     73  C   UNL A   1      42.643  33.965  29.761  1.00  0.00     0.057 A 
ATOM     74  C   UNL A   1      41.559  34.690  29.241  1.00  0.00     0.134 A 
ATOM     75  C   UNL A   1      43.884  34.163  29.145  1.00  0.00     0.134 A 
ATOM     76  F   UNL A   1      40.353  34.659  29.825  1.00  0.00    -0.206 F 
ATOM     77  C   UNL A   1      41.695  35.520  28.123  1.00  0.00     0.040 A 
ATOM     78  C   UNL A   1      44.042  35.020  28.054  1.00  0.00     0.040 A 
ATOM     79  F   UNL A   1      44.981  33.550  29.621  1.00  0.00    -0.206 F 
ATOM     80  C   UNL A   1      42.941  35.689  27.528  1.00  0.00     0.006 A 
ENDBRANCH  56  73
ENDBRANCH  30  31
ENDBRANCH  23  25
ENDBRANCH  22  23
ENDBRANCH  21  22
ENDBRANCH   1  21
TORSDOF 14
ENDMDL
