MODEL 1
REMARK VINA RESULT:     -11.0      0.000      0.000
REMARK SMILES CC1(C)C(NC(=O)[C@@H]2CCC[C@@H](C(=O)OCCOCCOC(=O)c3ccc(-c4c5nc(c(-c6c(F)cccc6F)c6ccc([nH]6)c(-c6c(F)cccc6F)c6nc(c(-c7c(F)cccc7F)c7ccc4[nH]7)C=C6)C=C5)cc3)C2)C1(C)C
REMARK SMILES IDX 18 1 17 2 16 3 15 4 13 5 14 6 12 7 8 8 9 9 78 10 10 11 11 12
REMARK SMILES IDX 6 13 5 14 7 16 4 17 1 18 2 19 3 20 79 21 80 22 81 23 19 24
REMARK SMILES IDX 20 25 21 26 22 27 23 28 24 29 25 30 77 31 26 32 76 33 27 34
REMARK SMILES IDX 28 35 29 36 70 37 30 38 75 39 69 40 71 41 31 42 74 43 68 44
REMARK SMILES IDX 67 45 32 47 58 48 41 49 57 50 42 51 45 52 56 53 72 54 43 55
REMARK SMILES IDX 44 56 55 58 73 59 46 60 33 61 34 62 39 63 35 64 36 65 38 66
REMARK SMILES IDX 40 67 37 68 59 69 60 70 65 71 61 72 62 73 64 74 66 75 63 76
REMARK SMILES IDX 47 77 48 78 53 79 49 80 50 81 52 82 54 83 51 84
REMARK H PARENT 5 15 71 46 45 57
REMARK Flexibility Score: inf
ROOT
ATOM      1  O   UNL A   1      37.726  21.426  25.509  1.00  0.00    -0.374 OA
ENDROOT
BRANCH   1   2
ATOM      2  C   UNL A   1      37.372  22.508  24.648  1.00  0.00     0.202 C 
BRANCH   2   3
ATOM      3  C   UNL A   1      35.896  22.910  24.583  1.00  0.00     0.261 C 
BRANCH   3   4
ATOM      4  O   UNL A   1      35.031  21.827  24.181  1.00  0.00    -0.463 OA
BRANCH   4   5
ATOM      5  C   UNL A   1      34.184  21.392  25.153  1.00  0.00     0.309 C 
ATOM      6  O   UNL A   1      34.523  21.215  26.318  1.00  0.00    -0.252 OA
BRANCH   5   7
ATOM      7  C   UNL A   1      32.774  21.074  24.638  1.00  0.00     0.100 C 
ATOM      8  C   UNL A   1      31.744  23.199  25.469  1.00  0.00     0.079 C 
ATOM      9  C   UNL A   1      31.160  23.561  24.109  1.00  0.00     0.013 C 
ATOM     10  C   UNL A   1      31.744  21.673  25.617  1.00  0.00     0.028 C 
ATOM     11  C   UNL A   1      32.022  22.979  22.994  1.00  0.00     0.002 C 
ATOM     12  C   UNL A   1      32.440  21.510  23.195  1.00  0.00     0.015 C 
BRANCH   8  13
ATOM     13  C   UNL A   1      31.015  23.912  26.595  1.00  0.00     0.223 C 
ATOM     14  N   UNL A   1      31.324  25.229  26.839  1.00  0.00    -0.352 N 
ATOM     15  H   UNL A   1      30.787  25.670  27.535  1.00  0.00     0.163 HD
ATOM     16  O   UNL A   1      30.137  23.358  27.257  1.00  0.00    -0.275 OA
BRANCH  14  17
ATOM     17  C   UNL A   1      32.324  26.050  26.218  1.00  0.00     0.094 C 
ATOM     18  C   UNL A   1      32.970  27.034  23.942  1.00  0.00     0.014 C 
ATOM     19  C   UNL A   1      32.005  27.037  25.113  1.00  0.00    -0.007 C 
ATOM     20  C   UNL A   1      30.579  27.232  24.652  1.00  0.00     0.014 C 
ATOM     21  C   UNL A   1      32.445  27.537  26.505  1.00  0.00    -0.007 C 
ATOM     22  C   UNL A   1      33.842  28.095  26.705  1.00  0.00     0.014 C 
ATOM     23  C   UNL A   1      31.450  28.204  27.431  1.00  0.00     0.014 C 
ENDBRANCH  14  17
ENDBRANCH   8  13
ENDBRANCH   5   7
ENDBRANCH   4   5
ENDBRANCH   3   4
ENDBRANCH   2   3
ENDBRANCH   1   2
BRANCH   1  24
ATOM     24  C   UNL A   1      37.801  20.134  24.913  1.00  0.00     0.202 C 
BRANCH  24  25
ATOM     25  C   UNL A   1      38.928  19.201  25.376  1.00  0.00     0.261 C 
BRANCH  25  26
ATOM     26  O   UNL A   1      39.713  19.771  26.435  1.00  0.00    -0.460 OA
BRANCH  26  27
ATOM     27  C   UNL A   1      41.050  19.680  26.247  1.00  0.00     0.338 C 
ATOM     28  O   UNL A   1      41.664  18.775  25.697  1.00  0.00    -0.246 OA
BRANCH  27  29
ATOM     29  C   UNL A   1      41.701  20.945  26.632  1.00  0.00     0.060 A 
ATOM     30  C   UNL A   1      41.786  21.228  28.001  1.00  0.00     0.016 A 
ATOM     31  C   UNL A   1      42.165  21.861  25.686  1.00  0.00     0.016 A 
ATOM     32  C   UNL A   1      42.284  22.453  28.430  1.00  0.00     0.010 A 
ATOM     33  C   UNL A   1      42.653  23.099  26.117  1.00  0.00     0.010 A 
ATOM     34  C   UNL A   1      42.677  23.413  27.489  1.00  0.00    -0.014 A 
BRANCH  34  35
ATOM     35  C   UNL A   1      42.937  24.798  27.945  1.00  0.00     0.031 A 
ATOM     36  C   UNL A   1      44.362  25.245  28.120  1.00  0.00     0.074 A 
ATOM     37  C   UNL A   1      41.926  25.663  28.138  1.00  0.00     0.049 A 
ATOM     38  N   UNL A   1      44.829  26.410  28.489  1.00  0.00    -0.248 NA
ATOM     39  C   UNL A   1      45.400  24.242  27.837  1.00  0.00     0.031 C 
ATOM     40  C   UNL A   1      40.509  25.360  27.953  1.00  0.00     0.029 A 
ATOM     41  N   UNL A   1      41.944  26.977  28.530  1.00  0.00    -0.354 N 
ATOM     42  C   UNL A   1      46.211  26.281  28.481  1.00  0.00     0.074 A 
ATOM     43  C   UNL A   1      46.509  24.916  28.104  1.00  0.00     0.031 C 
ATOM     44  C   UNL A   1      39.790  26.461  28.233  1.00  0.00     0.029 A 
ATOM     45  C   UNL A   1      40.695  27.534  28.642  1.00  0.00     0.049 A 
ATOM     46  H   UNL A   1      42.774  27.474  28.713  1.00  0.00     0.167 HD
ATOM     47  C   UNL A   1      47.150  27.218  28.751  1.00  0.00     0.037 A 
ATOM     48  C   UNL A   1      40.327  28.766  29.040  1.00  0.00     0.037 A 
ATOM     49  C   UNL A   1      46.852  28.574  29.131  1.00  0.00     0.049 A 
ATOM     50  C   UNL A   1      41.386  29.768  29.415  1.00  0.00     0.074 A 
ATOM     51  C   UNL A   1      47.732  29.602  29.419  1.00  0.00     0.029 A 
ATOM     52  N   UNL A   1      45.573  29.085  29.284  1.00  0.00    -0.354 N 
ATOM     53  N   UNL A   1      42.691  29.642  29.386  1.00  0.00    -0.248 NA
ATOM     54  C   UNL A   1      40.920  31.084  29.877  1.00  0.00     0.031 C 
ATOM     55  C   UNL A   1      46.983  30.725  29.791  1.00  0.00     0.029 A 
ATOM     56  C   UNL A   1      45.638  30.409  29.687  1.00  0.00     0.049 A 
ATOM     57  H   UNL A   1      44.741  28.582  29.128  1.00  0.00     0.167 HD
ATOM     58  C   UNL A   1      43.203  30.867  29.798  1.00  0.00     0.074 A 
ATOM     59  C   UNL A   1      42.065  31.726  30.062  1.00  0.00     0.031 C 
ATOM     60  C   UNL A   1      44.495  31.248  29.942  1.00  0.00     0.037 A 
BRANCH  47  61
ATOM     61  C   UNL A   1      48.586  26.792  28.671  1.00  0.00     0.057 A 
ATOM     62  C   UNL A   1      49.351  26.986  27.513  1.00  0.00     0.134 A 
ATOM     63  C   UNL A   1      49.214  26.189  29.767  1.00  0.00     0.134 A 
ATOM     64  F   UNL A   1      48.805  27.544  26.422  1.00  0.00    -0.206 F 
ATOM     65  C   UNL A   1      50.683  26.570  27.440  1.00  0.00     0.040 A 
ATOM     66  C   UNL A   1      50.551  25.791  29.715  1.00  0.00     0.040 A 
ATOM     67  F   UNL A   1      48.539  25.975  30.906  1.00  0.00    -0.206 F 
ATOM     68  C   UNL A   1      51.287  25.975  28.546  1.00  0.00     0.006 A 
ENDBRANCH  47  61
BRANCH  48  69
ATOM     69  C   UNL A   1      38.888  29.124  29.110  1.00  0.00     0.057 A 
ATOM     70  C   UNL A   1      38.169  29.013  30.305  1.00  0.00     0.134 A 
ATOM     71  C   UNL A   1      38.196  29.577  27.980  1.00  0.00     0.134 A 
ATOM     72  F   UNL A   1      38.773  28.564  31.415  1.00  0.00    -0.206 F 
ATOM     73  C   UNL A   1      36.812  29.328  30.373  1.00  0.00     0.040 A 
ATOM     74  C   UNL A   1      36.843  29.916  28.038  1.00  0.00     0.040 A 
ATOM     75  F   UNL A   1      38.828  29.703  26.804  1.00  0.00    -0.206 F 
ATOM     76  C   UNL A   1      36.147  29.787  29.237  1.00  0.00     0.006 A 
ENDBRANCH  48  69
BRANCH  60  77
ATOM     77  C   UNL A   1      44.751  32.662  30.375  1.00  0.00     0.057 A 
ATOM     78  C   UNL A   1      44.848  33.712  29.453  1.00  0.00     0.134 A 
ATOM     79  C   UNL A   1      44.861  32.982  31.735  1.00  0.00     0.134 A 
ATOM     80  F   UNL A   1      44.765  33.470  28.136  1.00  0.00    -0.206 F 
ATOM     81  C   UNL A   1      45.065  35.027  29.867  1.00  0.00     0.040 A 
ATOM     82  C   UNL A   1      45.053  34.296  32.162  1.00  0.00     0.040 A 
ATOM     83  F   UNL A   1      44.767  32.025  32.669  1.00  0.00    -0.206 F 
ATOM     84  C   UNL A   1      45.161  35.323  31.225  1.00  0.00     0.006 A 
ENDBRANCH  60  77
ENDBRANCH  34  35
ENDBRANCH  27  29
ENDBRANCH  26  27
ENDBRANCH  25  26
ENDBRANCH  24  25
ENDBRANCH   1  24
TORSDOF 16
ENDMDL
MODEL 2
REMARK VINA RESULT:     -10.9      4.590      9.377
REMARK SMILES CC1(C)C(NC(=O)[C@@H]2CCC[C@@H](C(=O)OCCOCCOC(=O)c3ccc(-c4c5nc(c(-c6c(F)cccc6F)c6ccc([nH]6)c(-c6c(F)cccc6F)c6nc(c(-c7c(F)cccc7F)c7ccc4[nH]7)C=C6)C=C5)cc3)C2)C1(C)C
REMARK SMILES IDX 18 1 17 2 16 3 15 4 13 5 14 6 12 7 8 8 9 9 78 10 10 11 11 12
REMARK SMILES IDX 6 13 5 14 7 16 4 17 1 18 2 19 3 20 79 21 80 22 81 23 19 24
REMARK SMILES IDX 20 25 21 26 22 27 23 28 24 29 25 30 77 31 26 32 76 33 27 34
REMARK SMILES IDX 28 35 29 36 70 37 30 38 75 39 69 40 71 41 31 42 74 43 68 44
REMARK SMILES IDX 67 45 32 47 58 48 41 49 57 50 42 51 45 52 56 53 72 54 43 55
REMARK SMILES IDX 44 56 55 58 73 59 46 60 33 61 34 62 39 63 35 64 36 65 38 66
REMARK SMILES IDX 40 67 37 68 59 69 60 70 65 71 61 72 62 73 64 74 66 75 63 76
REMARK SMILES IDX 47 77 48 78 53 79 49 80 50 81 52 82 54 83 51 84
REMARK H PARENT 5 15 71 46 45 57
REMARK Flexibility Score: inf
ROOT
ATOM      1  O   UNL A   1      32.633  31.005  27.034  1.00  0.00    -0.374 OA
ENDROOT
BRANCH   1   2
ATOM      2  C   UNL A   1      32.158  29.659  27.049  1.00  0.00     0.202 C 
BRANCH   2   3
ATOM      3  C   UNL A   1      33.190  28.544  27.236  1.00  0.00     0.261 C 
BRANCH   3   4
ATOM      4  O   UNL A   1      33.117  27.528  26.213  1.00  0.00    -0.463 OA
BRANCH   4   5
ATOM      5  C   UNL A   1      31.902  26.925  26.103  1.00  0.00     0.309 C 
ATOM      6  O   UNL A   1      31.450  26.154  26.943  1.00  0.00    -0.252 OA
BRANCH   5   7
ATOM      7  C   UNL A   1      31.176  27.246  24.790  1.00  0.00     0.100 C 
ATOM      8  C   UNL A   1      32.308  25.452  23.460  1.00  0.00     0.079 C 
ATOM      9  C   UNL A   1      30.995  24.855  22.967  1.00  0.00     0.013 C 
ATOM     10  C   UNL A   1      32.135  26.967  23.615  1.00  0.00     0.028 C 
ATOM     11  C   UNL A   1      29.889  25.102  23.987  1.00  0.00     0.002 C 
ATOM     12  C   UNL A   1      29.826  26.536  24.544  1.00  0.00     0.015 C 
BRANCH   8  13
ATOM     13  C   UNL A   1      33.467  25.068  22.557  1.00  0.00     0.223 C 
ATOM     14  N   UNL A   1      34.155  23.911  22.837  1.00  0.00    -0.352 N 
ATOM     15  H   UNL A   1      34.858  23.668  22.193  1.00  0.00     0.163 HD
ATOM     16  O   UNL A   1      33.775  25.738  21.571  1.00  0.00    -0.275 OA
BRANCH  14  17
ATOM     17  C   UNL A   1      33.988  23.008  23.940  1.00  0.00     0.094 C 
ATOM     18  C   UNL A   1      34.820  20.750  24.817  1.00  0.00     0.014 C 
ATOM     19  C   UNL A   1      35.134  22.205  24.522  1.00  0.00    -0.007 C 
ATOM     20  C   UNL A   1      36.535  22.368  23.979  1.00  0.00     0.014 C 
ATOM     21  C   UNL A   1      34.481  23.340  25.339  1.00  0.00    -0.007 C 
ATOM     22  C   UNL A   1      33.559  23.009  26.497  1.00  0.00     0.014 C 
ATOM     23  C   UNL A   1      35.225  24.635  25.583  1.00  0.00     0.014 C 
ENDBRANCH  14  17
ENDBRANCH   8  13
ENDBRANCH   5   7
ENDBRANCH   4   5
ENDBRANCH   3   4
ENDBRANCH   2   3
ENDBRANCH   1   2
BRANCH   1  24
ATOM     24  C   UNL A   1      31.652  32.028  26.893  1.00  0.00     0.202 C 
BRANCH  24  25
ATOM     25  C   UNL A   1      32.112  33.483  27.048  1.00  0.00     0.261 C 
BRANCH  25  26
ATOM     26  O   UNL A   1      32.260  33.869  28.424  1.00  0.00    -0.460 OA
BRANCH  26  27
ATOM     27  C   UNL A   1      33.346  34.639  28.672  1.00  0.00     0.338 C 
ATOM     28  O   UNL A   1      33.373  35.849  28.851  1.00  0.00    -0.246 OA
BRANCH  27  29
ATOM     29  C   UNL A   1      34.526  33.788  28.900  1.00  0.00     0.060 A 
ATOM     30  C   UNL A   1      34.316  32.568  29.556  1.00  0.00     0.016 A 
ATOM     31  C   UNL A   1      35.814  34.188  28.538  1.00  0.00     0.016 A 
ATOM     32  C   UNL A   1      35.399  31.768  29.905  1.00  0.00     0.010 A 
ATOM     33  C   UNL A   1      36.904  33.390  28.901  1.00  0.00     0.010 A 
ATOM     34  C   UNL A   1      36.702  32.197  29.621  1.00  0.00    -0.014 A 
BRANCH  34  35
ATOM     35  C   UNL A   1      37.842  31.483  30.239  1.00  0.00     0.031 A 
ATOM     36  C   UNL A   1      38.175  31.761  31.678  1.00  0.00     0.074 A 
ATOM     37  C   UNL A   1      38.531  30.556  29.551  1.00  0.00     0.049 A 
ATOM     38  N   UNL A   1      39.111  31.244  32.431  1.00  0.00    -0.248 NA
ATOM     39  C   UNL A   1      37.332  32.756  32.362  1.00  0.00     0.031 C 
ATOM     40  C   UNL A   1      38.272  30.165  28.167  1.00  0.00     0.029 A 
ATOM     41  N   UNL A   1      39.590  29.772  29.932  1.00  0.00    -0.354 N 
ATOM     42  C   UNL A   1      38.971  31.847  33.674  1.00  0.00     0.074 A 
ATOM     43  C   UNL A   1      37.881  32.794  33.567  1.00  0.00     0.031 C 
ATOM     44  C   UNL A   1      39.151  29.213  27.813  1.00  0.00     0.029 A 
ATOM     45  C   UNL A   1      40.050  28.948  28.935  1.00  0.00     0.049 A 
ATOM     46  H   UNL A   1      39.983  29.798  30.834  1.00  0.00     0.167 HD
ATOM     47  C   UNL A   1      39.677  31.624  34.807  1.00  0.00     0.037 A 
ATOM     48  C   UNL A   1      41.085  28.088  28.930  1.00  0.00     0.037 A 
ATOM     49  C   UNL A   1      40.763  30.686  34.911  1.00  0.00     0.049 A 
ATOM     50  C   UNL A   1      41.909  27.916  30.178  1.00  0.00     0.074 A 
ATOM     51  C   UNL A   1      41.538  30.381  36.016  1.00  0.00     0.029 A 
ATOM     52  N   UNL A   1      41.233  29.908  33.865  1.00  0.00    -0.354 N 
ATOM     53  N   UNL A   1      41.757  28.477  31.354  1.00  0.00    -0.248 NA
ATOM     54  C   UNL A   1      43.048  26.990  30.098  1.00  0.00     0.031 C 
ATOM     55  C   UNL A   1      42.507  29.450  35.624  1.00  0.00     0.029 A 
ATOM     56  C   UNL A   1      42.304  29.140  34.290  1.00  0.00     0.049 A 
ATOM     57  H   UNL A   1      40.859  29.901  32.953  1.00  0.00     0.167 HD
ATOM     58  C   UNL A   1      42.761  27.953  32.160  1.00  0.00     0.074 A 
ATOM     59  C   UNL A   1      43.509  27.022  31.340  1.00  0.00     0.031 C 
ATOM     60  C   UNL A   1      43.035  28.216  33.460  1.00  0.00     0.037 A 
BRANCH  47  61
ATOM     61  C   UNL A   1      39.308  32.434  36.015  1.00  0.00     0.057 A 
ATOM     62  C   UNL A   1      39.873  33.692  36.262  1.00  0.00     0.134 A 
ATOM     63  C   UNL A   1      38.370  31.954  36.937  1.00  0.00     0.134 A 
ATOM     64  F   UNL A   1      40.790  34.203  35.427  1.00  0.00    -0.206 F 
ATOM     65  C   UNL A   1      39.537  34.432  37.399  1.00  0.00     0.040 A 
ATOM     66  C   UNL A   1      38.008  32.694  38.063  1.00  0.00     0.040 A 
ATOM     67  F   UNL A   1      37.791  30.757  36.758  1.00  0.00    -0.206 F 
ATOM     68  C   UNL A   1      38.598  33.934  38.301  1.00  0.00     0.006 A 
ENDBRANCH  47  61
BRANCH  48  69
ATOM     69  C   UNL A   1      41.407  27.323  27.699  1.00  0.00     0.057 A 
ATOM     70  C   UNL A   1      42.212  27.869  26.694  1.00  0.00     0.134 A 
ATOM     71  C   UNL A   1      40.908  26.030  27.495  1.00  0.00     0.134 A 
ATOM     72  F   UNL A   1      42.700  29.112  26.823  1.00  0.00    -0.206 F 
ATOM     73  C   UNL A   1      42.503  27.164  25.525  1.00  0.00     0.040 A 
ATOM     74  C   UNL A   1      41.207  25.305  26.341  1.00  0.00     0.040 A 
ATOM     75  F   UNL A   1      40.129  25.452  28.420  1.00  0.00    -0.206 F 
ATOM     76  C   UNL A   1      42.003  25.875  25.350  1.00  0.00     0.006 A 
ENDBRANCH  48  69
BRANCH  60  77
ATOM     77  C   UNL A   1      44.174  27.466  34.088  1.00  0.00     0.057 A 
ATOM     78  C   UNL A   1      43.997  26.204  34.669  1.00  0.00     0.134 A 
ATOM     79  C   UNL A   1      45.470  27.996  34.073  1.00  0.00     0.134 A 
ATOM     80  F   UNL A   1      42.778  25.647  34.727  1.00  0.00    -0.206 F 
ATOM     81  C   UNL A   1      45.066  25.505  35.232  1.00  0.00     0.040 A 
ATOM     82  C   UNL A   1      46.551  27.296  34.610  1.00  0.00     0.040 A 
ATOM     83  F   UNL A   1      45.710  29.196  33.523  1.00  0.00    -0.206 F 
ATOM     84  C   UNL A   1      46.349  26.048  35.196  1.00  0.00     0.006 A 
ENDBRANCH  60  77
ENDBRANCH  34  35
ENDBRANCH  27  29
ENDBRANCH  26  27
ENDBRANCH  25  26
ENDBRANCH  24  25
ENDBRANCH   1  24
TORSDOF 16
ENDMDL
MODEL 3
REMARK VINA RESULT:     -10.9      0.586      6.259
REMARK SMILES CC1(C)C(NC(=O)[C@@H]2CCC[C@@H](C(=O)OCCOCCOC(=O)c3ccc(-c4c5nc(c(-c6c(F)cccc6F)c6ccc([nH]6)c(-c6c(F)cccc6F)c6nc(c(-c7c(F)cccc7F)c7ccc4[nH]7)C=C6)C=C5)cc3)C2)C1(C)C
REMARK SMILES IDX 18 1 17 2 16 3 15 4 13 5 14 6 12 7 8 8 9 9 78 10 10 11 11 12
REMARK SMILES IDX 6 13 5 14 7 16 4 17 1 18 2 19 3 20 79 21 80 22 81 23 19 24
REMARK SMILES IDX 20 25 21 26 22 27 23 28 24 29 25 30 77 31 26 32 76 33 27 34
REMARK SMILES IDX 28 35 29 36 70 37 30 38 75 39 69 40 71 41 31 42 74 43 68 44
REMARK SMILES IDX 67 45 32 47 58 48 41 49 57 50 42 51 45 52 56 53 72 54 43 55
REMARK SMILES IDX 44 56 55 58 73 59 46 60 33 61 34 62 39 63 35 64 36 65 38 66
REMARK SMILES IDX 40 67 37 68 59 69 60 70 65 71 61 72 62 73 64 74 66 75 63 76
REMARK SMILES IDX 47 77 48 78 53 79 49 80 50 81 52 82 54 83 51 84
REMARK H PARENT 5 15 71 46 45 57
REMARK Flexibility Score: inf
ROOT
ATOM      1  O   UNL A   1      37.688  21.464  25.322  1.00  0.00    -0.374 OA
ENDROOT
BRANCH   1   2
ATOM      2  C   UNL A   1      37.193  22.421  24.385  1.00  0.00     0.202 C 
BRANCH   2   3
ATOM      3  C   UNL A   1      35.754  22.913  24.567  1.00  0.00     0.261 C 
BRANCH   3   4
ATOM      4  O   UNL A   1      34.771  21.984  24.062  1.00  0.00    -0.463 OA
BRANCH   4   5
ATOM      5  C   UNL A   1      34.004  21.399  25.022  1.00  0.00     0.309 C 
ATOM      6  O   UNL A   1      34.429  21.074  26.125  1.00  0.00    -0.252 OA
BRANCH   5   7
ATOM      7  C   UNL A   1      32.565  21.117  24.568  1.00  0.00     0.100 C 
ATOM      8  C   UNL A   1      31.630  23.275  25.426  1.00  0.00     0.079 C 
ATOM      9  C   UNL A   1      31.000  23.645  24.088  1.00  0.00     0.013 C 
ATOM     10  C   UNL A   1      31.594  21.751  25.584  1.00  0.00     0.028 C 
ATOM     11  C   UNL A   1      31.798  23.033  22.943  1.00  0.00     0.002 C 
ATOM     12  C   UNL A   1      32.184  21.554  23.137  1.00  0.00     0.015 C 
BRANCH   8  13
ATOM     13  C   UNL A   1      30.969  24.014  26.575  1.00  0.00     0.223 C 
ATOM     14  N   UNL A   1      31.363  25.307  26.831  1.00  0.00    -0.352 N 
ATOM     15  H   UNL A   1      30.867  25.769  27.544  1.00  0.00     0.163 HD
ATOM     16  O   UNL A   1      30.072  23.506  27.249  1.00  0.00    -0.275 OA
BRANCH  14  17
ATOM     17  C   UNL A   1      32.399  26.073  26.200  1.00  0.00     0.094 C 
ATOM     18  C   UNL A   1      33.090  26.997  23.913  1.00  0.00     0.014 C 
ATOM     19  C   UNL A   1      32.125  27.059  25.081  1.00  0.00    -0.007 C 
ATOM     20  C   UNL A   1      30.709  27.309  24.615  1.00  0.00     0.014 C 
ATOM     21  C   UNL A   1      32.585  27.558  26.467  1.00  0.00    -0.007 C 
ATOM     22  C   UNL A   1      34.004  28.057  26.662  1.00  0.00     0.014 C 
ATOM     23  C   UNL A   1      31.619  28.281  27.382  1.00  0.00     0.014 C 
ENDBRANCH  14  17
ENDBRANCH   8  13
ENDBRANCH   5   7
ENDBRANCH   4   5
ENDBRANCH   3   4
ENDBRANCH   2   3
ENDBRANCH   1   2
BRANCH   1  24
ATOM     24  C   UNL A   1      37.878  20.137  24.839  1.00  0.00     0.202 C 
BRANCH  24  25
ATOM     25  C   UNL A   1      39.047  19.329  25.418  1.00  0.00     0.261 C 
BRANCH  25  26
ATOM     26  O   UNL A   1      39.872  20.110  26.298  1.00  0.00    -0.460 OA
BRANCH  26  27
ATOM     27  C   UNL A   1      41.195  19.841  26.204  1.00  0.00     0.338 C 
ATOM     28  O   UNL A   1      41.719  18.833  25.749  1.00  0.00    -0.246 OA
BRANCH  27  29
ATOM     29  C   UNL A   1      41.979  21.038  26.556  1.00  0.00     0.060 A 
ATOM     30  C   UNL A   1      42.065  21.367  27.915  1.00  0.00     0.016 A 
ATOM     31  C   UNL A   1      42.568  21.854  25.588  1.00  0.00     0.016 A 
ATOM     32  C   UNL A   1      42.692  22.544  28.310  1.00  0.00     0.010 A 
ATOM     33  C   UNL A   1      43.186  23.045  25.984  1.00  0.00     0.010 A 
ATOM     34  C   UNL A   1      43.214  23.412  27.343  1.00  0.00    -0.014 A 
BRANCH  34  35
ATOM     35  C   UNL A   1      43.622  24.776  27.750  1.00  0.00     0.031 A 
ATOM     36  C   UNL A   1      42.554  25.789  28.054  1.00  0.00     0.074 A 
ATOM     37  C   UNL A   1      44.920  25.091  27.908  1.00  0.00     0.049 A 
ATOM     38  N   UNL A   1      42.672  27.031  28.445  1.00  0.00    -0.248 NA
ATOM     39  C   UNL A   1      41.162  25.336  27.899  1.00  0.00     0.031 C 
ATOM     40  C   UNL A   1      46.042  24.181  27.691  1.00  0.00     0.029 A 
ATOM     41  N   UNL A   1      45.507  26.268  28.295  1.00  0.00    -0.354 N 
ATOM     42  C   UNL A   1      41.375  27.508  28.584  1.00  0.00     0.074 A 
ATOM     43  C   UNL A   1      40.484  26.433  28.203  1.00  0.00     0.031 C 
ATOM     44  C   UNL A   1      47.187  24.835  27.948  1.00  0.00     0.029 A 
ATOM     45  C   UNL A   1      46.879  26.215  28.321  1.00  0.00     0.049 A 
ATOM     46  H   UNL A   1      44.994  27.074  28.533  1.00  0.00     0.167 HD
ATOM     47  C   UNL A   1      40.962  28.727  29.003  1.00  0.00     0.037 A 
ATOM     48  C   UNL A   1      47.779  27.175  28.601  1.00  0.00     0.037 A 
ATOM     49  C   UNL A   1      41.849  29.796  29.376  1.00  0.00     0.049 A 
ATOM     50  C   UNL A   1      47.297  28.549  28.985  1.00  0.00     0.074 A 
ATOM     51  C   UNL A   1      41.530  31.067  29.821  1.00  0.00     0.029 A 
ATOM     52  N   UNL A   1      43.233  29.721  29.338  1.00  0.00    -0.354 N 
ATOM     53  N   UNL A   1      46.068  28.984  29.133  1.00  0.00    -0.248 NA
ATOM     54  C   UNL A   1      48.328  29.565  29.245  1.00  0.00     0.031 C 
ATOM     55  C   UNL A   1      42.723  31.775  30.008  1.00  0.00     0.029 A 
ATOM     56  C   UNL A   1      43.784  30.930  29.727  1.00  0.00     0.049 A 
ATOM     57  H   UNL A   1      43.748  28.923  29.074  1.00  0.00     0.167 HD
ATOM     58  C   UNL A   1      46.178  30.313  29.527  1.00  0.00     0.074 A 
ATOM     59  C   UNL A   1      47.594  30.608  29.605  1.00  0.00     0.031 C 
ATOM     60  C   UNL A   1      45.196  31.205  29.802  1.00  0.00     0.037 A 
BRANCH  47  61
ATOM     61  C   UNL A   1      39.482  28.970  29.050  1.00  0.00     0.057 A 
ATOM     62  C   UNL A   1      38.739  28.784  30.223  1.00  0.00     0.134 A 
ATOM     63  C   UNL A   1      38.794  29.404  27.910  1.00  0.00     0.134 A 
ATOM     64  F   UNL A   1      39.335  28.353  31.345  1.00  0.00    -0.206 F 
ATOM     65  C   UNL A   1      37.358  28.995  30.252  1.00  0.00     0.040 A 
ATOM     66  C   UNL A   1      37.419  29.643  27.934  1.00  0.00     0.040 A 
ATOM     67  F   UNL A   1      39.447  29.604  26.755  1.00  0.00    -0.206 F 
ATOM     68  C   UNL A   1      36.696  29.431  29.106  1.00  0.00     0.006 A 
ENDBRANCH  47  61
BRANCH  48  69
ATOM     69  C   UNL A   1      49.230  26.876  28.527  1.00  0.00     0.057 A 
ATOM     70  C   UNL A   1      49.931  26.973  27.319  1.00  0.00     0.134 A 
ATOM     71  C   UNL A   1      49.950  26.475  29.659  1.00  0.00     0.134 A 
ATOM     72  F   UNL A   1      49.291  27.330  26.196  1.00  0.00    -0.206 F 
ATOM     73  C   UNL A   1      51.291  26.674  27.237  1.00  0.00     0.040 A 
ATOM     74  C   UNL A   1      51.315  26.193  29.597  1.00  0.00     0.040 A 
ATOM     75  F   UNL A   1      49.335  26.361  30.845  1.00  0.00    -0.206 F 
ATOM     76  C   UNL A   1      51.988  26.288  28.381  1.00  0.00     0.006 A 
ENDBRANCH  48  69
BRANCH  60  77
ATOM     77  C   UNL A   1      45.617  32.576  30.243  1.00  0.00     0.057 A 
ATOM     78  C   UNL A   1      45.797  33.624  29.331  1.00  0.00     0.134 A 
ATOM     79  C   UNL A   1      45.805  32.861  31.601  1.00  0.00     0.134 A 
ATOM     80  F   UNL A   1      45.645  33.412  28.014  1.00  0.00    -0.206 F 
ATOM     81  C   UNL A   1      46.168  34.901  29.752  1.00  0.00     0.040 A 
ATOM     82  C   UNL A   1      46.152  34.141  32.037  1.00  0.00     0.040 A 
ATOM     83  F   UNL A   1      45.639  31.906  32.527  1.00  0.00    -0.206 F 
ATOM     84  C   UNL A   1      46.340  35.164  31.110  1.00  0.00     0.006 A 
ENDBRANCH  60  77
ENDBRANCH  34  35
ENDBRANCH  27  29
ENDBRANCH  26  27
ENDBRANCH  25  26
ENDBRANCH  24  25
ENDBRANCH   1  24
TORSDOF 16
ENDMDL
