MODEL 1
REMARK VINA RESULT:     -10.1      0.000      0.000
REMARK SMILES CC(C)N(CCCC(=O)OCCOCCOC(=O)c1ccc(-c2c3nc(c(-c4c(F)cccc4F)c4ccc([nH]4)c(-c4c(F)cccc4F)c4nc(c(-c5c(F)cccc5F)c5ccc2[nH]5)C=C4)C=C3)cc1)c1cc(Cl)c(Cl)cc1[N+](=O)[O-]
REMARK SMILES IDX 11 1 10 2 8 3 9 4 7 5 6 6 5 7 4 8 2 9 1 10 3 11 73 12 74 13
REMARK SMILES IDX 80 14 75 15 79 16 76 17 77 18 78 19 81 20 82 21 83 22 12 23
REMARK SMILES IDX 13 24 14 25 15 26 16 27 17 28 18 29 19 30 20 31 72 32 21 33
REMARK SMILES IDX 71 34 22 35 23 36 24 37 65 38 25 39 70 40 64 41 66 42 26 43
REMARK SMILES IDX 69 44 63 45 62 46 27 48 53 49 36 50 52 51 37 52 40 53 51 54
REMARK SMILES IDX 67 55 38 56 39 57 50 59 68 60 41 61 28 62 29 63 34 64 30 65
REMARK SMILES IDX 31 66 33 67 35 68 32 69 54 70 55 71 60 72 56 73 57 74 59 75
REMARK SMILES IDX 61 76 58 77 42 78 43 79 48 80 44 81 45 82 47 83 49 84 46 85
REMARK H PARENT 66 47 40 58
REMARK Flexibility Score: inf
ROOT
ATOM      1  C   UNL A   1      34.121  32.409  27.892  1.00  0.00     0.261 C 
ENDROOT
BRANCH   1   2
ATOM      2  O   UNL A   1      35.050  31.380  27.517  1.00  0.00    -0.463 OA
BRANCH   2   3
ATOM      3  C   UNL A   1      34.577  30.120  27.414  1.00  0.00     0.305 C 
ATOM      4  O   UNL A   1      35.174  29.118  27.783  1.00  0.00    -0.252 OA
BRANCH   3   5
ATOM      5  C   UNL A   1      33.149  30.098  26.909  1.00  0.00     0.124 C 
BRANCH   5   6
ATOM      6  C   UNL A   1      32.227  28.943  27.325  1.00  0.00     0.033 C 
BRANCH   6   7
ATOM      7  C   UNL A   1      32.336  27.593  26.606  1.00  0.00     0.117 C 
BRANCH   7   8
ATOM      8  N   UNL A   1      32.408  27.712  25.143  1.00  0.00    -0.364 N 
BRANCH   8   9
ATOM      9  C   UNL A   1      33.692  27.391  24.483  1.00  0.00     0.076 C 
ATOM     10  C   UNL A   1      34.135  25.959  24.773  1.00  0.00     0.030 C 
ATOM     11  C   UNL A   1      33.665  27.672  22.985  1.00  0.00     0.030 C 
ENDBRANCH   8   9
BRANCH   8  12
ATOM     12  C   UNL A   1      31.231  27.934  24.446  1.00  0.00     0.117 A 
ATOM     13  C   UNL A   1      30.872  29.263  24.163  1.00  0.00     0.055 A 
ATOM     14  C   UNL A   1      30.296  26.953  24.068  1.00  0.00     0.294 A 
ATOM     15  C   UNL A   1      29.621  29.608  23.635  1.00  0.00     0.062 A 
ATOM     16  C   UNL A   1      29.052  27.271  23.496  1.00  0.00     0.110 A 
ATOM     17  Cl  UNL A   1      29.263  31.288  23.456  1.00  0.00    -0.083 Cl
ATOM     18  C   UNL A   1      28.705  28.607  23.308  1.00  0.00     0.066 A 
ATOM     19  Cl  UNL A   1      27.140  28.951  22.667  1.00  0.00    -0.082 Cl
BRANCH  14  20
ATOM     20  N   UNL A   1      30.583  25.538  24.198  1.00  0.00     0.065 N 
ATOM     21  O   UNL A   1      31.009  24.965  23.185  1.00  0.00    -0.258 OA
ATOM     22  O   UNL A   1      30.296  24.986  25.268  1.00  0.00    -0.258 OA
ENDBRANCH  14  20
ENDBRANCH   8  12
ENDBRANCH   7   8
ENDBRANCH   6   7
ENDBRANCH   5   6
ENDBRANCH   3   5
ENDBRANCH   2   3
ENDBRANCH   1   2
BRANCH   1  23
ATOM     23  C   UNL A   1      34.925  33.682  28.156  1.00  0.00     0.202 C 
BRANCH  23  24
ATOM     24  O   UNL A   1      35.324  33.864  29.521  1.00  0.00    -0.374 OA
BRANCH  24  25
ATOM     25  C   UNL A   1      34.294  34.083  30.484  1.00  0.00     0.202 C 
BRANCH  25  26
ATOM     26  C   UNL A   1      34.684  33.840  31.946  1.00  0.00     0.261 C 
BRANCH  26  27
ATOM     27  O   UNL A   1      34.848  32.442  32.237  1.00  0.00    -0.460 OA
BRANCH  27  28
ATOM     28  C   UNL A   1      35.965  32.159  32.951  1.00  0.00     0.338 C 
ATOM     29  O   UNL A   1      36.167  32.395  34.130  1.00  0.00    -0.246 OA
BRANCH  28  30
ATOM     30  C   UNL A   1      36.909  31.359  32.148  1.00  0.00     0.060 A 
ATOM     31  C   UNL A   1      38.102  30.983  32.772  1.00  0.00     0.016 A 
ATOM     32  C   UNL A   1      36.689  31.067  30.799  1.00  0.00     0.016 A 
ATOM     33  C   UNL A   1      39.110  30.371  32.035  1.00  0.00     0.010 A 
ATOM     34  C   UNL A   1      37.708  30.453  30.056  1.00  0.00     0.010 A 
ATOM     35  C   UNL A   1      38.937  30.143  30.663  1.00  0.00    -0.014 A 
BRANCH  35  36
ATOM     36  C   UNL A   1      40.115  29.713  29.871  1.00  0.00     0.031 A 
ATOM     37  C   UNL A   1      41.269  30.660  29.691  1.00  0.00     0.074 A 
ATOM     38  C   UNL A   1      40.199  28.453  29.408  1.00  0.00     0.049 A 
ATOM     39  N   UNL A   1      42.442  30.447  29.151  1.00  0.00    -0.248 NA
ATOM     40  C   UNL A   1      41.077  32.031  30.190  1.00  0.00     0.031 C 
ATOM     41  C   UNL A   1      39.155  27.437  29.530  1.00  0.00     0.029 A 
ATOM     42  N   UNL A   1      41.223  27.812  28.757  1.00  0.00    -0.354 N 
ATOM     43  C   UNL A   1      43.131  31.649  29.255  1.00  0.00     0.074 A 
ATOM     44  C   UNL A   1      42.231  32.600  29.873  1.00  0.00     0.031 C 
ATOM     45  C   UNL A   1      39.599  26.292  28.984  1.00  0.00     0.029 A 
ATOM     46  C   UNL A   1      40.950  26.500  28.466  1.00  0.00     0.049 A 
ATOM     47  H   UNL A   1      42.072  28.252  28.522  1.00  0.00     0.167 HD
ATOM     48  C   UNL A   1      44.402  31.933  28.885  1.00  0.00     0.037 A 
ATOM     49  C   UNL A   1      41.709  25.570  27.854  1.00  0.00     0.037 A 
ATOM     50  C   UNL A   1      45.300  30.991  28.267  1.00  0.00     0.049 A 
ATOM     51  C   UNL A   1      43.106  25.920  27.420  1.00  0.00     0.074 A 
ATOM     52  C   UNL A   1      46.612  31.181  27.870  1.00  0.00     0.029 A 
ATOM     53  N   UNL A   1      44.973  29.681  27.952  1.00  0.00    -0.354 N 
ATOM     54  N   UNL A   1      43.760  27.047  27.559  1.00  0.00    -0.248 NA
ATOM     55  C   UNL A   1      43.876  24.859  26.752  1.00  0.00     0.031 C 
ATOM     56  C   UNL A   1      47.067  29.997  27.279  1.00  0.00     0.029 A 
ATOM     57  C   UNL A   1      46.051  29.057  27.346  1.00  0.00     0.049 A 
ATOM     58  H   UNL A   1      44.103  29.257  28.132  1.00  0.00     0.167 HD
ATOM     59  C   UNL A   1      45.018  26.829  27.013  1.00  0.00     0.074 A 
ATOM     60  C   UNL A   1      45.044  25.453  26.562  1.00  0.00     0.031 C 
ATOM     61  C   UNL A   1      46.060  27.690  26.894  1.00  0.00     0.037 A 
BRANCH  48  62
ATOM     62  C   UNL A   1      44.893  33.329  29.126  1.00  0.00     0.057 A 
ATOM     63  C   UNL A   1      44.696  34.351  28.187  1.00  0.00     0.134 A 
ATOM     64  C   UNL A   1      45.547  33.662  30.318  1.00  0.00     0.134 A 
ATOM     65  F   UNL A   1      44.091  34.093  27.018  1.00  0.00    -0.206 F 
ATOM     66  C   UNL A   1      45.149  35.652  28.420  1.00  0.00     0.040 A 
ATOM     67  C   UNL A   1      45.984  34.963  30.571  1.00  0.00     0.040 A 
ATOM     68  F   UNL A   1      45.765  32.731  31.259  1.00  0.00    -0.206 F 
ATOM     69  C   UNL A   1      45.789  35.961  29.618  1.00  0.00     0.006 A 
ENDBRANCH  48  62
BRANCH  49  70
ATOM     70  C   UNL A   1      41.166  24.209  27.622  1.00  0.00     0.057 A 
ATOM     71  C   UNL A   1      41.615  23.111  28.364  1.00  0.00     0.134 A 
ATOM     72  C   UNL A   1      40.199  23.975  26.638  1.00  0.00     0.134 A 
ATOM     73  F   UNL A   1      42.558  23.269  29.303  1.00  0.00    -0.206 F 
ATOM     74  C   UNL A   1      41.131  21.823  28.125  1.00  0.00     0.040 A 
ATOM     75  C   UNL A   1      39.690  22.697  26.405  1.00  0.00     0.040 A 
ATOM     76  F   UNL A   1      39.735  24.987  25.892  1.00  0.00    -0.206 F 
ATOM     77  C   UNL A   1      40.162  21.615  27.145  1.00  0.00     0.006 A 
ENDBRANCH  49  70
BRANCH  61  78
ATOM     78  C   UNL A   1      47.313  27.159  26.262  1.00  0.00     0.057 A 
ATOM     79  C   UNL A   1      47.547  27.269  24.885  1.00  0.00     0.134 A 
ATOM     80  C   UNL A   1      48.300  26.542  27.039  1.00  0.00     0.134 A 
ATOM     81  F   UNL A   1      46.634  27.839  24.083  1.00  0.00    -0.206 F 
ATOM     82  C   UNL A   1      48.705  26.755  24.299  1.00  0.00     0.040 A 
ATOM     83  C   UNL A   1      49.474  26.045  26.468  1.00  0.00     0.040 A 
ATOM     84  F   UNL A   1      48.144  26.413  28.365  1.00  0.00    -0.206 F 
ATOM     85  C   UNL A   1      49.674  26.143  25.093  1.00  0.00     0.006 A 
ENDBRANCH  61  78
ENDBRANCH  35  36
ENDBRANCH  28  30
ENDBRANCH  27  28
ENDBRANCH  26  27
ENDBRANCH  25  26
ENDBRANCH  24  25
ENDBRANCH  23  24
ENDBRANCH   1  23
TORSDOF 20
ENDMDL
MODEL 2
REMARK VINA RESULT:     -10.0      1.983      2.773
REMARK SMILES CC(C)N(CCCC(=O)OCCOCCOC(=O)c1ccc(-c2c3nc(c(-c4c(F)cccc4F)c4ccc([nH]4)c(-c4c(F)cccc4F)c4nc(c(-c5c(F)cccc5F)c5ccc2[nH]5)C=C4)C=C3)cc1)c1cc(Cl)c(Cl)cc1[N+](=O)[O-]
REMARK SMILES IDX 11 1 10 2 8 3 9 4 7 5 6 6 5 7 4 8 2 9 1 10 3 11 73 12 74 13
REMARK SMILES IDX 80 14 75 15 79 16 76 17 77 18 78 19 81 20 82 21 83 22 12 23
REMARK SMILES IDX 13 24 14 25 15 26 16 27 17 28 18 29 19 30 20 31 72 32 21 33
REMARK SMILES IDX 71 34 22 35 23 36 24 37 65 38 25 39 70 40 64 41 66 42 26 43
REMARK SMILES IDX 69 44 63 45 62 46 27 48 53 49 36 50 52 51 37 52 40 53 51 54
REMARK SMILES IDX 67 55 38 56 39 57 50 59 68 60 41 61 28 62 29 63 34 64 30 65
REMARK SMILES IDX 31 66 33 67 35 68 32 69 54 70 55 71 60 72 56 73 57 74 59 75
REMARK SMILES IDX 61 76 58 77 42 78 43 79 48 80 44 81 45 82 47 83 49 84 46 85
REMARK H PARENT 66 47 40 58
REMARK Flexibility Score: inf
ROOT
ATOM      1  C   UNL A   1      35.189  32.383  28.019  1.00  0.00     0.261 C 
ENDROOT
BRANCH   1   2
ATOM      2  O   UNL A   1      34.582  31.103  28.257  1.00  0.00    -0.463 OA
BRANCH   2   3
ATOM      3  C   UNL A   1      35.148  30.026  27.674  1.00  0.00     0.305 C 
ATOM      4  O   UNL A   1      36.353  29.833  27.582  1.00  0.00    -0.252 OA
BRANCH   3   5
ATOM      5  C   UNL A   1      34.109  29.003  27.260  1.00  0.00     0.124 C 
BRANCH   5   6
ATOM      6  C   UNL A   1      33.321  29.222  25.961  1.00  0.00     0.033 C 
BRANCH   6   7
ATOM      7  C   UNL A   1      33.558  28.288  24.767  1.00  0.00     0.117 C 
BRANCH   7   8
ATOM      8  N   UNL A   1      32.653  27.130  24.740  1.00  0.00    -0.364 N 
BRANCH   8   9
ATOM      9  C   UNL A   1      31.197  27.388  24.705  1.00  0.00     0.076 C 
ATOM     10  C   UNL A   1      30.737  27.847  23.324  1.00  0.00     0.030 C 
ATOM     11  C   UNL A   1      30.381  26.198  25.196  1.00  0.00     0.030 C 
ENDBRANCH   8   9
BRANCH   8  12
ATOM     12  C   UNL A   1      33.206  25.872  24.560  1.00  0.00     0.117 A 
ATOM     13  C   UNL A   1      33.514  25.117  25.705  1.00  0.00     0.055 A 
ATOM     14  C   UNL A   1      33.581  25.302  23.330  1.00  0.00     0.294 A 
ATOM     15  C   UNL A   1      34.244  23.921  25.643  1.00  0.00     0.062 A 
ATOM     16  C   UNL A   1      34.275  24.083  23.239  1.00  0.00     0.110 A 
ATOM     17  Cl  UNL A   1      34.664  23.162  27.136  1.00  0.00    -0.083 Cl
ATOM     18  C   UNL A   1      34.632  23.408  24.405  1.00  0.00     0.066 A 
ATOM     19  Cl  UNL A   1      35.542  21.951  24.246  1.00  0.00    -0.082 Cl
BRANCH  14  20
ATOM     20  N   UNL A   1      33.227  25.918  22.066  1.00  0.00     0.065 N 
ATOM     21  O   UNL A   1      32.259  25.428  21.466  1.00  0.00    -0.258 OA
ATOM     22  O   UNL A   1      33.963  26.813  21.633  1.00  0.00    -0.258 OA
ENDBRANCH  14  20
ENDBRANCH   8  12
ENDBRANCH   7   8
ENDBRANCH   6   7
ENDBRANCH   5   6
ENDBRANCH   3   5
ENDBRANCH   2   3
ENDBRANCH   1   2
BRANCH   1  23
ATOM     23  C   UNL A   1      34.421  33.418  28.842  1.00  0.00     0.202 C 
BRANCH  23  24
ATOM     24  O   UNL A   1      34.230  33.065  30.218  1.00  0.00    -0.374 OA
BRANCH  24  25
ATOM     25  C   UNL A   1      34.326  34.110  31.185  1.00  0.00     0.202 C 
BRANCH  25  26
ATOM     26  C   UNL A   1      34.817  33.691  32.574  1.00  0.00     0.261 C 
BRANCH  26  27
ATOM     27  O   UNL A   1      36.250  33.740  32.679  1.00  0.00    -0.460 OA
BRANCH  27  28
ATOM     28  C   UNL A   1      36.789  32.672  33.318  1.00  0.00     0.338 C 
ATOM     29  O   UNL A   1      36.559  32.301  34.456  1.00  0.00    -0.246 OA
BRANCH  28  30
ATOM     30  C   UNL A   1      37.620  31.876  32.396  1.00  0.00     0.060 A 
ATOM     31  C   UNL A   1      38.730  31.231  32.950  1.00  0.00     0.016 A 
ATOM     32  C   UNL A   1      37.388  31.835  31.018  1.00  0.00     0.016 A 
ATOM     33  C   UNL A   1      39.651  30.598  32.122  1.00  0.00     0.010 A 
ATOM     34  C   UNL A   1      38.319  31.199  30.185  1.00  0.00     0.010 A 
ATOM     35  C   UNL A   1      39.475  30.616  30.731  1.00  0.00    -0.014 A 
BRANCH  35  36
ATOM     36  C   UNL A   1      40.592  30.142  29.879  1.00  0.00     0.031 A 
ATOM     37  C   UNL A   1      41.754  31.058  29.610  1.00  0.00     0.074 A 
ATOM     38  C   UNL A   1      40.619  28.873  29.436  1.00  0.00     0.049 A 
ATOM     39  N   UNL A   1      42.887  30.807  29.004  1.00  0.00    -0.248 NA
ATOM     40  C   UNL A   1      41.625  32.442  30.092  1.00  0.00     0.031 C 
ATOM     41  C   UNL A   1      39.561  27.885  29.642  1.00  0.00     0.029 A 
ATOM     42  N   UNL A   1      41.586  28.195  28.737  1.00  0.00    -0.354 N 
ATOM     43  C   UNL A   1      43.608  31.994  29.042  1.00  0.00     0.074 A 
ATOM     44  C   UNL A   1      42.770  32.977  29.694  1.00  0.00     0.031 C 
ATOM     45  C   UNL A   1      39.944  26.719  29.093  1.00  0.00     0.029 A 
ATOM     46  C   UNL A   1      41.265  26.885  28.490  1.00  0.00     0.049 A 
ATOM     47  H   UNL A   1      42.429  28.610  28.442  1.00  0.00     0.167 HD
ATOM     48  C   UNL A   1      44.861  32.239  28.589  1.00  0.00     0.037 A 
ATOM     49  C   UNL A   1      41.964  25.925  27.852  1.00  0.00     0.037 A 
ATOM     50  C   UNL A   1      45.697  31.265  27.937  1.00  0.00     0.049 A 
ATOM     51  C   UNL A   1      43.339  26.233  27.327  1.00  0.00     0.074 A 
ATOM     52  C   UNL A   1      46.987  31.415  27.457  1.00  0.00     0.029 A 
ATOM     53  N   UNL A   1      45.321  29.957  27.669  1.00  0.00    -0.354 N 
ATOM     54  N   UNL A   1      44.026  27.347  27.404  1.00  0.00    -0.248 NA
ATOM     55  C   UNL A   1      44.042  25.142  26.634  1.00  0.00     0.031 C 
ATOM     56  C   UNL A   1      47.377  30.210  26.863  1.00  0.00     0.029 A 
ATOM     57  C   UNL A   1      46.346  29.296  27.012  1.00  0.00     0.049 A 
ATOM     58  H   UNL A   1      44.454  29.558  27.910  1.00  0.00     0.167 HD
ATOM     59  C   UNL A   1      45.244  27.089  26.786  1.00  0.00     0.074 A 
ATOM     60  C   UNL A   1      45.210  25.704  26.362  1.00  0.00     0.031 C 
ATOM     61  C   UNL A   1      46.295  27.921  26.587  1.00  0.00     0.037 A 
BRANCH  48  62
ATOM     62  C   UNL A   1      45.398  33.628  28.772  1.00  0.00     0.057 A 
ATOM     63  C   UNL A   1      45.261  34.607  27.778  1.00  0.00     0.134 A 
ATOM     64  C   UNL A   1      46.035  33.997  29.962  1.00  0.00     0.134 A 
ATOM     65  F   UNL A   1      44.675  34.311  26.609  1.00  0.00    -0.206 F 
ATOM     66  C   UNL A   1      45.757  35.900  27.956  1.00  0.00     0.040 A 
ATOM     67  C   UNL A   1      46.514  35.293  30.160  1.00  0.00     0.040 A 
ATOM     68  F   UNL A   1      46.196  33.109  30.954  1.00  0.00    -0.206 F 
ATOM     69  C   UNL A   1      46.380  36.247  29.154  1.00  0.00     0.006 A 
ENDBRANCH  48  62
BRANCH  49  70
ATOM     70  C   UNL A   1      41.376  24.574  27.680  1.00  0.00     0.057 A 
ATOM     71  C   UNL A   1      41.807  23.490  28.454  1.00  0.00     0.134 A 
ATOM     72  C   UNL A   1      40.383  24.333  26.725  1.00  0.00     0.134 A 
ATOM     73  F   UNL A   1      42.774  23.654  29.369  1.00  0.00    -0.206 F 
ATOM     74  C   UNL A   1      41.281  22.210  28.271  1.00  0.00     0.040 A 
ATOM     75  C   UNL A   1      39.833  23.064  26.548  1.00  0.00     0.040 A 
ATOM     76  F   UNL A   1      39.934  25.331  25.951  1.00  0.00    -0.206 F 
ATOM     77  C   UNL A   1      40.287  21.996  27.319  1.00  0.00     0.006 A 
ENDBRANCH  49  70
BRANCH  61  78
ATOM     78  C   UNL A   1      47.495  27.349  25.891  1.00  0.00     0.057 A 
ATOM     79  C   UNL A   1      48.517  26.701  26.597  1.00  0.00     0.134 A 
ATOM     80  C   UNL A   1      47.626  27.438  24.500  1.00  0.00     0.134 A 
ATOM     81  F   UNL A   1      48.457  26.594  27.934  1.00  0.00    -0.206 F 
ATOM     82  C   UNL A   1      49.641  26.189  25.948  1.00  0.00     0.040 A 
ATOM     83  C   UNL A   1      48.734  26.908  23.836  1.00  0.00     0.040 A 
ATOM     84  F   UNL A   1      46.679  28.037  23.762  1.00  0.00    -0.206 F 
ATOM     85  C   UNL A   1      49.750  26.289  24.562  1.00  0.00     0.006 A 
ENDBRANCH  61  78
ENDBRANCH  35  36
ENDBRANCH  28  30
ENDBRANCH  27  28
ENDBRANCH  26  27
ENDBRANCH  25  26
ENDBRANCH  24  25
ENDBRANCH  23  24
ENDBRANCH   1  23
TORSDOF 20
ENDMDL
MODEL 3
REMARK VINA RESULT:      -9.8      4.429      6.959
REMARK SMILES CC(C)N(CCCC(=O)OCCOCCOC(=O)c1ccc(-c2c3nc(c(-c4c(F)cccc4F)c4ccc([nH]4)c(-c4c(F)cccc4F)c4nc(c(-c5c(F)cccc5F)c5ccc2[nH]5)C=C4)C=C3)cc1)c1cc(Cl)c(Cl)cc1[N+](=O)[O-]
REMARK SMILES IDX 11 1 10 2 8 3 9 4 7 5 6 6 5 7 4 8 2 9 1 10 3 11 73 12 74 13
REMARK SMILES IDX 80 14 75 15 79 16 76 17 77 18 78 19 81 20 82 21 83 22 12 23
REMARK SMILES IDX 13 24 14 25 15 26 16 27 17 28 18 29 19 30 20 31 72 32 21 33
REMARK SMILES IDX 71 34 22 35 23 36 24 37 65 38 25 39 70 40 64 41 66 42 26 43
REMARK SMILES IDX 69 44 63 45 62 46 27 48 53 49 36 50 52 51 37 52 40 53 51 54
REMARK SMILES IDX 67 55 38 56 39 57 50 59 68 60 41 61 28 62 29 63 34 64 30 65
REMARK SMILES IDX 31 66 33 67 35 68 32 69 54 70 55 71 60 72 56 73 57 74 59 75
REMARK SMILES IDX 61 76 58 77 42 78 43 79 48 80 44 81 45 82 47 83 49 84 46 85
REMARK H PARENT 66 47 40 58
REMARK Flexibility Score: inf
ROOT
ATOM      1  C   UNL A   1      30.639  26.602  23.737  1.00  0.00     0.261 C 
ENDROOT
BRANCH   1   2
ATOM      2  O   UNL A   1      29.971  26.719  25.003  1.00  0.00    -0.463 OA
BRANCH   2   3
ATOM      3  C   UNL A   1      29.887  25.612  25.769  1.00  0.00     0.305 C 
ATOM      4  O   UNL A   1      29.119  25.470  26.711  1.00  0.00    -0.252 OA
BRANCH   3   5
ATOM      5  C   UNL A   1      30.767  24.497  25.240  1.00  0.00     0.124 C 
BRANCH   5   6
ATOM      6  C   UNL A   1      31.229  23.390  26.198  1.00  0.00     0.033 C 
BRANCH   6   7
ATOM      7  C   UNL A   1      32.715  23.278  26.563  1.00  0.00     0.117 C 
BRANCH   7   8
ATOM      8  N   UNL A   1      33.551  22.773  25.464  1.00  0.00    -0.364 N 
BRANCH   8   9
ATOM      9  C   UNL A   1      34.899  23.357  25.293  1.00  0.00     0.076 C 
ATOM     10  C   UNL A   1      34.834  24.855  25.009  1.00  0.00     0.030 C 
ATOM     11  C   UNL A   1      35.820  23.054  26.470  1.00  0.00     0.030 C 
ENDBRANCH   8   9
BRANCH   8  12
ATOM     12  C   UNL A   1      33.114  21.656  24.769  1.00  0.00     0.117 A 
ATOM     13  C   UNL A   1      33.053  20.432  25.457  1.00  0.00     0.055 A 
ATOM     14  C   UNL A   1      32.809  21.605  23.396  1.00  0.00     0.294 A 
ATOM     15  C   UNL A   1      32.808  19.215  24.806  1.00  0.00     0.062 A 
ATOM     16  C   UNL A   1      32.518  20.402  22.729  1.00  0.00     0.110 A 
ATOM     17  Cl  UNL A   1      32.888  17.772  25.751  1.00  0.00    -0.083 Cl
ATOM     18  C   UNL A   1      32.548  19.201  23.435  1.00  0.00     0.066 A 
ATOM     19  Cl  UNL A   1      32.251  17.744  22.559  1.00  0.00    -0.082 Cl
BRANCH  14  20
ATOM     20  N   UNL A   1      32.725  22.806  22.589  1.00  0.00     0.065 N 
ATOM     21  O   UNL A   1      33.745  23.119  21.958  1.00  0.00    -0.258 OA
ATOM     22  O   UNL A   1      31.689  23.479  22.660  1.00  0.00    -0.258 OA
ENDBRANCH  14  20
ENDBRANCH   8  12
ENDBRANCH   7   8
ENDBRANCH   6   7
ENDBRANCH   5   6
ENDBRANCH   3   5
ENDBRANCH   2   3
ENDBRANCH   1   2
BRANCH   1  23
ATOM     23  C   UNL A   1      31.707  27.695  23.676  1.00  0.00     0.202 C 
BRANCH  23  24
ATOM     24  O   UNL A   1      32.069  28.248  24.947  1.00  0.00    -0.374 OA
BRANCH  24  25
ATOM     25  C   UNL A   1      32.483  29.613  24.978  1.00  0.00     0.202 C 
BRANCH  25  26
ATOM     26  C   UNL A   1      31.800  30.494  26.029  1.00  0.00     0.261 C 
BRANCH  26  27
ATOM     27  O   UNL A   1      32.532  30.527  27.265  1.00  0.00    -0.460 OA
BRANCH  27  28
ATOM     28  C   UNL A   1      33.255  31.660  27.444  1.00  0.00     0.338 C 
ATOM     29  O   UNL A   1      32.842  32.807  27.442  1.00  0.00    -0.246 OA
BRANCH  28  30
ATOM     30  C   UNL A   1      34.648  31.338  27.807  1.00  0.00     0.060 A 
ATOM     31  C   UNL A   1      34.937  29.993  28.056  1.00  0.00     0.016 A 
ATOM     32  C   UNL A   1      35.622  32.323  27.997  1.00  0.00     0.016 A 
ATOM     33  C   UNL A   1      36.181  29.631  28.559  1.00  0.00     0.010 A 
ATOM     34  C   UNL A   1      36.875  31.956  28.508  1.00  0.00     0.010 A 
ATOM     35  C   UNL A   1      37.143  30.614  28.831  1.00  0.00    -0.014 A 
BRANCH  35  36
ATOM     36  C   UNL A   1      38.357  30.217  29.585  1.00  0.00     0.031 A 
ATOM     37  C   UNL A   1      38.531  30.686  31.003  1.00  0.00     0.074 A 
ATOM     38  C   UNL A   1      39.241  29.359  29.045  1.00  0.00     0.049 A 
ATOM     39  N   UNL A   1      39.444  30.356  31.881  1.00  0.00    -0.248 NA
ATOM     40  C   UNL A   1      37.542  31.656  31.500  1.00  0.00     0.031 C 
ATOM     41  C   UNL A   1      39.176  28.822  27.688  1.00  0.00     0.029 A 
ATOM     42  N   UNL A   1      40.359  28.777  29.588  1.00  0.00    -0.354 N 
ATOM     43  C   UNL A   1      39.134  31.065  33.035  1.00  0.00     0.074 A 
ATOM     44  C   UNL A   1      37.973  31.875  32.733  1.00  0.00     0.031 C 
ATOM     45  C   UNL A   1      40.203  27.974  27.507  1.00  0.00     0.029 A 
ATOM     46  C   UNL A   1      41.001  27.920  28.731  1.00  0.00     0.049 A 
ATOM     47  H   UNL A   1      40.670  28.958  30.505  1.00  0.00     0.167 HD
ATOM     48  C   UNL A   1      39.750  31.033  34.240  1.00  0.00     0.037 A 
ATOM     49  C   UNL A   1      42.106  27.172  28.917  1.00  0.00     0.037 A 
ATOM     50  C   UNL A   1      40.907  30.231  34.543  1.00  0.00     0.049 A 
ATOM     51  C   UNL A   1      42.793  27.181  30.255  1.00  0.00     0.074 A 
ATOM     52  C   UNL A   1      41.593  30.121  35.741  1.00  0.00     0.029 A 
ATOM     53  N   UNL A   1      41.552  29.405  33.636  1.00  0.00    -0.354 N 
ATOM     54  N   UNL A   1      42.468  27.825  31.349  1.00  0.00    -0.248 NA
ATOM     55  C   UNL A   1      43.998  26.347  30.385  1.00  0.00     0.031 C 
ATOM     56  C   UNL A   1      42.677  29.257  35.547  1.00  0.00     0.029 A 
ATOM     57  C   UNL A   1      42.641  28.798  34.241  1.00  0.00     0.049 A 
ATOM     58  H   UNL A   1      41.278  29.271  32.700  1.00  0.00     0.167 HD
ATOM     59  C   UNL A   1      43.414  27.464  32.301  1.00  0.00     0.074 A 
ATOM     60  C   UNL A   1      44.312  26.525  31.660  1.00  0.00     0.031 C 
ATOM     61  C   UNL A   1      43.531  27.873  33.588  1.00  0.00     0.037 A 
BRANCH  48  62
ATOM     62  C   UNL A   1      39.189  31.908  35.322  1.00  0.00     0.057 A 
ATOM     63  C   UNL A   1      39.484  33.277  35.388  1.00  0.00     0.134 A 
ATOM     64  C   UNL A   1      38.326  31.383  36.291  1.00  0.00     0.134 A 
ATOM     65  F   UNL A   1      40.317  33.837  34.499  1.00  0.00    -0.206 F 
ATOM     66  C   UNL A   1      38.953  34.088  36.393  1.00  0.00     0.040 A 
ATOM     67  C   UNL A   1      37.772  32.189  37.286  1.00  0.00     0.040 A 
ATOM     68  F   UNL A   1      38.002  30.082  36.282  1.00  0.00    -0.206 F 
ATOM     69  C   UNL A   1      38.089  33.545  37.342  1.00  0.00     0.006 A 
ENDBRANCH  48  62
BRANCH  49  70
ATOM     70  C   UNL A   1      42.631  26.340  27.806  1.00  0.00     0.057 A 
ATOM     71  C   UNL A   1      43.455  26.885  26.815  1.00  0.00     0.134 A 
ATOM     72  C   UNL A   1      42.302  24.984  27.702  1.00  0.00     0.134 A 
ATOM     73  F   UNL A   1      43.783  28.185  26.849  1.00  0.00    -0.206 F 
ATOM     74  C   UNL A   1      43.922  26.113  25.749  1.00  0.00     0.040 A 
ATOM     75  C   UNL A   1      42.781  24.196  26.655  1.00  0.00     0.040 A 
ATOM     76  F   UNL A   1      41.513  24.407  28.618  1.00  0.00    -0.206 F 
ATOM     77  C   UNL A   1      43.589  24.763  25.671  1.00  0.00     0.006 A 
ENDBRANCH  49  70
BRANCH  61  78
ATOM     78  C   UNL A   1      44.663  27.295  34.386  1.00  0.00     0.057 A 
ATOM     79  C   UNL A   1      45.914  27.922  34.451  1.00  0.00     0.134 A 
ATOM     80  C   UNL A   1      44.498  26.105  35.104  1.00  0.00     0.134 A 
ATOM     81  F   UNL A   1      46.141  29.059  33.775  1.00  0.00    -0.206 F 
ATOM     82  C   UNL A   1      46.970  27.369  35.178  1.00  0.00     0.040 A 
ATOM     83  C   UNL A   1      45.539  25.554  35.854  1.00  0.00     0.040 A 
ATOM     84  F   UNL A   1      43.323  25.458  35.092  1.00  0.00    -0.206 F 
ATOM     85  C   UNL A   1      46.783  26.183  35.885  1.00  0.00     0.006 A 
ENDBRANCH  61  78
ENDBRANCH  35  36
ENDBRANCH  28  30
ENDBRANCH  27  28
ENDBRANCH  26  27
ENDBRANCH  25  26
ENDBRANCH  24  25
ENDBRANCH  23  24
ENDBRANCH   1  23
TORSDOF 20
ENDMDL
