MODEL 1
REMARK VINA RESULT:     -10.9      0.000      0.000
REMARK SMILES O=C(C[C@H]1C[C@H]2CC[C@@H](C1)[N@H+]2C[C@@H]1CCCOC1)OCCOCCOC(=O)c1ccc(-c2c3nc(c(-c4c(F)cccc4F)c4ccc([nH]4)c(-c4c(F)cccc4F)c4nc(c(-c5c(F)cccc5F)c5ccc2[nH]5)C=C4)C=C3)cc1
REMARK SMILES IDX 21 1 20 2 19 3 2 4 1 5 3 6 4 7 5 8 10 9 6 10 9 11 7 12 11 13
REMARK SMILES IDX 8 14 12 16 13 17 14 18 18 19 15 20 17 21 16 22 22 23 23 24
REMARK SMILES IDX 24 25 25 26 26 27 27 28 28 29 29 30 81 31 30 32 80 33 31 34
REMARK SMILES IDX 32 35 33 36 74 37 34 38 79 39 73 40 75 41 35 42 78 43 72 44
REMARK SMILES IDX 71 45 36 47 62 48 45 49 61 50 46 51 49 52 60 53 76 54 47 55
REMARK SMILES IDX 48 56 59 58 77 59 50 60 37 61 38 62 43 63 39 64 40 65 42 66
REMARK SMILES IDX 44 67 41 68 63 69 64 70 69 71 65 72 66 73 68 74 70 75 67 76
REMARK SMILES IDX 51 77 52 78 57 79 53 80 54 81 56 82 58 83 55 84
REMARK H PARENT 11 15 75 46 49 57
REMARK Flexibility Score: inf
ROOT
ATOM      1  C   UNL A   1      39.165  21.793  25.840  1.00  0.00     0.202 C 
ENDROOT
BRANCH   1   2
ATOM      2  C   UNL A   1      37.633  21.825  25.756  1.00  0.00     0.261 C 
BRANCH   2   3
ATOM      3  O   UNL A   1      37.064  21.783  24.448  1.00  0.00    -0.463 OA
BRANCH   3   4
ATOM      4  C   UNL A   1      36.485  22.897  23.937  1.00  0.00     0.306 C 
ATOM      5  O   UNL A   1      36.566  23.159  22.741  1.00  0.00    -0.252 OA
BRANCH   4   6
ATOM      6  C   UNL A   1      35.890  23.877  24.923  1.00  0.00     0.126 C 
BRANCH   6   7
ATOM      7  C   UNL A   1      34.396  23.736  25.170  1.00  0.00     0.012 C 
ATOM      8  C   UNL A   1      33.721  23.115  23.916  1.00  0.00     0.069 C 
ATOM      9  C   UNL A   1      34.150  23.055  26.541  1.00  0.00     0.069 C 
ATOM     10  C   UNL A   1      32.822  21.919  24.199  1.00  0.00     0.184 C 
ATOM     11  C   UNL A   1      33.299  21.804  26.458  1.00  0.00     0.184 C 
ATOM     12  C   UNL A   1      33.731  20.686  24.348  1.00  0.00     0.071 C 
ATOM     13  N   UNL A   1      32.216  21.999  25.513  1.00  0.00    -0.330 N 
ATOM     14  C   UNL A   1      34.139  20.685  25.815  1.00  0.00     0.071 C 
ATOM     15  H   UNL A   1      31.496  21.280  25.594  1.00  0.00     0.348 HD
BRANCH  13  16
ATOM     16  C   UNL A   1      31.028  22.788  25.825  1.00  0.00     0.268 C 
BRANCH  16  17
ATOM     17  C   UNL A   1      30.693  24.315  25.642  1.00  0.00     0.070 C 
ATOM     18  C   UNL A   1      30.644  24.842  24.199  1.00  0.00     0.014 C 
ATOM     19  C   UNL A   1      31.419  25.296  26.568  1.00  0.00     0.169 C 
ATOM     20  C   UNL A   1      30.301  26.334  24.122  1.00  0.00     0.029 C 
ATOM     21  O   UNL A   1      30.920  26.633  26.422  1.00  0.00    -0.381 OA
ATOM     22  C   UNL A   1      31.141  27.131  25.105  1.00  0.00     0.160 C 
ENDBRANCH  16  17
ENDBRANCH  13  16
ENDBRANCH   6   7
ENDBRANCH   4   6
ENDBRANCH   3   4
ENDBRANCH   2   3
ENDBRANCH   1   2
BRANCH   1  23
ATOM     23  O   UNL A   1      39.862  20.557  25.884  1.00  0.00    -0.374 OA
BRANCH  23  24
ATOM     24  C   UNL A   1      41.053  20.463  26.672  1.00  0.00     0.202 C 
BRANCH  24  25
ATOM     25  C   UNL A   1      42.395  20.802  26.028  1.00  0.00     0.261 C 
BRANCH  25  26
ATOM     26  O   UNL A   1      42.978  21.975  26.600  1.00  0.00    -0.460 OA
BRANCH  26  27
ATOM     27  C   UNL A   1      42.929  23.073  25.811  1.00  0.00     0.338 C 
ATOM     28  O   UNL A   1      43.019  23.123  24.595  1.00  0.00    -0.246 OA
BRANCH  27  29
ATOM     29  C   UNL A   1      42.507  24.213  26.643  1.00  0.00     0.060 A 
ATOM     30  C   UNL A   1      43.212  25.418  26.509  1.00  0.00     0.016 A 
ATOM     31  C   UNL A   1      41.418  24.110  27.510  1.00  0.00     0.016 A 
ATOM     32  C   UNL A   1      42.844  26.523  27.269  1.00  0.00     0.010 A 
ATOM     33  C   UNL A   1      41.062  25.211  28.282  1.00  0.00     0.010 A 
ATOM     34  C   UNL A   1      41.790  26.408  28.181  1.00  0.00    -0.014 A 
BRANCH  34  35
ATOM     35  C   UNL A   1      41.535  27.479  29.163  1.00  0.00     0.031 A 
ATOM     36  C   UNL A   1      42.332  27.473  30.433  1.00  0.00     0.074 A 
ATOM     37  C   UNL A   1      40.575  28.393  28.942  1.00  0.00     0.049 A 
ATOM     38  N   UNL A   1      42.181  28.198  31.509  1.00  0.00    -0.248 NA
ATOM     39  C   UNL A   1      43.444  26.508  30.506  1.00  0.00     0.031 C 
ATOM     40  C   UNL A   1      39.769  28.497  27.728  1.00  0.00     0.029 A 
ATOM     41  N   UNL A   1      40.095  29.386  29.755  1.00  0.00    -0.354 N 
ATOM     42  C   UNL A   1      43.160  27.763  32.392  1.00  0.00     0.074 A 
ATOM     43  C   UNL A   1      43.894  26.706  31.736  1.00  0.00     0.031 C 
ATOM     44  C   UNL A   1      38.864  29.477  27.890  1.00  0.00     0.029 A 
ATOM     45  C   UNL A   1      39.003  30.035  29.233  1.00  0.00     0.049 A 
ATOM     46  H   UNL A   1      40.493  29.613  30.626  1.00  0.00     0.167 HD
ATOM     47  C   UNL A   1      43.414  28.212  33.641  1.00  0.00     0.037 A 
ATOM     48  C   UNL A   1      38.183  30.940  29.803  1.00  0.00     0.037 A 
ATOM     49  C   UNL A   1      42.677  29.272  34.274  1.00  0.00     0.049 A 
ATOM     50  C   UNL A   1      38.452  31.372  31.222  1.00  0.00     0.074 A 
ATOM     51  C   UNL A   1      42.886  29.842  35.516  1.00  0.00     0.029 A 
ATOM     52  N   UNL A   1      41.577  29.906  33.718  1.00  0.00    -0.354 N 
ATOM     53  N   UNL A   1      39.413  30.999  32.034  1.00  0.00    -0.248 NA
ATOM     54  C   UNL A   1      37.516  32.343  31.808  1.00  0.00     0.031 C 
ATOM     55  C   UNL A   1      41.876  30.783  35.736  1.00  0.00     0.029 A 
ATOM     56  C   UNL A   1      41.071  30.835  34.608  1.00  0.00     0.049 A 
ATOM     57  H   UNL A   1      41.212  29.723  32.822  1.00  0.00     0.167 HD
ATOM     58  C   UNL A   1      39.211  31.705  33.213  1.00  0.00     0.074 A 
ATOM     59  C   UNL A   1      38.049  32.543  33.004  1.00  0.00     0.031 C 
ATOM     60  C   UNL A   1      39.917  31.662  34.370  1.00  0.00     0.037 A 
BRANCH  47  61
ATOM     61  C   UNL A   1      44.510  27.549  34.418  1.00  0.00     0.057 A 
ATOM     62  C   UNL A   1      45.811  28.064  34.453  1.00  0.00     0.134 A 
ATOM     63  C   UNL A   1      44.238  26.418  35.199  1.00  0.00     0.134 A 
ATOM     64  F   UNL A   1      46.140  29.134  33.714  1.00  0.00    -0.206 F 
ATOM     65  C   UNL A   1      46.805  27.477  35.237  1.00  0.00     0.040 A 
ATOM     66  C   UNL A   1      45.218  25.835  36.003  1.00  0.00     0.040 A 
ATOM     67  F   UNL A   1      43.012  25.874  35.206  1.00  0.00    -0.206 F 
ATOM     68  C   UNL A   1      46.506  26.365  36.025  1.00  0.00     0.006 A 
ENDBRANCH  47  61
BRANCH  48  69
ATOM     69  C   UNL A   1      37.003  31.459  29.065  1.00  0.00     0.057 A 
ATOM     70  C   UNL A   1      36.966  32.772  28.585  1.00  0.00     0.134 A 
ATOM     71  C   UNL A   1      35.862  30.671  28.868  1.00  0.00     0.134 A 
ATOM     72  F   UNL A   1      38.018  33.585  28.762  1.00  0.00    -0.206 F 
ATOM     73  C   UNL A   1      35.830  33.294  27.963  1.00  0.00     0.040 A 
ATOM     74  C   UNL A   1      34.729  31.169  28.223  1.00  0.00     0.040 A 
ATOM     75  F   UNL A   1      35.831  29.403  29.303  1.00  0.00    -0.206 F 
ATOM     76  C   UNL A   1      34.707  32.490  27.780  1.00  0.00     0.006 A 
ENDBRANCH  48  69
BRANCH  60  77
ATOM     77  C   UNL A   1      39.465  32.558  35.485  1.00  0.00     0.057 A 
ATOM     78  C   UNL A   1      38.593  32.108  36.484  1.00  0.00     0.134 A 
ATOM     79  C   UNL A   1      39.955  33.866  35.591  1.00  0.00     0.134 A 
ATOM     80  F   UNL A   1      38.081  30.870  36.431  1.00  0.00    -0.206 F 
ATOM     81  C   UNL A   1      38.209  32.935  37.539  1.00  0.00     0.040 A 
ATOM     82  C   UNL A   1      39.601  34.692  36.658  1.00  0.00     0.040 A 
ATOM     83  F   UNL A   1      40.803  34.354  34.674  1.00  0.00    -0.206 F 
ATOM     84  C   UNL A   1      38.721  34.228  37.634  1.00  0.00     0.006 A 
ENDBRANCH  60  77
ENDBRANCH  34  35
ENDBRANCH  27  29
ENDBRANCH  26  27
ENDBRANCH  25  26
ENDBRANCH  24  25
ENDBRANCH  23  24
ENDBRANCH   1  23
TORSDOF 17
ENDMDL
MODEL 2
REMARK VINA RESULT:     -10.9      1.503      3.071
REMARK SMILES O=C(C[C@H]1C[C@H]2CC[C@@H](C1)[N@H+]2C[C@@H]1CCCOC1)OCCOCCOC(=O)c1ccc(-c2c3nc(c(-c4c(F)cccc4F)c4ccc([nH]4)c(-c4c(F)cccc4F)c4nc(c(-c5c(F)cccc5F)c5ccc2[nH]5)C=C4)C=C3)cc1
REMARK SMILES IDX 21 1 20 2 19 3 2 4 1 5 3 6 4 7 5 8 10 9 6 10 9 11 7 12 11 13
REMARK SMILES IDX 8 14 12 16 13 17 14 18 18 19 15 20 17 21 16 22 22 23 23 24
REMARK SMILES IDX 24 25 25 26 26 27 27 28 28 29 29 30 81 31 30 32 80 33 31 34
REMARK SMILES IDX 32 35 33 36 74 37 34 38 79 39 73 40 75 41 35 42 78 43 72 44
REMARK SMILES IDX 71 45 36 47 62 48 45 49 61 50 46 51 49 52 60 53 76 54 47 55
REMARK SMILES IDX 48 56 59 58 77 59 50 60 37 61 38 62 43 63 39 64 40 65 42 66
REMARK SMILES IDX 44 67 41 68 63 69 64 70 69 71 65 72 66 73 68 74 70 75 67 76
REMARK SMILES IDX 51 77 52 78 57 79 53 80 54 81 56 82 58 83 55 84
REMARK H PARENT 11 15 75 46 49 57
REMARK Flexibility Score: inf
ROOT
ATOM      1  C   UNL A   1      40.424  21.424  27.261  1.00  0.00     0.202 C 
ENDROOT
BRANCH   1   2
ATOM      2  C   UNL A   1      39.680  21.757  25.962  1.00  0.00     0.261 C 
BRANCH   2   3
ATOM      3  O   UNL A   1      38.287  22.043  26.080  1.00  0.00    -0.463 OA
BRANCH   3   4
ATOM      4  C   UNL A   1      37.862  23.329  26.013  1.00  0.00     0.306 C 
ATOM      5  O   UNL A   1      38.496  24.232  26.551  1.00  0.00    -0.252 OA
BRANCH   4   6
ATOM      6  C   UNL A   1      36.501  23.573  25.402  1.00  0.00     0.126 C 
BRANCH   6   7
ATOM      7  C   UNL A   1      35.767  22.332  24.916  1.00  0.00     0.012 C 
ATOM      8  C   UNL A   1      35.228  21.539  26.139  1.00  0.00     0.069 C 
ATOM      9  C   UNL A   1      34.762  22.718  23.800  1.00  0.00     0.069 C 
ATOM     10  C   UNL A   1      33.755  21.166  26.062  1.00  0.00     0.184 C 
ATOM     11  C   UNL A   1      33.336  22.297  24.090  1.00  0.00     0.184 C 
ATOM     12  C   UNL A   1      32.945  22.406  26.483  1.00  0.00     0.071 C 
ATOM     13  N   UNL A   1      33.316  20.978  24.693  1.00  0.00    -0.330 N 
ATOM     14  C   UNL A   1      32.776  23.208  25.199  1.00  0.00     0.071 C 
ATOM     15  H   UNL A   1      32.383  20.566  24.694  1.00  0.00     0.348 HD
BRANCH  13  16
ATOM     16  C   UNL A   1      33.521  19.756  23.923  1.00  0.00     0.268 C 
BRANCH  16  17
ATOM     17  C   UNL A   1      33.204  18.245  24.232  1.00  0.00     0.070 C 
ATOM     18  C   UNL A   1      32.765  17.910  25.666  1.00  0.00     0.014 C 
ATOM     19  C   UNL A   1      34.199  17.209  23.698  1.00  0.00     0.169 C 
ATOM     20  C   UNL A   1      32.470  16.420  25.865  1.00  0.00     0.029 C 
ATOM     21  O   UNL A   1      33.730  15.868  23.897  1.00  0.00    -0.381 OA
ATOM     22  C   UNL A   1      33.584  15.568  25.283  1.00  0.00     0.160 C 
ENDBRANCH  16  17
ENDBRANCH  13  16
ENDBRANCH   6   7
ENDBRANCH   4   6
ENDBRANCH   3   4
ENDBRANCH   2   3
ENDBRANCH   1   2
BRANCH   1  23
ATOM     23  O   UNL A   1      41.596  20.623  27.239  1.00  0.00    -0.374 OA
BRANCH  23  24
ATOM     24  C   UNL A   1      42.308  20.472  26.006  1.00  0.00     0.202 C 
BRANCH  24  25
ATOM     25  C   UNL A   1      43.365  21.506  25.630  1.00  0.00     0.261 C 
BRANCH  25  26
ATOM     26  O   UNL A   1      42.777  22.709  25.130  1.00  0.00    -0.460 OA
BRANCH  26  27
ATOM     27  C   UNL A   1      43.605  23.780  25.115  1.00  0.00     0.338 C 
ATOM     28  O   UNL A   1      44.526  24.000  24.346  1.00  0.00    -0.246 OA
BRANCH  27  29
ATOM     29  C   UNL A   1      43.067  24.783  26.050  1.00  0.00     0.060 A 
ATOM     30  C   UNL A   1      43.538  26.099  25.941  1.00  0.00     0.016 A 
ATOM     31  C   UNL A   1      42.093  24.444  26.991  1.00  0.00     0.016 A 
ATOM     32  C   UNL A   1      43.052  27.081  26.797  1.00  0.00     0.010 A 
ATOM     33  C   UNL A   1      41.621  25.423  27.858  1.00  0.00     0.010 A 
ATOM     34  C   UNL A   1      42.120  26.734  27.780  1.00  0.00    -0.014 A 
BRANCH  34  35
ATOM     35  C   UNL A   1      41.770  27.692  28.846  1.00  0.00     0.031 A 
ATOM     36  C   UNL A   1      42.540  27.624  30.132  1.00  0.00     0.074 A 
ATOM     37  C   UNL A   1      40.754  28.555  28.682  1.00  0.00     0.049 A 
ATOM     38  N   UNL A   1      42.316  28.236  31.263  1.00  0.00    -0.248 NA
ATOM     39  C   UNL A   1      43.713  26.733  30.147  1.00  0.00     0.031 C 
ATOM     40  C   UNL A   1      39.968  28.716  27.461  1.00  0.00     0.029 A 
ATOM     41  N   UNL A   1      40.189  29.436  29.568  1.00  0.00    -0.354 N 
ATOM     42  C   UNL A   1      43.304  27.789  32.130  1.00  0.00     0.074 A 
ATOM     43  C   UNL A   1      44.124  26.848  31.402  1.00  0.00     0.031 C 
ATOM     44  C   UNL A   1      38.994  29.614  27.686  1.00  0.00     0.029 A 
ATOM     45  C   UNL A   1      39.066  30.055  29.076  1.00  0.00     0.049 A 
ATOM     46  H   UNL A   1      40.553  29.609  30.466  1.00  0.00     0.167 HD
ATOM     47  C   UNL A   1      43.501  28.139  33.421  1.00  0.00     0.037 A 
ATOM     48  C   UNL A   1      38.174  30.847  29.703  1.00  0.00     0.037 A 
ATOM     49  C   UNL A   1      42.679  29.084  34.126  1.00  0.00     0.049 A 
ATOM     50  C   UNL A   1      38.383  31.165  31.161  1.00  0.00     0.074 A 
ATOM     51  C   UNL A   1      42.822  29.552  35.419  1.00  0.00     0.029 A 
ATOM     52  N   UNL A   1      41.550  29.691  33.600  1.00  0.00    -0.354 N 
ATOM     53  N   UNL A   1      39.350  30.785  31.962  1.00  0.00    -0.248 NA
ATOM     54  C   UNL A   1      37.370  32.013  31.806  1.00  0.00     0.031 C 
ATOM     55  C   UNL A   1      41.746  30.398  35.695  1.00  0.00     0.029 A 
ATOM     56  C   UNL A   1      40.962  30.499  34.555  1.00  0.00     0.049 A 
ATOM     57  H   UNL A   1      41.217  29.567  32.681  1.00  0.00     0.167 HD
ATOM     58  C   UNL A   1      39.076  31.365  33.194  1.00  0.00     0.074 A 
ATOM     59  C   UNL A   1      37.863  32.139  33.030  1.00  0.00     0.031 C 
ATOM     60  C   UNL A   1      39.758  31.264  34.361  1.00  0.00     0.037 A 
BRANCH  47  61
ATOM     61  C   UNL A   1      44.624  27.483  34.164  1.00  0.00     0.057 A 
ATOM     62  C   UNL A   1      44.462  26.259  34.824  1.00  0.00     0.134 A 
ATOM     63  C   UNL A   1      45.904  28.053  34.158  1.00  0.00     0.134 A 
ATOM     64  F   UNL A   1      43.258  25.671  34.881  1.00  0.00    -0.206 F 
ATOM     65  C   UNL A   1      45.534  25.625  35.454  1.00  0.00     0.040 A 
ATOM     66  C   UNL A   1      46.987  27.418  34.765  1.00  0.00     0.040 A 
ATOM     67  F   UNL A   1      46.124  29.227  33.547  1.00  0.00    -0.206 F 
ATOM     68  C   UNL A   1      46.805  26.199  35.415  1.00  0.00     0.006 A 
ENDBRANCH  47  61
BRANCH  48  69
ATOM     69  C   UNL A   1      36.976  31.351  28.983  1.00  0.00     0.057 A 
ATOM     70  C   UNL A   1      36.909  32.668  28.516  1.00  0.00     0.134 A 
ATOM     71  C   UNL A   1      35.848  30.543  28.790  1.00  0.00     0.134 A 
ATOM     72  F   UNL A   1      37.947  33.499  28.690  1.00  0.00    -0.206 F 
ATOM     73  C   UNL A   1      35.756  33.174  27.912  1.00  0.00     0.040 A 
ATOM     74  C   UNL A   1      34.699  31.026  28.162  1.00  0.00     0.040 A 
ATOM     75  F   UNL A   1      35.845  29.270  29.213  1.00  0.00    -0.206 F 
ATOM     76  C   UNL A   1      34.647  32.350  27.733  1.00  0.00     0.006 A 
ENDBRANCH  48  69
BRANCH  60  77
ATOM     77  C   UNL A   1      39.223  32.023  35.540  1.00  0.00     0.057 A 
ATOM     78  C   UNL A   1      38.370  31.424  36.474  1.00  0.00     0.134 A 
ATOM     79  C   UNL A   1      39.612  33.349  35.770  1.00  0.00     0.134 A 
ATOM     80  F   UNL A   1      37.952  30.161  36.302  1.00  0.00    -0.206 F 
ATOM     81  C   UNL A   1      37.908  32.124  37.589  1.00  0.00     0.040 A 
ATOM     82  C   UNL A   1      39.179  34.048  36.897  1.00  0.00     0.040 A 
ATOM     83  F   UNL A   1      40.437  33.976  34.919  1.00  0.00    -0.206 F 
ATOM     84  C   UNL A   1      38.321  33.437  37.808  1.00  0.00     0.006 A 
ENDBRANCH  60  77
ENDBRANCH  34  35
ENDBRANCH  27  29
ENDBRANCH  26  27
ENDBRANCH  25  26
ENDBRANCH  24  25
ENDBRANCH  23  24
ENDBRANCH   1  23
TORSDOF 17
ENDMDL
MODEL 3
REMARK VINA RESULT:     -10.8      2.960      8.393
REMARK SMILES O=C(C[C@H]1C[C@H]2CC[C@@H](C1)[N@H+]2C[C@@H]1CCCOC1)OCCOCCOC(=O)c1ccc(-c2c3nc(c(-c4c(F)cccc4F)c4ccc([nH]4)c(-c4c(F)cccc4F)c4nc(c(-c5c(F)cccc5F)c5ccc2[nH]5)C=C4)C=C3)cc1
REMARK SMILES IDX 21 1 20 2 19 3 2 4 1 5 3 6 4 7 5 8 10 9 6 10 9 11 7 12 11 13
REMARK SMILES IDX 8 14 12 16 13 17 14 18 18 19 15 20 17 21 16 22 22 23 23 24
REMARK SMILES IDX 24 25 25 26 26 27 27 28 28 29 29 30 81 31 30 32 80 33 31 34
REMARK SMILES IDX 32 35 33 36 74 37 34 38 79 39 73 40 75 41 35 42 78 43 72 44
REMARK SMILES IDX 71 45 36 47 62 48 45 49 61 50 46 51 49 52 60 53 76 54 47 55
REMARK SMILES IDX 48 56 59 58 77 59 50 60 37 61 38 62 43 63 39 64 40 65 42 66
REMARK SMILES IDX 44 67 41 68 63 69 64 70 69 71 65 72 66 73 68 74 70 75 67 76
REMARK SMILES IDX 51 77 52 78 57 79 53 80 54 81 56 82 58 83 55 84
REMARK H PARENT 11 15 75 46 49 57
REMARK Flexibility Score: inf
ROOT
ATOM      1  C   UNL A   1      32.346  29.100  26.734  1.00  0.00     0.202 C 
ENDROOT
BRANCH   1   2
ATOM      2  C   UNL A   1      31.414  28.038  26.136  1.00  0.00     0.261 C 
BRANCH   2   3
ATOM      3  O   UNL A   1      31.276  26.823  26.871  1.00  0.00    -0.463 OA
BRANCH   3   4
ATOM      4  C   UNL A   1      30.929  25.686  26.221  1.00  0.00     0.306 C 
ATOM      5  O   UNL A   1      29.910  25.072  26.523  1.00  0.00    -0.252 OA
BRANCH   4   6
ATOM      6  C   UNL A   1      31.930  25.122  25.238  1.00  0.00     0.126 C 
BRANCH   6   7
ATOM      7  C   UNL A   1      31.970  23.605  25.137  1.00  0.00     0.012 C 
ATOM      8  C   UNL A   1      31.283  23.156  23.818  1.00  0.00     0.069 C 
ATOM      9  C   UNL A   1      33.407  23.096  25.418  1.00  0.00     0.069 C 
ATOM     10  C   UNL A   1      32.098  22.192  22.968  1.00  0.00     0.184 C 
ATOM     11  C   UNL A   1      33.983  22.244  24.306  1.00  0.00     0.184 C 
ATOM     12  C   UNL A   1      33.120  23.027  22.176  1.00  0.00     0.071 C 
ATOM     13  N   UNL A   1      32.963  21.357  23.778  1.00  0.00    -0.330 N 
ATOM     14  C   UNL A   1      34.314  23.160  23.113  1.00  0.00     0.071 C 
ATOM     15  H   UNL A   1      33.356  20.617  23.195  1.00  0.00     0.348 HD
BRANCH  13  16
ATOM     16  C   UNL A   1      32.527  20.152  24.476  1.00  0.00     0.268 C 
BRANCH  16  17
ATOM     17  C   UNL A   1      33.153  18.712  24.595  1.00  0.00     0.070 C 
ATOM     18  C   UNL A   1      33.304  17.915  23.290  1.00  0.00     0.014 C 
ATOM     19  C   UNL A   1      32.631  17.826  25.731  1.00  0.00     0.169 C 
ATOM     20  C   UNL A   1      33.930  16.534  23.506  1.00  0.00     0.029 C 
ATOM     21  O   UNL A   1      33.380  16.608  25.842  1.00  0.00    -0.381 OA
ATOM     22  C   UNL A   1      33.261  15.814  24.664  1.00  0.00     0.160 C 
ENDBRANCH  16  17
ENDBRANCH  13  16
ENDBRANCH   6   7
ENDBRANCH   4   6
ENDBRANCH   3   4
ENDBRANCH   2   3
ENDBRANCH   1   2
BRANCH   1  23
ATOM     23  O   UNL A   1      31.819  30.299  27.282  1.00  0.00    -0.374 OA
BRANCH  23  24
ATOM     24  C   UNL A   1      31.639  31.431  26.424  1.00  0.00     0.202 C 
BRANCH  24  25
ATOM     25  C   UNL A   1      31.755  32.834  27.016  1.00  0.00     0.261 C 
BRANCH  25  26
ATOM     26  O   UNL A   1      33.115  33.190  27.275  1.00  0.00    -0.460 OA
BRANCH  26  27
ATOM     27  C   UNL A   1      33.289  34.041  28.313  1.00  0.00     0.338 C 
ATOM     28  O   UNL A   1      32.523  34.907  28.704  1.00  0.00    -0.246 OA
BRANCH  27  29
ATOM     29  C   UNL A   1      34.474  33.601  29.068  1.00  0.00     0.060 A 
ATOM     30  C   UNL A   1      35.705  34.199  28.762  1.00  0.00     0.016 A 
ATOM     31  C   UNL A   1      34.371  32.647  30.082  1.00  0.00     0.016 A 
ATOM     32  C   UNL A   1      36.850  33.821  29.455  1.00  0.00     0.010 A 
ATOM     33  C   UNL A   1      35.519  32.257  30.762  1.00  0.00     0.010 A 
ATOM     34  C   UNL A   1      36.762  32.823  30.432  1.00  0.00    -0.014 A 
BRANCH  34  35
ATOM     35  C   UNL A   1      37.986  32.236  31.009  1.00  0.00     0.031 A 
ATOM     36  C   UNL A   1      38.664  31.136  30.248  1.00  0.00     0.074 A 
ATOM     37  C   UNL A   1      38.438  32.642  32.207  1.00  0.00     0.049 A 
ATOM     38  N   UNL A   1      39.645  30.357  30.619  1.00  0.00    -0.248 NA
ATOM     39  C   UNL A   1      38.159  30.868  28.890  1.00  0.00     0.031 C 
ATOM     40  C   UNL A   1      37.865  33.723  33.006  1.00  0.00     0.029 A 
ATOM     41  N   UNL A   1      39.468  32.162  32.973  1.00  0.00    -0.354 N 
ATOM     42  C   UNL A   1      39.858  29.494  29.551  1.00  0.00     0.074 A 
ATOM     43  C   UNL A   1      38.901  29.835  28.523  1.00  0.00     0.031 C 
ATOM     44  C   UNL A   1      38.528  33.799  34.173  1.00  0.00     0.029 A 
ATOM     45  C   UNL A   1      39.539  32.746  34.215  1.00  0.00     0.049 A 
ATOM     46  H   UNL A   1      40.095  31.469  32.666  1.00  0.00     0.167 HD
ATOM     47  C   UNL A   1      40.774  28.505  29.450  1.00  0.00     0.037 A 
ATOM     48  C   UNL A   1      40.305  32.426  35.276  1.00  0.00     0.037 A 
ATOM     49  C   UNL A   1      41.723  28.186  30.481  1.00  0.00     0.049 A 
ATOM     50  C   UNL A   1      41.270  31.274  35.155  1.00  0.00     0.074 A 
ATOM     51  C   UNL A   1      42.731  27.240  30.460  1.00  0.00     0.029 A 
ATOM     52  N   UNL A   1      41.767  28.797  31.725  1.00  0.00    -0.354 N 
ATOM     53  N   UNL A   1      41.508  30.497  34.124  1.00  0.00    -0.248 NA
ATOM     54  C   UNL A   1      42.066  30.947  36.347  1.00  0.00     0.031 C 
ATOM     55  C   UNL A   1      43.348  27.238  31.713  1.00  0.00     0.029 A 
ATOM     56  C   UNL A   1      42.760  28.220  32.496  1.00  0.00     0.049 A 
ATOM     57  H   UNL A   1      41.181  29.533  32.015  1.00  0.00     0.167 HD
ATOM     58  C   UNL A   1      42.493  29.609  34.536  1.00  0.00     0.074 A 
ATOM     59  C   UNL A   1      42.823  29.955  35.902  1.00  0.00     0.031 C 
ATOM     60  C   UNL A   1      43.071  28.591  33.851  1.00  0.00     0.037 A 
BRANCH  47  61
ATOM     61  C   UNL A   1      40.781  27.679  28.200  1.00  0.00     0.057 A 
ATOM     62  C   UNL A   1      41.539  28.035  27.079  1.00  0.00     0.134 A 
ATOM     63  C   UNL A   1      40.072  26.471  28.148  1.00  0.00     0.134 A 
ATOM     64  F   UNL A   1      42.225  29.187  27.060  1.00  0.00    -0.206 F 
ATOM     65  C   UNL A   1      41.592  27.220  25.947  1.00  0.00     0.040 A 
ATOM     66  C   UNL A   1      40.135  25.637  27.031  1.00  0.00     0.040 A 
ATOM     67  F   UNL A   1      39.323  26.075  29.189  1.00  0.00    -0.206 F 
ATOM     68  C   UNL A   1      40.898  26.010  25.927  1.00  0.00     0.006 A 
ENDBRANCH  47  61
BRANCH  48  69
ATOM     69  C   UNL A   1      40.159  33.158  36.560  1.00  0.00     0.057 A 
ATOM     70  C   UNL A   1      40.999  34.228  36.886  1.00  0.00     0.134 A 
ATOM     71  C   UNL A   1      39.211  32.772  37.516  1.00  0.00     0.134 A 
ATOM     72  F   UNL A   1      41.943  34.632  36.023  1.00  0.00    -0.206 F 
ATOM     73  C   UNL A   1      40.923  34.868  38.124  1.00  0.00     0.040 A 
ATOM     74  C   UNL A   1      39.104  33.421  38.746  1.00  0.00     0.040 A 
ATOM     75  F   UNL A   1      38.374  31.754  37.268  1.00  0.00    -0.206 F 
ATOM     76  C   UNL A   1      39.972  34.465  39.058  1.00  0.00     0.006 A 
ENDBRANCH  48  69
BRANCH  60  77
ATOM     77  C   UNL A   1      44.130  27.799  34.560  1.00  0.00     0.057 A 
ATOM     78  C   UNL A   1      43.814  26.675  35.333  1.00  0.00     0.134 A 
ATOM     79  C   UNL A   1      45.483  28.132  34.419  1.00  0.00     0.134 A 
ATOM     80  F   UNL A   1      42.536  26.312  35.515  1.00  0.00    -0.206 F 
ATOM     81  C   UNL A   1      44.808  25.920  35.956  1.00  0.00     0.040 A 
ATOM     82  C   UNL A   1      46.487  27.366  35.014  1.00  0.00     0.040 A 
ATOM     83  F   UNL A   1      45.853  29.190  33.682  1.00  0.00    -0.206 F 
ATOM     84  C   UNL A   1      46.149  26.260  35.789  1.00  0.00     0.006 A 
ENDBRANCH  60  77
ENDBRANCH  34  35
ENDBRANCH  27  29
ENDBRANCH  26  27
ENDBRANCH  25  26
ENDBRANCH  24  25
ENDBRANCH  23  24
ENDBRANCH   1  23
TORSDOF 17
ENDMDL
