MODEL 1
REMARK VINA RESULT:      -9.3      0.000      0.000
REMARK SMILES CC(C)OCCS(=O)(=O)N[C@@H]1COC[C@@H]1C(=O)OCCOCCOC(=O)c1ccc(-c2c3nc(c(-c4c(F)cccc4F)c4ccc([nH]4)c(-c4c(F)cccc4F)c4nc(c(-c5c(F)cccc5F)c5ccc2[nH]5)C=C4)C=C3)cc1
REMARK SMILES IDX 19 1 18 2 16 3 17 4 15 5 11 6 12 7 13 8 14 9 10 10 7 12 8 13
REMARK SMILES IDX 9 14 6 15 5 16 4 17 2 18 1 19 3 20 20 21 21 22 22 23 23 24
REMARK SMILES IDX 24 25 25 26 26 27 27 28 28 29 80 30 29 31 79 32 30 33 31 34
REMARK SMILES IDX 32 35 73 36 33 37 78 38 72 39 74 40 34 41 77 42 71 43 70 44
REMARK SMILES IDX 35 46 61 47 44 48 60 49 45 50 48 51 59 52 75 53 46 54 47 55
REMARK SMILES IDX 58 57 76 58 49 59 36 60 37 61 42 62 38 63 39 64 41 65 43 66
REMARK SMILES IDX 40 67 62 68 63 69 68 70 64 71 65 72 67 73 69 74 66 75 50 76
REMARK SMILES IDX 51 77 56 78 52 79 53 80 55 81 57 82 54 83
REMARK H PARENT 10 11 74 45 48 56
REMARK Flexibility Score: inf
ROOT
ATOM      1  C   UNL A   1      32.000  28.241  26.054  1.00  0.00     0.261 C 
ENDROOT
BRANCH   1   2
ATOM      2  O   UNL A   1      32.830  27.308  25.341  1.00  0.00    -0.463 OA
BRANCH   2   3
ATOM      3  C   UNL A   1      32.689  27.280  23.981  1.00  0.00     0.313 C 
ATOM      4  O   UNL A   1      33.001  28.176  23.213  1.00  0.00    -0.252 OA
BRANCH   3   5
ATOM      5  C   UNL A   1      32.125  25.940  23.584  1.00  0.00     0.145 C 
ATOM      6  C   UNL A   1      32.793  24.703  24.146  1.00  0.00     0.112 C 
ATOM      7  C   UNL A   1      34.082  24.659  23.338  1.00  0.00     0.181 C 
ATOM      8  O   UNL A   1      33.718  25.113  22.018  1.00  0.00    -0.379 OA
ATOM      9  C   UNL A   1      32.426  25.751  22.103  1.00  0.00     0.177 C 
BRANCH   6  10
ATOM     10  N   UNL A   1      32.979  24.486  25.601  1.00  0.00    -0.209 NA
ATOM     11  H   UNL A   1      33.985  24.531  25.762  1.00  0.00     0.141 HD
BRANCH  10  12
ATOM     12  S   UNL A   1      32.449  23.122  26.407  1.00  0.00     0.214 S 
ATOM     13  O   UNL A   1      31.767  22.307  25.432  1.00  0.00    -0.212 OA
ATOM     14  O   UNL A   1      31.720  23.657  27.537  1.00  0.00    -0.212 OA
BRANCH  12  15
ATOM     15  C   UNL A   1      33.818  22.174  27.100  1.00  0.00     0.182 C 
BRANCH  15  16
ATOM     16  C   UNL A   1      35.047  22.133  26.188  1.00  0.00     0.178 C 
BRANCH  16  17
ATOM     17  O   UNL A   1      35.791  23.346  26.073  1.00  0.00    -0.378 OA
BRANCH  17  18
ATOM     18  C   UNL A   1      37.127  23.311  25.573  1.00  0.00     0.112 C 
ATOM     19  C   UNL A   1      38.156  24.010  26.458  1.00  0.00     0.038 C 
ATOM     20  C   UNL A   1      37.463  21.889  25.140  1.00  0.00     0.038 C 
ENDBRANCH  17  18
ENDBRANCH  16  17
ENDBRANCH  15  16
ENDBRANCH  12  15
ENDBRANCH  10  12
ENDBRANCH   6  10
ENDBRANCH   3   5
ENDBRANCH   2   3
ENDBRANCH   1   2
BRANCH   1  21
ATOM     21  C   UNL A   1      32.835  29.356  26.693  1.00  0.00     0.202 C 
BRANCH  21  22
ATOM     22  O   UNL A   1      32.621  30.666  26.169  1.00  0.00    -0.374 OA
BRANCH  22  23
ATOM     23  C   UNL A   1      31.516  31.371  26.735  1.00  0.00     0.202 C 
BRANCH  23  24
ATOM     24  C   UNL A   1      31.687  32.886  26.870  1.00  0.00     0.261 C 
BRANCH  24  25
ATOM     25  O   UNL A   1      33.077  33.205  26.920  1.00  0.00    -0.460 OA
BRANCH  25  26
ATOM     26  C   UNL A   1      33.483  33.601  28.143  1.00  0.00     0.338 C 
ATOM     27  O   UNL A   1      32.879  34.246  28.973  1.00  0.00    -0.246 OA
BRANCH  26  28
ATOM     28  C   UNL A   1      34.756  32.928  28.410  1.00  0.00     0.060 A 
ATOM     29  C   UNL A   1      34.683  31.569  28.728  1.00  0.00     0.016 A 
ATOM     30  C   UNL A   1      35.973  33.613  28.357  1.00  0.00     0.016 A 
ATOM     31  C   UNL A   1      35.836  30.899  29.085  1.00  0.00     0.010 A 
ATOM     32  C   UNL A   1      37.132  32.940  28.717  1.00  0.00     0.010 A 
ATOM     33  C   UNL A   1      37.045  31.603  29.135  1.00  0.00    -0.014 A 
BRANCH  33  34
ATOM     34  C   UNL A   1      38.172  30.981  29.841  1.00  0.00     0.031 A 
ATOM     35  C   UNL A   1      38.374  31.336  31.284  1.00  0.00     0.074 A 
ATOM     36  C   UNL A   1      38.921  30.067  29.206  1.00  0.00     0.049 A 
ATOM     37  N   UNL A   1      39.282  30.911  32.119  1.00  0.00    -0.248 NA
ATOM     38  C   UNL A   1      37.425  32.303  31.868  1.00  0.00     0.031 C 
ATOM     39  C   UNL A   1      38.743  29.650  27.815  1.00  0.00     0.029 A 
ATOM     40  N   UNL A   1      39.973  29.320  29.654  1.00  0.00    -0.354 N 
ATOM     41  C   UNL A   1      39.014  31.557  33.320  1.00  0.00     0.074 A 
ATOM     42  C   UNL A   1      37.892  32.437  33.098  1.00  0.00     0.031 C 
ATOM     43  C   UNL A   1      39.660  28.714  27.522  1.00  0.00     0.029 A 
ATOM     44  C   UNL A   1      40.505  28.500  28.692  1.00  0.00     0.049 A 
ATOM     45  H   UNL A   1      40.315  29.366  30.575  1.00  0.00     0.167 HD
ATOM     46  C   UNL A   1      39.647  31.405  34.504  1.00  0.00     0.037 A 
ATOM     47  C   UNL A   1      41.574  27.688  28.763  1.00  0.00     0.037 A 
ATOM     48  C   UNL A   1      40.761  30.516  34.686  1.00  0.00     0.049 A 
ATOM     49  C   UNL A   1      42.302  27.597  30.076  1.00  0.00     0.074 A 
ATOM     50  C   UNL A   1      41.495  30.273  35.832  1.00  0.00     0.029 A 
ATOM     51  N   UNL A   1      41.301  29.722  33.683  1.00  0.00    -0.354 N 
ATOM     52  N   UNL A   1      42.039  28.197  31.213  1.00  0.00    -0.248 NA
ATOM     53  C   UNL A   1      43.472  26.712  30.119  1.00  0.00     0.031 C 
ATOM     54  C   UNL A   1      42.513  29.371  35.506  1.00  0.00     0.029 A 
ATOM     55  C   UNL A   1      42.373  29.003  34.176  1.00  0.00     0.049 A 
ATOM     56  H   UNL A   1      40.969  29.678  32.757  1.00  0.00     0.167 HD
ATOM     57  C   UNL A   1      42.987  27.740  32.116  1.00  0.00     0.074 A 
ATOM     58  C   UNL A   1      43.819  26.796  31.395  1.00  0.00     0.031 C 
ATOM     59  C   UNL A   1      43.164  28.064  33.421  1.00  0.00     0.037 A 
BRANCH  46  60
ATOM     60  C   UNL A   1      39.168  32.225  35.666  1.00  0.00     0.057 A 
ATOM     61  C   UNL A   1      39.591  33.545  35.868  1.00  0.00     0.134 A 
ATOM     62  C   UNL A   1      38.244  31.698  36.577  1.00  0.00     0.134 A 
ATOM     63  F   UNL A   1      40.494  34.104  35.048  1.00  0.00    -0.206 F 
ATOM     64  C   UNL A   1      39.123  34.306  36.941  1.00  0.00     0.040 A 
ATOM     65  C   UNL A   1      37.747  32.458  37.636  1.00  0.00     0.040 A 
ATOM     66  F   UNL A   1      37.801  30.438  36.446  1.00  0.00    -0.206 F 
ATOM     67  C   UNL A   1      38.189  33.766  37.822  1.00  0.00     0.006 A 
ENDBRANCH  46  60
BRANCH  47  68
ATOM     68  C   UNL A   1      42.020  26.926  27.569  1.00  0.00     0.057 A 
ATOM     69  C   UNL A   1      42.835  27.512  26.594  1.00  0.00     0.134 A 
ATOM     70  C   UNL A   1      41.621  25.600  27.361  1.00  0.00     0.134 A 
ATOM     71  F   UNL A   1      43.245  28.781  26.729  1.00  0.00    -0.206 F 
ATOM     72  C   UNL A   1      43.207  26.819  25.440  1.00  0.00     0.040 A 
ATOM     73  C   UNL A   1      42.011  24.886  26.228  1.00  0.00     0.040 A 
ATOM     74  F   UNL A   1      40.851  24.973  28.264  1.00  0.00    -0.206 F 
ATOM     75  C   UNL A   1      42.796  25.500  25.256  1.00  0.00     0.006 A 
ENDBRANCH  47  68
BRANCH  59  76
ATOM     76  C   UNL A   1      44.266  27.355  34.150  1.00  0.00     0.057 A 
ATOM     77  C   UNL A   1      44.068  26.117  34.770  1.00  0.00     0.134 A 
ATOM     78  C   UNL A   1      45.553  27.907  34.196  1.00  0.00     0.134 A 
ATOM     79  F   UNL A   1      42.855  25.541  34.770  1.00  0.00    -0.206 F 
ATOM     80  C   UNL A   1      45.104  25.465  35.441  1.00  0.00     0.040 A 
ATOM     81  C   UNL A   1      46.605  27.250  34.832  1.00  0.00     0.040 A 
ATOM     82  F   UNL A   1      45.812  29.085  33.609  1.00  0.00    -0.206 F 
ATOM     83  C   UNL A   1      46.378  26.029  35.466  1.00  0.00     0.006 A 
ENDBRANCH  59  76
ENDBRANCH  33  34
ENDBRANCH  26  28
ENDBRANCH  25  26
ENDBRANCH  24  25
ENDBRANCH  23  24
ENDBRANCH  22  23
ENDBRANCH  21  22
ENDBRANCH   1  21
TORSDOF 20
ENDMDL
MODEL 2
REMARK VINA RESULT:      -9.3      5.303     10.034
REMARK SMILES CC(C)OCCS(=O)(=O)N[C@@H]1COC[C@@H]1C(=O)OCCOCCOC(=O)c1ccc(-c2c3nc(c(-c4c(F)cccc4F)c4ccc([nH]4)c(-c4c(F)cccc4F)c4nc(c(-c5c(F)cccc5F)c5ccc2[nH]5)C=C4)C=C3)cc1
REMARK SMILES IDX 19 1 18 2 16 3 17 4 15 5 11 6 12 7 13 8 14 9 10 10 7 12 8 13
REMARK SMILES IDX 9 14 6 15 5 16 4 17 2 18 1 19 3 20 20 21 21 22 22 23 23 24
REMARK SMILES IDX 24 25 25 26 26 27 27 28 28 29 80 30 29 31 79 32 30 33 31 34
REMARK SMILES IDX 32 35 73 36 33 37 78 38 72 39 74 40 34 41 77 42 71 43 70 44
REMARK SMILES IDX 35 46 61 47 44 48 60 49 45 50 48 51 59 52 75 53 46 54 47 55
REMARK SMILES IDX 58 57 76 58 49 59 36 60 37 61 42 62 38 63 39 64 41 65 43 66
REMARK SMILES IDX 40 67 62 68 63 69 68 70 64 71 65 72 67 73 69 74 66 75 50 76
REMARK SMILES IDX 51 77 56 78 52 79 53 80 55 81 57 82 54 83
REMARK H PARENT 10 11 74 45 48 56
REMARK Flexibility Score: inf
ROOT
ATOM      1  C   UNL A   1      36.703  34.585  33.440  1.00  0.00     0.261 C 
ENDROOT
BRANCH   1   2
ATOM      2  O   UNL A   1      35.777  35.019  32.430  1.00  0.00    -0.463 OA
BRANCH   2   3
ATOM      3  C   UNL A   1      34.644  35.646  32.868  1.00  0.00     0.313 C 
ATOM      4  O   UNL A   1      34.591  36.496  33.743  1.00  0.00    -0.252 OA
BRANCH   3   5
ATOM      5  C   UNL A   1      33.474  35.145  32.061  1.00  0.00     0.145 C 
ATOM      6  C   UNL A   1      33.560  35.262  30.553  1.00  0.00     0.112 C 
ATOM      7  C   UNL A   1      33.355  36.757  30.352  1.00  0.00     0.181 C 
ATOM      8  O   UNL A   1      32.392  37.145  31.354  1.00  0.00    -0.379 OA
ATOM      9  C   UNL A   1      32.308  36.087  32.331  1.00  0.00     0.177 C 
BRANCH   6  10
ATOM     10  N   UNL A   1      34.681  34.690  29.769  1.00  0.00    -0.209 NA
ATOM     11  H   UNL A   1      35.021  35.449  29.178  1.00  0.00     0.141 HD
BRANCH  10  12
ATOM     12  S   UNL A   1      34.526  33.364  28.766  1.00  0.00     0.214 S 
ATOM     13  O   UNL A   1      33.743  33.795  27.634  1.00  0.00    -0.212 OA
ATOM     14  O   UNL A   1      34.018  32.331  29.643  1.00  0.00    -0.212 OA
BRANCH  12  15
ATOM     15  C   UNL A   1      36.125  32.776  28.174  1.00  0.00     0.182 C 
BRANCH  15  16
ATOM     16  C   UNL A   1      37.300  33.628  28.661  1.00  0.00     0.178 C 
BRANCH  16  17
ATOM     17  O   UNL A   1      37.593  33.565  30.056  1.00  0.00    -0.378 OA
BRANCH  17  18
ATOM     18  C   UNL A   1      38.864  34.001  30.532  1.00  0.00     0.112 C 
ATOM     19  C   UNL A   1      39.763  32.887  31.063  1.00  0.00     0.038 C 
ATOM     20  C   UNL A   1      39.488  34.941  29.506  1.00  0.00     0.038 C 
ENDBRANCH  17  18
ENDBRANCH  16  17
ENDBRANCH  15  16
ENDBRANCH  12  15
ENDBRANCH  10  12
ENDBRANCH   6  10
ENDBRANCH   3   5
ENDBRANCH   2   3
ENDBRANCH   1   2
BRANCH   1  21
ATOM     21  C   UNL A   1      36.013  33.706  34.489  1.00  0.00     0.202 C 
BRANCH  21  22
ATOM     22  O   UNL A   1      36.211  32.299  34.344  1.00  0.00    -0.374 OA
BRANCH  22  23
ATOM     23  C   UNL A   1      36.859  31.902  33.135  1.00  0.00     0.202 C 
BRANCH  23  24
ATOM     24  C   UNL A   1      35.968  31.222  32.092  1.00  0.00     0.261 C 
BRANCH  24  25
ATOM     25  O   UNL A   1      36.456  29.906  31.836  1.00  0.00    -0.460 OA
BRANCH  25  26
ATOM     26  C   UNL A   1      36.641  29.659  30.523  1.00  0.00     0.338 C 
ATOM     27  O   UNL A   1      35.819  29.630  29.632  1.00  0.00    -0.246 OA
BRANCH  26  28
ATOM     28  C   UNL A   1      38.086  29.627  30.294  1.00  0.00     0.060 A 
ATOM     29  C   UNL A   1      38.518  29.971  29.010  1.00  0.00     0.016 A 
ATOM     30  C   UNL A   1      38.981  29.263  31.304  1.00  0.00     0.016 A 
ATOM     31  C   UNL A   1      39.859  29.867  28.701  1.00  0.00     0.010 A 
ATOM     32  C   UNL A   1      40.329  29.157  30.993  1.00  0.00     0.010 A 
ATOM     33  C   UNL A   1      40.750  29.404  29.677  1.00  0.00    -0.014 A 
BRANCH  33  34
ATOM     34  C   UNL A   1      42.083  28.970  29.239  1.00  0.00     0.031 A 
ATOM     35  C   UNL A   1      42.234  27.560  28.755  1.00  0.00     0.074 A 
ATOM     36  C   UNL A   1      43.085  29.861  29.210  1.00  0.00     0.049 A 
ATOM     37  N   UNL A   1      43.299  26.951  28.307  1.00  0.00    -0.248 NA
ATOM     38  C   UNL A   1      41.024  26.717  28.778  1.00  0.00     0.031 C 
ATOM     39  C   UNL A   1      42.984  31.260  29.628  1.00  0.00     0.029 A 
ATOM     40  N   UNL A   1      44.380  29.721  28.800  1.00  0.00    -0.354 N 
ATOM     41  C   UNL A   1      42.886  25.661  27.998  1.00  0.00     0.074 A 
ATOM     42  C   UNL A   1      41.490  25.555  28.351  1.00  0.00     0.031 C 
ATOM     43  C   UNL A   1      44.175  31.853  29.451  1.00  0.00     0.029 A 
ATOM     44  C   UNL A   1      45.122  30.866  28.944  1.00  0.00     0.049 A 
ATOM     45  H   UNL A   1      44.745  28.882  28.438  1.00  0.00     0.167 HD
ATOM     46  C   UNL A   1      43.615  24.664  27.450  1.00  0.00     0.037 A 
ATOM     47  C   UNL A   1      46.430  31.067  28.707  1.00  0.00     0.037 A 
ATOM     48  C   UNL A   1      45.004  24.809  27.110  1.00  0.00     0.049 A 
ATOM     49  C   UNL A   1      47.232  29.915  28.165  1.00  0.00     0.074 A 
ATOM     50  C   UNL A   1      45.859  23.876  26.553  1.00  0.00     0.029 A 
ATOM     51  N   UNL A   1      45.739  25.971  27.300  1.00  0.00    -0.354 N 
ATOM     52  N   UNL A   1      46.837  28.701  27.861  1.00  0.00    -0.248 NA
ATOM     53  C   UNL A   1      48.659  30.161  27.928  1.00  0.00     0.031 C 
ATOM     54  C   UNL A   1      47.126  24.460  26.457  1.00  0.00     0.029 A 
ATOM     55  C   UNL A   1      47.045  25.775  26.891  1.00  0.00     0.049 A 
ATOM     56  H   UNL A   1      45.383  26.811  27.670  1.00  0.00     0.167 HD
ATOM     57  C   UNL A   1      47.956  28.047  27.365  1.00  0.00     0.074 A 
ATOM     58  C   UNL A   1      49.040  29.010  27.393  1.00  0.00     0.031 C 
ATOM     59  C   UNL A   1      48.087  26.770  26.927  1.00  0.00     0.037 A 
BRANCH  46  60
ATOM     60  C   UNL A   1      42.937  23.347  27.211  1.00  0.00     0.057 A 
ATOM     61  C   UNL A   1      42.493  22.961  25.939  1.00  0.00     0.134 A 
ATOM     62  C   UNL A   1      42.755  22.438  28.261  1.00  0.00     0.134 A 
ATOM     63  F   UNL A   1      42.614  23.793  24.894  1.00  0.00    -0.206 F 
ATOM     64  C   UNL A   1      41.882  21.724  25.723  1.00  0.00     0.040 A 
ATOM     65  C   UNL A   1      42.172  21.188  28.052  1.00  0.00     0.040 A 
ATOM     66  F   UNL A   1      43.151  22.747  29.505  1.00  0.00    -0.206 F 
ATOM     67  C   UNL A   1      41.730  20.829  26.780  1.00  0.00     0.006 A 
ENDBRANCH  46  60
BRANCH  47  68
ATOM     68  C   UNL A   1      47.052  32.383  28.994  1.00  0.00     0.057 A 
ATOM     69  C   UNL A   1      47.088  33.398  28.030  1.00  0.00     0.134 A 
ATOM     70  C   UNL A   1      47.649  32.652  30.232  1.00  0.00     0.134 A 
ATOM     71  F   UNL A   1      46.542  33.202  26.822  1.00  0.00    -0.206 F 
ATOM     72  C   UNL A   1      47.726  34.615  28.275  1.00  0.00     0.040 A 
ATOM     73  C   UNL A   1      48.262  33.875  30.501  1.00  0.00     0.040 A 
ATOM     74  F   UNL A   1      47.637  31.729  31.205  1.00  0.00    -0.206 F 
ATOM     75  C   UNL A   1      48.314  34.858  29.515  1.00  0.00     0.006 A 
ENDBRANCH  47  68
BRANCH  59  76
ATOM     76  C   UNL A   1      49.434  26.370  26.404  1.00  0.00     0.057 A 
ATOM     77  C   UNL A   1      50.343  25.639  27.178  1.00  0.00     0.134 A 
ATOM     78  C   UNL A   1      49.807  26.692  25.093  1.00  0.00     0.134 A 
ATOM     79  F   UNL A   1      50.048  25.310  28.445  1.00  0.00    -0.206 F 
ATOM     80  C   UNL A   1      51.591  25.269  26.677  1.00  0.00     0.040 A 
ATOM     81  C   UNL A   1      51.037  26.297  24.568  1.00  0.00     0.040 A 
ATOM     82  F   UNL A   1      48.976  27.379  24.295  1.00  0.00    -0.206 F 
ATOM     83  C   UNL A   1      51.937  25.592  25.366  1.00  0.00     0.006 A 
ENDBRANCH  59  76
ENDBRANCH  33  34
ENDBRANCH  26  28
ENDBRANCH  25  26
ENDBRANCH  24  25
ENDBRANCH  23  24
ENDBRANCH  22  23
ENDBRANCH  21  22
ENDBRANCH   1  21
TORSDOF 20
ENDMDL
MODEL 3
REMARK VINA RESULT:      -9.3      5.364      9.010
REMARK SMILES CC(C)OCCS(=O)(=O)N[C@@H]1COC[C@@H]1C(=O)OCCOCCOC(=O)c1ccc(-c2c3nc(c(-c4c(F)cccc4F)c4ccc([nH]4)c(-c4c(F)cccc4F)c4nc(c(-c5c(F)cccc5F)c5ccc2[nH]5)C=C4)C=C3)cc1
REMARK SMILES IDX 19 1 18 2 16 3 17 4 15 5 11 6 12 7 13 8 14 9 10 10 7 12 8 13
REMARK SMILES IDX 9 14 6 15 5 16 4 17 2 18 1 19 3 20 20 21 21 22 22 23 23 24
REMARK SMILES IDX 24 25 25 26 26 27 27 28 28 29 80 30 29 31 79 32 30 33 31 34
REMARK SMILES IDX 32 35 73 36 33 37 78 38 72 39 74 40 34 41 77 42 71 43 70 44
REMARK SMILES IDX 35 46 61 47 44 48 60 49 45 50 48 51 59 52 75 53 46 54 47 55
REMARK SMILES IDX 58 57 76 58 49 59 36 60 37 61 42 62 38 63 39 64 41 65 43 66
REMARK SMILES IDX 40 67 62 68 63 69 68 70 64 71 65 72 67 73 69 74 66 75 50 76
REMARK SMILES IDX 51 77 56 78 52 79 53 80 55 81 57 82 54 83
REMARK H PARENT 10 11 74 45 48 56
REMARK Flexibility Score: inf
ROOT
ATOM      1  C   UNL A   1      36.705  34.636  33.402  1.00  0.00     0.261 C 
ENDROOT
BRANCH   1   2
ATOM      2  O   UNL A   1      35.860  35.323  32.464  1.00  0.00    -0.463 OA
BRANCH   2   3
ATOM      3  C   UNL A   1      34.627  35.703  32.916  1.00  0.00     0.313 C 
ATOM      4  O   UNL A   1      34.412  36.475  33.837  1.00  0.00    -0.252 OA
BRANCH   3   5
ATOM      5  C   UNL A   1      33.576  35.045  32.059  1.00  0.00     0.145 C 
ATOM      6  C   UNL A   1      33.692  35.207  30.558  1.00  0.00     0.112 C 
ATOM      7  C   UNL A   1      33.265  36.656  30.375  1.00  0.00     0.181 C 
ATOM      8  O   UNL A   1      32.221  36.870  31.348  1.00  0.00    -0.379 OA
ATOM      9  C   UNL A   1      32.271  35.790  32.304  1.00  0.00     0.177 C 
BRANCH   6  10
ATOM     10  N   UNL A   1      34.914  34.833  29.805  1.00  0.00    -0.209 NA
ATOM     11  H   UNL A   1      35.242  35.692  29.364  1.00  0.00     0.141 HD
BRANCH  10  12
ATOM     12  S   UNL A   1      34.941  33.667  28.609  1.00  0.00     0.214 S 
ATOM     13  O   UNL A   1      34.524  34.317  27.391  1.00  0.00    -0.212 OA
ATOM     14  O   UNL A   1      34.146  32.592  29.164  1.00  0.00    -0.212 OA
BRANCH  12  15
ATOM     15  C   UNL A   1      36.595  32.990  28.367  1.00  0.00     0.182 C 
BRANCH  15  16
ATOM     16  C   UNL A   1      37.701  33.872  28.952  1.00  0.00     0.178 C 
BRANCH  16  17
ATOM     17  O   UNL A   1      38.026  33.654  30.325  1.00  0.00    -0.378 OA
BRANCH  17  18
ATOM     18  C   UNL A   1      39.340  33.945  30.795  1.00  0.00     0.112 C 
ATOM     19  C   UNL A   1      40.013  32.804  31.553  1.00  0.00     0.038 C 
ATOM     20  C   UNL A   1      40.148  34.576  29.667  1.00  0.00     0.038 C 
ENDBRANCH  17  18
ENDBRANCH  16  17
ENDBRANCH  15  16
ENDBRANCH  12  15
ENDBRANCH  10  12
ENDBRANCH   6  10
ENDBRANCH   3   5
ENDBRANCH   2   3
ENDBRANCH   1   2
BRANCH   1  21
ATOM     21  C   UNL A   1      35.881  33.793  34.383  1.00  0.00     0.202 C 
BRANCH  21  22
ATOM     22  O   UNL A   1      36.034  32.379  34.262  1.00  0.00    -0.374 OA
BRANCH  22  23
ATOM     23  C   UNL A   1      36.741  31.945  33.100  1.00  0.00     0.202 C 
BRANCH  23  24
ATOM     24  C   UNL A   1      35.887  31.322  31.992  1.00  0.00     0.261 C 
BRANCH  24  25
ATOM     25  O   UNL A   1      36.335  29.991  31.739  1.00  0.00    -0.460 OA
BRANCH  25  26
ATOM     26  C   UNL A   1      36.459  29.717  30.424  1.00  0.00     0.338 C 
ATOM     27  O   UNL A   1      35.600  29.688  29.570  1.00  0.00    -0.246 OA
BRANCH  26  28
ATOM     28  C   UNL A   1      37.893  29.656  30.135  1.00  0.00     0.060 A 
ATOM     29  C   UNL A   1      38.272  29.939  28.820  1.00  0.00     0.016 A 
ATOM     30  C   UNL A   1      38.826  29.323  31.120  1.00  0.00     0.016 A 
ATOM     31  C   UNL A   1      39.598  29.803  28.459  1.00  0.00     0.010 A 
ATOM     32  C   UNL A   1      40.158  29.186  30.757  1.00  0.00     0.010 A 
ATOM     33  C   UNL A   1      40.524  29.370  29.414  1.00  0.00    -0.014 A 
BRANCH  33  34
ATOM     34  C   UNL A   1      41.832  28.900  28.939  1.00  0.00     0.031 A 
ATOM     35  C   UNL A   1      42.971  29.875  28.953  1.00  0.00     0.074 A 
ATOM     36  C   UNL A   1      41.981  27.613  28.594  1.00  0.00     0.049 A 
ATOM     37  N   UNL A   1      44.214  29.696  28.599  1.00  0.00    -0.248 NA
ATOM     38  C   UNL A   1      42.671  31.239  29.428  1.00  0.00     0.031 C 
ATOM     39  C   UNL A   1      40.917  26.608  28.604  1.00  0.00     0.029 A 
ATOM     40  N   UNL A   1      43.089  26.932  28.179  1.00  0.00    -0.354 N 
ATOM     41  C   UNL A   1      44.839  30.919  28.808  1.00  0.00     0.074 A 
ATOM     42  C   UNL A   1      43.836  31.847  29.273  1.00  0.00     0.031 C 
ATOM     43  C   UNL A   1      41.428  25.431  28.211  1.00  0.00     0.029 A 
ATOM     44  C   UNL A   1      42.840  25.614  27.891  1.00  0.00     0.049 A 
ATOM     45  H   UNL A   1      43.978  27.345  28.095  1.00  0.00     0.167 HD
ATOM     46  C   UNL A   1      46.145  31.224  28.639  1.00  0.00     0.037 A 
ATOM     47  C   UNL A   1      43.672  24.679  27.401  1.00  0.00     0.037 A 
ATOM     48  C   UNL A   1      47.116  30.272  28.175  1.00  0.00     0.049 A 
ATOM     49  C   UNL A   1      45.104  25.070  27.154  1.00  0.00     0.074 A 
ATOM     50  C   UNL A   1      48.469  30.453  27.957  1.00  0.00     0.029 A 
ATOM     51  N   UNL A   1      46.827  28.951  27.857  1.00  0.00    -0.354 N 
ATOM     52  N   UNL A   1      45.696  26.222  27.365  1.00  0.00    -0.248 NA
ATOM     53  C   UNL A   1      45.985  24.032  26.607  1.00  0.00     0.031 C 
ATOM     54  C   UNL A   1      48.987  29.255  27.455  1.00  0.00     0.029 A 
ATOM     55  C   UNL A   1      47.972  28.310  27.424  1.00  0.00     0.049 A 
ATOM     56  H   UNL A   1      45.939  28.534  27.931  1.00  0.00     0.167 HD
ATOM     57  C   UNL A   1      47.024  26.041  27.010  1.00  0.00     0.074 A 
ATOM     58  C   UNL A   1      47.152  24.659  26.588  1.00  0.00     0.031 C 
ATOM     59  C   UNL A   1      48.051  26.927  27.025  1.00  0.00     0.037 A 
BRANCH  46  60
ATOM     60  C   UNL A   1      46.581  32.629  28.933  1.00  0.00     0.057 A 
ATOM     61  C   UNL A   1      47.020  33.020  30.205  1.00  0.00     0.134 A 
ATOM     62  C   UNL A   1      46.594  33.598  27.922  1.00  0.00     0.134 A 
ATOM     63  F   UNL A   1      47.011  32.148  31.226  1.00  0.00    -0.206 F 
ATOM     64  C   UNL A   1      47.445  34.324  30.463  1.00  0.00     0.040 A 
ATOM     65  C   UNL A   1      47.043  34.898  28.161  1.00  0.00     0.040 A 
ATOM     66  F   UNL A   1      46.181  33.294  26.682  1.00  0.00    -0.206 F 
ATOM     67  C   UNL A   1      47.467  35.265  29.436  1.00  0.00     0.006 A 
ENDBRANCH  46  60
BRANCH  47  68
ATOM     68  C   UNL A   1      43.174  23.313  27.099  1.00  0.00     0.057 A 
ATOM     69  C   UNL A   1      42.934  22.384  28.117  1.00  0.00     0.134 A 
ATOM     70  C   UNL A   1      42.949  22.896  25.781  1.00  0.00     0.134 A 
ATOM     71  F   UNL A   1      43.136  22.718  29.399  1.00  0.00    -0.206 F 
ATOM     72  C   UNL A   1      42.524  21.079  27.834  1.00  0.00     0.040 A 
ATOM     73  C   UNL A   1      42.510  21.605  25.485  1.00  0.00     0.040 A 
ATOM     74  F   UNL A   1      43.145  23.741  24.758  1.00  0.00    -0.206 F 
ATOM     75  C   UNL A   1      42.309  20.687  26.514  1.00  0.00     0.006 A 
ENDBRANCH  47  68
BRANCH  59  76
ATOM     76  C   UNL A   1      49.398  26.407  26.619  1.00  0.00     0.057 A 
ATOM     77  C   UNL A   1      49.886  26.553  25.315  1.00  0.00     0.134 A 
ATOM     78  C   UNL A   1      50.229  25.786  27.560  1.00  0.00     0.134 A 
ATOM     79  F   UNL A   1      49.132  27.129  24.366  1.00  0.00    -0.206 F 
ATOM     80  C   UNL A   1      51.143  26.069  24.952  1.00  0.00     0.040 A 
ATOM     81  C   UNL A   1      51.502  25.331  27.218  1.00  0.00     0.040 A 
ATOM     82  F   UNL A   1      49.826  25.629  28.829  1.00  0.00    -0.206 F 
ATOM     83  C   UNL A   1      51.957  25.463  25.907  1.00  0.00     0.006 A 
ENDBRANCH  59  76
ENDBRANCH  33  34
ENDBRANCH  26  28
ENDBRANCH  25  26
ENDBRANCH  24  25
ENDBRANCH  23  24
ENDBRANCH  22  23
ENDBRANCH  21  22
ENDBRANCH   1  21
TORSDOF 20
ENDMDL
