MODEL 1
REMARK VINA RESULT:     -12.0      0.000      0.000
REMARK SMILES C[C@H](C(=O)OCCOCCOC(=O)c1ccc(-c2c3nc(c(-c4c(F)cccc4F)c4ccc([nH]4)c(-c4c(F)cccc4F)c4nc(c(-c5c(F)cccc5F)c5ccc2[nH]5)C=C4)C=C3)cc1)c1ccc2c3cc(Cl)ccc3n(C(=O)c3cocn3)c2c1
REMARK SMILES IDX 7 1 6 2 5 3 3 4 4 5 2 6 1 7 68 8 69 9 88 10 70 11 87 12
REMARK SMILES IDX 71 13 79 14 72 15 78 16 73 17 77 18 74 19 76 20 75 21 80 22
REMARK SMILES IDX 81 23 82 24 83 25 86 26 84 27 85 28 8 29 9 30 10 31 11 32
REMARK SMILES IDX 12 33 13 34 14 35 15 36 67 37 16 38 66 39 17 40 18 41 19 42
REMARK SMILES IDX 60 43 20 44 65 45 59 46 61 47 21 48 64 49 58 50 57 51 22 53
REMARK SMILES IDX 48 54 31 55 47 56 32 57 35 58 46 59 62 60 33 61 34 62 45 64
REMARK SMILES IDX 63 65 36 66 23 67 24 68 29 69 25 70 26 71 28 72 30 73 27 74
REMARK SMILES IDX 49 75 50 76 55 77 51 78 52 79 54 80 56 81 53 82 37 83 38 84
REMARK SMILES IDX 43 85 39 86 40 87 42 88 44 89 41 90
REMARK H PARENT 61 52 35 63
REMARK Flexibility Score: inf
ROOT
ATOM      1  C   UNL A   1      32.637  29.772  26.586  1.00  0.00     0.202 C 
ENDROOT
BRANCH   1   2
ATOM      2  C   UNL A   1      32.233  29.766  25.109  1.00  0.00     0.261 C 
BRANCH   2   3
ATOM      3  O   UNL A   1      30.975  29.101  24.887  1.00  0.00    -0.463 OA
BRANCH   3   4
ATOM      4  C   UNL A   1      31.008  28.076  23.996  1.00  0.00     0.313 C 
ATOM      5  O   UNL A   1      31.221  28.214  22.794  1.00  0.00    -0.252 OA
BRANCH   4   6
ATOM      6  C   UNL A   1      30.843  26.697  24.613  1.00  0.00     0.126 C 
ATOM      7  C   UNL A   1      29.673  25.937  23.979  1.00  0.00     0.025 C 
BRANCH   6   8
ATOM      8  C   UNL A   1      32.063  25.791  24.738  1.00  0.00    -0.032 A 
ATOM      9  C   UNL A   1      33.281  26.404  25.048  1.00  0.00     0.005 A 
ATOM     10  C   UNL A   1      31.995  24.381  24.681  1.00  0.00     0.032 A 
ATOM     11  C   UNL A   1      34.408  25.650  25.356  1.00  0.00     0.011 A 
ATOM     12  C   UNL A   1      33.155  23.611  24.967  1.00  0.00     0.058 A 
ATOM     13  C   UNL A   1      34.344  24.245  25.319  1.00  0.00     0.008 A 
ATOM     14  N   UNL A   1      33.391  22.212  25.026  1.00  0.00    -0.274 N 
ATOM     15  C   UNL A   1      35.325  23.247  25.525  1.00  0.00     0.009 A 
ATOM     16  C   UNL A   1      34.787  22.036  25.078  1.00  0.00     0.057 A 
ATOM     17  C   UNL A   1      36.669  23.324  25.940  1.00  0.00     0.031 A 
ATOM     18  C   UNL A   1      35.650  20.957  24.809  1.00  0.00     0.029 A 
ATOM     19  C   UNL A   1      37.489  22.215  25.784  1.00  0.00     0.041 A 
ATOM     20  C   UNL A   1      37.002  21.065  25.178  1.00  0.00     0.023 A 
ATOM     21  Cl  UNL A   1      39.131  22.303  26.289  1.00  0.00    -0.084 Cl
BRANCH  14  22
ATOM     22  C   UNL A   1      32.354  21.226  25.058  1.00  0.00     0.284 C 
ATOM     23  O   UNL A   1      31.380  21.518  25.751  1.00  0.00    -0.266 OA
BRANCH  22  24
ATOM     24  C   UNL A   1      32.320  19.922  24.380  1.00  0.00     0.167 A 
ATOM     25  C   UNL A   1      32.256  19.576  23.049  1.00  0.00     0.231 A 
ATOM     26  N   UNL A   1      32.484  18.741  25.110  1.00  0.00    -0.211 NA
ATOM     27  O   UNL A   1      32.308  18.213  22.942  1.00  0.00    -0.451 OA
ATOM     28  C   UNL A   1      32.458  17.783  24.219  1.00  0.00     0.308 A 
ENDBRANCH  22  24
ENDBRANCH  14  22
ENDBRANCH   6   8
ENDBRANCH   4   6
ENDBRANCH   3   4
ENDBRANCH   2   3
ENDBRANCH   1   2
BRANCH   1  29
ATOM     29  O   UNL A   1      32.668  31.032  27.257  1.00  0.00    -0.374 OA
BRANCH  29  30
ATOM     30  C   UNL A   1      31.733  32.023  26.836  1.00  0.00     0.202 C 
BRANCH  30  31
ATOM     31  C   UNL A   1      32.167  33.489  26.917  1.00  0.00     0.261 C 
BRANCH  31  32
ATOM     32  O   UNL A   1      32.257  33.945  28.272  1.00  0.00    -0.460 OA
BRANCH  32  33
ATOM     33  C   UNL A   1      33.358  34.674  28.565  1.00  0.00     0.338 C 
ATOM     34  O   UNL A   1      33.434  35.888  28.681  1.00  0.00    -0.246 OA
BRANCH  33  35
ATOM     35  C   UNL A   1      34.476  33.764  28.883  1.00  0.00     0.060 A 
ATOM     36  C   UNL A   1      34.242  32.645  29.685  1.00  0.00     0.016 A 
ATOM     37  C   UNL A   1      35.764  34.039  28.430  1.00  0.00     0.016 A 
ATOM     38  C   UNL A   1      35.315  31.856  30.101  1.00  0.00     0.010 A 
ATOM     39  C   UNL A   1      36.839  33.256  28.840  1.00  0.00     0.010 A 
ATOM     40  C   UNL A   1      36.624  32.191  29.721  1.00  0.00    -0.014 A 
BRANCH  40  41
ATOM     41  C   UNL A   1      37.779  31.498  30.330  1.00  0.00     0.031 A 
ATOM     42  C   UNL A   1      38.178  31.827  31.742  1.00  0.00     0.074 A 
ATOM     43  C   UNL A   1      38.474  30.598  29.616  1.00  0.00     0.049 A 
ATOM     44  N   UNL A   1      39.125  31.303  32.477  1.00  0.00    -0.248 NA
ATOM     45  C   UNL A   1      37.420  32.897  32.410  1.00  0.00     0.031 C 
ATOM     46  C   UNL A   1      38.198  30.231  28.228  1.00  0.00     0.029 A 
ATOM     47  N   UNL A   1      39.560  29.837  29.959  1.00  0.00    -0.354 N 
ATOM     48  C   UNL A   1      39.066  31.966  33.697  1.00  0.00     0.074 A 
ATOM     49  C   UNL A   1      38.029  32.967  33.585  1.00  0.00     0.031 C 
ATOM     50  C   UNL A   1      39.093  29.310  27.837  1.00  0.00     0.029 A 
ATOM     51  C   UNL A   1      40.009  29.034  28.941  1.00  0.00     0.049 A 
ATOM     52  H   UNL A   1      39.977  29.864  30.851  1.00  0.00     0.167 HD
ATOM     53  C   UNL A   1      39.802  31.743  34.813  1.00  0.00     0.037 A 
ATOM     54  C   UNL A   1      41.044  28.175  28.909  1.00  0.00     0.037 A 
ATOM     55  C   UNL A   1      40.843  30.751  34.907  1.00  0.00     0.049 A 
ATOM     56  C   UNL A   1      41.869  27.971  30.151  1.00  0.00     0.074 A 
ATOM     57  C   UNL A   1      41.610  30.406  36.006  1.00  0.00     0.029 A 
ATOM     58  N   UNL A   1      41.277  29.959  33.853  1.00  0.00    -0.354 N 
ATOM     59  N   UNL A   1      41.744  28.531  31.330  1.00  0.00    -0.248 NA
ATOM     60  C   UNL A   1      42.970  27.002  30.062  1.00  0.00     0.031 C 
ATOM     61  C   UNL A   1      42.550  29.453  35.602  1.00  0.00     0.029 A 
ATOM     62  C   UNL A   1      42.326  29.153  34.268  1.00  0.00     0.049 A 
ATOM     63  H   UNL A   1      40.895  29.967  32.946  1.00  0.00     0.167 HD
ATOM     64  C   UNL A   1      42.725  27.959  32.131  1.00  0.00     0.074 A 
ATOM     65  C   UNL A   1      43.428  26.999  31.305  1.00  0.00     0.031 C 
ATOM     66  C   UNL A   1      43.016  28.202  33.434  1.00  0.00     0.037 A 
BRANCH  53  67
ATOM     67  C   UNL A   1      39.514  32.588  36.022  1.00  0.00     0.057 A 
ATOM     68  C   UNL A   1      38.580  32.201  36.992  1.00  0.00     0.134 A 
ATOM     69  C   UNL A   1      40.223  33.775  36.251  1.00  0.00     0.134 A 
ATOM     70  F   UNL A   1      37.860  31.080  36.834  1.00  0.00    -0.206 F 
ATOM     71  C   UNL A   1      38.344  32.974  38.131  1.00  0.00     0.040 A 
ATOM     72  C   UNL A   1      40.018  34.541  37.399  1.00  0.00     0.040 A 
ATOM     73  F   UNL A   1      41.138  34.204  35.367  1.00  0.00    -0.206 F 
ATOM     74  C   UNL A   1      39.072  34.144  38.342  1.00  0.00     0.006 A 
ENDBRANCH  53  67
BRANCH  54  75
ATOM     75  C   UNL A   1      41.338  27.421  27.666  1.00  0.00     0.057 A 
ATOM     76  C   UNL A   1      42.196  27.940  26.689  1.00  0.00     0.134 A 
ATOM     77  C   UNL A   1      40.770  26.165  27.423  1.00  0.00     0.134 A 
ATOM     78  F   UNL A   1      42.758  29.146  26.858  1.00  0.00    -0.206 F 
ATOM     79  C   UNL A   1      42.460  27.249  25.507  1.00  0.00     0.040 A 
ATOM     80  C   UNL A   1      41.047  25.449  26.258  1.00  0.00     0.040 A 
ATOM     81  F   UNL A   1      39.946  25.607  28.325  1.00  0.00    -0.206 F 
ATOM     82  C   UNL A   1      41.889  25.997  25.291  1.00  0.00     0.006 A 
ENDBRANCH  54  75
BRANCH  66  83
ATOM     83  C   UNL A   1      44.120  27.393  34.055  1.00  0.00     0.057 A 
ATOM     84  C   UNL A   1      43.888  26.134  34.626  1.00  0.00     0.134 A 
ATOM     85  C   UNL A   1      45.439  27.866  34.052  1.00  0.00     0.134 A 
ATOM     86  F   UNL A   1      42.647  25.626  34.673  1.00  0.00    -0.206 F 
ATOM     87  C   UNL A   1      44.922  25.390  35.197  1.00  0.00     0.040 A 
ATOM     88  C   UNL A   1      46.486  27.117  34.590  1.00  0.00     0.040 A 
ATOM     89  F   UNL A   1      45.734  29.058  33.511  1.00  0.00    -0.206 F 
ATOM     90  C   UNL A   1      46.227  25.879  35.174  1.00  0.00     0.006 A 
ENDBRANCH  66  83
ENDBRANCH  40  41
ENDBRANCH  33  35
ENDBRANCH  32  33
ENDBRANCH  31  32
ENDBRANCH  30  31
ENDBRANCH  29  30
ENDBRANCH   1  29
TORSDOF 17
ENDMDL
MODEL 2
REMARK VINA RESULT:     -11.8      2.999      8.135
REMARK SMILES C[C@H](C(=O)OCCOCCOC(=O)c1ccc(-c2c3nc(c(-c4c(F)cccc4F)c4ccc([nH]4)c(-c4c(F)cccc4F)c4nc(c(-c5c(F)cccc5F)c5ccc2[nH]5)C=C4)C=C3)cc1)c1ccc2c3cc(Cl)ccc3n(C(=O)c3cocn3)c2c1
REMARK SMILES IDX 7 1 6 2 5 3 3 4 4 5 2 6 1 7 68 8 69 9 88 10 70 11 87 12
REMARK SMILES IDX 71 13 79 14 72 15 78 16 73 17 77 18 74 19 76 20 75 21 80 22
REMARK SMILES IDX 81 23 82 24 83 25 86 26 84 27 85 28 8 29 9 30 10 31 11 32
REMARK SMILES IDX 12 33 13 34 14 35 15 36 67 37 16 38 66 39 17 40 18 41 19 42
REMARK SMILES IDX 60 43 20 44 65 45 59 46 61 47 21 48 64 49 58 50 57 51 22 53
REMARK SMILES IDX 48 54 31 55 47 56 32 57 35 58 46 59 62 60 33 61 34 62 45 64
REMARK SMILES IDX 63 65 36 66 23 67 24 68 29 69 25 70 26 71 28 72 30 73 27 74
REMARK SMILES IDX 49 75 50 76 55 77 51 78 52 79 54 80 56 81 53 82 37 83 38 84
REMARK SMILES IDX 43 85 39 86 40 87 42 88 44 89 41 90
REMARK H PARENT 61 52 35 63
REMARK Flexibility Score: inf
ROOT
ATOM      1  C   UNL A   1      36.571  20.620  25.197  1.00  0.00     0.202 C 
ENDROOT
BRANCH   1   2
ATOM      2  C   UNL A   1      35.277  21.158  24.580  1.00  0.00     0.261 C 
BRANCH   2   3
ATOM      3  O   UNL A   1      34.106  20.742  25.309  1.00  0.00    -0.463 OA
BRANCH   3   4
ATOM      4  C   UNL A   1      32.940  21.313  24.911  1.00  0.00     0.313 C 
ATOM      5  O   UNL A   1      31.836  21.003  25.353  1.00  0.00    -0.252 OA
BRANCH   4   6
ATOM      6  C   UNL A   1      33.099  22.452  23.917  1.00  0.00     0.126 C 
ATOM      7  C   UNL A   1      32.182  22.268  22.704  1.00  0.00     0.025 C 
BRANCH   6   8
ATOM      8  C   UNL A   1      33.034  23.889  24.422  1.00  0.00    -0.032 A 
ATOM      9  C   UNL A   1      33.955  24.259  25.406  1.00  0.00     0.005 A 
ATOM     10  C   UNL A   1      32.190  24.874  23.862  1.00  0.00     0.032 A 
ATOM     11  C   UNL A   1      34.093  25.586  25.800  1.00  0.00     0.011 A 
ATOM     12  C   UNL A   1      32.311  26.225  24.287  1.00  0.00     0.058 A 
ATOM     13  C   UNL A   1      33.268  26.575  25.235  1.00  0.00     0.008 A 
ATOM     14  N   UNL A   1      31.648  27.419  23.897  1.00  0.00    -0.274 N 
ATOM     15  C   UNL A   1      33.150  27.963  25.480  1.00  0.00     0.009 A 
ATOM     16  C   UNL A   1      31.979  28.399  24.852  1.00  0.00     0.057 A 
ATOM     17  C   UNL A   1      33.892  28.838  26.299  1.00  0.00     0.031 A 
ATOM     18  C   UNL A   1      31.410  29.629  25.233  1.00  0.00     0.029 A 
ATOM     19  C   UNL A   1      33.383  30.099  26.575  1.00  0.00     0.041 A 
ATOM     20  C   UNL A   1      32.136  30.471  26.094  1.00  0.00     0.023 A 
ATOM     21  Cl  UNL A   1      34.284  31.172  27.573  1.00  0.00    -0.084 Cl
BRANCH  14  22
ATOM     22  C   UNL A   1      30.839  27.538  22.723  1.00  0.00     0.284 C 
ATOM     23  O   UNL A   1      31.212  26.865  21.763  1.00  0.00    -0.266 OA
BRANCH  22  24
ATOM     24  C   UNL A   1      29.639  28.366  22.527  1.00  0.00     0.167 A 
ATOM     25  C   UNL A   1      28.375  28.299  23.067  1.00  0.00     0.231 A 
ATOM     26  N   UNL A   1      29.701  29.529  21.754  1.00  0.00    -0.211 NA
ATOM     27  O   UNL A   1      27.635  29.349  22.595  1.00  0.00    -0.451 OA
ATOM     28  C   UNL A   1      28.503  30.050  21.825  1.00  0.00     0.308 A 
ENDBRANCH  22  24
ENDBRANCH  14  22
ENDBRANCH   6   8
ENDBRANCH   4   6
ENDBRANCH   3   4
ENDBRANCH   2   3
ENDBRANCH   1   2
BRANCH   1  29
ATOM     29  O   UNL A   1      37.480  21.569  25.755  1.00  0.00    -0.374 OA
BRANCH  29  30
ATOM     30  C   UNL A   1      37.435  22.899  25.245  1.00  0.00     0.202 C 
BRANCH  30  31
ATOM     31  C   UNL A   1      38.196  23.981  26.017  1.00  0.00     0.261 C 
BRANCH  31  32
ATOM     32  O   UNL A   1      39.312  23.441  26.733  1.00  0.00    -0.460 OA
BRANCH  32  33
ATOM     33  C   UNL A   1      40.424  24.213  26.740  1.00  0.00     0.338 C 
ATOM     34  O   UNL A   1      41.441  24.054  26.082  1.00  0.00    -0.246 OA
BRANCH  33  35
ATOM     35  C   UNL A   1      40.184  25.407  27.575  1.00  0.00     0.060 A 
ATOM     36  C   UNL A   1      40.920  26.569  27.336  1.00  0.00     0.016 A 
ATOM     37  C   UNL A   1      39.268  25.365  28.623  1.00  0.00     0.016 A 
ATOM     38  C   UNL A   1      40.798  27.655  28.203  1.00  0.00     0.010 A 
ATOM     39  C   UNL A   1      39.140  26.445  29.492  1.00  0.00     0.010 A 
ATOM     40  C   UNL A   1      39.944  27.576  29.314  1.00  0.00    -0.014 A 
BRANCH  40  41
ATOM     41  C   UNL A   1      39.971  28.627  30.353  1.00  0.00     0.031 A 
ATOM     42  C   UNL A   1      38.995  29.769  30.274  1.00  0.00     0.074 A 
ATOM     43  C   UNL A   1      40.874  28.568  31.345  1.00  0.00     0.049 A 
ATOM     44  N   UNL A   1      38.819  30.765  31.103  1.00  0.00    -0.248 NA
ATOM     45  C   UNL A   1      38.111  29.802  29.097  1.00  0.00     0.031 C 
ATOM     46  C   UNL A   1      41.890  27.528  31.497  1.00  0.00     0.029 A 
ATOM     47  N   UNL A   1      41.086  29.408  32.406  1.00  0.00    -0.354 N 
ATOM     48  C   UNL A   1      37.795  31.532  30.561  1.00  0.00     0.074 A 
ATOM     49  C   UNL A   1      37.427  30.918  29.304  1.00  0.00     0.031 C 
ATOM     50  C   UNL A   1      42.619  27.791  32.593  1.00  0.00     0.029 A 
ATOM     51  C   UNL A   1      42.129  29.022  33.210  1.00  0.00     0.049 A 
ATOM     52  H   UNL A   1      40.542  30.212  32.575  1.00  0.00     0.167 HD
ATOM     53  C   UNL A   1      37.206  32.638  31.077  1.00  0.00     0.037 A 
ATOM     54  C   UNL A   1      42.628  29.601  34.317  1.00  0.00     0.037 A 
ATOM     55  C   UNL A   1      37.591  33.247  32.324  1.00  0.00     0.049 A 
ATOM     56  C   UNL A   1      41.979  30.849  34.852  1.00  0.00     0.074 A 
ATOM     57  C   UNL A   1      37.024  34.335  32.964  1.00  0.00     0.029 A 
ATOM     58  N   UNL A   1      38.657  32.833  33.110  1.00  0.00    -0.354 N 
ATOM     59  N   UNL A   1      40.949  31.512  34.385  1.00  0.00    -0.248 NA
ATOM     60  C   UNL A   1      42.553  31.420  36.078  1.00  0.00     0.031 C 
ATOM     61  C   UNL A   1      37.785  34.619  34.103  1.00  0.00     0.029 A 
ATOM     62  C   UNL A   1      38.786  33.667  34.210  1.00  0.00     0.049 A 
ATOM     63  H   UNL A   1      39.235  32.061  32.917  1.00  0.00     0.167 HD
ATOM     64  C   UNL A   1      40.730  32.555  35.276  1.00  0.00     0.074 A 
ATOM     65  C   UNL A   1      41.728  32.428  36.318  1.00  0.00     0.031 C 
ATOM     66  C   UNL A   1      39.786  33.529  35.238  1.00  0.00     0.037 A 
BRANCH  53  67
ATOM     67  C   UNL A   1      36.086  33.265  30.295  1.00  0.00     0.057 A 
ATOM     68  C   UNL A   1      34.748  33.153  30.695  1.00  0.00     0.134 A 
ATOM     69  C   UNL A   1      36.354  34.041  29.159  1.00  0.00     0.134 A 
ATOM     70  F   UNL A   1      34.418  32.420  31.769  1.00  0.00    -0.206 F 
ATOM     71  C   UNL A   1      33.717  33.769  29.983  1.00  0.00     0.040 A 
ATOM     72  C   UNL A   1      35.335  34.686  28.456  1.00  0.00     0.040 A 
ATOM     73  F   UNL A   1      37.613  34.197  28.722  1.00  0.00    -0.206 F 
ATOM     74  C   UNL A   1      34.011  34.547  28.864  1.00  0.00     0.006 A 
ENDBRANCH  53  67
BRANCH  54  75
ATOM     75  C   UNL A   1      43.787  28.987  35.012  1.00  0.00     0.057 A 
ATOM     76  C   UNL A   1      45.100  29.288  34.635  1.00  0.00     0.134 A 
ATOM     77  C   UNL A   1      43.610  28.083  36.067  1.00  0.00     0.134 A 
ATOM     78  F   UNL A   1      45.333  30.134  33.620  1.00  0.00    -0.206 F 
ATOM     79  C   UNL A   1      46.196  28.698  35.265  1.00  0.00     0.040 A 
ATOM     80  C   UNL A   1      44.696  27.507  36.726  1.00  0.00     0.040 A 
ATOM     81  F   UNL A   1      42.376  27.759  36.482  1.00  0.00    -0.206 F 
ATOM     82  C   UNL A   1      45.995  27.809  36.319  1.00  0.00     0.006 A 
ENDBRANCH  54  75
BRANCH  66  83
ATOM     83  C   UNL A   1      39.766  34.513  36.375  1.00  0.00     0.057 A 
ATOM     84  C   UNL A   1      39.051  34.271  37.555  1.00  0.00     0.134 A 
ATOM     85  C   UNL A   1      40.501  35.703  36.299  1.00  0.00     0.134 A 
ATOM     86  F   UNL A   1      38.317  33.155  37.690  1.00  0.00    -0.206 F 
ATOM     87  C   UNL A   1      39.043  35.190  38.606  1.00  0.00     0.040 A 
ATOM     88  C   UNL A   1      40.528  36.615  37.355  1.00  0.00     0.040 A 
ATOM     89  F   UNL A   1      41.218  35.993  35.203  1.00  0.00    -0.206 F 
ATOM     90  C   UNL A   1      39.789  36.363  38.509  1.00  0.00     0.006 A 
ENDBRANCH  66  83
ENDBRANCH  40  41
ENDBRANCH  33  35
ENDBRANCH  32  33
ENDBRANCH  31  32
ENDBRANCH  30  31
ENDBRANCH  29  30
ENDBRANCH   1  29
TORSDOF 17
ENDMDL
MODEL 3
REMARK VINA RESULT:     -11.8      3.041      8.598
REMARK SMILES C[C@H](C(=O)OCCOCCOC(=O)c1ccc(-c2c3nc(c(-c4c(F)cccc4F)c4ccc([nH]4)c(-c4c(F)cccc4F)c4nc(c(-c5c(F)cccc5F)c5ccc2[nH]5)C=C4)C=C3)cc1)c1ccc2c3cc(Cl)ccc3n(C(=O)c3cocn3)c2c1
REMARK SMILES IDX 7 1 6 2 5 3 3 4 4 5 2 6 1 7 68 8 69 9 88 10 70 11 87 12
REMARK SMILES IDX 71 13 79 14 72 15 78 16 73 17 77 18 74 19 76 20 75 21 80 22
REMARK SMILES IDX 81 23 82 24 83 25 86 26 84 27 85 28 8 29 9 30 10 31 11 32
REMARK SMILES IDX 12 33 13 34 14 35 15 36 67 37 16 38 66 39 17 40 18 41 19 42
REMARK SMILES IDX 60 43 20 44 65 45 59 46 61 47 21 48 64 49 58 50 57 51 22 53
REMARK SMILES IDX 48 54 31 55 47 56 32 57 35 58 46 59 62 60 33 61 34 62 45 64
REMARK SMILES IDX 63 65 36 66 23 67 24 68 29 69 25 70 26 71 28 72 30 73 27 74
REMARK SMILES IDX 49 75 50 76 55 77 51 78 52 79 54 80 56 81 53 82 37 83 38 84
REMARK SMILES IDX 43 85 39 86 40 87 42 88 44 89 41 90
REMARK H PARENT 61 52 35 63
REMARK Flexibility Score: inf
ROOT
ATOM      1  C   UNL A   1      36.898  22.803  24.908  1.00  0.00     0.202 C 
ENDROOT
BRANCH   1   2
ATOM      2  C   UNL A   1      35.645  22.112  24.361  1.00  0.00     0.261 C 
BRANCH   2   3
ATOM      3  O   UNL A   1      34.700  21.787  25.398  1.00  0.00    -0.463 OA
BRANCH   3   4
ATOM      4  C   UNL A   1      33.398  21.756  25.010  1.00  0.00     0.313 C 
ATOM      5  O   UNL A   1      32.969  21.057  24.095  1.00  0.00    -0.252 OA
BRANCH   4   6
ATOM      6  C   UNL A   1      32.464  22.601  25.860  1.00  0.00     0.126 C 
ATOM      7  C   UNL A   1      33.046  22.847  27.256  1.00  0.00     0.025 C 
BRANCH   6   8
ATOM      8  C   UNL A   1      31.903  23.895  25.280  1.00  0.00    -0.032 A 
ATOM      9  C   UNL A   1      31.018  23.779  24.204  1.00  0.00     0.005 A 
ATOM     10  C   UNL A   1      32.134  25.168  25.849  1.00  0.00     0.032 A 
ATOM     11  C   UNL A   1      30.320  24.882  23.724  1.00  0.00     0.011 A 
ATOM     12  C   UNL A   1      31.443  26.300  25.339  1.00  0.00     0.058 A 
ATOM     13  C   UNL A   1      30.531  26.149  24.297  1.00  0.00     0.008 A 
ATOM     14  N   UNL A   1      31.433  27.670  25.711  1.00  0.00    -0.274 N 
ATOM     15  C   UNL A   1      30.015  27.427  23.982  1.00  0.00     0.009 A 
ATOM     16  C   UNL A   1      30.781  28.369  24.677  1.00  0.00     0.057 A 
ATOM     17  C   UNL A   1      29.037  27.843  23.057  1.00  0.00     0.031 A 
ATOM     18  C   UNL A   1      30.748  29.717  24.274  1.00  0.00     0.029 A 
ATOM     19  C   UNL A   1      28.926  29.193  22.751  1.00  0.00     0.041 A 
ATOM     20  C   UNL A   1      29.804  30.111  23.310  1.00  0.00     0.023 A 
ATOM     21  Cl  UNL A   1      27.734  29.706  21.622  1.00  0.00    -0.084 Cl
BRANCH  14  22
ATOM     22  C   UNL A   1      31.973  28.169  26.939  1.00  0.00     0.284 C 
ATOM     23  O   UNL A   1      31.363  27.830  27.952  1.00  0.00    -0.266 OA
BRANCH  22  24
ATOM     24  C   UNL A   1      33.148  29.035  27.128  1.00  0.00     0.167 A 
ATOM     25  C   UNL A   1      33.282  30.311  27.626  1.00  0.00     0.231 A 
ATOM     26  N   UNL A   1      34.434  28.542  26.894  1.00  0.00    -0.211 NA
ATOM     27  O   UNL A   1      34.608  30.644  27.642  1.00  0.00    -0.451 OA
ATOM     28  C   UNL A   1      35.238  29.527  27.202  1.00  0.00     0.308 A 
ENDBRANCH  22  24
ENDBRANCH  14  22
ENDBRANCH   6   8
ENDBRANCH   4   6
ENDBRANCH   3   4
ENDBRANCH   2   3
ENDBRANCH   1   2
BRANCH   1  29
ATOM     29  O   UNL A   1      37.547  22.200  26.028  1.00  0.00    -0.374 OA
BRANCH  29  30
ATOM     30  C   UNL A   1      38.821  21.602  25.805  1.00  0.00     0.202 C 
BRANCH  30  31
ATOM     31  C   UNL A   1      40.044  22.282  26.426  1.00  0.00     0.261 C 
BRANCH  31  32
ATOM     32  O   UNL A   1      39.893  23.706  26.478  1.00  0.00    -0.460 OA
BRANCH  32  33
ATOM     33  C   UNL A   1      41.035  24.401  26.690  1.00  0.00     0.338 C 
ATOM     34  O   UNL A   1      42.130  24.200  26.185  1.00  0.00    -0.246 OA
BRANCH  33  35
ATOM     35  C   UNL A   1      40.742  25.574  27.537  1.00  0.00     0.060 A 
ATOM     36  C   UNL A   1      41.565  26.700  27.458  1.00  0.00     0.016 A 
ATOM     37  C   UNL A   1      39.685  25.547  28.444  1.00  0.00     0.016 A 
ATOM     38  C   UNL A   1      41.379  27.757  28.349  1.00  0.00     0.010 A 
ATOM     39  C   UNL A   1      39.492  26.598  29.335  1.00  0.00     0.010 A 
ATOM     40  C   UNL A   1      40.373  27.685  29.325  1.00  0.00    -0.014 A 
BRANCH  40  41
ATOM     41  C   UNL A   1      40.307  28.693  30.405  1.00  0.00     0.031 A 
ATOM     42  C   UNL A   1      39.303  29.809  30.313  1.00  0.00     0.074 A 
ATOM     43  C   UNL A   1      41.152  28.618  31.445  1.00  0.00     0.049 A 
ATOM     44  N   UNL A   1      39.047  30.764  31.170  1.00  0.00    -0.248 NA
ATOM     45  C   UNL A   1      38.487  29.865  29.089  1.00  0.00     0.031 C 
ATOM     46  C   UNL A   1      42.189  27.602  31.615  1.00  0.00     0.029 A 
ATOM     47  N   UNL A   1      41.276  29.419  32.549  1.00  0.00    -0.354 N 
ATOM     48  C   UNL A   1      38.034  31.523  30.599  1.00  0.00     0.074 A 
ATOM     49  C   UNL A   1      37.758  30.952  29.299  1.00  0.00     0.031 C 
ATOM     50  C   UNL A   1      42.845  27.839  32.762  1.00  0.00     0.029 A 
ATOM     51  C   UNL A   1      42.282  29.029  33.397  1.00  0.00     0.049 A 
ATOM     52  H   UNL A   1      40.699  30.199  32.718  1.00  0.00     0.167 HD
ATOM     53  C   UNL A   1      37.382  32.589  31.124  1.00  0.00     0.037 A 
ATOM     54  C   UNL A   1      42.699  29.575  34.555  1.00  0.00     0.037 A 
ATOM     55  C   UNL A   1      37.675  33.157  32.415  1.00  0.00     0.049 A 
ATOM     56  C   UNL A   1      41.982  30.781  35.099  1.00  0.00     0.074 A 
ATOM     57  C   UNL A   1      37.039  34.200  33.064  1.00  0.00     0.029 A 
ATOM     58  N   UNL A   1      38.706  32.741  33.246  1.00  0.00    -0.354 N 
ATOM     59  N   UNL A   1      40.960  31.433  34.599  1.00  0.00    -0.248 NA
ATOM     60  C   UNL A   1      42.466  31.316  36.379  1.00  0.00     0.031 C 
ATOM     61  C   UNL A   1      37.723  34.458  34.255  1.00  0.00     0.029 A 
ATOM     62  C   UNL A   1      38.746  33.532  34.383  1.00  0.00     0.049 A 
ATOM     63  H   UNL A   1      39.318  31.994  33.056  1.00  0.00     0.167 HD
ATOM     64  C   UNL A   1      40.658  32.432  35.517  1.00  0.00     0.074 A 
ATOM     65  C   UNL A   1      41.598  32.290  36.610  1.00  0.00     0.031 C 
ATOM     66  C   UNL A   1      39.688  33.379  35.463  1.00  0.00     0.037 A 
BRANCH  53  67
ATOM     67  C   UNL A   1      36.291  33.216  30.303  1.00  0.00     0.057 A 
ATOM     68  C   UNL A   1      36.570  34.034  29.199  1.00  0.00     0.134 A 
ATOM     69  C   UNL A   1      34.943  32.953  30.581  1.00  0.00     0.134 A 
ATOM     70  F   UNL A   1      37.838  34.334  28.879  1.00  0.00    -0.206 F 
ATOM     71  C   UNL A   1      35.551  34.584  28.419  1.00  0.00     0.040 A 
ATOM     72  C   UNL A   1      33.917  33.472  29.790  1.00  0.00     0.040 A 
ATOM     73  F   UNL A   1      34.601  32.173  31.618  1.00  0.00    -0.206 F 
ATOM     74  C   UNL A   1      34.219  34.296  28.708  1.00  0.00     0.006 A 
ENDBRANCH  53  67
BRANCH  54  75
ATOM     75  C   UNL A   1      43.834  28.966  35.291  1.00  0.00     0.057 A 
ATOM     76  C   UNL A   1      43.621  27.989  36.271  1.00  0.00     0.134 A 
ATOM     77  C   UNL A   1      45.157  29.345  35.034  1.00  0.00     0.134 A 
ATOM     78  F   UNL A   1      42.374  27.597  36.573  1.00  0.00    -0.206 F 
ATOM     79  C   UNL A   1      44.680  27.428  36.985  1.00  0.00     0.040 A 
ATOM     80  C   UNL A   1      46.228  28.771  35.720  1.00  0.00     0.040 A 
ATOM     81  F   UNL A   1      45.429  30.269  34.100  1.00  0.00    -0.206 F 
ATOM     82  C   UNL A   1      45.989  27.815  36.706  1.00  0.00     0.006 A 
ENDBRANCH  54  75
BRANCH  66  83
ATOM     83  C   UNL A   1      39.572  34.313  36.635  1.00  0.00     0.057 A 
ATOM     84  C   UNL A   1      40.137  35.595  36.623  1.00  0.00     0.134 A 
ATOM     85  C   UNL A   1      38.856  33.934  37.779  1.00  0.00     0.134 A 
ATOM     86  F   UNL A   1      40.845  36.017  35.564  1.00  0.00    -0.206 F 
ATOM     87  C   UNL A   1      40.020  36.455  37.716  1.00  0.00     0.040 A 
ATOM     88  C   UNL A   1      38.703  34.797  38.864  1.00  0.00     0.040 A 
ATOM     89  F   UNL A   1      38.279  32.726  37.853  1.00  0.00    -0.206 F 
ATOM     90  C   UNL A   1      39.295  36.058  38.839  1.00  0.00     0.006 A 
ENDBRANCH  66  83
ENDBRANCH  40  41
ENDBRANCH  33  35
ENDBRANCH  32  33
ENDBRANCH  31  32
ENDBRANCH  30  31
ENDBRANCH  29  30
ENDBRANCH   1  29
TORSDOF 17
ENDMDL
