MODEL 1
REMARK VINA RESULT:     -10.5      0.000      0.000
REMARK SMILES CCCC1CN(c2cc(C(=O)OCCOCCOC(=O)c3ccc(-c4c5nc(c(-c6c(F)cccc6F)c6ccc([nH]6)c(-c6c(F)cccc6F)c6nc(c(-c7c(F)cccc7F)c7ccc4[nH]7)C=C6)C=C5)cc3)ccc2C)C1
REMARK SMILES IDX 14 1 13 2 12 3 10 4 11 5 9 6 7 7 8 8 77 9 76 10 78 11 75 12
REMARK SMILES IDX 6 13 4 14 5 15 79 16 3 17 2 18 1 19 15 20 16 21 17 22 18 23
REMARK SMILES IDX 19 24 20 25 21 26 22 27 74 28 23 29 73 30 24 31 25 32 26 33
REMARK SMILES IDX 67 34 27 35 72 36 66 37 68 38 28 39 71 40 65 41 64 42 29 44
REMARK SMILES IDX 55 45 38 46 54 47 39 48 42 49 53 50 69 51 40 52 41 53 52 55
REMARK SMILES IDX 70 56 43 57 30 58 31 59 36 60 32 61 33 62 35 63 37 64 34 65
REMARK SMILES IDX 56 66 57 67 62 68 58 69 59 70 61 71 63 72 60 73 44 74 45 75
REMARK SMILES IDX 50 76 46 77 47 78 49 79 51 80 48 81
REMARK H PARENT 68 43 42 54
REMARK Flexibility Score: inf
ROOT
ATOM      1  C   UNL A   1      33.260  33.668  27.954  1.00  0.00     0.202 C 
ENDROOT
BRANCH   1   2
ATOM      2  C   UNL A   1      32.239  32.639  27.624  1.00  0.00     0.261 C 
BRANCH   2   3
ATOM      3  O   UNL A   1      32.727  31.721  26.634  1.00  0.00    -0.460 OA
BRANCH   3   4
ATOM      4  C   UNL A   1      33.237  30.483  26.906  1.00  0.00     0.338 C 
ATOM      5  O   UNL A   1      34.099  30.160  27.680  1.00  0.00    -0.246 OA
BRANCH   4   6
ATOM      6  C   UNL A   1      32.420  29.556  26.087  1.00  0.00     0.062 A 
ATOM      7  C   UNL A   1      32.274  27.363  25.037  1.00  0.00     0.040 A 
ATOM      8  C   UNL A   1      32.786  28.207  26.017  1.00  0.00     0.041 A 
ATOM      9  C   UNL A   1      31.297  27.878  24.169  1.00  0.00    -0.028 A 
ATOM     10  C   UNL A   1      30.849  29.210  24.319  1.00  0.00     0.006 A 
ATOM     11  C   UNL A   1      30.675  27.052  23.079  1.00  0.00     0.046 C 
ATOM     12  C   UNL A   1      31.411  30.055  25.275  1.00  0.00     0.016 A 
BRANCH   7  13
ATOM     13  N   UNL A   1      32.795  26.056  24.918  1.00  0.00    -0.371 N 
ATOM     14  C   UNL A   1      34.388  24.784  25.379  1.00  0.00     0.028 C 
ATOM     15  C   UNL A   1      34.020  25.735  24.232  1.00  0.00     0.122 C 
ATOM     16  C   UNL A   1      33.016  25.105  25.971  1.00  0.00     0.122 C 
BRANCH  14  17
ATOM     17  C   UNL A   1      34.593  23.310  25.047  1.00  0.00     0.007 C 
BRANCH  17  18
ATOM     18  C   UNL A   1      36.069  22.915  25.078  1.00  0.00    -0.003 C 
ATOM     19  C   UNL A   1      36.917  23.862  25.917  1.00  0.00     0.004 C 
ENDBRANCH  17  18
ENDBRANCH  14  17
ENDBRANCH   7  13
ENDBRANCH   4   6
ENDBRANCH   3   4
ENDBRANCH   2   3
ENDBRANCH   1   2
BRANCH   1  20
ATOM     20  O   UNL A   1      32.526  34.775  28.436  1.00  0.00    -0.374 OA
BRANCH  20  21
ATOM     21  C   UNL A   1      33.301  35.879  28.843  1.00  0.00     0.202 C 
BRANCH  21  22
ATOM     22  C   UNL A   1      32.964  36.296  30.278  1.00  0.00     0.261 C 
BRANCH  22  23
ATOM     23  O   UNL A   1      33.016  35.145  31.156  1.00  0.00    -0.460 OA
BRANCH  23  24
ATOM     24  C   UNL A   1      34.099  35.054  31.984  1.00  0.00     0.338 C 
ATOM     25  O   UNL A   1      34.580  35.979  32.619  1.00  0.00    -0.246 OA
BRANCH  24  26
ATOM     26  C   UNL A   1      34.797  33.748  31.771  1.00  0.00     0.060 A 
ATOM     27  C   UNL A   1      34.830  32.782  32.800  1.00  0.00     0.016 A 
ATOM     28  C   UNL A   1      35.711  33.674  30.727  1.00  0.00     0.016 A 
ATOM     29  C   UNL A   1      35.894  31.869  32.879  1.00  0.00     0.010 A 
ATOM     30  C   UNL A   1      36.826  32.886  30.896  1.00  0.00     0.010 A 
ATOM     31  C   UNL A   1      36.945  31.997  31.978  1.00  0.00    -0.014 A 
BRANCH  31  32
ATOM     32  C   UNL A   1      38.240  31.308  32.021  1.00  0.00     0.031 A 
ATOM     33  C   UNL A   1      38.357  30.086  31.196  1.00  0.00     0.074 A 
ATOM     34  C   UNL A   1      39.355  31.912  32.506  1.00  0.00     0.049 A 
ATOM     35  N   UNL A   1      39.403  29.346  31.150  1.00  0.00    -0.248 NA
ATOM     36  C   UNL A   1      37.273  29.561  30.368  1.00  0.00     0.031 C 
ATOM     37  C   UNL A   1      40.755  31.689  32.135  1.00  0.00     0.029 A 
ATOM     38  N   UNL A   1      39.466  32.909  33.478  1.00  0.00    -0.354 N 
ATOM     39  C   UNL A   1      39.276  28.490  30.083  1.00  0.00     0.074 A 
ATOM     40  C   UNL A   1      37.891  28.579  29.710  1.00  0.00     0.031 C 
ATOM     41  C   UNL A   1      41.565  32.274  33.040  1.00  0.00     0.029 A 
ATOM     42  C   UNL A   1      40.717  32.794  34.098  1.00  0.00     0.049 A 
ATOM     43  H   UNL A   1      38.779  33.582  33.691  1.00  0.00     0.167 HD
ATOM     44  C   UNL A   1      40.417  27.923  29.599  1.00  0.00     0.037 A 
ATOM     45  C   UNL A   1      40.786  32.553  35.432  1.00  0.00     0.037 A 
ATOM     46  C   UNL A   1      41.536  28.216  30.518  1.00  0.00     0.049 A 
ATOM     47  C   UNL A   1      41.370  31.182  35.599  1.00  0.00     0.074 A 
ATOM     48  C   UNL A   1      42.615  29.083  30.468  1.00  0.00     0.029 A 
ATOM     49  N   UNL A   1      41.416  27.833  31.859  1.00  0.00    -0.354 N 
ATOM     50  N   UNL A   1      41.285  30.264  34.671  1.00  0.00    -0.248 NA
ATOM     51  C   UNL A   1      42.223  30.787  36.711  1.00  0.00     0.031 C 
ATOM     52  C   UNL A   1      43.086  29.276  31.804  1.00  0.00     0.029 A 
ATOM     53  C   UNL A   1      42.314  28.507  32.667  1.00  0.00     0.049 A 
ATOM     54  H   UNL A   1      40.771  27.166  32.187  1.00  0.00     0.167 HD
ATOM     55  C   UNL A   1      42.142  29.250  34.964  1.00  0.00     0.074 A 
ATOM     56  C   UNL A   1      42.669  29.596  36.274  1.00  0.00     0.031 C 
ATOM     57  C   UNL A   1      42.393  28.222  34.101  1.00  0.00     0.037 A 
BRANCH  44  58
ATOM     58  C   UNL A   1      40.584  27.279  28.229  1.00  0.00     0.057 A 
ATOM     59  C   UNL A   1      40.013  26.017  27.965  1.00  0.00     0.134 A 
ATOM     60  C   UNL A   1      41.330  27.788  27.145  1.00  0.00     0.134 A 
ATOM     61  F   UNL A   1      39.261  25.382  28.874  1.00  0.00    -0.206 F 
ATOM     62  C   UNL A   1      40.188  25.325  26.753  1.00  0.00     0.040 A 
ATOM     63  C   UNL A   1      41.510  27.111  25.928  1.00  0.00     0.040 A 
ATOM     64  F   UNL A   1      41.937  28.973  27.172  1.00  0.00    -0.206 F 
ATOM     65  C   UNL A   1      40.942  25.869  25.726  1.00  0.00     0.006 A 
ENDBRANCH  44  58
BRANCH  45  66
ATOM     66  C   UNL A   1      39.671  33.228  36.170  1.00  0.00     0.057 A 
ATOM     67  C   UNL A   1      38.588  32.419  36.587  1.00  0.00     0.134 A 
ATOM     68  C   UNL A   1      39.866  34.416  36.885  1.00  0.00     0.134 A 
ATOM     69  F   UNL A   1      38.357  31.241  35.984  1.00  0.00    -0.206 F 
ATOM     70  C   UNL A   1      37.822  32.715  37.723  1.00  0.00     0.040 A 
ATOM     71  C   UNL A   1      39.118  34.709  38.039  1.00  0.00     0.040 A 
ATOM     72  F   UNL A   1      40.881  35.237  36.577  1.00  0.00    -0.206 F 
ATOM     73  C   UNL A   1      38.120  33.841  38.484  1.00  0.00     0.006 A 
ENDBRANCH  45  66
BRANCH  57  74
ATOM     74  C   UNL A   1      42.799  26.850  34.567  1.00  0.00     0.057 A 
ATOM     75  C   UNL A   1      41.905  25.925  35.130  1.00  0.00     0.134 A 
ATOM     76  C   UNL A   1      44.082  26.338  34.276  1.00  0.00     0.134 A 
ATOM     77  F   UNL A   1      40.613  26.212  35.334  1.00  0.00    -0.206 F 
ATOM     78  C   UNL A   1      42.280  24.619  35.455  1.00  0.00     0.040 A 
ATOM     79  C   UNL A   1      44.440  25.012  34.520  1.00  0.00     0.040 A 
ATOM     80  F   UNL A   1      45.037  27.084  33.702  1.00  0.00    -0.206 F 
ATOM     81  C   UNL A   1      43.545  24.154  35.135  1.00  0.00     0.006 A 
ENDBRANCH  57  74
ENDBRANCH  31  32
ENDBRANCH  24  26
ENDBRANCH  23  24
ENDBRANCH  22  23
ENDBRANCH  21  22
ENDBRANCH  20  21
ENDBRANCH   1  20
TORSDOF 17
ENDMDL
MODEL 2
REMARK VINA RESULT:     -10.4      2.536      4.144
REMARK SMILES CCCC1CN(c2cc(C(=O)OCCOCCOC(=O)c3ccc(-c4c5nc(c(-c6c(F)cccc6F)c6ccc([nH]6)c(-c6c(F)cccc6F)c6nc(c(-c7c(F)cccc7F)c7ccc4[nH]7)C=C6)C=C5)cc3)ccc2C)C1
REMARK SMILES IDX 14 1 13 2 12 3 10 4 11 5 9 6 7 7 8 8 77 9 76 10 78 11 75 12
REMARK SMILES IDX 6 13 4 14 5 15 79 16 3 17 2 18 1 19 15 20 16 21 17 22 18 23
REMARK SMILES IDX 19 24 20 25 21 26 22 27 74 28 23 29 73 30 24 31 25 32 26 33
REMARK SMILES IDX 67 34 27 35 72 36 66 37 68 38 28 39 71 40 65 41 64 42 29 44
REMARK SMILES IDX 55 45 38 46 54 47 39 48 42 49 53 50 69 51 40 52 41 53 52 55
REMARK SMILES IDX 70 56 43 57 30 58 31 59 36 60 32 61 33 62 35 63 37 64 34 65
REMARK SMILES IDX 56 66 57 67 62 68 58 69 59 70 61 71 63 72 60 73 44 74 45 75
REMARK SMILES IDX 50 76 46 77 47 78 49 79 51 80 48 81
REMARK H PARENT 68 43 42 54
REMARK Flexibility Score: inf
ROOT
ATOM      1  C   UNL A   1      32.833  29.370  24.687  1.00  0.00     0.202 C 
ENDROOT
BRANCH   1   2
ATOM      2  C   UNL A   1      32.587  27.966  24.264  1.00  0.00     0.261 C 
BRANCH   2   3
ATOM      3  O   UNL A   1      31.358  27.465  24.814  1.00  0.00    -0.460 OA
BRANCH   3   4
ATOM      4  C   UNL A   1      31.275  26.568  25.841  1.00  0.00     0.338 C 
ATOM      5  O   UNL A   1      31.060  26.756  27.009  1.00  0.00    -0.246 OA
BRANCH   4   6
ATOM      6  C   UNL A   1      31.417  25.244  25.191  1.00  0.00     0.062 A 
ATOM      7  C   UNL A   1      32.932  23.452  24.539  1.00  0.00     0.040 A 
ATOM      8  C   UNL A   1      32.606  24.526  25.360  1.00  0.00     0.041 A 
ATOM      9  C   UNL A   1      31.985  23.039  23.587  1.00  0.00    -0.028 A 
ATOM     10  C   UNL A   1      30.737  23.698  23.499  1.00  0.00     0.006 A 
ATOM     11  C   UNL A   1      32.232  21.888  22.654  1.00  0.00     0.046 C 
ATOM     12  C   UNL A   1      30.450  24.804  24.297  1.00  0.00     0.016 A 
BRANCH   7  13
ATOM     13  N   UNL A   1      34.211  22.865  24.654  1.00  0.00    -0.371 N 
ATOM     14  C   UNL A   1      36.093  22.991  25.552  1.00  0.00     0.028 C 
ATOM     15  C   UNL A   1      35.436  23.518  24.270  1.00  0.00     0.122 C 
ATOM     16  C   UNL A   1      34.785  22.244  25.814  1.00  0.00     0.122 C 
BRANCH  14  17
ATOM     17  C   UNL A   1      37.310  22.083  25.410  1.00  0.00     0.007 C 
BRANCH  17  18
ATOM     18  C   UNL A   1      38.538  22.654  26.118  1.00  0.00    -0.003 C 
ATOM     19  C   UNL A   1      39.625  21.611  26.348  1.00  0.00     0.004 C 
ENDBRANCH  17  18
ENDBRANCH  14  17
ENDBRANCH   7  13
ENDBRANCH   4   6
ENDBRANCH   3   4
ENDBRANCH   2   3
ENDBRANCH   1   2
BRANCH   1  20
ATOM     20  O   UNL A   1      33.641  29.269  25.843  1.00  0.00    -0.374 OA
BRANCH  20  21
ATOM     21  C   UNL A   1      33.035  29.705  27.038  1.00  0.00     0.202 C 
BRANCH  21  22
ATOM     22  C   UNL A   1      33.273  31.200  27.270  1.00  0.00     0.261 C 
BRANCH  22  23
ATOM     23  O   UNL A   1      34.692  31.489  27.230  1.00  0.00    -0.460 OA
BRANCH  23  24
ATOM     24  C   UNL A   1      35.343  31.535  28.430  1.00  0.00     0.338 C 
ATOM     25  O   UNL A   1      35.424  32.517  29.151  1.00  0.00    -0.246 OA
BRANCH  24  26
ATOM     26  C   UNL A   1      36.199  30.318  28.594  1.00  0.00     0.060 A 
ATOM     27  C   UNL A   1      36.257  29.652  29.837  1.00  0.00     0.016 A 
ATOM     28  C   UNL A   1      37.196  30.106  27.651  1.00  0.00     0.016 A 
ATOM     29  C   UNL A   1      37.406  28.932  30.201  1.00  0.00     0.010 A 
ATOM     30  C   UNL A   1      38.375  29.535  28.071  1.00  0.00     0.010 A 
ATOM     31  C   UNL A   1      38.506  28.966  29.351  1.00  0.00    -0.014 A 
BRANCH  31  32
ATOM     32  C   UNL A   1      39.862  28.483  29.633  1.00  0.00     0.031 A 
ATOM     33  C   UNL A   1      40.212  27.158  29.077  1.00  0.00     0.074 A 
ATOM     34  C   UNL A   1      40.839  29.314  30.079  1.00  0.00     0.049 A 
ATOM     35  N   UNL A   1      41.338  26.574  29.262  1.00  0.00    -0.248 NA
ATOM     36  C   UNL A   1      39.293  26.344  28.283  1.00  0.00     0.031 C 
ATOM     37  C   UNL A   1      42.287  29.222  29.873  1.00  0.00     0.029 A 
ATOM     38  N   UNL A   1      40.725  30.479  30.841  1.00  0.00    -0.354 N 
ATOM     39  C   UNL A   1      41.429  25.526  28.377  1.00  0.00     0.074 A 
ATOM     40  C   UNL A   1      40.090  25.353  27.884  1.00  0.00     0.031 C 
ATOM     41  C   UNL A   1      42.920  30.070  30.709  1.00  0.00     0.029 A 
ATOM     42  C   UNL A   1      41.908  30.654  31.571  1.00  0.00     0.049 A 
ATOM     43  H   UNL A   1      39.944  31.078  30.861  1.00  0.00     0.167 HD
ATOM     44  C   UNL A   1      42.675  25.043  28.109  1.00  0.00     0.037 A 
ATOM     45  C   UNL A   1      41.864  30.675  32.928  1.00  0.00     0.037 A 
ATOM     46  C   UNL A   1      43.647  25.652  29.040  1.00  0.00     0.049 A 
ATOM     47  C   UNL A   1      42.587  29.452  33.408  1.00  0.00     0.074 A 
ATOM     48  C   UNL A   1      44.613  26.636  28.908  1.00  0.00     0.029 A 
ATOM     49  N   UNL A   1      43.432  25.510  30.416  1.00  0.00    -0.354 N 
ATOM     50  N   UNL A   1      42.712  28.377  32.675  1.00  0.00    -0.248 NA
ATOM     51  C   UNL A   1      43.359  29.392  34.641  1.00  0.00     0.031 C 
ATOM     52  C   UNL A   1      44.913  27.135  30.214  1.00  0.00     0.029 A 
ATOM     53  C   UNL A   1      44.152  26.439  31.146  1.00  0.00     0.049 A 
ATOM     54  H   UNL A   1      42.841  24.833  30.815  1.00  0.00     0.167 HD
ATOM     55  C   UNL A   1      43.649  27.562  33.230  1.00  0.00     0.074 A 
ATOM     56  C   UNL A   1      43.989  28.213  34.485  1.00  0.00     0.031 C 
ATOM     57  C   UNL A   1      44.111  26.438  32.610  1.00  0.00     0.037 A 
BRANCH  44  58
ATOM     58  C   UNL A   1      43.062  24.187  26.910  1.00  0.00     0.057 A 
ATOM     59  C   UNL A   1      42.993  22.781  26.992  1.00  0.00     0.134 A 
ATOM     60  C   UNL A   1      43.566  24.647  25.675  1.00  0.00     0.134 A 
ATOM     61  F   UNL A   1      42.529  22.163  28.086  1.00  0.00    -0.206 F 
ATOM     62  C   UNL A   1      43.407  21.923  25.957  1.00  0.00     0.040 A 
ATOM     63  C   UNL A   1      43.979  23.802  24.632  1.00  0.00     0.040 A 
ATOM     64  F   UNL A   1      43.697  25.938  25.378  1.00  0.00    -0.206 F 
ATOM     65  C   UNL A   1      43.906  22.431  24.769  1.00  0.00     0.006 A 
ENDBRANCH  44  58
BRANCH  45  66
ATOM     66  C   UNL A   1      40.604  31.314  33.425  1.00  0.00     0.057 A 
ATOM     67  C   UNL A   1      39.575  30.453  33.871  1.00  0.00     0.134 A 
ATOM     68  C   UNL A   1      40.584  32.618  33.937  1.00  0.00     0.134 A 
ATOM     69  F   UNL A   1      39.544  29.173  33.465  1.00  0.00    -0.206 F 
ATOM     70  C   UNL A   1      38.654  30.830  34.859  1.00  0.00     0.040 A 
ATOM     71  C   UNL A   1      39.679  32.997  34.945  1.00  0.00     0.040 A 
ATOM     72  F   UNL A   1      41.532  33.499  33.589  1.00  0.00    -0.206 F 
ATOM     73  C   UNL A   1      38.737  32.093  35.436  1.00  0.00     0.006 A 
ENDBRANCH  45  66
BRANCH  57  74
ATOM     74  C   UNL A   1      44.628  25.244  33.368  1.00  0.00     0.057 A 
ATOM     75  C   UNL A   1      45.977  24.855  33.377  1.00  0.00     0.134 A 
ATOM     76  C   UNL A   1      43.803  24.559  34.286  1.00  0.00     0.134 A 
ATOM     77  F   UNL A   1      46.913  25.502  32.669  1.00  0.00    -0.206 F 
ATOM     78  C   UNL A   1      46.453  23.811  34.172  1.00  0.00     0.040 A 
ATOM     79  C   UNL A   1      44.287  23.572  35.145  1.00  0.00     0.040 A 
ATOM     80  F   UNL A   1      42.500  24.840  34.426  1.00  0.00    -0.206 F 
ATOM     81  C   UNL A   1      45.611  23.177  35.073  1.00  0.00     0.006 A 
ENDBRANCH  57  74
ENDBRANCH  31  32
ENDBRANCH  24  26
ENDBRANCH  23  24
ENDBRANCH  22  23
ENDBRANCH  21  22
ENDBRANCH  20  21
ENDBRANCH   1  20
TORSDOF 17
ENDMDL
MODEL 3
REMARK VINA RESULT:     -10.3      2.133      3.742
REMARK SMILES CCCC1CN(c2cc(C(=O)OCCOCCOC(=O)c3ccc(-c4c5nc(c(-c6c(F)cccc6F)c6ccc([nH]6)c(-c6c(F)cccc6F)c6nc(c(-c7c(F)cccc7F)c7ccc4[nH]7)C=C6)C=C5)cc3)ccc2C)C1
REMARK SMILES IDX 14 1 13 2 12 3 10 4 11 5 9 6 7 7 8 8 77 9 76 10 78 11 75 12
REMARK SMILES IDX 6 13 4 14 5 15 79 16 3 17 2 18 1 19 15 20 16 21 17 22 18 23
REMARK SMILES IDX 19 24 20 25 21 26 22 27 74 28 23 29 73 30 24 31 25 32 26 33
REMARK SMILES IDX 67 34 27 35 72 36 66 37 68 38 28 39 71 40 65 41 64 42 29 44
REMARK SMILES IDX 55 45 38 46 54 47 39 48 42 49 53 50 69 51 40 52 41 53 52 55
REMARK SMILES IDX 70 56 43 57 30 58 31 59 36 60 32 61 33 62 35 63 37 64 34 65
REMARK SMILES IDX 56 66 57 67 62 68 58 69 59 70 61 71 63 72 60 73 44 74 45 75
REMARK SMILES IDX 50 76 46 77 47 78 49 79 51 80 48 81
REMARK H PARENT 68 43 42 54
REMARK Flexibility Score: inf
ROOT
ATOM      1  C   UNL A   1      33.280  37.406  31.587  1.00  0.00     0.202 C 
ENDROOT
BRANCH   1   2
ATOM      2  C   UNL A   1      32.420  36.198  31.481  1.00  0.00     0.261 C 
BRANCH   2   3
ATOM      3  O   UNL A   1      32.920  35.290  30.487  1.00  0.00    -0.460 OA
BRANCH   3   4
ATOM      4  C   UNL A   1      32.919  35.531  29.142  1.00  0.00     0.338 C 
ATOM      5  O   UNL A   1      32.413  36.430  28.524  1.00  0.00    -0.246 OA
BRANCH   4   6
ATOM      6  C   UNL A   1      33.779  34.468  28.572  1.00  0.00     0.062 A 
ATOM      7  C   UNL A   1      33.933  32.146  27.850  1.00  0.00     0.040 A 
ATOM      8  C   UNL A   1      33.186  33.293  28.095  1.00  0.00     0.041 A 
ATOM      9  C   UNL A   1      35.328  32.224  28.002  1.00  0.00    -0.028 A 
ATOM     10  C   UNL A   1      35.932  33.447  28.375  1.00  0.00     0.006 A 
ATOM     11  C   UNL A   1      36.229  31.048  27.759  1.00  0.00     0.046 C 
ATOM     12  C   UNL A   1      35.161  34.572  28.664  1.00  0.00     0.016 A 
BRANCH   7  13
ATOM     13  N   UNL A   1      33.262  30.949  27.521  1.00  0.00    -0.371 N 
ATOM     14  C   UNL A   1      32.583  29.721  25.972  1.00  0.00     0.028 C 
ATOM     15  C   UNL A   1      32.023  30.893  26.790  1.00  0.00     0.122 C 
ATOM     16  C   UNL A   1      33.813  29.789  26.878  1.00  0.00     0.122 C 
BRANCH  14  17
ATOM     17  C   UNL A   1      31.840  28.391  26.031  1.00  0.00     0.007 C 
BRANCH  17  18
ATOM     18  C   UNL A   1      31.406  27.915  24.645  1.00  0.00    -0.003 C 
ATOM     19  C   UNL A   1      30.583  28.954  23.894  1.00  0.00     0.004 C 
ENDBRANCH  17  18
ENDBRANCH  14  17
ENDBRANCH   7  13
ENDBRANCH   4   6
ENDBRANCH   3   4
ENDBRANCH   2   3
ENDBRANCH   1   2
BRANCH   1  20
ATOM     20  O   UNL A   1      34.337  37.032  32.447  1.00  0.00    -0.374 OA
BRANCH  20  21
ATOM     21  C   UNL A   1      33.940  36.526  33.701  1.00  0.00     0.202 C 
BRANCH  21  22
ATOM     22  C   UNL A   1      34.775  35.306  34.098  1.00  0.00     0.261 C 
BRANCH  22  23
ATOM     23  O   UNL A   1      35.311  34.664  32.915  1.00  0.00    -0.460 OA
BRANCH  23  24
ATOM     24  C   UNL A   1      34.732  33.484  32.542  1.00  0.00     0.338 C 
ATOM     25  O   UNL A   1      33.659  33.066  32.948  1.00  0.00    -0.246 OA
BRANCH  24  26
ATOM     26  C   UNL A   1      35.726  32.636  31.812  1.00  0.00     0.060 A 
ATOM     27  C   UNL A   1      35.603  31.230  31.819  1.00  0.00     0.016 A 
ATOM     28  C   UNL A   1      36.942  33.220  31.478  1.00  0.00     0.016 A 
ATOM     29  C   UNL A   1      36.741  30.420  31.681  1.00  0.00     0.010 A 
ATOM     30  C   UNL A   1      38.068  32.431  31.501  1.00  0.00     0.010 A 
ATOM     31  C   UNL A   1      37.989  31.032  31.627  1.00  0.00    -0.014 A 
BRANCH  31  32
ATOM     32  C   UNL A   1      39.301  30.383  31.710  1.00  0.00     0.031 A 
ATOM     33  C   UNL A   1      39.522  29.237  30.801  1.00  0.00     0.074 A 
ATOM     34  C   UNL A   1      40.356  30.979  32.324  1.00  0.00     0.049 A 
ATOM     35  N   UNL A   1      40.595  28.537  30.774  1.00  0.00    -0.248 NA
ATOM     36  C   UNL A   1      38.520  28.749  29.856  1.00  0.00     0.031 C 
ATOM     37  C   UNL A   1      41.786  30.831  32.041  1.00  0.00     0.029 A 
ATOM     38  N   UNL A   1      40.360  31.896  33.378  1.00  0.00    -0.354 N 
ATOM     39  C   UNL A   1      40.577  27.768  29.635  1.00  0.00     0.074 A 
ATOM     40  C   UNL A   1      39.219  27.845  29.170  1.00  0.00     0.031 C 
ATOM     41  C   UNL A   1      42.507  31.364  33.048  1.00  0.00     0.029 A 
ATOM     42  C   UNL A   1      41.567  31.768  34.078  1.00  0.00     0.049 A 
ATOM     43  H   UNL A   1      39.636  32.527  33.593  1.00  0.00     0.167 HD
ATOM     44  C   UNL A   1      41.769  27.278  29.194  1.00  0.00     0.037 A 
ATOM     45  C   UNL A   1      41.549  31.420  35.390  1.00  0.00     0.037 A 
ATOM     46  C   UNL A   1      42.808  27.529  30.214  1.00  0.00     0.049 A 
ATOM     47  C   UNL A   1      42.170  30.059  35.490  1.00  0.00     0.074 A 
ATOM     48  C   UNL A   1      43.855  28.431  30.314  1.00  0.00     0.029 A 
ATOM     49  N   UNL A   1      42.607  27.033  31.507  1.00  0.00    -0.354 N 
ATOM     50  N   UNL A   1      42.185  29.219  34.488  1.00  0.00    -0.248 NA
ATOM     51  C   UNL A   1      42.955  29.601  36.627  1.00  0.00     0.031 C 
ATOM     52  C   UNL A   1      44.222  28.526  31.692  1.00  0.00     0.029 A 
ATOM     53  C   UNL A   1      43.420  27.665  32.431  1.00  0.00     0.049 A 
ATOM     54  H   UNL A   1      41.965  26.322  31.732  1.00  0.00     0.167 HD
ATOM     55  C   UNL A   1      43.056  28.211  34.761  1.00  0.00     0.074 A 
ATOM     56  C   UNL A   1      43.475  28.464  36.131  1.00  0.00     0.031 C 
ATOM     57  C   UNL A   1      43.406  27.266  33.840  1.00  0.00     0.037 A 
BRANCH  44  58
ATOM     58  C   UNL A   1      42.058  26.756  27.793  1.00  0.00     0.057 A 
ATOM     59  C   UNL A   1      42.314  25.384  27.588  1.00  0.00     0.134 A 
ATOM     60  C   UNL A   1      42.165  27.522  26.613  1.00  0.00     0.134 A 
ATOM     61  F   UNL A   1      42.249  24.499  28.592  1.00  0.00    -0.206 F 
ATOM     62  C   UNL A   1      42.664  24.839  26.339  1.00  0.00     0.040 A 
ATOM     63  C   UNL A   1      42.509  26.991  25.360  1.00  0.00     0.040 A 
ATOM     64  F   UNL A   1      41.944  28.835  26.576  1.00  0.00    -0.206 F 
ATOM     65  C   UNL A   1      42.765  25.643  25.216  1.00  0.00     0.006 A 
ENDBRANCH  44  58
BRANCH  45  66
ATOM     66  C   UNL A   1      40.360  31.998  36.095  1.00  0.00     0.057 A 
ATOM     67  C   UNL A   1      40.372  33.389  36.349  1.00  0.00     0.134 A 
ATOM     68  C   UNL A   1      39.100  31.389  36.045  1.00  0.00     0.134 A 
ATOM     69  F   UNL A   1      41.535  34.060  36.370  1.00  0.00    -0.206 F 
ATOM     70  C   UNL A   1      39.196  34.149  36.429  1.00  0.00     0.040 A 
ATOM     71  C   UNL A   1      37.916  32.147  36.100  1.00  0.00     0.040 A 
ATOM     72  F   UNL A   1      38.987  30.079  35.787  1.00  0.00    -0.206 F 
ATOM     73  C   UNL A   1      37.962  33.533  36.253  1.00  0.00     0.006 A 
ENDBRANCH  45  66
BRANCH  57  74
ATOM     74  C   UNL A   1      43.828  25.873  34.224  1.00  0.00     0.057 A 
ATOM     75  C   UNL A   1      45.153  25.415  34.145  1.00  0.00     0.134 A 
ATOM     76  C   UNL A   1      42.934  25.002  34.883  1.00  0.00     0.134 A 
ATOM     77  F   UNL A   1      46.148  26.180  33.677  1.00  0.00    -0.206 F 
ATOM     78  C   UNL A   1      45.542  24.156  34.607  1.00  0.00     0.040 A 
ATOM     79  C   UNL A   1      43.331  23.779  35.423  1.00  0.00     0.040 A 
ATOM     80  F   UNL A   1      41.643  25.311  35.074  1.00  0.00    -0.206 F 
ATOM     81  C   UNL A   1      44.634  23.340  35.264  1.00  0.00     0.006 A 
ENDBRANCH  57  74
ENDBRANCH  31  32
ENDBRANCH  24  26
ENDBRANCH  23  24
ENDBRANCH  22  23
ENDBRANCH  21  22
ENDBRANCH  20  21
ENDBRANCH   1  20
TORSDOF 17
ENDMDL
