MODEL 1
REMARK VINA RESULT:     -10.3      0.000      0.000
REMARK SMILES [NH3+]C[C@@H](Cc1ccc(Br)cc1)C(=O)OCCOCCOC(=O)c1ccc(-c2c3nc(c(-c4c(F)cccc4F)c4ccc([nH]4)c(-c4c(F)cccc4F)c4nc(c(-c5c(F)cccc5F)c5ccc2[nH]5)C=C4)C=C3)cc1
REMARK SMILES IDX 17 1 16 2 15 3 14 4 12 5 13 6 3 7 2 8 1 9 4 13 5 14 6 15
REMARK SMILES IDX 11 16 7 17 10 18 8 19 9 20 18 21 19 22 20 23 21 24 22 25
REMARK SMILES IDX 23 26 24 27 76 28 25 29 75 30 26 31 27 32 28 33 69 34 29 35
REMARK SMILES IDX 74 36 68 37 70 38 30 39 73 40 67 41 66 42 31 44 57 45 40 46
REMARK SMILES IDX 56 47 41 48 44 49 55 50 71 51 42 52 43 53 54 55 72 56 45 57
REMARK SMILES IDX 32 58 33 59 38 60 34 61 35 62 37 63 39 64 36 65 58 66 59 67
REMARK SMILES IDX 64 68 60 69 61 70 63 71 65 72 62 73 46 74 47 75 52 76 48 77
REMARK SMILES IDX 49 78 51 79 53 80 50 81
REMARK H PARENT 1 10 1 11 1 12 70 43 44 54
REMARK Flexibility Score: inf
ROOT
ATOM      1  O   UNL A   1      31.736  30.791  26.090  1.00  0.00    -0.374 OA
ENDROOT
BRANCH   1   2
ATOM      2  C   UNL A   1      32.436  29.933  26.988  1.00  0.00     0.202 C 
BRANCH   2   3
ATOM      3  C   UNL A   1      31.770  28.587  27.279  1.00  0.00     0.261 C 
BRANCH   3   4
ATOM      4  O   UNL A   1      32.109  27.589  26.297  1.00  0.00    -0.463 OA
BRANCH   4   5
ATOM      5  C   UNL A   1      31.079  26.812  25.872  1.00  0.00     0.315 C 
ATOM      6  O   UNL A   1      30.289  26.238  26.615  1.00  0.00    -0.252 OA
BRANCH   5   7
ATOM      7  C   UNL A   1      31.017  26.645  24.365  1.00  0.00     0.158 C 
BRANCH   7   8
ATOM      8  C   UNL A   1      31.762  25.418  23.821  1.00  0.00     0.274 C 
BRANCH   8   9
ATOM      9  N   UNL A   1      31.611  24.226  24.659  1.00  0.00    -0.357 N 
ATOM     10  H   UNL A   1      30.886  23.624  24.267  1.00  0.00     0.344 HD
ATOM     11  H   UNL A   1      31.346  24.506  25.603  1.00  0.00     0.344 HD
ATOM     12  H   UNL A   1      32.495  23.718  24.691  1.00  0.00     0.344 HD
ENDBRANCH   8   9
ENDBRANCH   7   8
BRANCH   7  13
ATOM     13  C   UNL A   1      29.557  26.796  23.894  1.00  0.00     0.056 C 
BRANCH  13  14
ATOM     14  C   UNL A   1      29.213  28.073  23.159  1.00  0.00    -0.047 A 
ATOM     15  C   UNL A   1      30.181  28.793  22.446  1.00  0.00     0.005 A 
ATOM     16  C   UNL A   1      27.893  28.548  23.165  1.00  0.00     0.005 A 
ATOM     17  C   UNL A   1      29.853  29.987  21.799  1.00  0.00     0.016 A 
ATOM     18  C   UNL A   1      27.558  29.732  22.502  1.00  0.00     0.016 A 
ATOM     19  C   UNL A   1      28.543  30.452  21.832  1.00  0.00     0.017 A 
ATOM     20  Br  UNL A   1      28.100  32.061  20.947  1.00  0.00    -0.051 Br
ENDBRANCH  13  14
ENDBRANCH   7  13
ENDBRANCH   5   7
ENDBRANCH   4   5
ENDBRANCH   3   4
ENDBRANCH   2   3
ENDBRANCH   1   2
BRANCH   1  21
ATOM     21  C   UNL A   1      31.319  32.062  26.588  1.00  0.00     0.202 C 
BRANCH  21  22
ATOM     22  C   UNL A   1      32.435  33.075  26.877  1.00  0.00     0.261 C 
BRANCH  22  23
ATOM     23  O   UNL A   1      32.183  33.882  28.044  1.00  0.00    -0.460 OA
BRANCH  23  24
ATOM     24  C   UNL A   1      33.254  34.577  28.492  1.00  0.00     0.338 C 
ATOM     25  O   UNL A   1      33.287  35.757  28.826  1.00  0.00    -0.246 OA
BRANCH  24  26
ATOM     26  C   UNL A   1      34.428  33.705  28.669  1.00  0.00     0.060 A 
ATOM     27  C   UNL A   1      34.217  32.434  29.219  1.00  0.00     0.016 A 
ATOM     28  C   UNL A   1      35.724  34.185  28.470  1.00  0.00     0.016 A 
ATOM     29  C   UNL A   1      35.304  31.659  29.625  1.00  0.00     0.010 A 
ATOM     30  C   UNL A   1      36.814  33.409  28.886  1.00  0.00     0.010 A 
ATOM     31  C   UNL A   1      36.608  32.162  29.504  1.00  0.00    -0.014 A 
BRANCH  31  32
ATOM     32  C   UNL A   1      37.732  31.440  30.154  1.00  0.00     0.031 A 
ATOM     33  C   UNL A   1      38.045  31.707  31.602  1.00  0.00     0.074 A 
ATOM     34  C   UNL A   1      38.447  30.527  29.474  1.00  0.00     0.049 A 
ATOM     35  N   UNL A   1      38.979  31.189  32.358  1.00  0.00    -0.248 NA
ATOM     36  C   UNL A   1      37.189  32.686  32.290  1.00  0.00     0.031 C 
ATOM     37  C   UNL A   1      38.227  30.150  28.078  1.00  0.00     0.029 A 
ATOM     38  N   UNL A   1      39.507  29.752  29.872  1.00  0.00    -0.354 N 
ATOM     39  C   UNL A   1      38.829  31.780  33.607  1.00  0.00     0.074 A 
ATOM     40  C   UNL A   1      37.725  32.711  33.501  1.00  0.00     0.031 C 
ATOM     41  C   UNL A   1      39.132  29.217  27.734  1.00  0.00     0.029 A 
ATOM     42  C   UNL A   1      40.006  28.950  28.875  1.00  0.00     0.049 A 
ATOM     43  H   UNL A   1      39.874  29.768  30.785  1.00  0.00     0.167 HD
ATOM     44  C   UNL A   1      39.537  31.562  34.740  1.00  0.00     0.037 A 
ATOM     45  C   UNL A   1      41.057  28.108  28.880  1.00  0.00     0.037 A 
ATOM     46  C   UNL A   1      40.631  30.634  34.855  1.00  0.00     0.049 A 
ATOM     47  C   UNL A   1      41.868  27.930  30.135  1.00  0.00     0.074 A 
ATOM     48  C   UNL A   1      41.388  30.326  35.973  1.00  0.00     0.029 A 
ATOM     49  N   UNL A   1      41.129  29.869  33.812  1.00  0.00    -0.354 N 
ATOM     50  N   UNL A   1      41.696  28.471  31.316  1.00  0.00    -0.248 NA
ATOM     51  C   UNL A   1      43.024  27.023  30.054  1.00  0.00     0.031 C 
ATOM     52  C   UNL A   1      42.369  29.401  35.598  1.00  0.00     0.029 A 
ATOM     53  C   UNL A   1      42.199  29.108  34.255  1.00  0.00     0.049 A 
ATOM     54  H   UNL A   1      40.775  29.867  32.894  1.00  0.00     0.167 HD
ATOM     55  C   UNL A   1      42.702  27.954  32.122  1.00  0.00     0.074 A 
ATOM     56  C   UNL A   1      43.477  27.050  31.299  1.00  0.00     0.031 C 
ATOM     57  C   UNL A   1      42.959  28.206  33.429  1.00  0.00     0.037 A 
BRANCH  44  58
ATOM     58  C   UNL A   1      39.162  32.359  35.952  1.00  0.00     0.057 A 
ATOM     59  C   UNL A   1      39.657  33.650  36.168  1.00  0.00     0.134 A 
ATOM     60  C   UNL A   1      38.260  31.843  36.892  1.00  0.00     0.134 A 
ATOM     61  F   UNL A   1      40.533  34.194  35.310  1.00  0.00    -0.206 F 
ATOM     62  C   UNL A   1      39.282  34.396  37.286  1.00  0.00     0.040 A 
ATOM     63  C   UNL A   1      37.863  32.587  38.004  1.00  0.00     0.040 A 
ATOM     64  F   UNL A   1      37.745  30.614  36.739  1.00  0.00    -0.206 F 
ATOM     65  C   UNL A   1      38.377  33.867  38.205  1.00  0.00     0.006 A 
ENDBRANCH  44  58
BRANCH  45  66
ATOM     66  C   UNL A   1      41.415  27.368  27.646  1.00  0.00     0.057 A 
ATOM     67  C   UNL A   1      42.227  27.947  26.666  1.00  0.00     0.134 A 
ATOM     68  C   UNL A   1      40.936  26.074  27.410  1.00  0.00     0.134 A 
ATOM     69  F   UNL A   1      42.692  29.195  26.825  1.00  0.00    -0.206 F 
ATOM     70  C   UNL A   1      42.542  27.271  25.487  1.00  0.00     0.040 A 
ATOM     71  C   UNL A   1      41.261  25.377  26.246  1.00  0.00     0.040 A 
ATOM     72  F   UNL A   1      40.149  25.469  28.312  1.00  0.00    -0.206 F 
ATOM     73  C   UNL A   1      42.062  25.979  25.277  1.00  0.00     0.006 A 
ENDBRANCH  45  66
BRANCH  57  74
ATOM     74  C   UNL A   1      44.107  27.476  34.058  1.00  0.00     0.057 A 
ATOM     75  C   UNL A   1      45.393  28.028  34.108  1.00  0.00     0.134 A 
ATOM     76  C   UNL A   1      43.916  26.224  34.656  1.00  0.00     0.134 A 
ATOM     77  F   UNL A   1      45.644  29.219  33.543  1.00  0.00    -0.206 F 
ATOM     78  C   UNL A   1      46.453  27.352  34.715  1.00  0.00     0.040 A 
ATOM     79  C   UNL A   1      44.963  25.548  35.284  1.00  0.00     0.040 A 
ATOM     80  F   UNL A   1      42.706  25.644  34.649  1.00  0.00    -0.206 F 
ATOM     81  C   UNL A   1      46.237  26.110  35.311  1.00  0.00     0.006 A 
ENDBRANCH  57  74
ENDBRANCH  31  32
ENDBRANCH  24  26
ENDBRANCH  23  24
ENDBRANCH  22  23
ENDBRANCH  21  22
ENDBRANCH   1  21
TORSDOF 18
ENDMDL
MODEL 2
REMARK VINA RESULT:     -10.2      4.671      7.271
REMARK SMILES [NH3+]C[C@@H](Cc1ccc(Br)cc1)C(=O)OCCOCCOC(=O)c1ccc(-c2c3nc(c(-c4c(F)cccc4F)c4ccc([nH]4)c(-c4c(F)cccc4F)c4nc(c(-c5c(F)cccc5F)c5ccc2[nH]5)C=C4)C=C3)cc1
REMARK SMILES IDX 17 1 16 2 15 3 14 4 12 5 13 6 3 7 2 8 1 9 4 13 5 14 6 15
REMARK SMILES IDX 11 16 7 17 10 18 8 19 9 20 18 21 19 22 20 23 21 24 22 25
REMARK SMILES IDX 23 26 24 27 76 28 25 29 75 30 26 31 27 32 28 33 69 34 29 35
REMARK SMILES IDX 74 36 68 37 70 38 30 39 73 40 67 41 66 42 31 44 57 45 40 46
REMARK SMILES IDX 56 47 41 48 44 49 55 50 71 51 42 52 43 53 54 55 72 56 45 57
REMARK SMILES IDX 32 58 33 59 38 60 34 61 35 62 37 63 39 64 36 65 58 66 59 67
REMARK SMILES IDX 64 68 60 69 61 70 63 71 65 72 62 73 46 74 47 75 52 76 48 77
REMARK SMILES IDX 49 78 51 79 53 80 50 81
REMARK H PARENT 1 10 1 11 1 12 70 43 44 54
REMARK Flexibility Score: inf
ROOT
ATOM      1  O   UNL A   1      32.716  35.035  29.686  1.00  0.00    -0.374 OA
ENDROOT
BRANCH   1   2
ATOM      2  C   UNL A   1      32.844  36.217  30.473  1.00  0.00     0.202 C 
BRANCH   2   3
ATOM      3  C   UNL A   1      33.632  36.067  31.776  1.00  0.00     0.261 C 
BRANCH   3   4
ATOM      4  O   UNL A   1      33.202  34.926  32.543  1.00  0.00    -0.463 OA
BRANCH   4   5
ATOM      5  C   UNL A   1      34.057  33.869  32.549  1.00  0.00     0.315 C 
ATOM      6  O   UNL A   1      33.707  32.694  32.553  1.00  0.00    -0.252 OA
BRANCH   5   7
ATOM      7  C   UNL A   1      35.520  34.263  32.625  1.00  0.00     0.158 C 
BRANCH   7   8
ATOM      8  C   UNL A   1      36.020  34.622  34.032  1.00  0.00     0.274 C 
BRANCH   8   9
ATOM      9  N   UNL A   1      35.094  34.227  35.097  1.00  0.00    -0.357 N 
ATOM     10  H   UNL A   1      34.368  34.937  35.196  1.00  0.00     0.344 HD
ATOM     11  H   UNL A   1      35.604  34.139  35.975  1.00  0.00     0.344 HD
ATOM     12  H   UNL A   1      34.665  33.333  34.861  1.00  0.00     0.344 HD
ENDBRANCH   8   9
ENDBRANCH   7   8
BRANCH   7  13
ATOM     13  C   UNL A   1      36.369  33.224  31.867  1.00  0.00     0.056 C 
BRANCH  13  14
ATOM     14  C   UNL A   1      37.588  33.749  31.139  1.00  0.00    -0.047 A 
ATOM     15  C   UNL A   1      37.636  33.814  29.740  1.00  0.00     0.005 A 
ATOM     16  C   UNL A   1      38.694  34.206  31.871  1.00  0.00     0.005 A 
ATOM     17  C   UNL A   1      38.781  34.272  29.084  1.00  0.00     0.016 A 
ATOM     18  C   UNL A   1      39.834  34.683  31.217  1.00  0.00     0.016 A 
ATOM     19  C   UNL A   1      39.875  34.704  29.826  1.00  0.00     0.017 A 
ATOM     20  Br  UNL A   1      41.419  35.333  28.936  1.00  0.00    -0.051 Br
ENDBRANCH  13  14
ENDBRANCH   7  13
ENDBRANCH   5   7
ENDBRANCH   4   5
ENDBRANCH   3   4
ENDBRANCH   2   3
ENDBRANCH   1   2
BRANCH   1  21
ATOM     21  C   UNL A   1      33.903  34.507  29.096  1.00  0.00     0.202 C 
BRANCH  21  22
ATOM     22  C   UNL A   1      33.742  33.206  28.298  1.00  0.00     0.261 C 
BRANCH  22  23
ATOM     23  O   UNL A   1      34.898  32.348  28.371  1.00  0.00    -0.460 OA
BRANCH  23  24
ATOM     24  C   UNL A   1      34.649  31.043  28.111  1.00  0.00     0.338 C 
ATOM     25  O   UNL A   1      33.593  30.552  27.724  1.00  0.00    -0.246 OA
BRANCH  24  26
ATOM     26  C   UNL A   1      35.869  30.227  28.227  1.00  0.00     0.060 A 
ATOM     27  C   UNL A   1      36.201  29.730  29.495  1.00  0.00     0.016 A 
ATOM     28  C   UNL A   1      36.762  30.100  27.161  1.00  0.00     0.016 A 
ATOM     29  C   UNL A   1      37.453  29.155  29.714  1.00  0.00     0.010 A 
ATOM     30  C   UNL A   1      38.022  29.530  27.385  1.00  0.00     0.010 A 
ATOM     31  C   UNL A   1      38.389  29.094  28.671  1.00  0.00    -0.014 A 
BRANCH  31  32
ATOM     32  C   UNL A   1      39.791  28.705  28.970  1.00  0.00     0.031 A 
ATOM     33  C   UNL A   1      40.673  29.649  29.742  1.00  0.00     0.074 A 
ATOM     34  C   UNL A   1      40.267  27.506  28.591  1.00  0.00     0.049 A 
ATOM     35  N   UNL A   1      41.922  29.507  30.106  1.00  0.00    -0.248 NA
ATOM     36  C   UNL A   1      40.066  30.922  30.161  1.00  0.00     0.031 C 
ATOM     37  C   UNL A   1      39.510  26.486  27.868  1.00  0.00     0.029 A 
ATOM     38  N   UNL A   1      41.509  26.947  28.764  1.00  0.00    -0.354 N 
ATOM     39  C   UNL A   1      42.253  30.670  30.792  1.00  0.00     0.074 A 
ATOM     40  C   UNL A   1      41.079  31.516  30.774  1.00  0.00     0.031 C 
ATOM     41  C   UNL A   1      40.306  25.425  27.653  1.00  0.00     0.029 A 
ATOM     42  C   UNL A   1      41.634  25.701  28.202  1.00  0.00     0.049 A 
ATOM     43  H   UNL A   1      42.240  27.397  29.246  1.00  0.00     0.167 HD
ATOM     44  C   UNL A   1      43.423  31.000  31.388  1.00  0.00     0.037 A 
ATOM     45  C   UNL A   1      42.701  24.883  28.127  1.00  0.00     0.037 A 
ATOM     46  C   UNL A   1      44.593  30.162  31.415  1.00  0.00     0.049 A 
ATOM     47  C   UNL A   1      44.009  25.300  28.743  1.00  0.00     0.074 A 
ATOM     48  C   UNL A   1      45.813  30.403  32.023  1.00  0.00     0.029 A 
ATOM     49  N   UNL A   1      44.689  28.923  30.802  1.00  0.00    -0.354 N 
ATOM     50  N   UNL A   1      44.299  26.387  29.414  1.00  0.00    -0.248 NA
ATOM     51  C   UNL A   1      45.140  24.372  28.588  1.00  0.00     0.031 C 
ATOM     52  C   UNL A   1      46.662  29.326  31.746  1.00  0.00     0.029 A 
ATOM     53  C   UNL A   1      45.957  28.399  30.996  1.00  0.00     0.049 A 
ATOM     54  H   UNL A   1      43.965  28.481  30.303  1.00  0.00     0.167 HD
ATOM     55  C   UNL A   1      45.633  26.265  29.780  1.00  0.00     0.074 A 
ATOM     56  C   UNL A   1      46.095  24.994  29.265  1.00  0.00     0.031 C 
ATOM     57  C   UNL A   1      46.405  27.130  30.483  1.00  0.00     0.037 A 
BRANCH  44  58
ATOM     58  C   UNL A   1      43.504  32.341  32.051  1.00  0.00     0.057 A 
ATOM     59  C   UNL A   1      43.241  32.506  33.416  1.00  0.00     0.134 A 
ATOM     60  C   UNL A   1      43.891  33.474  31.323  1.00  0.00     0.134 A 
ATOM     61  F   UNL A   1      42.855  31.462  34.164  1.00  0.00    -0.206 F 
ATOM     62  C   UNL A   1      43.344  33.753  34.032  1.00  0.00     0.040 A 
ATOM     63  C   UNL A   1      44.016  34.723  31.932  1.00  0.00     0.040 A 
ATOM     64  F   UNL A   1      44.162  33.382  30.012  1.00  0.00    -0.206 F 
ATOM     65  C   UNL A   1      43.739  34.866  33.290  1.00  0.00     0.006 A 
ENDBRANCH  44  58
BRANCH  45  66
ATOM     66  C   UNL A   1      42.585  23.581  27.428  1.00  0.00     0.057 A 
ATOM     67  C   UNL A   1      42.224  22.419  28.118  1.00  0.00     0.134 A 
ATOM     68  C   UNL A   1      42.852  23.465  26.058  1.00  0.00     0.134 A 
ATOM     69  F   UNL A   1      41.983  22.465  29.437  1.00  0.00    -0.206 F 
ATOM     70  C   UNL A   1      42.144  21.183  27.475  1.00  0.00     0.040 A 
ATOM     71  C   UNL A   1      42.754  22.240  25.398  1.00  0.00     0.040 A 
ATOM     72  F   UNL A   1      43.207  24.543  25.345  1.00  0.00    -0.206 F 
ATOM     73  C   UNL A   1      42.405  21.093  26.108  1.00  0.00     0.006 A 
ENDBRANCH  45  66
BRANCH  57  74
ATOM     74  C   UNL A   1      47.820  26.720  30.761  1.00  0.00     0.057 A 
ATOM     75  C   UNL A   1      48.874  27.096  29.919  1.00  0.00     0.134 A 
ATOM     76  C   UNL A   1      48.137  25.974  31.903  1.00  0.00     0.134 A 
ATOM     77  F   UNL A   1      48.634  27.800  28.802  1.00  0.00    -0.206 F 
ATOM     78  C   UNL A   1      50.192  26.730  30.195  1.00  0.00     0.040 A 
ATOM     79  C   UNL A   1      49.454  25.620  32.200  1.00  0.00     0.040 A 
ATOM     80  F   UNL A   1      47.174  25.589  32.754  1.00  0.00    -0.206 F 
ATOM     81  C   UNL A   1      50.486  25.995  31.342  1.00  0.00     0.006 A 
ENDBRANCH  57  74
ENDBRANCH  31  32
ENDBRANCH  24  26
ENDBRANCH  23  24
ENDBRANCH  22  23
ENDBRANCH  21  22
ENDBRANCH   1  21
TORSDOF 18
ENDMDL
MODEL 3
REMARK VINA RESULT:     -10.2      4.751      9.106
REMARK SMILES [NH3+]C[C@@H](Cc1ccc(Br)cc1)C(=O)OCCOCCOC(=O)c1ccc(-c2c3nc(c(-c4c(F)cccc4F)c4ccc([nH]4)c(-c4c(F)cccc4F)c4nc(c(-c5c(F)cccc5F)c5ccc2[nH]5)C=C4)C=C3)cc1
REMARK SMILES IDX 17 1 16 2 15 3 14 4 12 5 13 6 3 7 2 8 1 9 4 13 5 14 6 15
REMARK SMILES IDX 11 16 7 17 10 18 8 19 9 20 18 21 19 22 20 23 21 24 22 25
REMARK SMILES IDX 23 26 24 27 76 28 25 29 75 30 26 31 27 32 28 33 69 34 29 35
REMARK SMILES IDX 74 36 68 37 70 38 30 39 73 40 67 41 66 42 31 44 57 45 40 46
REMARK SMILES IDX 56 47 41 48 44 49 55 50 71 51 42 52 43 53 54 55 72 56 45 57
REMARK SMILES IDX 32 58 33 59 38 60 34 61 35 62 37 63 39 64 36 65 58 66 59 67
REMARK SMILES IDX 64 68 60 69 61 70 63 71 65 72 62 73 46 74 47 75 52 76 48 77
REMARK SMILES IDX 49 78 51 79 53 80 50 81
REMARK H PARENT 1 10 1 11 1 12 70 43 44 54
REMARK Flexibility Score: inf
ROOT
ATOM      1  O   UNL A   1      40.968  20.667  26.857  1.00  0.00    -0.374 OA
ENDROOT
BRANCH   1   2
ATOM      2  C   UNL A   1      40.032  21.690  26.522  1.00  0.00     0.202 C 
BRANCH   2   3
ATOM      3  C   UNL A   1      38.796  21.233  25.744  1.00  0.00     0.261 C 
BRANCH   3   4
ATOM      4  O   UNL A   1      37.743  22.216  25.770  1.00  0.00    -0.463 OA
BRANCH   4   5
ATOM      5  C   UNL A   1      36.712  21.992  24.914  1.00  0.00     0.315 C 
ATOM      6  O   UNL A   1      36.773  22.147  23.698  1.00  0.00    -0.252 OA
BRANCH   5   7
ATOM      7  C   UNL A   1      35.418  21.594  25.601  1.00  0.00     0.158 C 
BRANCH   7   8
ATOM      8  C   UNL A   1      34.806  22.677  26.501  1.00  0.00     0.274 C 
BRANCH   8   9
ATOM      9  N   UNL A   1      34.489  22.202  27.850  1.00  0.00    -0.357 N 
ATOM     10  H   UNL A   1      34.588  22.971  28.513  1.00  0.00     0.344 HD
ATOM     11  H   UNL A   1      35.130  21.450  28.105  1.00  0.00     0.344 HD
ATOM     12  H   UNL A   1      33.531  21.854  27.872  1.00  0.00     0.344 HD
ENDBRANCH   8   9
ENDBRANCH   7   8
BRANCH   7  13
ATOM     13  C   UNL A   1      34.461  20.974  24.565  1.00  0.00     0.056 C 
BRANCH  13  14
ATOM     14  C   UNL A   1      34.065  19.531  24.791  1.00  0.00    -0.047 A 
ATOM     15  C   UNL A   1      34.925  18.474  24.465  1.00  0.00     0.005 A 
ATOM     16  C   UNL A   1      32.819  19.230  25.360  1.00  0.00     0.005 A 
ATOM     17  C   UNL A   1      34.532  17.147  24.651  1.00  0.00     0.016 A 
ATOM     18  C   UNL A   1      32.429  17.903  25.565  1.00  0.00     0.016 A 
ATOM     19  C   UNL A   1      33.284  16.868  25.199  1.00  0.00     0.017 A 
ATOM     20  Br  UNL A   1      32.759  15.072  25.460  1.00  0.00    -0.051 Br
ENDBRANCH  13  14
ENDBRANCH   7  13
ENDBRANCH   5   7
ENDBRANCH   4   5
ENDBRANCH   3   4
ENDBRANCH   2   3
ENDBRANCH   1   2
BRANCH   1  21
ATOM     21  C   UNL A   1      42.144  20.567  26.056  1.00  0.00     0.202 C 
BRANCH  21  22
ATOM     22  C   UNL A   1      43.074  21.787  26.064  1.00  0.00     0.261 C 
BRANCH  22  23
ATOM     23  O   UNL A   1      42.854  22.678  24.952  1.00  0.00    -0.460 OA
BRANCH  23  24
ATOM     24  C   UNL A   1      43.583  23.817  24.988  1.00  0.00     0.338 C 
ATOM     25  O   UNL A   1      44.622  24.054  24.379  1.00  0.00    -0.246 OA
BRANCH  24  26
ATOM     26  C   UNL A   1      42.914  24.862  25.783  1.00  0.00     0.060 A 
ATOM     27  C   UNL A   1      43.652  26.010  26.101  1.00  0.00     0.016 A 
ATOM     28  C   UNL A   1      41.660  24.645  26.357  1.00  0.00     0.016 A 
ATOM     29  C   UNL A   1      43.161  26.919  27.037  1.00  0.00     0.010 A 
ATOM     30  C   UNL A   1      41.172  25.555  27.304  1.00  0.00     0.010 A 
ATOM     31  C   UNL A   1      41.939  26.673  27.680  1.00  0.00    -0.014 A 
BRANCH  31  32
ATOM     32  C   UNL A   1      41.541  27.511  28.840  1.00  0.00     0.031 A 
ATOM     33  C   UNL A   1      42.319  27.414  30.125  1.00  0.00     0.074 A 
ATOM     34  C   UNL A   1      40.520  28.380  28.742  1.00  0.00     0.049 A 
ATOM     35  N   UNL A   1      42.140  28.052  31.254  1.00  0.00    -0.248 NA
ATOM     36  C   UNL A   1      43.451  26.474  30.139  1.00  0.00     0.031 C 
ATOM     37  C   UNL A   1      39.706  28.597  27.547  1.00  0.00     0.029 A 
ATOM     38  N   UNL A   1      39.994  29.243  29.671  1.00  0.00    -0.354 N 
ATOM     39  C   UNL A   1      43.130  27.590  32.113  1.00  0.00     0.074 A 
ATOM     40  C   UNL A   1      43.894  26.602  31.381  1.00  0.00     0.031 C 
ATOM     41  C   UNL A   1      38.778  29.530  27.818  1.00  0.00     0.029 A 
ATOM     42  C   UNL A   1      38.917  29.957  29.210  1.00  0.00     0.049 A 
ATOM     43  H   UNL A   1      40.356  29.340  30.582  1.00  0.00     0.167 HD
ATOM     44  C   UNL A   1      43.386  27.959  33.390  1.00  0.00     0.037 A 
ATOM     45  C   UNL A   1      38.125  30.844  29.843  1.00  0.00     0.037 A 
ATOM     46  C   UNL A   1      42.635  28.945  34.123  1.00  0.00     0.049 A 
ATOM     47  C   UNL A   1      38.391  31.191  31.283  1.00  0.00     0.074 A 
ATOM     48  C   UNL A   1      42.842  29.405  35.412  1.00  0.00     0.029 A 
ATOM     49  N   UNL A   1      41.528  29.619  33.631  1.00  0.00    -0.354 N 
ATOM     50  N   UNL A   1      39.348  30.771  32.073  1.00  0.00    -0.248 NA
ATOM     51  C   UNL A   1      37.462  32.138  31.919  1.00  0.00     0.031 C 
ATOM     52  C   UNL A   1      41.838  30.330  35.715  1.00  0.00     0.029 A 
ATOM     53  C   UNL A   1      41.027  30.472  34.601  1.00  0.00     0.049 A 
ATOM     54  H   UNL A   1      41.154  29.507  32.727  1.00  0.00     0.167 HD
ATOM     55  C   UNL A   1      39.152  31.416  33.287  1.00  0.00     0.074 A 
ATOM     56  C   UNL A   1      37.990  32.264  33.128  1.00  0.00     0.031 C 
ATOM     57  C   UNL A   1      39.873  31.316  34.430  1.00  0.00     0.037 A 
BRANCH  44  58
ATOM     58  C   UNL A   1      44.522  27.278  34.091  1.00  0.00     0.057 A 
ATOM     59  C   UNL A   1      45.812  27.820  34.100  1.00  0.00     0.134 A 
ATOM     60  C   UNL A   1      44.311  26.088  34.799  1.00  0.00     0.134 A 
ATOM     61  F   UNL A   1      46.080  28.951  33.431  1.00  0.00    -0.206 F 
ATOM     62  C   UNL A   1      46.860  27.193  34.777  1.00  0.00     0.040 A 
ATOM     63  C   UNL A   1      45.347  25.462  35.495  1.00  0.00     0.040 A 
ATOM     64  F   UNL A   1      43.096  25.521  34.832  1.00  0.00    -0.206 F 
ATOM     65  C   UNL A   1      46.626  26.013  35.482  1.00  0.00     0.006 A 
ENDBRANCH  44  58
BRANCH  45  66
ATOM     66  C   UNL A   1      36.989  31.465  29.121  1.00  0.00     0.057 A 
ATOM     67  C   UNL A   1      37.060  32.784  28.658  1.00  0.00     0.134 A 
ATOM     68  C   UNL A   1      35.800  30.762  28.896  1.00  0.00     0.134 A 
ATOM     69  F   UNL A   1      38.165  33.514  28.870  1.00  0.00    -0.206 F 
ATOM     70  C   UNL A   1      35.984  33.387  28.007  1.00  0.00     0.040 A 
ATOM     71  C   UNL A   1      34.724  31.345  28.227  1.00  0.00     0.040 A 
ATOM     72  F   UNL A   1      35.671  29.497  29.321  1.00  0.00    -0.206 F 
ATOM     73  C   UNL A   1      34.812  32.664  27.785  1.00  0.00     0.006 A 
ENDBRANCH  45  66
BRANCH  57  74
ATOM     74  C   UNL A   1      39.444  32.162  35.591  1.00  0.00     0.057 A 
ATOM     75  C   UNL A   1      39.918  33.469  35.765  1.00  0.00     0.134 A 
ATOM     76  C   UNL A   1      38.517  31.679  36.524  1.00  0.00     0.134 A 
ATOM     77  F   UNL A   1      40.817  33.985  34.913  1.00  0.00    -0.206 F 
ATOM     78  C   UNL A   1      39.497  34.259  36.836  1.00  0.00     0.040 A 
ATOM     79  C   UNL A   1      38.074  32.468  37.586  1.00  0.00     0.040 A 
ATOM     80  F   UNL A   1      38.019  30.439  36.409  1.00  0.00    -0.206 F 
ATOM     81  C   UNL A   1      38.567  33.760  37.747  1.00  0.00     0.006 A 
ENDBRANCH  57  74
ENDBRANCH  31  32
ENDBRANCH  24  26
ENDBRANCH  23  24
ENDBRANCH  22  23
ENDBRANCH  21  22
ENDBRANCH   1  21
TORSDOF 18
ENDMDL
